MODEL 1
REMARK minimizedAffinity -9.80829048
REMARK CNNscore 0.441369742
REMARK CNNaffinity 6.68891525
REMARK  7 active torsions:
REMARK  status: ('A' for Active; 'I' for Inactive)
REMARK    1  A    between atoms: C3_3  and  C4_4 
REMARK    2  A    between atoms: C4_4  and  O1_5 
REMARK    3  A    between atoms: C7_9  and  O3_10 
REMARK    4  A    between atoms: C25_30  and  C26_31 
REMARK    5  A    between atoms: C41_47  and  O7_49 
REMARK    6  A    between atoms: C43_50  and  O8_51 
REMARK    7  A    between atoms: C43_50  and  O9_52 
ROOT
HETATM    1  C1  UNL     1      -7.789  43.435 -25.627  1.00  0.00     0.013 C 
HETATM    2  C2  UNL     1      -8.352  43.214 -27.029  1.00  0.00     0.023 C 
HETATM    3  C3  UNL     1      -8.417  44.543 -27.842  1.00  0.00     0.050 C 
HETATM    4  C5  UNL     1      -9.903  45.046 -27.706  1.00  0.00     0.194 C 
HETATM    5  O2  UNL     1     -10.426  44.118 -26.739  1.00  0.00    -0.371 OA
HETATM    6  C6  UNL     1      -9.819  42.843 -27.021  1.00  0.00     0.167 C 
HETATM    7  C7  UNL     1     -10.406  41.752 -26.116  1.00  0.00     0.226 C 
HETATM    8  C8  UNL     1     -11.824  41.603 -26.529  1.00  0.00    -0.072 C 
HETATM    9  C9  UNL     1     -12.934  41.774 -26.962  1.00  0.00    -0.103 C 
HETATM   10  C10 UNL     1     -14.257  42.235 -27.443  1.00  0.00     0.099 C 
HETATM   11  C11 UNL     1     -14.799  43.332 -26.496  1.00  0.00     0.009 C 
HETATM   12  C12 UNL     1     -16.316  43.127 -26.217  1.00  0.00     0.016 C 
HETATM   13  C13 UNL     1     -16.944  44.138 -25.190  1.00  0.00     0.027 C 
HETATM   14  C14 UNL     1     -16.404  45.567 -25.323  1.00  0.00    -0.036 C 
HETATM   15  C15 UNL     1     -17.163  46.663 -25.185  1.00  0.00     0.057 C 
HETATM   16  C16 UNL     1     -18.581  46.603 -24.808  1.00  0.00     0.154 C 
HETATM   17  O4  UNL     1     -19.190  47.662 -24.675  1.00  0.00    -0.293 OA
HETATM   18  C17 UNL     1     -19.239  45.276 -24.485  1.00  0.00     0.071 C 
HETATM   19  C18 UNL     1     -19.501  45.201 -22.971  1.00  0.00     0.045 C 
HETATM   20  C19 UNL     1     -18.404  44.400 -22.285  1.00  0.00     0.122 C 
HETATM   21  C20 UNL     1     -18.492  42.935 -22.724  1.00  0.00     0.033 C 
HETATM   22  C21 UNL     1     -18.883  42.778 -24.206  1.00  0.00     0.013 C 
HETATM   23  C22 UNL     1     -18.530  44.015 -25.094  1.00  0.00    -0.026 C 
HETATM   24  C23 UNL     1     -19.166  43.795 -26.494  1.00  0.00     0.016 C 
HETATM   25  O5  UNL     1     -18.479  44.481 -20.864  1.00  0.00    -0.384 OA
HETATM   26  C24 UNL     1     -17.987  45.724 -20.331  1.00  0.00     0.190 C 
HETATM   27  C25 UNL     1     -16.467  45.703 -20.029  1.00  0.00     0.121 C 
HETATM   28  C32 UNL     1     -15.625  45.725 -21.254  1.00  0.00    -0.093 C 
HETATM   29  C33 UNL     1     -14.894  45.732 -22.212  1.00  0.00    -0.080 C 
HETATM   30  C34 UNL     1     -13.890  45.741 -23.279  1.00  0.00     0.263 C 
HETATM   31  O6  UNL     1     -14.268  45.014 -24.445  1.00  0.00    -0.363 OA
HETATM   32  C35 UNL     1     -14.906  45.667 -25.572  1.00  0.00     0.094 C 
HETATM   33  C36 UNL     1     -14.201  46.989 -25.900  1.00  0.00     0.044 C 
HETATM   34  C37 UNL     1     -12.800  46.504 -26.296  1.00  0.00     0.012 C 
HETATM   35  C38 UNL     1     -13.028  45.261 -27.198  1.00  0.00     0.037 C 
HETATM   36  C39 UNL     1     -14.552  44.846 -26.904  1.00  0.00     0.003 C 
HETATM   37  C40 UNL     1     -15.488  45.246 -28.086  1.00  0.00     0.019 C 
HETATM   38  C41 UNL     1     -12.460  45.504 -28.663  1.00  0.00     0.117 C 
HETATM   39  C42 UNL     1     -12.693  46.966 -29.150  1.00  0.00     0.052 C 
HETATM   40  C43 UNL     1     -10.885  45.103 -28.944  1.00  0.00     0.218 C 
ENDROOT
BRANCH  27  41
HETATM   41  C26 UNL     1     -16.124  46.876 -19.117  1.00  0.00    -0.040 A 
HETATM   42  C27 UNL     1     -14.928  46.904 -18.375  1.00  0.00     0.008 A 
HETATM   43  C28 UNL     1     -14.612  48.006 -17.581  1.00  0.00     0.001 A 
HETATM   44  C29 UNL     1     -15.479  49.097 -17.521  1.00  0.00     0.000 A 
HETATM   45  C30 UNL     1     -16.671  49.078 -18.241  1.00  0.00     0.001 A 
HETATM   46  C31 UNL     1     -16.997  47.975 -19.031  1.00  0.00     0.008 A 
ENDBRANCH  27  41
BRANCH  38  47
HETATM   47  O7  UNL     1     -13.217  44.671 -29.589  1.00  0.00    -0.384 OA
HETATM   48  H52 UNL     1     -12.924  44.944 -30.480  1.00  0.00     0.210 HD
ENDBRANCH  38  47
BRANCH  40  49
HETATM   49  O8  UNL     1     -10.413  46.000 -29.951  1.00  0.00    -0.361 OA
HETATM   50  H53 UNL     1      -9.433  45.971 -29.927  1.00  0.00     0.213 HD
ENDBRANCH  40  49
BRANCH  40  51
HETATM   51  O9  UNL     1     -10.894  43.828 -29.604  1.00  0.00    -0.361 OA
HETATM   52  H54 UNL     1     -11.827  43.534 -29.576  1.00  0.00     0.213 HD
ENDBRANCH  40  51
BRANCH   7  53
HETATM   53  O3  UNL     1      -9.715  40.524 -26.302  1.00  0.00    -0.381 OA
HETATM   54  H12 UNL     1     -10.294  39.832 -25.933  1.00  0.00     0.211 HD
ENDBRANCH   7  53
BRANCH   3  55
HETATM   55  C4  UNL     1      -7.857  44.348 -29.246  1.00  0.00     0.172 C 
BRANCH  55  56
HETATM   56  O1  UNL     1      -6.834  45.307 -29.487  1.00  0.00    -0.400 OA
HETATM   57  H8  UNL     1      -6.465  45.111 -30.370  1.00  0.00     0.209 HD
ENDBRANCH  55  56
ENDBRANCH   3  55
TORSDOF 7
ENDMDL
MODEL 2
REMARK minimizedAffinity -7.94329882
REMARK CNNscore 0.362335026
REMARK CNNaffinity 6.47141266
REMARK  7 active torsions:
REMARK  status: ('A' for Active; 'I' for Inactive)
REMARK    1  A    between atoms: C3_3  and  C4_4 
REMARK    2  A    between atoms: C4_4  and  O1_5 
REMARK    3  A    between atoms: C7_9  and  O3_10 
REMARK    4  A    between atoms: C25_30  and  C26_31 
REMARK    5  A    between atoms: C41_47  and  O7_49 
REMARK    6  A    between atoms: C43_50  and  O8_51 
REMARK    7  A    between atoms: C43_50  and  O9_52 
ROOT
HETATM    1  C1  UNL     1      -3.816  48.092  -9.181  1.00  0.00     0.013 C 
HETATM    2  C2  UNL     1      -3.619  48.455 -10.652  1.00  0.00     0.023 C 
HETATM    3  C3  UNL     1      -2.631  47.479 -11.361  1.00  0.00     0.050 C 
HETATM    4  C5  UNL     1      -1.239  48.216 -11.357  1.00  0.00     0.194 C 
HETATM    5  O2  UNL     1      -1.529  49.358 -10.532  1.00  0.00    -0.371 OA
HETATM    6  C6  UNL     1      -2.877  49.759 -10.841  1.00  0.00     0.167 C 
HETATM    7  C7  UNL     1      -3.241  51.050 -10.097  1.00  0.00     0.226 C 
HETATM    8  C8  UNL     1      -2.381  52.111 -10.680  1.00  0.00    -0.072 C 
HETATM    9  C9  UNL     1      -1.503  52.728 -11.222  1.00  0.00    -0.103 C 
HETATM   10  C10 UNL     1      -0.268  53.293 -11.815  1.00  0.00     0.099 C 
HETATM   11  C11 UNL     1       0.922  53.059 -10.853  1.00  0.00     0.009 C 
HETATM   12  C12 UNL     1       1.825  54.322 -10.767  1.00  0.00     0.016 C 
HETATM   13  C13 UNL     1       3.014  54.218  -9.742  1.00  0.00     0.027 C 
HETATM   14  C14 UNL     1       3.674  52.835  -9.701  1.00  0.00    -0.036 C 
HETATM   15  C15 UNL     1       4.994  52.646  -9.566  1.00  0.00     0.057 C 
HETATM   16  C16 UNL     1       5.936  53.752  -9.360  1.00  0.00     0.154 C 
HETATM   17  O4  UNL     1       7.125  53.480  -9.215  1.00  0.00    -0.293 OA
HETATM   18  C17 UNL     1       5.435  55.177  -9.218  1.00  0.00     0.071 C 
HETATM   19  C18 UNL     1       5.596  55.622  -7.755  1.00  0.00     0.045 C 
HETATM   20  C19 UNL     1       4.276  55.481  -7.012  1.00  0.00     0.122 C 
HETATM   21  C20 UNL     1       3.266  56.488  -7.571  1.00  0.00     0.033 C 
HETATM   22  C21 UNL     1       3.388  56.672  -9.097  1.00  0.00     0.013 C 
HETATM   23  C22 UNL     1       4.020  55.450  -9.839  1.00  0.00    -0.026 C 
HETATM   24  C23 UNL     1       4.268  55.865 -11.315  1.00  0.00     0.016 C 
HETATM   25  O5  UNL     1       4.419  55.673  -5.607  1.00  0.00    -0.384 OA
HETATM   26  C24 UNL     1       4.991  54.542  -4.926  1.00  0.00     0.190 C 
HETATM   27  C25 UNL     1       3.936  53.511  -4.454  1.00  0.00     0.121 C 
HETATM   28  C32 UNL     1       3.343  52.725  -5.570  1.00  0.00    -0.093 C 
HETATM   29  C33 UNL     1       2.822  52.067  -6.434  1.00  0.00    -0.080 C 
HETATM   30  C34 UNL     1       2.113  51.197  -7.376  1.00  0.00     0.263 C 
HETATM   31  O6  UNL     1       1.820  51.806  -8.630  1.00  0.00    -0.363 OA
HETATM   32  C35 UNL     1       2.707  51.661  -9.768  1.00  0.00     0.094 C 
HETATM   33  C36 UNL     1       3.172  50.206  -9.909  1.00  0.00     0.044 C 
HETATM   34  C37 UNL     1       1.845  49.482 -10.179  1.00  0.00     0.012 C 
HETATM   35  C38 UNL     1       1.082  50.373 -11.195  1.00  0.00     0.037 C 
HETATM   36  C39 UNL     1       1.839  51.788 -11.111  1.00  0.00     0.003 C 
HETATM   37  C40 UNL     1       2.747  52.022 -12.357  1.00  0.00     0.019 C 
HETATM   38  C41 UNL     1       0.832  49.600 -12.563  1.00  0.00     0.117 C 
HETATM   39  C42 UNL     1       2.041  48.699 -12.957  1.00  0.00     0.052 C 
HETATM   40  C43 UNL     1      -0.549  48.710 -12.691  1.00  0.00     0.218 C 
ENDROOT
BRANCH  27  41
HETATM   41  C26 UNL     1       4.569  52.586  -3.421  1.00  0.00    -0.040 A 
HETATM   42  C27 UNL     1       5.154  53.090  -2.244  1.00  0.00     0.008 A 
HETATM   43  C28 UNL     1       5.689  52.224  -1.291  1.00  0.00     0.001 A 
HETATM   44  C29 UNL     1       5.643  50.845  -1.493  1.00  0.00     0.000 A 
HETATM   45  C30 UNL     1       5.076  50.333  -2.658  1.00  0.00     0.001 A 
HETATM   46  C31 UNL     1       4.546  51.194  -3.620  1.00  0.00     0.008 A 
ENDBRANCH  27  41
BRANCH  38  47
HETATM   47  O7  UNL     1       0.730  50.587 -13.631  1.00  0.00    -0.384 OA
HETATM   48  H52 UNL     1       0.706  50.068 -14.458  1.00  0.00     0.210 HD
ENDBRANCH  38  47
BRANCH  40  49
HETATM   49  O8  UNL     1      -0.248  47.620 -13.564  1.00  0.00    -0.361 OA
HETATM   50  H53 UNL     1      -0.944  46.943 -13.430  1.00  0.00     0.213 HD
ENDBRANCH  40  49
BRANCH  40  51
HETATM   51  O9  UNL     1      -1.481  49.500 -13.446  1.00  0.00    -0.361 OA
HETATM   52  H54 UNL     1      -1.050  50.373 -13.547  1.00  0.00     0.213 HD
ENDBRANCH  40  51
BRANCH   7  53
HETATM   53  O3  UNL     1      -4.611  51.372 -10.297  1.00  0.00    -0.381 OA
HETATM   54  H12 UNL     1      -4.705  52.311 -10.052  1.00  0.00     0.211 HD
ENDBRANCH   7  53
BRANCH   3  55
HETATM   55  C4  UNL     1      -3.191  47.020 -12.703  1.00  0.00     0.172 C 
BRANCH  55  56
HETATM   56  O1  UNL     1      -4.042  48.030 -13.232  1.00  0.00    -0.400 OA
HETATM   57  H8  UNL     1      -4.332  47.721 -14.113  1.00  0.00     0.209 HD
ENDBRANCH  55  56
ENDBRANCH   3  55
TORSDOF 7
ENDMDL
MODEL 3
REMARK minimizedAffinity -9.66330242
REMARK CNNscore 0.346880615
REMARK CNNaffinity 6.6561904
REMARK  7 active torsions:
REMARK  status: ('A' for Active; 'I' for Inactive)
REMARK    1  A    between atoms: C3_3  and  C4_4 
REMARK    2  A    between atoms: C4_4  and  O1_5 
REMARK    3  A    between atoms: C7_9  and  O3_10 
REMARK    4  A    between atoms: C25_30  and  C26_31 
REMARK    5  A    between atoms: C41_47  and  O7_49 
REMARK    6  A    between atoms: C43_50  and  O8_51 
REMARK    7  A    between atoms: C43_50  and  O9_52 
ROOT
HETATM    1  C1  UNL     1      -6.202  45.520 -32.425  1.00  0.00     0.013 C 
HETATM    2  C2  UNL     1      -6.512  46.877 -31.797  1.00  0.00     0.023 C 
HETATM    3  C3  UNL     1      -5.808  47.049 -30.417  1.00  0.00     0.050 C 
HETATM    4  C5  UNL     1      -6.901  46.696 -29.340  1.00  0.00     0.194 C 
HETATM    5  O2  UNL     1      -7.968  46.207 -30.174  1.00  0.00    -0.371 OA
HETATM    6  C6  UNL     1      -7.957  47.011 -31.369  1.00  0.00     0.167 C 
HETATM    7  C7  UNL     1      -9.140  46.646 -32.276  1.00  0.00     0.226 C 
HETATM    8  C8  UNL     1     -10.359  47.067 -31.540  1.00  0.00    -0.072 C 
HETATM    9  C9  UNL     1     -11.161  47.374 -30.697  1.00  0.00    -0.103 C 
HETATM   10  C10 UNL     1     -12.008  47.600 -29.503  1.00  0.00     0.099 C 
HETATM   11  C11 UNL     1     -12.176  46.270 -28.729  1.00  0.00     0.009 C 
HETATM   12  C12 UNL     1     -13.644  46.088 -28.247  1.00  0.00     0.016 C 
HETATM   13  C13 UNL     1     -13.940  44.721 -27.527  1.00  0.00     0.027 C 
HETATM   14  C14 UNL     1     -12.800  44.243 -26.620  1.00  0.00    -0.036 C 
HETATM   15  C15 UNL     1     -12.995  43.644 -25.437  1.00  0.00     0.057 C 
HETATM   16  C16 UNL     1     -14.330  43.312 -24.926  1.00  0.00     0.154 C 
HETATM   17  O4  UNL     1     -14.410  42.735 -23.844  1.00  0.00    -0.293 OA
HETATM   18  C17 UNL     1     -15.565  43.574 -25.767  1.00  0.00     0.071 C 
HETATM   19  C18 UNL     1     -16.129  42.232 -26.263  1.00  0.00     0.045 C 
HETATM   20  C19 UNL     1     -15.673  41.962 -27.689  1.00  0.00     0.122 C 
HETATM   21  C20 UNL     1     -16.322  42.980 -28.632  1.00  0.00     0.033 C 
HETATM   22  C21 UNL     1     -16.436  44.385 -28.009  1.00  0.00     0.013 C 
HETATM   23  C22 UNL     1     -15.394  44.669 -26.878  1.00  0.00    -0.026 C 
HETATM   24  C23 UNL     1     -15.767  46.022 -26.214  1.00  0.00     0.016 C 
HETATM   25  O5  UNL     1     -15.985  40.641 -28.120  1.00  0.00    -0.384 OA
HETATM   26  C24 UNL     1     -15.104  39.637 -27.584  1.00  0.00     0.190 C 
HETATM   27  C25 UNL     1     -13.852  39.389 -28.463  1.00  0.00     0.121 C 
HETATM   28  C32 UNL     1     -12.864  40.500 -28.402  1.00  0.00    -0.093 C 
HETATM   29  C33 UNL     1     -12.034  41.373 -28.398  1.00  0.00    -0.080 C 
HETATM   30  C34 UNL     1     -10.942  42.346 -28.486  1.00  0.00     0.263 C 
HETATM   31  O6  UNL     1     -11.366  43.707 -28.436  1.00  0.00    -0.363 OA
HETATM   32  C35 UNL     1     -11.401  44.443 -27.187  1.00  0.00     0.094 C 
HETATM   33  C36 UNL     1     -10.127  44.187 -26.372  1.00  0.00     0.044 C 
HETATM   34  C37 UNL     1      -9.047  44.768 -27.295  1.00  0.00     0.012 C 
HETATM   35  C38 UNL     1      -9.625  46.109 -27.822  1.00  0.00     0.037 C 
HETATM   36  C39 UNL     1     -11.197  46.001 -27.507  1.00  0.00     0.003 C 
HETATM   37  C40 UNL     1     -11.596  46.891 -26.290  1.00  0.00     0.019 C 
HETATM   38  C41 UNL     1      -8.729  47.340 -27.363  1.00  0.00     0.117 C 
HETATM   39  C42 UNL     1      -8.176  47.158 -25.918  1.00  0.00     0.052 C 
HETATM   40  C43 UNL     1      -7.483  47.782 -28.348  1.00  0.00     0.218 C 
ENDROOT
BRANCH  27  41
HETATM   41  C26 UNL     1     -13.207  38.071 -28.051  1.00  0.00    -0.040 A 
HETATM   42  C27 UNL     1     -13.105  36.990 -28.948  1.00  0.00     0.008 A 
HETATM   43  C28 UNL     1     -12.472  35.808 -28.566  1.00  0.00     0.001 A 
HETATM   44  C29 UNL     1     -11.927  35.688 -27.288  1.00  0.00     0.000 A 
HETATM   45  C30 UNL     1     -12.029  36.744 -26.386  1.00  0.00     0.001 A 
HETATM   46  C31 UNL     1     -12.668  37.927 -26.760  1.00  0.00     0.008 A 
ENDBRANCH  27  41
BRANCH  38  47
HETATM   47  O7  UNL     1      -9.578  48.522 -27.299  1.00  0.00    -0.384 OA
HETATM   48  H52 UNL     1      -9.022  49.217 -26.895  1.00  0.00     0.210 HD
ENDBRANCH  38  47
BRANCH  40  49
HETATM   49  O8  UNL     1      -6.467  48.318 -27.500  1.00  0.00    -0.361 OA
HETATM   50  H53 UNL     1      -5.632  48.320 -28.014  1.00  0.00     0.213 HD
ENDBRANCH  40  49
BRANCH  40  51
HETATM   51  O9  UNL     1      -7.933  48.920 -29.099  1.00  0.00    -0.361 OA
HETATM   52  H54 UNL     1      -8.883  49.008 -28.881  1.00  0.00     0.213 HD
ENDBRANCH  40  51
BRANCH   7  53
HETATM   53  O3  UNL     1      -9.055  47.343 -33.511  1.00  0.00    -0.381 OA
HETATM   54  H12 UNL     1      -9.944  47.296 -33.908  1.00  0.00     0.211 HD
ENDBRANCH   7  53
BRANCH   3  55
HETATM   55  C4  UNL     1      -5.127  48.410 -30.321  1.00  0.00     0.172 C 
BRANCH  55  56
HETATM   56  O1  UNL     1      -4.589  48.762 -31.590  1.00  0.00    -0.400 OA
HETATM   57  H8  UNL     1      -4.215  49.661 -31.498  1.00  0.00     0.209 HD
ENDBRANCH  55  56
ENDBRANCH   3  55
TORSDOF 7
ENDMDL
MODEL 4
REMARK minimizedAffinity -8.65367508
REMARK CNNscore 0.345559329
REMARK CNNaffinity 6.65188217
REMARK  7 active torsions:
REMARK  status: ('A' for Active; 'I' for Inactive)
REMARK    1  A    between atoms: C3_3  and  C4_4 
REMARK    2  A    between atoms: C4_4  and  O1_5 
REMARK    3  A    between atoms: C7_9  and  O3_10 
REMARK    4  A    between atoms: C25_30  and  C26_31 
REMARK    5  A    between atoms: C41_47  and  O7_49 
REMARK    6  A    between atoms: C43_50  and  O8_51 
REMARK    7  A    between atoms: C43_50  and  O9_52 
ROOT
HETATM    1  C1  UNL     1      -5.748  44.615 -32.560  1.00  0.00     0.013 C 
HETATM    2  C2  UNL     1      -6.198  46.056 -32.331  1.00  0.00     0.023 C 
HETATM    3  C3  UNL     1      -5.556  46.665 -31.048  1.00  0.00     0.050 C 
HETATM    4  C5  UNL     1      -6.646  46.517 -29.922  1.00  0.00     0.194 C 
HETATM    5  O2  UNL     1      -7.638  45.720 -30.594  1.00  0.00    -0.371 OA
HETATM    6  C6  UNL     1      -7.662  46.163 -31.964  1.00  0.00     0.167 C 
HETATM    7  C7  UNL     1      -8.778  45.453 -32.742  1.00  0.00     0.226 C 
HETATM    8  C8  UNL     1     -10.053  45.941 -32.157  1.00  0.00    -0.072 C 
HETATM    9  C9  UNL     1     -10.905  46.388 -31.436  1.00  0.00    -0.103 C 
HETATM   10  C10 UNL     1     -11.807  46.850 -30.354  1.00  0.00     0.099 C 
HETATM   11  C11 UNL     1     -11.878  45.773 -29.245  1.00  0.00     0.009 C 
HETATM   12  C12 UNL     1     -13.338  45.590 -28.739  1.00  0.00     0.016 C 
HETATM   13  C13 UNL     1     -13.531  44.451 -27.673  1.00  0.00     0.027 C 
HETATM   14  C14 UNL     1     -12.382  44.350 -26.663  1.00  0.00    -0.036 C 
HETATM   15  C15 UNL     1     -12.559  44.082 -25.361  1.00  0.00     0.057 C 
HETATM   16  C16 UNL     1     -13.874  43.776 -24.787  1.00  0.00     0.154 C 
HETATM   17  O4  UNL     1     -13.935  43.513 -23.588  1.00  0.00    -0.293 OA
HETATM   18  C17 UNL     1     -15.101  43.679 -25.673  1.00  0.00     0.071 C 
HETATM   19  C18 UNL     1     -15.526  42.205 -25.784  1.00  0.00     0.045 C 
HETATM   20  C19 UNL     1     -15.002  41.601 -27.078  1.00  0.00     0.122 C 
HETATM   21  C20 UNL     1     -15.711  42.255 -28.269  1.00  0.00     0.033 C 
HETATM   22  C21 UNL     1     -15.971  43.759 -28.057  1.00  0.00     0.013 C 
HETATM   23  C22 UNL     1     -14.995  44.439 -27.042  1.00  0.00    -0.026 C 
HETATM   24  C23 UNL     1     -15.509  45.880 -26.778  1.00  0.00     0.016 C 
HETATM   25  O5  UNL     1     -15.180  40.188 -27.130  1.00  0.00    -0.384 OA
HETATM   26  C24 UNL     1     -14.229  39.458 -26.335  1.00  0.00     0.190 C 
HETATM   27  C25 UNL     1     -12.932  39.100 -27.104  1.00  0.00     0.121 C 
HETATM   28  C32 UNL     1     -12.051  40.274 -27.346  1.00  0.00    -0.093 C 
HETATM   29  C33 UNL     1     -11.304  41.190 -27.578  1.00  0.00    -0.080 C 
HETATM   30  C34 UNL     1     -10.303  42.202 -27.925  1.00  0.00     0.263 C 
HETATM   31  O6  UNL     1     -10.849  43.477 -28.253  1.00  0.00    -0.363 OA
HETATM   32  C35 UNL     1     -10.990  44.520 -27.256  1.00  0.00     0.094 C 
HETATM   33  C36 UNL     1      -9.724  44.620 -26.395  1.00  0.00     0.044 C 
HETATM   34  C37 UNL     1      -8.673  45.026 -27.436  1.00  0.00     0.012 C 
HETATM   35  C38 UNL     1      -9.353  46.110 -28.316  1.00  0.00     0.037 C 
HETATM   36  C39 UNL     1     -10.918  45.944 -27.992  1.00  0.00     0.003 C 
HETATM   37  C40 UNL     1     -11.433  47.090 -27.068  1.00  0.00     0.019 C 
HETATM   38  C41 UNL     1      -8.586  47.500 -28.208  1.00  0.00     0.117 C 
HETATM   39  C42 UNL     1      -8.065  47.774 -26.765  1.00  0.00     0.052 C 
HETATM   40  C43 UNL     1      -7.355  47.772 -29.270  1.00  0.00     0.218 C 
ENDROOT
BRANCH  27  41
HETATM   41  C26 UNL     1     -12.184  38.012 -26.342  1.00  0.00    -0.040 A 
HETATM   42  C27 UNL     1     -10.928  37.545 -26.772  1.00  0.00     0.008 A 
HETATM   43  C28 UNL     1     -10.239  36.580 -26.037  1.00  0.00     0.001 A 
HETATM   44  C29 UNL     1     -10.790  36.074 -24.860  1.00  0.00     0.000 A 
HETATM   45  C30 UNL     1     -12.037  36.519 -24.427  1.00  0.00     0.001 A 
HETATM   46  C31 UNL     1     -12.734  37.478 -25.163  1.00  0.00     0.008 A 
ENDBRANCH  27  41
BRANCH  38  47
HETATM   47  O7  UNL     1      -9.540  48.568 -28.476  1.00  0.00    -0.384 OA
HETATM   48  H52 UNL     1      -9.062  49.396 -28.277  1.00  0.00     0.210 HD
ENDBRANCH  38  47
BRANCH  40  49
HETATM   49  O8  UNL     1      -6.418  48.615 -28.597  1.00  0.00    -0.361 OA
HETATM   50  H53 UNL     1      -5.572  48.556 -29.087  1.00  0.00     0.213 HD
ENDBRANCH  40  49
BRANCH  40  51
HETATM   51  O9  UNL     1      -7.882  48.613 -30.308  1.00  0.00    -0.361 OA
HETATM   52  H54 UNL     1      -8.843  48.666 -30.128  1.00  0.00     0.213 HD
ENDBRANCH  40  51
BRANCH   7  53
HETATM   53  O3  UNL     1      -8.717  45.790 -34.121  1.00  0.00    -0.381 OA
HETATM   54  H12 UNL     1      -9.586  45.551 -34.495  1.00  0.00     0.211 HD
ENDBRANCH   7  53
BRANCH   3  55
HETATM   55  C4  UNL     1      -5.005  48.059 -31.327  1.00  0.00     0.172 C 
BRANCH  55  56
HETATM   56  O1  UNL     1      -4.127  48.008 -32.445  1.00  0.00    -0.400 OA
HETATM   57  H8  UNL     1      -3.844  48.926 -32.624  1.00  0.00     0.209 HD
ENDBRANCH  55  56
ENDBRANCH   3  55
TORSDOF 7
ENDMDL
MODEL 5
REMARK minimizedAffinity -9.16521168
REMARK CNNscore 0.32782796
REMARK CNNaffinity 7.399158
REMARK  7 active torsions:
REMARK  status: ('A' for Active; 'I' for Inactive)
REMARK    1  A    between atoms: C3_3  and  C4_4 
REMARK    2  A    between atoms: C4_4  and  O1_5 
REMARK    3  A    between atoms: C7_9  and  O3_10 
REMARK    4  A    between atoms: C25_30  and  C26_31 
REMARK    5  A    between atoms: C41_47  and  O7_49 
REMARK    6  A    between atoms: C43_50  and  O8_51 
REMARK    7  A    between atoms: C43_50  and  O9_52 
ROOT
HETATM    1  C1  UNL     1      -2.520  48.158 -26.952  1.00  0.00     0.013 C 
HETATM    2  C2  UNL     1      -3.374  49.405 -26.727  1.00  0.00     0.023 C 
HETATM    3  C3  UNL     1      -2.659  50.434 -25.799  1.00  0.00     0.050 C 
HETATM    4  C5  UNL     1      -3.260  50.194 -24.363  1.00  0.00     0.194 C 
HETATM    5  O2  UNL     1      -4.047  49.008 -24.584  1.00  0.00    -0.371 OA
HETATM    6  C6  UNL     1      -4.612  49.129 -25.903  1.00  0.00     0.167 C 
HETATM    7  C7  UNL     1      -5.570  47.965 -26.189  1.00  0.00     0.226 C 
HETATM    8  C8  UNL     1      -6.715  48.146 -25.261  1.00  0.00    -0.072 C 
HETATM    9  C9  UNL     1      -7.432  48.448 -24.343  1.00  0.00    -0.103 C 
HETATM   10  C10 UNL     1      -8.096  48.822 -23.073  1.00  0.00     0.099 C 
HETATM   11  C11 UNL     1      -7.462  48.030 -21.904  1.00  0.00     0.009 C 
HETATM   12  C12 UNL     1      -8.554  47.515 -20.923  1.00  0.00     0.016 C 
HETATM   13  C13 UNL     1      -8.019  46.617 -19.748  1.00  0.00     0.027 C 
HETATM   14  C14 UNL     1      -6.676  47.086 -19.177  1.00  0.00    -0.036 C 
HETATM   15  C15 UNL     1      -6.371  47.052 -17.872  1.00  0.00     0.057 C 
HETATM   16  C16 UNL     1      -7.272  46.481 -16.863  1.00  0.00     0.154 C 
HETATM   17  O4  UNL     1      -6.895  46.466 -15.693  1.00  0.00    -0.293 OA
HETATM   18  C17 UNL     1      -8.578  45.830 -17.273  1.00  0.00     0.071 C 
HETATM   19  C18 UNL     1      -8.459  44.308 -17.091  1.00  0.00     0.045 C 
HETATM   20  C19 UNL     1      -8.141  43.640 -18.421  1.00  0.00     0.122 C 
HETATM   21  C20 UNL     1      -9.340  43.783 -19.363  1.00  0.00     0.033 C 
HETATM   22  C21 UNL     1     -10.051  45.143 -19.223  1.00  0.00     0.013 C 
HETATM   23  C22 UNL     1      -9.140  46.286 -18.666  1.00  0.00    -0.026 C 
HETATM   24  C23 UNL     1     -10.040  47.520 -18.387  1.00  0.00     0.016 C 
HETATM   25  O5  UNL     1      -7.808  42.263 -18.272  1.00  0.00    -0.384 OA
HETATM   26  C24 UNL     1      -6.476  42.042 -17.774  1.00  0.00     0.190 C 
HETATM   27  C25 UNL     1      -5.410  41.951 -18.895  1.00  0.00     0.121 C 
HETATM   28  C32 UNL     1      -5.113  43.262 -19.531  1.00  0.00    -0.093 C 
HETATM   29  C33 UNL     1      -4.841  44.295 -20.088  1.00  0.00    -0.080 C 
HETATM   30  C34 UNL     1      -4.410  45.472 -20.847  1.00  0.00     0.263 C 
HETATM   31  O6  UNL     1      -5.445  46.420 -21.096  1.00  0.00    -0.363 OA
HETATM   32  C35 UNL     1      -5.664  47.551 -20.215  1.00  0.00     0.094 C 
HETATM   33  C36 UNL     1      -4.330  48.212 -19.842  1.00  0.00     0.044 C 
HETATM   34  C37 UNL     1      -3.833  48.698 -21.210  1.00  0.00     0.012 C 
HETATM   35  C38 UNL     1      -5.073  49.313 -21.912  1.00  0.00     0.037 C 
HETATM   36  C39 UNL     1      -6.316  48.743 -21.068  1.00  0.00     0.003 C 
HETATM   37  C40 UNL     1      -6.925  49.839 -20.142  1.00  0.00     0.019 C 
HETATM   38  C41 UNL     1      -4.858  50.862 -22.204  1.00  0.00     0.117 C 
HETATM   39  C42 UNL     1      -4.086  51.575 -21.053  1.00  0.00     0.052 C 
HETATM   40  C43 UNL     1      -4.157  51.275 -23.638  1.00  0.00     0.218 C 
ENDROOT
BRANCH  27  41
HETATM   41  C26 UNL     1      -4.140  41.329 -18.325  1.00  0.00    -0.040 A 
HETATM   42  C27 UNL     1      -4.126  40.012 -17.826  1.00  0.00     0.008 A 
HETATM   43  C28 UNL     1      -2.944  39.446 -17.349  1.00  0.00     0.001 A 
HETATM   44  C29 UNL     1      -1.759  40.181 -17.370  1.00  0.00     0.000 A 
HETATM   45  C30 UNL     1      -1.759  41.489 -17.851  1.00  0.00     0.001 A 
HETATM   46  C31 UNL     1      -2.941  42.063 -18.322  1.00  0.00     0.008 A 
ENDBRANCH  27  41
BRANCH  38  47
HETATM   47  O7  UNL     1      -6.165  51.504 -22.239  1.00  0.00    -0.384 OA
HETATM   48  H52 UNL     1      -5.980  52.462 -22.293  1.00  0.00     0.210 HD
ENDBRANCH  38  47
BRANCH  40  49
HETATM   49  O8  UNL     1      -3.436  52.485 -23.403  1.00  0.00    -0.361 OA
HETATM   50  H53 UNL     1      -2.799  52.590 -24.140  1.00  0.00     0.213 HD
ENDBRANCH  40  49
BRANCH  40  51
HETATM   51  O9  UNL     1      -5.219  51.679 -24.516  1.00  0.00    -0.361 OA
HETATM   52  H54 UNL     1      -6.043  51.470 -24.030  1.00  0.00     0.213 HD
ENDBRANCH  40  51
BRANCH   7  53
HETATM   53  O3  UNL     1      -6.024  48.012 -27.535  1.00  0.00    -0.381 OA
HETATM   54  H12 UNL     1      -6.817  47.445 -27.570  1.00  0.00     0.211 HD
ENDBRANCH   7  53
BRANCH   3  55
HETATM   55  C4  UNL     1      -2.746  51.841 -26.381  1.00  0.00     0.172 C 
BRANCH  55  56
HETATM   56  O1  UNL     1      -2.860  51.763 -27.796  1.00  0.00    -0.400 OA
HETATM   57  H8  UNL     1      -2.971  52.678 -28.122  1.00  0.00     0.209 HD
ENDBRANCH  55  56
ENDBRANCH   3  55
TORSDOF 7
ENDMDL
MODEL 6
REMARK minimizedAffinity -7.78458071
REMARK CNNscore 0.310530007
REMARK CNNaffinity 6.29372215
REMARK  7 active torsions:
REMARK  status: ('A' for Active; 'I' for Inactive)
REMARK    1  A    between atoms: C3_3  and  C4_4 
REMARK    2  A    between atoms: C4_4  and  O1_5 
REMARK    3  A    between atoms: C7_9  and  O3_10 
REMARK    4  A    between atoms: C25_30  and  C26_31 
REMARK    5  A    between atoms: C41_47  and  O7_49 
REMARK    6  A    between atoms: C43_50  and  O8_51 
REMARK    7  A    between atoms: C43_50  and  O9_52 
ROOT
HETATM    1  C1  UNL     1     -12.049  43.559 -26.637  1.00  0.00     0.013 C 
HETATM    2  C2  UNL     1     -11.576  44.915 -27.157  1.00  0.00     0.023 C 
HETATM    3  C3  UNL     1     -12.457  45.419 -28.340  1.00  0.00     0.050 C 
HETATM    4  C5  UNL     1     -11.666  45.036 -29.646  1.00  0.00     0.194 C 
HETATM    5  O2  UNL     1     -10.597  44.240 -29.104  1.00  0.00    -0.371 OA
HETATM    6  C6  UNL     1     -10.232  44.843 -27.848  1.00  0.00     0.167 C 
HETATM    7  C7  UNL     1      -9.012  44.134 -27.243  1.00  0.00     0.226 C 
HETATM    8  C8  UNL     1      -7.879  44.429 -28.155  1.00  0.00    -0.072 C 
HETATM    9  C9  UNL     1      -7.189  44.707 -29.101  1.00  0.00    -0.103 C 
HETATM   10  C10 UNL     1      -6.534  44.949 -30.408  1.00  0.00     0.099 C 
HETATM   11  C11 UNL     1      -6.785  43.743 -31.345  1.00  0.00     0.009 C 
HETATM   12  C12 UNL     1      -5.494  43.368 -32.128  1.00  0.00     0.016 C 
HETATM   13  C13 UNL     1      -5.620  42.094 -33.041  1.00  0.00     0.027 C 
HETATM   14  C14 UNL     1      -6.975  41.975 -33.750  1.00  0.00    -0.036 C 
HETATM   15  C15 UNL     1      -7.118  41.536 -35.008  1.00  0.00     0.057 C 
HETATM   16  C16 UNL     1      -5.991  41.044 -35.810  1.00  0.00     0.154 C 
HETATM   17  O4  UNL     1      -6.223  40.632 -36.944  1.00  0.00    -0.293 OA
HETATM   18  C17 UNL     1      -4.602  40.945 -35.209  1.00  0.00     0.071 C 
HETATM   19  C18 UNL     1      -4.254  39.463 -34.991  1.00  0.00     0.045 C 
HETATM   20  C19 UNL     1      -4.502  39.071 -33.541  1.00  0.00     0.122 C 
HETATM   21  C20 UNL     1      -3.501  39.798 -32.638  1.00  0.00     0.033 C 
HETATM   22  C21 UNL     1      -3.205  41.235 -33.110  1.00  0.00     0.013 C 
HETATM   23  C22 UNL     1      -4.344  41.873 -33.970  1.00  0.00    -0.026 C 
HETATM   24  C23 UNL     1      -3.817  43.218 -34.538  1.00  0.00     0.016 C 
HETATM   25  O5  UNL     1      -4.403  37.665 -33.334  1.00  0.00    -0.384 OA
HETATM   26  C24 UNL     1      -5.555  36.933 -33.791  1.00  0.00     0.190 C 
HETATM   27  C25 UNL     1      -6.659  36.791 -32.714  1.00  0.00     0.121 C 
HETATM   28  C32 UNL     1      -7.388  38.060 -32.450  1.00  0.00    -0.093 C 
HETATM   29  C33 UNL     1      -8.004  39.062 -32.190  1.00  0.00    -0.080 C 
HETATM   30  C34 UNL     1      -8.836  40.195 -31.776  1.00  0.00     0.263 C 
HETATM   31  O6  UNL     1      -8.152  41.446 -31.757  1.00  0.00    -0.363 OA
HETATM   32  C35 UNL     1      -8.180  42.342 -32.896  1.00  0.00     0.094 C 
HETATM   33  C36 UNL     1      -9.602  42.451 -33.464  1.00  0.00     0.044 C 
HETATM   34  C37 UNL     1     -10.359  43.075 -32.283  1.00  0.00     0.012 C 
HETATM   35  C38 UNL     1      -9.431  44.192 -31.735  1.00  0.00     0.037 C 
HETATM   36  C39 UNL     1      -7.995  43.846 -32.368  1.00  0.00     0.003 C 
HETATM   37  C40 UNL     1      -7.637  44.819 -33.532  1.00  0.00     0.019 C 
HETATM   38  C41 UNL     1     -10.115  45.622 -31.863  1.00  0.00     0.117 C 
HETATM   39  C42 UNL     1     -10.936  45.764 -33.180  1.00  0.00     0.052 C 
HETATM   40  C43 UNL     1     -11.051  46.133 -30.606  1.00  0.00     0.218 C 
ENDROOT
BRANCH  27  41
HETATM   41  C26 UNL     1      -7.627  35.691 -33.134  1.00  0.00    -0.040 A 
HETATM   42  C27 UNL     1      -8.760  35.374 -32.361  1.00  0.00     0.008 A 
HETATM   43  C28 UNL     1      -9.657  34.394 -32.785  1.00  0.00     0.001 A 
HETATM   44  C29 UNL     1      -9.442  33.722 -33.987  1.00  0.00     0.000 A 
HETATM   45  C30 UNL     1      -8.319  34.017 -34.758  1.00  0.00     0.001 A 
HETATM   46  C31 UNL     1      -7.414  34.991 -34.335  1.00  0.00     0.008 A 
ENDBRANCH  27  41
BRANCH  38  47
HETATM   47  O7  UNL     1      -9.062  46.624 -31.963  1.00  0.00    -0.384 OA
HETATM   48  H52 UNL     1      -9.522  47.462 -32.166  1.00  0.00     0.210 HD
ENDBRANCH  38  47
BRANCH  40  49
HETATM   49  O8  UNL     1     -12.064  46.969 -31.168  1.00  0.00    -0.361 OA
HETATM   50  H53 UNL     1     -12.777  47.047 -30.500  1.00  0.00     0.213 HD
ENDBRANCH  40  49
BRANCH  40  51
HETATM   51  O9  UNL     1     -10.250  47.043 -29.837  1.00  0.00    -0.361 OA
HETATM   52  H54 UNL     1      -9.354  46.986 -30.229  1.00  0.00     0.213 HD
ENDBRANCH  40  51
BRANCH   7  53
HETATM   53  O3  UNL     1      -8.734  44.641 -25.944  1.00  0.00    -0.381 OA
HETATM   54  H12 UNL     1      -7.819  44.372 -25.742  1.00  0.00     0.211 HD
ENDBRANCH   7  53
BRANCH   3  55
HETATM   55  C4  UNL     1     -12.844  46.881 -28.144  1.00  0.00     0.172 C 
BRANCH  55  56
HETATM   56  O1  UNL     1     -13.939  46.965 -27.240  1.00  0.00    -0.400 OA
HETATM   57  H8  UNL     1     -14.116  47.916 -27.099  1.00  0.00     0.209 HD
ENDBRANCH  55  56
ENDBRANCH   3  55
TORSDOF 7
ENDMDL
MODEL 7
REMARK minimizedAffinity -8.93424129
REMARK CNNscore 0.306328684
REMARK CNNaffinity 6.04270887
REMARK  7 active torsions:
REMARK  status: ('A' for Active; 'I' for Inactive)
REMARK    1  A    between atoms: C3_3  and  C4_4 
REMARK    2  A    between atoms: C4_4  and  O1_5 
REMARK    3  A    between atoms: C7_9  and  O3_10 
REMARK    4  A    between atoms: C25_30  and  C26_31 
REMARK    5  A    between atoms: C41_47  and  O7_49 
REMARK    6  A    between atoms: C43_50  and  O8_51 
REMARK    7  A    between atoms: C43_50  and  O9_52 
ROOT
HETATM    1  C1  UNL     1      -9.552  46.340 -32.278  1.00  0.00     0.013 C 
HETATM    2  C2  UNL     1      -8.655  46.495 -31.051  1.00  0.00     0.023 C 
HETATM    3  C3  UNL     1      -8.056  45.129 -30.597  1.00  0.00     0.050 C 
HETATM    4  C5  UNL     1      -8.981  44.635 -29.422  1.00  0.00     0.194 C 
HETATM    5  O2  UNL     1     -10.039  45.609 -29.469  1.00  0.00    -0.371 OA
HETATM    6  C6  UNL     1      -9.425  46.868 -29.804  1.00  0.00     0.167 C 
HETATM    7  C7  UNL     1     -10.458  48.002 -29.760  1.00  0.00     0.226 C 
HETATM    8  C8  UNL     1     -10.855  48.134 -28.336  1.00  0.00    -0.072 C 
HETATM    9  C9  UNL     1     -11.084  47.945 -27.170  1.00  0.00    -0.103 C 
HETATM   10  C10 UNL     1     -11.398  47.463 -25.804  1.00  0.00     0.099 C 
HETATM   11  C11 UNL     1     -12.534  46.414 -25.874  1.00  0.00     0.009 C 
HETATM   12  C12 UNL     1     -13.566  46.635 -24.731  1.00  0.00     0.016 C 
HETATM   13  C13 UNL     1     -14.811  45.675 -24.768  1.00  0.00     0.027 C 
HETATM   14  C14 UNL     1     -14.471  44.240 -25.188  1.00  0.00    -0.036 C 
HETATM   15  C15 UNL     1     -15.036  43.153 -24.645  1.00  0.00     0.057 C 
HETATM   16  C16 UNL     1     -16.105  43.233 -23.642  1.00  0.00     0.154 C 
HETATM   17  O4  UNL     1     -16.585  42.183 -23.222  1.00  0.00    -0.293 OA
HETATM   18  C17 UNL     1     -16.673  44.576 -23.224  1.00  0.00     0.071 C 
HETATM   19  C18 UNL     1     -18.090  44.724 -23.803  1.00  0.00     0.045 C 
HETATM   20  C19 UNL     1     -18.056  45.555 -25.078  1.00  0.00     0.122 C 
HETATM   21  C20 UNL     1     -17.671  46.997 -24.735  1.00  0.00     0.033 C 
HETATM   22  C21 UNL     1     -16.617  47.084 -23.614  1.00  0.00     0.013 C 
HETATM   23  C22 UNL     1     -15.729  45.805 -23.472  1.00  0.00    -0.026 C 
HETATM   24  C23 UNL     1     -14.873  45.958 -22.185  1.00  0.00     0.016 C 
HETATM   25  O5  UNL     1     -19.302  45.541 -25.769  1.00  0.00    -0.384 OA
HETATM   26  C24 UNL     1     -19.543  44.324 -26.499  1.00  0.00     0.190 C 
HETATM   27  C25 UNL     1     -18.992  44.357 -27.946  1.00  0.00     0.121 C 
HETATM   28  C32 UNL     1     -17.508  44.275 -28.011  1.00  0.00    -0.093 C 
HETATM   29  C33 UNL     1     -16.310  44.222 -28.122  1.00  0.00    -0.080 C 
HETATM   30  C34 UNL     1     -14.874  44.159 -28.407  1.00  0.00     0.263 C 
HETATM   31  O6  UNL     1     -14.057  44.831 -27.452  1.00  0.00    -0.363 OA
HETATM   32  C35 UNL     1     -13.469  44.126 -26.329  1.00  0.00     0.094 C 
HETATM   33  C36 UNL     1     -12.872  42.788 -26.784  1.00  0.00     0.044 C 
HETATM   34  C37 UNL     1     -11.773  43.251 -27.749  1.00  0.00     0.012 C 
HETATM   35  C38 UNL     1     -11.079  44.450 -27.048  1.00  0.00     0.037 C 
HETATM   36  C39 UNL     1     -12.119  44.882 -25.902  1.00  0.00     0.003 C 
HETATM   37  C40 UNL     1     -11.633  44.427 -24.492  1.00  0.00     0.019 C 
HETATM   38  C41 UNL     1      -9.547  44.137 -26.759  1.00  0.00     0.117 C 
HETATM   39  C42 UNL     1      -9.319  42.654 -26.338  1.00  0.00     0.052 C 
HETATM   40  C43 UNL     1      -8.457  44.521 -27.935  1.00  0.00     0.218 C 
ENDROOT
BRANCH  27  41
HETATM   41  C26 UNL     1     -19.629  43.229 -28.749  1.00  0.00    -0.040 A 
HETATM   42  C27 UNL     1     -20.434  42.252 -28.132  1.00  0.00     0.008 A 
HETATM   43  C28 UNL     1     -21.043  41.253 -28.889  1.00  0.00     0.001 A 
HETATM   44  C29 UNL     1     -20.866  41.217 -30.272  1.00  0.00     0.000 A 
HETATM   45  C30 UNL     1     -20.064  42.171 -30.895  1.00  0.00     0.001 A 
HETATM   46  C31 UNL     1     -19.445  43.168 -30.141  1.00  0.00     0.008 A 
ENDBRANCH  27  41
BRANCH  38  47
HETATM   47  O7  UNL     1      -9.131  44.926 -25.606  1.00  0.00    -0.384 OA
HETATM   48  H52 UNL     1      -8.232  44.610 -25.389  1.00  0.00     0.210 HD
ENDBRANCH  38  47
BRANCH  40  49
HETATM   49  O8  UNL     1      -7.391  43.576 -27.822  1.00  0.00    -0.361 OA
HETATM   50  H53 UNL     1      -6.890  43.605 -28.664  1.00  0.00     0.213 HD
ENDBRANCH  40  49
BRANCH  40  51
HETATM   51  O9  UNL     1      -7.850  45.763 -27.547  1.00  0.00    -0.361 OA
HETATM   52  H54 UNL     1      -8.357  46.059 -26.764  1.00  0.00     0.213 HD
ENDBRANCH  40  51
BRANCH   7  53
HETATM   53  O3  UNL     1      -9.883  49.219 -30.218  1.00  0.00    -0.381 OA
HETATM   54  H12 UNL     1     -10.474  49.929 -29.906  1.00  0.00     0.211 HD
ENDBRANCH   7  53
BRANCH   3  55
HETATM   55  C4  UNL     1      -6.562  45.256 -30.323  1.00  0.00     0.172 C 
BRANCH  55  56
HETATM   56  O1  UNL     1      -5.840  45.076 -31.535  1.00  0.00    -0.400 OA
HETATM   57  H8  UNL     1      -4.896  45.221 -31.325  1.00  0.00     0.209 HD
ENDBRANCH  55  56
ENDBRANCH   3  55
TORSDOF 7
ENDMDL
MODEL 8
REMARK minimizedAffinity -8.9928627
REMARK CNNscore 0.294624925
REMARK CNNaffinity 6.24489927
REMARK  7 active torsions:
REMARK  status: ('A' for Active; 'I' for Inactive)
REMARK    1  A    between atoms: C3_3  and  C4_4 
REMARK    2  A    between atoms: C4_4  and  O1_5 
REMARK    3  A    between atoms: C7_9  and  O3_10 
REMARK    4  A    between atoms: C25_30  and  C26_31 
REMARK    5  A    between atoms: C41_47  and  O7_49 
REMARK    6  A    between atoms: C43_50  and  O8_51 
REMARK    7  A    between atoms: C43_50  and  O9_52 
ROOT
HETATM    1  C1  UNL     1       0.954  55.644   0.560  1.00  0.00     0.013 C 
HETATM    2  C2  UNL     1       2.315  56.338   0.544  1.00  0.00     0.023 C 
HETATM    3  C3  UNL     1       2.188  57.850   0.189  1.00  0.00     0.050 C 
HETATM    4  C5  UNL     1       2.513  57.950  -1.348  1.00  0.00     0.194 C 
HETATM    5  O2  UNL     1       2.589  56.558  -1.709  1.00  0.00    -0.371 OA
HETATM    6  C6  UNL     1       3.197  55.877  -0.596  1.00  0.00     0.167 C 
HETATM    7  C7  UNL     1       3.434  54.398  -0.931  1.00  0.00     0.226 C 
HETATM    8  C8  UNL     1       4.465  54.386  -1.999  1.00  0.00    -0.072 C 
HETATM    9  C9  UNL     1       5.191  54.661  -2.918  1.00  0.00    -0.103 C 
HETATM   10  C10 UNL     1       5.893  55.157  -4.125  1.00  0.00     0.099 C 
HETATM   11  C11 UNL     1       4.889  55.275  -5.296  1.00  0.00     0.009 C 
HETATM   12  C12 UNL     1       5.515  54.752  -6.621  1.00  0.00     0.016 C 
HETATM   13  C13 UNL     1       4.541  54.743  -7.855  1.00  0.00     0.027 C 
HETATM   14  C14 UNL     1       3.604  55.956  -7.910  1.00  0.00    -0.036 C 
HETATM   15  C15 UNL     1       3.264  56.581  -9.046  1.00  0.00     0.057 C 
HETATM   16  C16 UNL     1       3.696  56.113 -10.368  1.00  0.00     0.154 C 
HETATM   17  O4  UNL     1       3.311  56.733 -11.356  1.00  0.00    -0.293 OA
HETATM   18  C17 UNL     1       4.501  54.835 -10.510  1.00  0.00     0.071 C 
HETATM   19  C18 UNL     1       3.609  53.747 -11.131  1.00  0.00     0.045 C 
HETATM   20  C19 UNL     1       3.056  52.836 -10.045  1.00  0.00     0.122 C 
HETATM   21  C20 UNL     1       4.201  52.031  -9.422  1.00  0.00     0.033 C 
HETATM   22  C21 UNL     1       5.502  52.847  -9.290  1.00  0.00     0.013 C 
HETATM   23  C22 UNL     1       5.281  54.393  -9.222  1.00  0.00    -0.026 C 
HETATM   24  C23 UNL     1       6.673  55.077  -9.303  1.00  0.00     0.016 C 
HETATM   25  O5  UNL     1       2.057  51.947 -10.538  1.00  0.00    -0.384 OA
HETATM   26  C24 UNL     1       0.778  52.576 -10.746  1.00  0.00     0.190 C 
HETATM   27  C25 UNL     1      -0.130  52.547  -9.491  1.00  0.00     0.121 C 
HETATM   28  C32 UNL     1       0.319  53.478  -8.421  1.00  0.00    -0.093 C 
HETATM   29  C33 UNL     1       0.642  54.207  -7.518  1.00  0.00    -0.080 C 
HETATM   30  C34 UNL     1       0.911  55.044  -6.345  1.00  0.00     0.263 C 
HETATM   31  O6  UNL     1       2.296  55.230  -6.065  1.00  0.00    -0.363 OA
HETATM   32  C35 UNL     1       3.023  56.379  -6.568  1.00  0.00     0.094 C 
HETATM   33  C36 UNL     1       2.202  57.662  -6.382  1.00  0.00     0.044 C 
HETATM   34  C37 UNL     1       2.089  57.738  -4.853  1.00  0.00     0.012 C 
HETATM   35  C38 UNL     1       3.500  57.386  -4.311  1.00  0.00     0.037 C 
HETATM   36  C39 UNL     1       4.234  56.696  -5.564  1.00  0.00     0.003 C 
HETATM   37  C40 UNL     1       5.276  57.658  -6.213  1.00  0.00     0.019 C 
HETATM   38  C41 UNL     1       4.124  58.605  -3.502  1.00  0.00     0.117 C 
HETATM   39  C42 UNL     1       3.776  59.980  -4.148  1.00  0.00     0.052 C 
HETATM   40  C43 UNL     1       3.803  58.689  -1.887  1.00  0.00     0.218 C 
ENDROOT
BRANCH  27  41
HETATM   41  C26 UNL     1      -1.564  52.855  -9.907  1.00  0.00    -0.040 A 
HETATM   42  C27 UNL     1      -1.993  54.175 -10.146  1.00  0.00     0.008 A 
HETATM   43  C28 UNL     1      -3.297  54.432 -10.568  1.00  0.00     0.001 A 
HETATM   44  C29 UNL     1      -4.189  53.378 -10.764  1.00  0.00     0.000 A 
HETATM   45  C30 UNL     1      -3.782  52.068 -10.521  1.00  0.00     0.001 A 
HETATM   46  C31 UNL     1      -2.481  51.805 -10.091  1.00  0.00     0.008 A 
ENDBRANCH  27  41
BRANCH  38  47
HETATM   47  O7  UNL     1       5.576  58.507  -3.579  1.00  0.00    -0.384 OA
HETATM   48  H52 UNL     1       5.911  59.334  -3.182  1.00  0.00     0.210 HD
ENDBRANCH  38  47
BRANCH  40  49
HETATM   49  O8  UNL     1       3.795  60.076  -1.547  1.00  0.00    -0.361 OA
HETATM   50  H53 UNL     1       3.337  60.160  -0.685  1.00  0.00     0.213 HD
ENDBRANCH  40  49
BRANCH  40  51
HETATM   51  O9  UNL     1       4.961  58.181  -1.207  1.00  0.00    -0.361 OA
HETATM   52  H54 UNL     1       5.537  57.829  -1.917  1.00  0.00     0.213 HD
ENDBRANCH  40  51
BRANCH   7  53
HETATM   53  O3  UNL     1       3.909  53.698   0.211  1.00  0.00    -0.381 OA
HETATM   54  H12 UNL     1       4.300  52.870  -0.126  1.00  0.00     0.211 HD
ENDBRANCH   7  53
BRANCH   3  55
HETATM   55  C4  UNL     1       3.011  58.703   1.147  1.00  0.00     0.172 C 
BRANCH  55  56
HETATM   56  O1  UNL     1       2.528  60.041   1.126  1.00  0.00    -0.400 OA
HETATM   57  H8  UNL     1       3.043  60.538   1.793  1.00  0.00     0.209 HD
ENDBRANCH  55  56
ENDBRANCH   3  55
TORSDOF 7
ENDMDL
MODEL 9
REMARK minimizedAffinity -8.64120483
REMARK CNNscore 0.275421858
REMARK CNNaffinity 6.78024626
REMARK  7 active torsions:
REMARK  status: ('A' for Active; 'I' for Inactive)
REMARK    1  A    between atoms: C3_3  and  C4_4 
REMARK    2  A    between atoms: C4_4  and  O1_5 
REMARK    3  A    between atoms: C7_9  and  O3_10 
REMARK    4  A    between atoms: C25_30  and  C26_31 
REMARK    5  A    between atoms: C41_47  and  O7_49 
REMARK    6  A    between atoms: C43_50  and  O8_51 
REMARK    7  A    between atoms: C43_50  and  O9_52 
ROOT
HETATM    1  C1  UNL     1      -9.804  45.948 -13.885  1.00  0.00     0.013 C 
HETATM    2  C2  UNL     1     -10.285  45.242 -15.152  1.00  0.00     0.023 C 
HETATM    3  C3  UNL     1      -9.627  43.839 -15.315  1.00  0.00     0.050 C 
HETATM    4  C5  UNL     1      -8.427  44.051 -16.313  1.00  0.00     0.194 C 
HETATM    5  O2  UNL     1      -8.418  45.485 -16.439  1.00  0.00    -0.371 OA
HETATM    6  C6  UNL     1      -9.794  45.908 -16.418  1.00  0.00     0.167 C 
HETATM    7  C7  UNL     1      -9.899  47.419 -16.669  1.00  0.00     0.226 C 
HETATM    8  C8  UNL     1      -9.453  47.628 -18.070  1.00  0.00    -0.072 C 
HETATM    9  C9  UNL     1      -8.941  47.531 -19.154  1.00  0.00    -0.103 C 
HETATM   10  C10 UNL     1      -8.124  47.279 -20.365  1.00  0.00     0.099 C 
HETATM   11  C11 UNL     1      -6.624  47.427 -20.018  1.00  0.00     0.009 C 
HETATM   12  C12 UNL     1      -5.867  48.198 -21.138  1.00  0.00     0.016 C 
HETATM   13  C13 UNL     1      -4.350  48.483 -20.837  1.00  0.00     0.027 C 
HETATM   14  C14 UNL     1      -3.636  47.329 -20.123  1.00  0.00    -0.036 C 
HETATM   15  C15 UNL     1      -2.375  46.959 -20.388  1.00  0.00     0.057 C 
HETATM   16  C16 UNL     1      -1.521  47.680 -21.339  1.00  0.00     0.154 C 
HETATM   17  O4  UNL     1      -0.367  47.285 -21.496  1.00  0.00    -0.293 OA
HETATM   18  C17 UNL     1      -2.016  48.941 -22.021  1.00  0.00     0.071 C 
HETATM   19  C18 UNL     1      -1.277  50.154 -21.431  1.00  0.00     0.045 C 
HETATM   20  C19 UNL     1      -2.136  50.834 -20.376  1.00  0.00     0.122 C 
HETATM   21  C20 UNL     1      -3.360  51.467 -21.046  1.00  0.00     0.033 C 
HETATM   22  C21 UNL     1      -3.918  50.612 -22.200  1.00  0.00     0.013 C 
HETATM   23  C22 UNL     1      -3.577  49.090 -22.091  1.00  0.00    -0.026 C 
HETATM   24  C23 UNL     1      -4.018  48.406 -23.414  1.00  0.00     0.016 C 
HETATM   25  O5  UNL     1      -1.420  51.827 -19.648  1.00  0.00    -0.384 OA
HETATM   26  C24 UNL     1      -0.528  51.284 -18.657  1.00  0.00     0.190 C 
HETATM   27  C25 UNL     1      -1.200  51.073 -17.277  1.00  0.00     0.121 C 
HETATM   28  C32 UNL     1      -2.154  49.932 -17.257  1.00  0.00    -0.093 C 
HETATM   29  C33 UNL     1      -2.944  49.026 -17.186  1.00  0.00    -0.080 C 
HETATM   30  C34 UNL     1      -3.922  47.960 -16.953  1.00  0.00     0.263 C 
HETATM   31  O6  UNL     1      -4.769  47.689 -18.067  1.00  0.00    -0.363 OA
HETATM   32  C35 UNL     1      -4.448  46.651 -19.028  1.00  0.00     0.094 C 
HETATM   33  C36 UNL     1      -3.982  45.377 -18.313  1.00  0.00     0.044 C 
HETATM   34  C37 UNL     1      -5.238  44.990 -17.520  1.00  0.00     0.012 C 
HETATM   35  C38 UNL     1      -6.427  45.191 -18.498  1.00  0.00     0.037 C 
HETATM   36  C39 UNL     1      -5.815  46.107 -19.667  1.00  0.00     0.003 C 
HETATM   37  C40 UNL     1      -5.549  45.277 -20.960  1.00  0.00     0.019 C 
HETATM   38  C41 UNL     1      -7.181  43.818 -18.774  1.00  0.00     0.117 C 
HETATM   39  C42 UNL     1      -6.195  42.614 -18.863  1.00  0.00     0.052 C 
HETATM   40  C43 UNL     1      -8.414  43.410 -17.758  1.00  0.00     0.218 C 
ENDROOT
BRANCH  27  41
HETATM   41  C26 UNL     1      -0.118  50.890 -16.219  1.00  0.00    -0.040 A 
HETATM   42  C27 UNL     1      -0.267  49.966 -15.167  1.00  0.00     0.008 A 
HETATM   43  C28 UNL     1       0.753  49.782 -14.234  1.00  0.00     0.001 A 
HETATM   44  C29 UNL     1       1.937  50.510 -14.339  1.00  0.00     0.000 A 
HETATM   45  C30 UNL     1       2.095  51.436 -15.368  1.00  0.00     0.001 A 
HETATM   46  C31 UNL     1       1.075  51.630 -16.301  1.00  0.00     0.008 A 
ENDBRANCH  27  41
BRANCH  38  47
HETATM   47  O7  UNL     1      -7.804  43.897 -20.089  1.00  0.00    -0.384 OA
HETATM   48  H52 UNL     1      -8.143  42.998 -20.267  1.00  0.00     0.210 HD
ENDBRANCH  38  47
BRANCH  40  49
HETATM   49  O8  UNL     1      -8.437  41.983 -17.701  1.00  0.00    -0.361 OA
HETATM   50  H53 UNL     1      -8.955  41.733 -16.908  1.00  0.00     0.213 HD
ENDBRANCH  40  49
BRANCH  40  51
HETATM   51  O9  UNL     1      -9.635  43.741 -18.436  1.00  0.00    -0.361 OA
HETATM   52  H54 UNL     1      -9.356  44.218 -19.244  1.00  0.00     0.213 HD
ENDBRANCH  40  51
BRANCH   7  53
HETATM   53  O3  UNL     1     -11.242  47.858 -16.517  1.00  0.00    -0.381 OA
HETATM   54  H12 UNL     1     -11.291  48.728 -16.954  1.00  0.00     0.211 HD
ENDBRANCH   7  53
BRANCH   3  55
HETATM   55  C4  UNL     1     -10.672  42.788 -15.672  1.00  0.00     0.172 C 
BRANCH  55  56
HETATM   56  O1  UNL     1     -11.761  43.410 -16.344  1.00  0.00    -0.400 OA
HETATM   57  H8  UNL     1     -12.377  42.698 -16.604  1.00  0.00     0.209 HD
ENDBRANCH  55  56
ENDBRANCH   3  55
TORSDOF 7
ENDMDL
