MODEL 1
REMARK minimizedAffinity -6.22025824
REMARK CNNscore 0.684177399
REMARK CNNaffinity 6.81784201
REMARK  6 active torsions:
REMARK  status: ('A' for Active; 'I' for Inactive)
REMARK    1  A    between atoms: C2_2  and  C3_3 
REMARK    2  A    between atoms: C2_2  and  C9_10 
REMARK    3  A    between atoms: C3_3  and  C4_4 
REMARK    4  A    between atoms: C4_4  and  C5_5 
REMARK    5  A    between atoms: C17_18  and  C18_19 
REMARK    6  A    between atoms: C18_19  and  O2_22 
ROOT
HETATM    1  C9  UNL     1     -14.381 -11.955  27.310  1.00  0.00    -0.002 C 
HETATM    2  C10 UNL     1     -15.922 -11.759  27.154  1.00  0.00     0.006 C 
HETATM    3  C11 UNL     1     -16.303 -10.485  27.947  1.00  0.00     0.011 C 
HETATM    4  C12 UNL     1     -15.076 -10.205  28.832  1.00  0.00    -0.032 C 
HETATM    5  C13 UNL     1     -15.201 -11.190  30.044  1.00  0.00     0.016 C 
HETATM    6  C14 UNL     1     -14.909  -8.733  29.317  1.00  0.00     0.003 C 
HETATM    7  C15 UNL     1     -16.088  -8.160  30.122  1.00  0.00     0.009 C 
HETATM    8  C16 UNL     1     -15.715  -6.937  30.965  1.00  0.00     0.042 C 
HETATM    9  C17 UNL     1     -14.593  -5.994  30.424  1.00  0.00     0.095 C 
HETATM   10  O3  UNL     1     -14.253  -5.229  31.604  1.00  0.00    -0.377 OA
HETATM   11  C21 UNL     1     -13.123  -4.373  31.572  1.00  0.00     0.169 C 
HETATM   12  C22 UNL     1     -11.938  -4.905  30.787  1.00  0.00     0.027 C 
HETATM   13  C23 UNL     1     -12.014  -6.407  30.618  1.00  0.00     0.010 C 
HETATM   14  C24 UNL     1     -13.343  -6.854  29.964  1.00  0.00     0.032 C 
HETATM   15  C25 UNL     1     -13.529  -8.441  30.008  1.00  0.00    -0.033 C 
HETATM   16  C26 UNL     1     -13.479  -8.982  31.469  1.00  0.00     0.016 C 
HETATM   17  C27 UNL     1     -12.339  -9.098  29.214  1.00  0.00     0.011 C 
HETATM   18  C28 UNL     1     -12.583 -10.501  28.619  1.00  0.00     0.011 C 
HETATM   19  C29 UNL     1     -13.903 -10.563  27.829  1.00  0.00    -0.032 C 
HETATM   20  C30 UNL     1     -13.770  -9.591  26.617  1.00  0.00     0.016 C 
ENDROOT
BRANCH   1  21
HETATM   21  C2  UNL     1     -13.712 -12.705  26.115  1.00  0.00    -0.014 C 
HETATM   22  C1  UNL     1     -14.176 -12.302  24.710  1.00  0.00     0.010 C 
BRANCH  21  23
HETATM   23  C3  UNL     1     -12.170 -12.675  26.232  1.00  0.00     0.007 C 
BRANCH  23  24
HETATM   24  C4  UNL     1     -11.575 -13.603  27.300  1.00  0.00     0.035 C 
BRANCH  24  25
HETATM   25  C5  UNL     1     -10.600 -14.602  26.760  1.00  0.00     0.156 A 
HETATM   26  O1  UNL     1     -10.289 -14.402  25.368  1.00  0.00    -0.370 OA
HETATM   27  C6  UNL     1      -9.194 -14.257  26.278  1.00  0.00     0.080 A 
HETATM   28  C7  UNL     1      -8.654 -12.863  26.352  1.00  0.00     0.048 C 
HETATM   29  C8  UNL     1      -8.183 -15.358  26.191  1.00  0.00     0.048 C 
ENDBRANCH  24  25
ENDBRANCH  23  24
ENDBRANCH  21  23
ENDBRANCH   1  21
BRANCH   9  30
HETATM   30  C18 UNL     1     -15.207  -5.036  29.279  1.00  0.00     0.082 C 
HETATM   31  C19 UNL     1     -14.645  -5.366  27.877  1.00  0.00     0.049 C 
HETATM   32  C20 UNL     1     -16.738  -5.033  29.138  1.00  0.00     0.049 C 
BRANCH  30  33
HETATM   33  O2  UNL     1     -14.895  -3.660  29.560  1.00  0.00    -0.388 OA
HETATM   34  H35 UNL     1     -14.034  -3.454  29.157  1.00  0.00     0.210 HD
ENDBRANCH  30  33
ENDBRANCH   9  30
TORSDOF 6
ENDMDL
MODEL 2
REMARK minimizedAffinity -7.66159058
REMARK CNNscore 0.659776509
REMARK CNNaffinity 6.93398619
REMARK  6 active torsions:
REMARK  status: ('A' for Active; 'I' for Inactive)
REMARK    1  A    between atoms: C2_2  and  C3_3 
REMARK    2  A    between atoms: C2_2  and  C9_10 
REMARK    3  A    between atoms: C3_3  and  C4_4 
REMARK    4  A    between atoms: C4_4  and  C5_5 
REMARK    5  A    between atoms: C17_18  and  C18_19 
REMARK    6  A    between atoms: C18_19  and  O2_22 
ROOT
HETATM    1  C9  UNL     1      -2.058   8.926  15.459  1.00  0.00    -0.002 C 
HETATM    2  C10 UNL     1      -1.174   8.096  16.443  1.00  0.00     0.006 C 
HETATM    3  C11 UNL     1      -0.184   7.273  15.584  1.00  0.00     0.011 C 
HETATM    4  C12 UNL     1      -0.759   7.349  14.160  1.00  0.00    -0.032 C 
HETATM    5  C13 UNL     1      -1.919   6.295  14.120  1.00  0.00     0.016 C 
HETATM    6  C14 UNL     1       0.256   7.112  13.001  1.00  0.00     0.003 C 
HETATM    7  C15 UNL     1       0.998   5.765  13.032  1.00  0.00     0.009 C 
HETATM    8  C16 UNL     1       1.602   5.369  11.682  1.00  0.00     0.042 C 
HETATM    9  C17 UNL     1       2.081   6.515  10.733  1.00  0.00     0.095 C 
HETATM   10  O3  UNL     1       2.206   5.822   9.470  1.00  0.00    -0.377 OA
HETATM   11  C21 UNL     1       2.448   6.572   8.290  1.00  0.00     0.169 C 
HETATM   12  C22 UNL     1       1.732   7.908   8.223  1.00  0.00     0.027 C 
HETATM   13  C23 UNL     1       0.551   7.953   9.169  1.00  0.00     0.010 C 
HETATM   14  C24 UNL     1       0.957   7.629  10.626  1.00  0.00     0.032 C 
HETATM   15  C25 UNL     1      -0.315   7.435  11.574  1.00  0.00    -0.033 C 
HETATM   16  C26 UNL     1      -1.254   6.308  11.049  1.00  0.00     0.016 C 
HETATM   17  C27 UNL     1      -1.135   8.779  11.576  1.00  0.00     0.011 C 
HETATM   18  C28 UNL     1      -2.025   9.056  12.806  1.00  0.00     0.011 C 
HETATM   19  C29 UNL     1      -1.255   8.854  14.123  1.00  0.00    -0.032 C 
HETATM   20  C30 UNL     1      -0.110   9.911  14.164  1.00  0.00     0.016 C 
ENDROOT
BRANCH   1  21
HETATM   21  C2  UNL     1      -2.604  10.257  16.066  1.00  0.00    -0.014 C 
HETATM   22  C1  UNL     1      -4.021  10.668  15.647  1.00  0.00     0.010 C 
BRANCH  21  23
HETATM   23  C3  UNL     1      -2.440  10.276  17.604  1.00  0.00     0.007 C 
BRANCH  23  24
HETATM   24  C4  UNL     1      -3.476  11.116  18.364  1.00  0.00     0.035 C 
BRANCH  24  25
HETATM   25  C5  UNL     1      -3.058  12.535  18.588  1.00  0.00     0.156 A 
HETATM   26  O1  UNL     1      -3.924  13.493  17.951  1.00  0.00    -0.370 OA
HETATM   27  C6  UNL     1      -3.870  13.555  19.379  1.00  0.00     0.080 A 
HETATM   28  C7  UNL     1      -5.160  13.191  20.047  1.00  0.00     0.048 C 
HETATM   29  C8  UNL     1      -3.167  14.767  19.907  1.00  0.00     0.048 C 
ENDBRANCH  24  25
ENDBRANCH  23  24
ENDBRANCH  21  23
ENDBRANCH   1  21
BRANCH   9  30
HETATM   30  C18 UNL     1       3.517   7.057  11.234  1.00  0.00     0.082 C 
HETATM   31  C19 UNL     1       4.690   6.259  10.621  1.00  0.00     0.049 C 
HETATM   32  C20 UNL     1       3.820   8.541  10.967  1.00  0.00     0.049 C 
BRANCH  30  33
HETATM   33  O2  UNL     1       3.618   6.949  12.665  1.00  0.00    -0.388 OA
HETATM   34  H35 UNL     1       3.967   6.066  12.880  1.00  0.00     0.210 HD
ENDBRANCH  30  33
ENDBRANCH   9  30
TORSDOF 6
ENDMDL
MODEL 3
REMARK minimizedAffinity -7.62545919
REMARK CNNscore 0.602088988
REMARK CNNaffinity 7.42276907
REMARK  6 active torsions:
REMARK  status: ('A' for Active; 'I' for Inactive)
REMARK    1  A    between atoms: C2_2  and  C3_3 
REMARK    2  A    between atoms: C2_2  and  C9_10 
REMARK    3  A    between atoms: C3_3  and  C4_4 
REMARK    4  A    between atoms: C4_4  and  C5_5 
REMARK    5  A    between atoms: C17_18  and  C18_19 
REMARK    6  A    between atoms: C18_19  and  O2_22 
ROOT
HETATM    1  C9  UNL     1       1.971   7.694  11.331  1.00  0.00    -0.002 C 
HETATM    2  C10 UNL     1       2.441   6.255  11.714  1.00  0.00     0.006 C 
HETATM    3  C11 UNL     1       1.288   5.594  12.507  1.00  0.00     0.011 C 
HETATM    4  C12 UNL     1       0.364   6.765  12.885  1.00  0.00    -0.032 C 
HETATM    5  C13 UNL     1       1.039   7.447  14.125  1.00  0.00     0.016 C 
HETATM    6  C14 UNL     1      -1.119   6.392  13.186  1.00  0.00     0.003 C 
HETATM    7  C15 UNL     1      -1.332   5.370  14.316  1.00  0.00     0.009 C 
HETATM    8  C16 UNL     1      -2.750   5.385  14.895  1.00  0.00     0.042 C 
HETATM    9  C17 UNL     1      -3.925   5.761  13.935  1.00  0.00     0.095 C 
HETATM   10  O3  UNL     1      -4.990   6.049  14.869  1.00  0.00    -0.377 OA
HETATM   11  C21 UNL     1      -6.198   6.617  14.388  1.00  0.00     0.169 C 
HETATM   12  C22 UNL     1      -6.028   7.632  13.272  1.00  0.00     0.027 C 
HETATM   13  C23 UNL     1      -4.621   8.187  13.237  1.00  0.00     0.010 C 
HETATM   14  C24 UNL     1      -3.555   7.070  13.121  1.00  0.00     0.032 C 
HETATM   15  C25 UNL     1      -2.073   7.632  13.329  1.00  0.00    -0.033 C 
HETATM   16  C26 UNL     1      -1.917   8.336  14.710  1.00  0.00     0.016 C 
HETATM   17  C27 UNL     1      -1.792   8.703  12.210  1.00  0.00     0.011 C 
HETATM   18  C28 UNL     1      -0.317   8.949  11.829  1.00  0.00     0.011 C 
HETATM   19  C29 UNL     1       0.429   7.630  11.559  1.00  0.00    -0.032 C 
HETATM   20  C30 UNL     1      -0.238   6.960  10.319  1.00  0.00     0.016 C 
ENDROOT
BRANCH   1  21
HETATM   21  C2  UNL     1       2.627   8.250  10.027  1.00  0.00    -0.014 C 
HETATM   22  C1  UNL     1       4.154   8.157   9.938  1.00  0.00     0.010 C 
BRANCH  21  23
HETATM   23  C3  UNL     1       1.949   7.658   8.768  1.00  0.00     0.007 C 
BRANCH  23  24
HETATM   24  C4  UNL     1       2.820   6.701   7.943  1.00  0.00     0.035 C 
BRANCH  24  25
HETATM   25  C5  UNL     1       3.386   5.563   8.732  1.00  0.00     0.156 A 
HETATM   26  O1  UNL     1       2.513   4.419   8.791  1.00  0.00    -0.370 OA
HETATM   27  C6  UNL     1       3.770   4.212   8.139  1.00  0.00     0.080 A 
HETATM   28  C7  UNL     1       3.649   3.930   6.673  1.00  0.00     0.048 C 
HETATM   29  C8  UNL     1       4.716   3.342   8.907  1.00  0.00     0.048 C 
ENDBRANCH  24  25
ENDBRANCH  23  24
ENDBRANCH  21  23
ENDBRANCH   1  21
BRANCH   9  30
HETATM   30  C18 UNL     1      -4.295   4.484  13.020  1.00  0.00     0.082 C 
HETATM   31  C19 UNL     1      -5.802   4.147  13.068  1.00  0.00     0.049 C 
HETATM   32  C20 UNL     1      -3.922   4.577  11.531  1.00  0.00     0.049 C 
BRANCH  30  33
HETATM   33  O2  UNL     1      -3.575   3.323  13.471  1.00  0.00    -0.388 OA
HETATM   34  H35 UNL     1      -4.106   2.882  14.157  1.00  0.00     0.210 HD
ENDBRANCH  30  33
ENDBRANCH   9  30
TORSDOF 6
ENDMDL
MODEL 4
REMARK minimizedAffinity -6.51434088
REMARK CNNscore 0.590673447
REMARK CNNaffinity 7.11530828
REMARK  6 active torsions:
REMARK  status: ('A' for Active; 'I' for Inactive)
REMARK    1  A    between atoms: C2_2  and  C3_3 
REMARK    2  A    between atoms: C2_2  and  C9_10 
REMARK    3  A    between atoms: C3_3  and  C4_4 
REMARK    4  A    between atoms: C4_4  and  C5_5 
REMARK    5  A    between atoms: C17_18  and  C18_19 
REMARK    6  A    between atoms: C18_19  and  O2_22 
ROOT
HETATM    1  C9  UNL     1      -9.594   6.983  14.615  1.00  0.00    -0.002 C 
HETATM    2  C10 UNL     1     -10.027   6.896  13.117  1.00  0.00     0.006 C 
HETATM    3  C11 UNL     1     -11.229   7.854  12.933  1.00  0.00     0.011 C 
HETATM    4  C12 UNL     1     -11.691   8.167  14.366  1.00  0.00    -0.032 C 
HETATM    5  C13 UNL     1     -12.543   6.928  14.811  1.00  0.00     0.016 C 
HETATM    6  C14 UNL     1     -12.489   9.493  14.550  1.00  0.00     0.003 C 
HETATM    7  C15 UNL     1     -13.771   9.621  13.708  1.00  0.00     0.009 C 
HETATM    8  C16 UNL     1     -14.750  10.670  14.241  1.00  0.00     0.042 C 
HETATM    9  C17 UNL     1     -14.156  11.917  14.972  1.00  0.00     0.095 C 
HETATM   10  O3  UNL     1     -15.318  12.446  15.650  1.00  0.00    -0.377 OA
HETATM   11  C21 UNL     1     -15.154  13.497  16.589  1.00  0.00     0.169 C 
HETATM   12  C22 UNL     1     -13.900  13.405  17.439  1.00  0.00     0.027 C 
HETATM   13  C23 UNL     1     -13.347  11.997  17.462  1.00  0.00     0.010 C 
HETATM   14  C24 UNL     1     -13.078  11.452  16.038  1.00  0.00     0.032 C 
HETATM   15  C25 UNL     1     -12.730   9.892  16.050  1.00  0.00    -0.033 C 
HETATM   16  C26 UNL     1     -13.871   9.055  16.703  1.00  0.00     0.016 C 
HETATM   17  C27 UNL     1     -11.430   9.685  16.914  1.00  0.00     0.011 C 
HETATM   18  C28 UNL     1     -10.579   8.433  16.611  1.00  0.00     0.011 C 
HETATM   19  C29 UNL     1     -10.295   8.288  15.105  1.00  0.00    -0.032 C 
HETATM   20  C30 UNL     1      -9.439   9.516  14.669  1.00  0.00     0.016 C 
ENDROOT
BRANCH   1  21
HETATM   21  C2  UNL     1      -8.083   6.673  14.858  1.00  0.00    -0.014 C 
HETATM   22  C1  UNL     1      -7.704   6.180  16.259  1.00  0.00     0.010 C 
BRANCH  21  23
HETATM   23  C3  UNL     1      -7.523   5.739  13.758  1.00  0.00     0.007 C 
BRANCH  23  24
HETATM   24  C4  UNL     1      -7.360   4.269  14.166  1.00  0.00     0.035 C 
BRANCH  24  25
HETATM   25  C5  UNL     1      -7.258   3.326  13.009  1.00  0.00     0.156 A 
HETATM   26  O1  UNL     1      -7.002   3.986  11.755  1.00  0.00    -0.370 OA
HETATM   27  C6  UNL     1      -5.985   3.085  12.205  1.00  0.00     0.080 A 
HETATM   28  C7  UNL     1      -4.693   3.758  12.552  1.00  0.00     0.048 C 
HETATM   29  C8  UNL     1      -5.884   1.831  11.394  1.00  0.00     0.048 C 
ENDBRANCH  24  25
ENDBRANCH  23  24
ENDBRANCH  21  23
ENDBRANCH   1  21
BRANCH   9  30
HETATM   30  C18 UNL     1     -13.605  12.966  13.875  1.00  0.00     0.082 C 
HETATM   31  C19 UNL     1     -14.334  12.832  12.520  1.00  0.00     0.049 C 
HETATM   32  C20 UNL     1     -13.675  14.454  14.256  1.00  0.00     0.049 C 
BRANCH  30  33
HETATM   33  O2  UNL     1     -12.203  12.748  13.639  1.00  0.00    -0.388 OA
HETATM   34  H35 UNL     1     -12.113  12.085  12.932  1.00  0.00     0.210 HD
ENDBRANCH  30  33
ENDBRANCH   9  30
TORSDOF 6
ENDMDL
MODEL 5
REMARK minimizedAffinity -7.7071867
REMARK CNNscore 0.570450068
REMARK CNNaffinity 6.89779329
REMARK  6 active torsions:
REMARK  status: ('A' for Active; 'I' for Inactive)
REMARK    1  A    between atoms: C2_2  and  C3_3 
REMARK    2  A    between atoms: C2_2  and  C9_10 
REMARK    3  A    between atoms: C3_3  and  C4_4 
REMARK    4  A    between atoms: C4_4  and  C5_5 
REMARK    5  A    between atoms: C17_18  and  C18_19 
REMARK    6  A    between atoms: C18_19  and  O2_22 
ROOT
HETATM    1  C9  UNL     1      -1.949   9.051  15.521  1.00  0.00    -0.002 C 
HETATM    2  C10 UNL     1      -0.972   8.294  16.476  1.00  0.00     0.006 C 
HETATM    3  C11 UNL     1       0.006   7.492  15.585  1.00  0.00     0.011 C 
HETATM    4  C12 UNL     1      -0.651   7.498  14.193  1.00  0.00    -0.032 C 
HETATM    5  C13 UNL     1      -1.758   6.391  14.249  1.00  0.00     0.016 C 
HETATM    6  C14 UNL     1       0.309   7.273  12.986  1.00  0.00     0.003 C 
HETATM    7  C15 UNL     1       1.116   5.964  13.012  1.00  0.00     0.009 C 
HETATM    8  C16 UNL     1       1.662   5.556  11.641  1.00  0.00     0.042 C 
HETATM    9  C17 UNL     1       2.032   6.693  10.635  1.00  0.00     0.095 C 
HETATM   10  O3  UNL     1       2.120   5.969   9.386  1.00  0.00    -0.377 OA
HETATM   11  C21 UNL     1       2.259   6.694   8.175  1.00  0.00     0.169 C 
HETATM   12  C22 UNL     1       1.477   7.993   8.112  1.00  0.00     0.027 C 
HETATM   13  C23 UNL     1       0.350   8.011   9.121  1.00  0.00     0.010 C 
HETATM   14  C24 UNL     1       0.852   7.750  10.562  1.00  0.00     0.032 C 
HETATM   15  C25 UNL     1      -0.355   7.527  11.586  1.00  0.00    -0.033 C 
HETATM   16  C26 UNL     1      -1.266   6.341  11.146  1.00  0.00     0.016 C 
HETATM   17  C27 UNL     1      -1.238   8.830  11.597  1.00  0.00     0.011 C 
HETATM   18  C28 UNL     1      -2.070   9.103  12.868  1.00  0.00     0.011 C 
HETATM   19  C29 UNL     1      -1.219   8.976  14.144  1.00  0.00    -0.032 C 
HETATM   20  C30 UNL     1      -0.126  10.086  14.091  1.00  0.00     0.016 C 
ENDROOT
BRANCH   1  21
HETATM   21  C2  UNL     1      -2.524  10.374  16.121  1.00  0.00    -0.014 C 
HETATM   22  C1  UNL     1      -3.759  10.236  17.019  1.00  0.00     0.010 C 
BRANCH  21  23
HETATM   23  C3  UNL     1      -1.413  11.202  16.809  1.00  0.00     0.007 C 
BRANCH  23  24
HETATM   24  C4  UNL     1      -1.542  11.334  18.332  1.00  0.00     0.035 C 
BRANCH  24  25
HETATM   25  C5  UNL     1      -0.357  10.818  19.088  1.00  0.00     0.156 A 
HETATM   26  O1  UNL     1       0.903  11.207  18.509  1.00  0.00    -0.370 OA
HETATM   27  C6  UNL     1       0.643  11.702  19.826  1.00  0.00     0.080 A 
HETATM   28  C7  UNL     1       0.485  13.189  19.891  1.00  0.00     0.048 C 
HETATM   29  C8  UNL     1       1.494  11.077  20.888  1.00  0.00     0.048 C 
ENDBRANCH  24  25
ENDBRANCH  23  24
ENDBRANCH  21  23
ENDBRANCH   1  21
BRANCH   9  30
HETATM   30  C18 UNL     1       3.466   7.316  11.038  1.00  0.00     0.082 C 
HETATM   31  C19 UNL     1       4.252   7.821   9.808  1.00  0.00     0.049 C 
HETATM   32  C20 UNL     1       3.448   8.479  12.045  1.00  0.00     0.049 C 
BRANCH  30  33
HETATM   33  O2  UNL     1       4.274   6.322  11.693  1.00  0.00    -0.388 OA
HETATM   34  H35 UNL     1       4.768   5.834  11.011  1.00  0.00     0.210 HD
ENDBRANCH  30  33
ENDBRANCH   9  30
TORSDOF 6
ENDMDL
MODEL 6
REMARK minimizedAffinity -7.07972956
REMARK CNNscore 0.565951228
REMARK CNNaffinity 6.85709572
REMARK  6 active torsions:
REMARK  status: ('A' for Active; 'I' for Inactive)
REMARK    1  A    between atoms: C2_2  and  C3_3 
REMARK    2  A    between atoms: C2_2  and  C9_10 
REMARK    3  A    between atoms: C3_3  and  C4_4 
REMARK    4  A    between atoms: C4_4  and  C5_5 
REMARK    5  A    between atoms: C17_18  and  C18_19 
REMARK    6  A    between atoms: C18_19  and  O2_22 
ROOT
HETATM    1  C9  UNL     1      -2.009   8.787  15.467  1.00  0.00    -0.002 C 
HETATM    2  C10 UNL     1      -1.131   7.926  16.430  1.00  0.00     0.006 C 
HETATM    3  C11 UNL     1      -0.144   7.121  15.550  1.00  0.00     0.011 C 
HETATM    4  C12 UNL     1      -0.716   7.239  14.127  1.00  0.00    -0.032 C 
HETATM    5  C13 UNL     1      -1.881   6.193  14.056  1.00  0.00     0.016 C 
HETATM    6  C14 UNL     1       0.300   7.028  12.965  1.00  0.00     0.003 C 
HETATM    7  C15 UNL     1       1.035   5.677  12.960  1.00  0.00     0.009 C 
HETATM    8  C16 UNL     1       1.640   5.314  11.601  1.00  0.00     0.042 C 
HETATM    9  C17 UNL     1       2.127   6.483  10.685  1.00  0.00     0.095 C 
HETATM   10  O3  UNL     1       2.251   5.825   9.403  1.00  0.00    -0.377 OA
HETATM   11  C21 UNL     1       2.499   6.605   8.245  1.00  0.00     0.169 C 
HETATM   12  C22 UNL     1       1.790   7.947   8.213  1.00  0.00     0.027 C 
HETATM   13  C23 UNL     1       0.608   7.972   9.157  1.00  0.00     0.010 C 
HETATM   14  C24 UNL     1       1.009   7.606  10.606  1.00  0.00     0.032 C 
HETATM   15  C25 UNL     1      -0.266   7.394  11.546  1.00  0.00    -0.033 C 
HETATM   16  C26 UNL     1      -1.210   6.286  10.989  1.00  0.00     0.016 C 
HETATM   17  C27 UNL     1      -1.079   8.741  11.583  1.00  0.00     0.011 C 
HETATM   18  C28 UNL     1      -1.970   8.989  12.819  1.00  0.00     0.011 C 
HETATM   19  C29 UNL     1      -1.203   8.747  14.131  1.00  0.00    -0.032 C 
HETATM   20  C30 UNL     1      -0.053   9.796  14.203  1.00  0.00     0.016 C 
ENDROOT
BRANCH   1  21
HETATM   21  C2  UNL     1      -2.549  10.104  16.109  1.00  0.00    -0.014 C 
HETATM   22  C1  UNL     1      -1.539  10.942  16.901  1.00  0.00     0.010 C 
BRANCH  21  23
HETATM   23  C3  UNL     1      -3.302  10.963  15.065  1.00  0.00     0.007 C 
BRANCH  23  24
HETATM   24  C4  UNL     1      -3.035  12.472  15.142  1.00  0.00     0.035 C 
BRANCH  24  25
HETATM   25  C5  UNL     1      -4.241  13.284  15.493  1.00  0.00     0.156 A 
HETATM   26  O1  UNL     1      -3.930  14.479  16.234  1.00  0.00    -0.370 OA
HETATM   27  C6  UNL     1      -4.527  14.680  14.949  1.00  0.00     0.080 A 
HETATM   28  C7  UNL     1      -3.619  15.342  13.959  1.00  0.00     0.048 C 
HETATM   29  C8  UNL     1      -5.934  15.190  15.006  1.00  0.00     0.048 C 
ENDBRANCH  24  25
ENDBRANCH  23  24
ENDBRANCH  21  23
ENDBRANCH   1  21
BRANCH   9  30
HETATM   30  C18 UNL     1       3.565   7.003  11.203  1.00  0.00     0.082 C 
HETATM   31  C19 UNL     1       4.734   6.205  10.584  1.00  0.00     0.049 C 
HETATM   32  C20 UNL     1       3.883   8.488  10.962  1.00  0.00     0.049 C 
BRANCH  30  33
HETATM   33  O2  UNL     1       3.656   6.871  12.633  1.00  0.00    -0.388 OA
HETATM   34  H35 UNL     1       3.995   5.982  12.835  1.00  0.00     0.210 HD
ENDBRANCH  30  33
ENDBRANCH   9  30
TORSDOF 6
ENDMDL
MODEL 7
REMARK minimizedAffinity -6.22915649
REMARK CNNscore 0.547758758
REMARK CNNaffinity 6.49673223
REMARK  6 active torsions:
REMARK  status: ('A' for Active; 'I' for Inactive)
REMARK    1  A    between atoms: C2_2  and  C3_3 
REMARK    2  A    between atoms: C2_2  and  C9_10 
REMARK    3  A    between atoms: C3_3  and  C4_4 
REMARK    4  A    between atoms: C4_4  and  C5_5 
REMARK    5  A    between atoms: C17_18  and  C18_19 
REMARK    6  A    between atoms: C18_19  and  O2_22 
ROOT
HETATM    1  C9  UNL     1      -1.464  11.953  17.846  1.00  0.00    -0.002 C 
HETATM    2  C10 UNL     1      -2.824  12.692  17.634  1.00  0.00     0.006 C 
HETATM    3  C11 UNL     1      -3.644  11.856  16.622  1.00  0.00     0.011 C 
HETATM    4  C12 UNL     1      -2.617  10.894  16.000  1.00  0.00    -0.032 C 
HETATM    5  C13 UNL     1      -1.851  11.738  14.924  1.00  0.00     0.016 C 
HETATM    6  C14 UNL     1      -3.198   9.587  15.380  1.00  0.00     0.003 C 
HETATM    7  C15 UNL     1      -4.244   9.784  14.270  1.00  0.00     0.009 C 
HETATM    8  C16 UNL     1      -4.432   8.551  13.381  1.00  0.00     0.042 C 
HETATM    9  C17 UNL     1      -4.223   7.145  14.031  1.00  0.00     0.095 C 
HETATM   10  O3  UNL     1      -4.092   6.297  12.868  1.00  0.00    -0.377 OA
HETATM   11  C21 UNL     1      -3.699   4.944  13.038  1.00  0.00     0.169 C 
HETATM   12  C22 UNL     1      -2.667   4.710  14.125  1.00  0.00     0.027 C 
HETATM   13  C23 UNL     1      -1.918   5.980  14.463  1.00  0.00     0.010 C 
HETATM   14  C24 UNL     1      -2.872   7.133  14.860  1.00  0.00     0.032 C 
HETATM   15  C25 UNL     1      -2.106   8.531  14.978  1.00  0.00    -0.033 C 
HETATM   16  C26 UNL     1      -1.392   8.906  13.644  1.00  0.00     0.016 C 
HETATM   17  C27 UNL     1      -1.002   8.395  16.091  1.00  0.00     0.011 C 
HETATM   18  C28 UNL     1      -0.548   9.694  16.791  1.00  0.00     0.011 C 
HETATM   19  C29 UNL     1      -1.747  10.529  17.273  1.00  0.00    -0.032 C 
HETATM   20  C30 UNL     1      -2.501   9.692  18.350  1.00  0.00     0.016 C 
ENDROOT
BRANCH   1  21
HETATM   21  C2  UNL     1      -0.817  12.206  19.245  1.00  0.00    -0.014 C 
HETATM   22  C1  UNL     1       0.160  11.137  19.748  1.00  0.00     0.010 C 
BRANCH  21  23
HETATM   23  C3  UNL     1      -0.196  13.621  19.322  1.00  0.00     0.007 C 
BRANCH  23  24
HETATM   24  C4  UNL     1      -1.064  14.681  20.014  1.00  0.00     0.035 C 
BRANCH  24  25
HETATM   25  C5  UNL     1      -0.397  16.013  20.153  1.00  0.00     0.156 A 
HETATM   26  O1  UNL     1      -1.200  17.107  19.669  1.00  0.00    -0.370 OA
HETATM   27  C6  UNL     1      -0.891  17.130  21.066  1.00  0.00     0.080 A 
HETATM   28  C7  UNL     1      -2.085  16.957  21.951  1.00  0.00     0.048 C 
HETATM   29  C8  UNL     1       0.074  18.208  21.455  1.00  0.00     0.048 C 
ENDBRANCH  24  25
ENDBRANCH  23  24
ENDBRANCH  21  23
ENDBRANCH   1  21
BRANCH   9  30
HETATM   30  C18 UNL     1      -5.537   6.751  14.883  1.00  0.00     0.082 C 
HETATM   31  C19 UNL     1      -6.493   7.950  15.073  1.00  0.00     0.049 C 
HETATM   32  C20 UNL     1      -6.394   5.602  14.326  1.00  0.00     0.049 C 
BRANCH  30  33
HETATM   33  O2  UNL     1      -5.160   6.283  16.190  1.00  0.00    -0.388 OA
HETATM   34  H35 UNL     1      -5.105   7.051  16.784  1.00  0.00     0.210 HD
ENDBRANCH  30  33
ENDBRANCH   9  30
TORSDOF 6
ENDMDL
MODEL 8
REMARK minimizedAffinity -7.70246363
REMARK CNNscore 0.520103633
REMARK CNNaffinity 6.9097538
REMARK  6 active torsions:
REMARK  status: ('A' for Active; 'I' for Inactive)
REMARK    1  A    between atoms: C2_2  and  C3_3 
REMARK    2  A    between atoms: C2_2  and  C9_10 
REMARK    3  A    between atoms: C3_3  and  C4_4 
REMARK    4  A    between atoms: C4_4  and  C5_5 
REMARK    5  A    between atoms: C17_18  and  C18_19 
REMARK    6  A    between atoms: C18_19  and  O2_22 
ROOT
HETATM    1  C9  UNL     1      -0.358  10.763  16.733  1.00  0.00    -0.002 C 
HETATM    2  C10 UNL     1      -1.572  11.712  16.986  1.00  0.00     0.006 C 
HETATM    3  C11 UNL     1      -2.795  11.089  16.271  1.00  0.00     0.011 C 
HETATM    4  C12 UNL     1      -2.190  10.033  15.329  1.00  0.00    -0.032 C 
HETATM    5  C13 UNL     1      -1.669  10.832  14.086  1.00  0.00     0.016 C 
HETATM    6  C14 UNL     1      -3.144   8.879  14.897  1.00  0.00     0.003 C 
HETATM    7  C15 UNL     1      -4.437   9.316  14.187  1.00  0.00     0.009 C 
HETATM    8  C16 UNL     1      -5.096   8.196  13.376  1.00  0.00     0.042 C 
HETATM    9  C17 UNL     1      -4.932   6.730  13.890  1.00  0.00     0.095 C 
HETATM   10  O3  UNL     1      -5.315   5.962  12.725  1.00  0.00    -0.377 OA
HETATM   11  C21 UNL     1      -5.119   4.557  12.728  1.00  0.00     0.169 C 
HETATM   12  C22 UNL     1      -3.853   4.088  13.420  1.00  0.00     0.027 C 
HETATM   13  C23 UNL     1      -2.836   5.202  13.530  1.00  0.00     0.010 C 
HETATM   14  C24 UNL     1      -3.411   6.451  14.241  1.00  0.00     0.032 C 
HETATM   15  C25 UNL     1      -2.426   7.706  14.140  1.00  0.00    -0.033 C 
HETATM   16  C26 UNL     1      -2.112   8.069  12.657  1.00  0.00     0.016 C 
HETATM   17  C27 UNL     1      -1.067   7.321  14.836  1.00  0.00     0.011 C 
HETATM   18  C28 UNL     1      -0.208   8.479  15.385  1.00  0.00     0.011 C 
HETATM   19  C29 UNL     1      -1.039   9.446  16.247  1.00  0.00    -0.032 C 
HETATM   20  C30 UNL     1      -1.546   8.652  17.488  1.00  0.00     0.016 C 
ENDROOT
BRANCH   1  21
HETATM   21  C2  UNL     1       0.728  10.808  17.855  1.00  0.00    -0.014 C 
HETATM   22  C1  UNL     1       1.996  11.612  17.547  1.00  0.00     0.010 C 
BRANCH  21  23
HETATM   23  C3  UNL     1       0.109  11.226  19.211  1.00  0.00     0.007 C 
BRANCH  23  24
HETATM   24  C4  UNL     1       1.098  11.329  20.379  1.00  0.00     0.035 C 
BRANCH  24  25
HETATM   25  C5  UNL     1       1.493  10.007  20.958  1.00  0.00     0.156 A 
HETATM   26  O1  UNL     1       2.803   9.573  20.549  1.00  0.00    -0.370 OA
HETATM   27  C6  UNL     1       2.634   9.809  21.951  1.00  0.00     0.080 A 
HETATM   28  C7  UNL     1       3.438  10.960  22.469  1.00  0.00     0.048 C 
HETATM   29  C8  UNL     1       2.644   8.563  22.781  1.00  0.00     0.048 C 
ENDBRANCH  24  25
ENDBRANCH  23  24
ENDBRANCH  21  23
ENDBRANCH   1  21
BRANCH   9  30
HETATM   30  C18 UNL     1      -5.959   6.473  15.108  1.00  0.00     0.082 C 
HETATM   31  C19 UNL     1      -6.767   7.741  15.470  1.00  0.00     0.049 C 
HETATM   32  C20 UNL     1      -6.990   5.349  14.910  1.00  0.00     0.049 C 
BRANCH  30  33
HETATM   33  O2  UNL     1      -5.242   6.063  16.286  1.00  0.00    -0.388 OA
HETATM   34  H35 UNL     1      -4.984   6.861  16.779  1.00  0.00     0.210 HD
ENDBRANCH  30  33
ENDBRANCH   9  30
TORSDOF 6
ENDMDL
MODEL 9
REMARK minimizedAffinity -6.73211002
REMARK CNNscore 0.480792463
REMARK CNNaffinity 6.99350977
REMARK  6 active torsions:
REMARK  status: ('A' for Active; 'I' for Inactive)
REMARK    1  A    between atoms: C2_2  and  C3_3 
REMARK    2  A    between atoms: C2_2  and  C9_10 
REMARK    3  A    between atoms: C3_3  and  C4_4 
REMARK    4  A    between atoms: C4_4  and  C5_5 
REMARK    5  A    between atoms: C17_18  and  C18_19 
REMARK    6  A    between atoms: C18_19  and  O2_22 
ROOT
HETATM    1  C9  UNL     1      -9.040   6.863  13.827  1.00  0.00    -0.002 C 
HETATM    2  C10 UNL     1      -8.494   6.661  15.276  1.00  0.00     0.006 C 
HETATM    3  C11 UNL     1      -9.415   7.462  16.227  1.00  0.00     0.011 C 
HETATM    4  C12 UNL     1     -10.212   8.391  15.294  1.00  0.00    -0.032 C 
HETATM    5  C13 UNL     1      -9.248   9.582  14.966  1.00  0.00     0.016 C 
HETATM    6  C14 UNL     1     -11.575   8.906  15.849  1.00  0.00     0.003 C 
HETATM    7  C15 UNL     1     -11.504   9.681  17.175  1.00  0.00     0.009 C 
HETATM    8  C16 UNL     1     -12.733  10.556  17.439  1.00  0.00     0.042 C 
HETATM    9  C17 UNL     1     -14.108  10.068  16.880  1.00  0.00     0.095 C 
HETATM   10  O3  UNL     1     -14.907  11.270  16.964  1.00  0.00    -0.377 OA
HETATM   11  C21 UNL     1     -16.194  11.289  16.369  1.00  0.00     0.169 C 
HETATM   12  C22 UNL     1     -16.304  10.534  15.057  1.00  0.00     0.027 C 
HETATM   13  C23 UNL     1     -14.948  10.337  14.415  1.00  0.00     0.010 C 
HETATM   14  C24 UNL     1     -13.949   9.633  15.364  1.00  0.00     0.032 C 
HETATM   15  C25 UNL     1     -12.460   9.646  14.783  1.00  0.00    -0.033 C 
HETATM   16  C26 UNL     1     -11.962  11.098  14.514  1.00  0.00     0.016 C 
HETATM   17  C27 UNL     1     -12.462   8.879  13.408  1.00  0.00     0.011 C 
HETATM   18  C28 UNL     1     -11.128   8.253  12.951  1.00  0.00     0.011 C 
HETATM   19  C29 UNL     1     -10.477   7.420  14.070  1.00  0.00    -0.032 C 
HETATM   20  C30 UNL     1     -11.433   6.230  14.385  1.00  0.00     0.016 C 
ENDROOT
BRANCH   1  21
HETATM   21  C2  UNL     1      -8.727   5.678  12.860  1.00  0.00    -0.014 C 
HETATM   22  C1  UNL     1      -8.950   5.938  11.366  1.00  0.00     0.010 C 
BRANCH  21  23
HETATM   23  C3  UNL     1      -7.319   5.097  13.129  1.00  0.00     0.007 C 
BRANCH  23  24
HETATM   24  C4  UNL     1      -6.992   3.797  12.383  1.00  0.00     0.035 C 
BRANCH  24  25
HETATM   25  C5  UNL     1      -5.526   3.542  12.223  1.00  0.00     0.156 A 
HETATM   26  O1  UNL     1      -5.224   2.212  11.760  1.00  0.00    -0.370 OA
HETATM   27  C6  UNL     1      -4.840   3.278  10.886  1.00  0.00     0.080 A 
HETATM   28  C7  UNL     1      -5.595   3.300   9.594  1.00  0.00     0.048 C 
HETATM   29  C8  UNL     1      -3.359   3.484  10.796  1.00  0.00     0.048 C 
ENDBRANCH  24  25
ENDBRANCH  23  24
ENDBRANCH  21  23
ENDBRANCH   1  21
BRANCH   9  30
HETATM   30  C18 UNL     1     -14.699   8.919  17.849  1.00  0.00     0.082 C 
HETATM   31  C19 UNL     1     -15.811   9.453  18.779  1.00  0.00     0.049 C 
HETATM   32  C20 UNL     1     -15.277   7.672  17.158  1.00  0.00     0.049 C 
BRANCH  30  33
HETATM   33  O2  UNL     1     -13.654   8.384  18.681  1.00  0.00    -0.388 OA
HETATM   34  H35 UNL     1     -13.602   8.924  19.489  1.00  0.00     0.210 HD
ENDBRANCH  30  33
ENDBRANCH   9  30
TORSDOF 6
ENDMDL
