MODEL 1
REMARK minimizedAffinity -10.7310305
REMARK  4 active torsions:
REMARK  status: ('A' for Active; 'I' for Inactive)
REMARK    1  A    between atoms: C4_4  and  C5_5 
REMARK    2  A    between atoms: C5_5  and  C6_6 
REMARK    3  A    between atoms: C6_6  and  C7_7 
REMARK    4  A    between atoms: C25_26  and  O2_27 
ROOT
HETATM    1  C7  UNL     1      -7.143   5.750  14.645  1.00  0.00     0.023 C 
HETATM    2  C8  UNL     1      -6.173   6.545  14.203  1.00  0.00    -0.034 C 
HETATM    3  C9  UNL     1      -6.319   7.921  14.722  1.00  0.00     0.163 C 
HETATM    4  C10 UNL     1      -4.882   8.361  15.025  1.00  0.00     0.048 C 
HETATM    5  C11 UNL     1      -3.970   7.166  14.568  1.00  0.00    -0.019 C 
HETATM    6  C12 UNL     1      -3.775   6.281  15.855  1.00  0.00     0.017 C 
HETATM    7  C13 UNL     1      -4.870   6.447  13.506  1.00  0.00     0.027 C 
HETATM    8  C14 UNL     1      -4.267   5.136  13.029  1.00  0.00     0.010 C 
HETATM    9  C15 UNL     1      -2.871   5.392  12.432  1.00  0.00     0.007 C 
HETATM   10  C16 UNL     1      -1.929   6.167  13.391  1.00  0.00     0.011 C 
HETATM   11  C17 UNL     1      -0.422   6.237  12.906  1.00  0.00    -0.032 C 
HETATM   12  C18 UNL     1       0.225   4.871  13.324  1.00  0.00     0.016 C 
HETATM   13  C19 UNL     1      -0.249   6.348  11.365  1.00  0.00     0.017 C 
HETATM   14  C20 UNL     1       1.081   6.970  10.917  1.00  0.00     0.079 C 
HETATM   15  C21 UNL     1       2.184   6.891  11.958  1.00  0.00     0.131 C 
HETATM   16  O1  UNL     1       3.324   6.550  11.640  1.00  0.00    -0.298 OA
HETATM   17  C22 UNL     1       1.852   7.339  13.384  1.00  0.00     0.059 C 
HETATM   18  C23 UNL     1       2.587   8.652  13.639  1.00  0.00     0.018 C 
HETATM   19  C24 UNL     1       0.319   7.468  13.536  1.00  0.00     0.041 C 
HETATM   20  C25 UNL     1      -0.162   7.786  14.955  1.00  0.00     0.194 C 
HETATM   21  C26 UNL     1      -1.644   8.172  14.936  1.00  0.00     0.165 C 
HETATM   22  O3  UNL     1      -2.061   9.004  15.747  1.00  0.00    -0.294 OA
HETATM   23  C27 UNL     1      -2.571   7.518  13.895  1.00  0.00     0.032 C 
HETATM   24  C28 UNL     1      -2.724   8.551  12.749  1.00  0.00     0.025 C 
HETATM   25  O4  UNL     1      -7.208   7.772  15.800  1.00  0.00    -0.308 OA
HETATM   26  C29 UNL     1      -7.883   6.593  15.612  1.00  0.00     0.290 C 
HETATM   27  O5  UNL     1      -8.902   6.272  16.199  1.00  0.00    -0.260 OA
ENDROOT
BRANCH   1  28
HETATM   28  C6  UNL     1      -7.468   4.315  14.421  1.00  0.00     0.049 C 
BRANCH  28  29
HETATM   29  C5  UNL     1      -7.751   3.911  12.964  1.00  0.00     0.032 C 
BRANCH  29  30
HETATM   30  C4  UNL     1      -7.200   2.570  12.550  1.00  0.00    -0.024 C 
HETATM   31  C2  UNL     1      -6.287   2.322  11.591  1.00  0.00    -0.091 C 
HETATM   32  C1  UNL     1      -5.689   3.366  10.690  1.00  0.00     0.042 C 
HETATM   33  C3  UNL     1      -5.790   0.920  11.359  1.00  0.00     0.042 C 
ENDBRANCH  29  30
ENDBRANCH  28  29
ENDBRANCH   1  28
BRANCH  20  34
HETATM   34  O2  UNL     1       0.095   6.723  15.853  1.00  0.00    -0.388 OA
HETATM   35  H37 UNL     1      -0.243   6.997  16.725  1.00  0.00     0.210 HD
ENDBRANCH  20  34
TORSDOF 4
ENDMDL
MODEL 2
REMARK minimizedAffinity -10.003686
REMARK  4 active torsions:
REMARK  status: ('A' for Active; 'I' for Inactive)
REMARK    1  A    between atoms: C4_4  and  C5_5 
REMARK    2  A    between atoms: C5_5  and  C6_6 
REMARK    3  A    between atoms: C6_6  and  C7_7 
REMARK    4  A    between atoms: C25_26  and  O2_27 
ROOT
HETATM    1  C7  UNL     1      -5.722   5.467  14.239  1.00  0.00     0.023 C 
HETATM    2  C8  UNL     1      -4.798   6.305  13.779  1.00  0.00    -0.034 C 
HETATM    3  C9  UNL     1      -4.792   7.576  14.535  1.00  0.00     0.163 C 
HETATM    4  C10 UNL     1      -3.305   7.928  14.664  1.00  0.00     0.048 C 
HETATM    5  C11 UNL     1      -2.538   6.809  13.871  1.00  0.00    -0.019 C 
HETATM    6  C12 UNL     1      -2.182   5.714  14.944  1.00  0.00     0.017 C 
HETATM    7  C13 UNL     1      -3.630   6.301  12.869  1.00  0.00     0.027 C 
HETATM    8  C14 UNL     1      -3.176   5.079  12.088  1.00  0.00     0.010 C 
HETATM    9  C15 UNL     1      -1.882   5.405  11.318  1.00  0.00     0.007 C 
HETATM   10  C16 UNL     1      -0.762   5.985  12.222  1.00  0.00     0.011 C 
HETATM   11  C17 UNL     1       0.650   6.105  11.511  1.00  0.00    -0.032 C 
HETATM   12  C18 UNL     1       1.288   4.674  11.585  1.00  0.00     0.016 C 
HETATM   13  C19 UNL     1       0.578   6.474  10.003  1.00  0.00     0.017 C 
HETATM   14  C20 UNL     1       1.847   7.136   9.449  1.00  0.00     0.079 C 
HETATM   15  C21 UNL     1       3.098   6.857  10.265  1.00  0.00     0.131 C 
HETATM   16  O1  UNL     1       4.154   6.553   9.710  1.00  0.00    -0.298 OA
HETATM   17  C22 UNL     1       3.021   7.062  11.780  1.00  0.00     0.059 C 
HETATM   18  C23 UNL     1       3.850   8.297  12.123  1.00  0.00     0.018 C 
HETATM   19  C24 UNL     1       1.540   7.195  12.204  1.00  0.00     0.041 C 
HETATM   20  C25 UNL     1       1.309   7.276  13.716  1.00  0.00     0.194 C 
HETATM   21  C26 UNL     1      -0.136   7.690  14.008  1.00  0.00     0.165 C 
HETATM   22  O3  UNL     1      -0.377   8.379  15.003  1.00  0.00    -0.294 OA
HETATM   23  C27 UNL     1      -1.249   7.242  13.041  1.00  0.00     0.032 C 
HETATM   24  C28 UNL     1      -1.533   8.459  12.124  1.00  0.00     0.025 C 
HETATM   25  O4  UNL     1      -5.503   7.264  15.707  1.00  0.00    -0.308 OA
HETATM   26  C29 UNL     1      -6.256   6.148  15.440  1.00  0.00     0.290 C 
HETATM   27  O5  UNL     1      -7.182   5.752  16.128  1.00  0.00    -0.260 OA
ENDROOT
BRANCH   1  28
HETATM   28  C6  UNL     1      -6.147   4.099  13.838  1.00  0.00     0.049 C 
BRANCH  28  29
HETATM   29  C5  UNL     1      -7.655   3.909  13.594  1.00  0.00     0.032 C 
BRANCH  29  30
HETATM   30  C4  UNL     1      -8.200   4.605  12.372  1.00  0.00    -0.024 C 
HETATM   31  C2  UNL     1      -8.958   5.718  12.335  1.00  0.00    -0.091 C 
HETATM   32  C1  UNL     1      -9.467   6.446  13.548  1.00  0.00     0.042 C 
HETATM   33  C3  UNL     1      -9.354   6.324  11.016  1.00  0.00     0.042 C 
ENDBRANCH  29  30
ENDBRANCH  28  29
ENDBRANCH   1  28
BRANCH  20  34
HETATM   34  O2  UNL     1       1.654   6.070  14.371  1.00  0.00    -0.388 OA
HETATM   35  H37 UNL     1       1.475   6.198  15.321  1.00  0.00     0.210 HD
ENDBRANCH  20  34
TORSDOF 4
ENDMDL
MODEL 3
REMARK minimizedAffinity -9.956954
REMARK  4 active torsions:
REMARK  status: ('A' for Active; 'I' for Inactive)
REMARK    1  A    between atoms: C4_4  and  C5_5 
REMARK    2  A    between atoms: C5_5  and  C6_6 
REMARK    3  A    between atoms: C6_6  and  C7_7 
REMARK    4  A    between atoms: C25_26  and  O2_27 
ROOT
HETATM    1  C7  UNL     1      -6.602   6.865  13.936  1.00  0.00     0.023 C 
HETATM    2  C8  UNL     1      -5.549   7.676  13.975  1.00  0.00    -0.034 C 
HETATM    3  C9  UNL     1      -5.739   8.768  14.952  1.00  0.00     0.163 C 
HETATM    4  C10 UNL     1      -4.362   8.933  15.603  1.00  0.00     0.048 C 
HETATM    5  C11 UNL     1      -3.422   7.915  14.862  1.00  0.00    -0.019 C 
HETATM    6  C12 UNL     1      -3.471   6.602  15.729  1.00  0.00     0.017 C 
HETATM    7  C13 UNL     1      -4.152   7.726  13.489  1.00  0.00     0.027 C 
HETATM    8  C14 UNL     1      -3.516   6.636  12.641  1.00  0.00     0.010 C 
HETATM    9  C15 UNL     1      -2.032   6.968  12.394  1.00  0.00     0.007 C 
HETATM   10  C16 UNL     1      -1.242   7.244  13.701  1.00  0.00     0.011 C 
HETATM   11  C17 UNL     1       0.327   7.352  13.501  1.00  0.00    -0.032 C 
HETATM   12  C18 UNL     1       0.854   5.875  13.457  1.00  0.00     0.016 C 
HETATM   13  C19 UNL     1       0.759   8.010  12.161  1.00  0.00     0.017 C 
HETATM   14  C20 UNL     1       2.162   8.631  12.180  1.00  0.00     0.079 C 
HETATM   15  C21 UNL     1       3.072   8.071  13.260  1.00  0.00     0.131 C 
HETATM   16  O1  UNL     1       4.239   7.771  13.004  1.00  0.00    -0.298 OA
HETATM   17  C22 UNL     1       2.519   7.987  14.685  1.00  0.00     0.059 C 
HETATM   18  C23 UNL     1       3.239   9.040  15.523  1.00  0.00     0.018 C 
HETATM   19  C24 UNL     1       0.987   8.188  14.652  1.00  0.00     0.041 C 
HETATM   20  C25 UNL     1       0.284   8.000  16.000  1.00  0.00     0.194 C 
HETATM   21  C26 UNL     1      -1.161   8.498  15.916  1.00  0.00     0.165 C 
HETATM   22  O3  UNL     1      -1.684   9.004  16.913  1.00  0.00    -0.294 OA
HETATM   23  C27 UNL     1      -1.920   8.363  14.582  1.00  0.00     0.032 C 
HETATM   24  C28 UNL     1      -1.848   9.757  13.907  1.00  0.00     0.025 C 
HETATM   25  O4  UNL     1      -6.801   8.312  15.752  1.00  0.00    -0.308 OA
HETATM   26  C29 UNL     1      -7.469   7.353  15.033  1.00  0.00     0.290 C 
HETATM   27  O5  UNL     1      -8.581   6.930  15.301  1.00  0.00    -0.260 OA
ENDROOT
BRANCH   1  28
HETATM   28  C6  UNL     1      -6.927   5.651  13.139  1.00  0.00     0.049 C 
BRANCH  28  29
HETATM   29  C5  UNL     1      -6.037   4.422  13.395  1.00  0.00     0.032 C 
BRANCH  29  30
HETATM   30  C4  UNL     1      -6.371   3.204  12.571  1.00  0.00    -0.024 C 
HETATM   31  C2  UNL     1      -5.533   2.484  11.800  1.00  0.00    -0.091 C 
HETATM   32  C1  UNL     1      -4.087   2.820  11.564  1.00  0.00     0.042 C 
HETATM   33  C3  UNL     1      -6.020   1.244  11.101  1.00  0.00     0.042 C 
ENDBRANCH  29  30
ENDBRANCH  28  29
ENDBRANCH   1  28
BRANCH  20  34
HETATM   34  O2  UNL     1       0.356   6.661  16.453  1.00  0.00    -0.388 OA
HETATM   35  H37 UNL     1      -0.115   6.621  17.305  1.00  0.00     0.210 HD
ENDBRANCH  20  34
TORSDOF 4
ENDMDL
MODEL 4
REMARK minimizedAffinity -9.42372608
REMARK  4 active torsions:
REMARK  status: ('A' for Active; 'I' for Inactive)
REMARK    1  A    between atoms: C4_4  and  C5_5 
REMARK    2  A    between atoms: C5_5  and  C6_6 
REMARK    3  A    between atoms: C6_6  and  C7_7 
REMARK    4  A    between atoms: C25_26  and  O2_27 
ROOT
HETATM    1  C7  UNL     1      -5.592   3.032  12.030  1.00  0.00     0.023 C 
HETATM    2  C8  UNL     1      -4.366   3.271  12.485  1.00  0.00    -0.034 C 
HETATM    3  C9  UNL     1      -3.479   2.104  12.294  1.00  0.00     0.163 C 
HETATM    4  C10 UNL     1      -2.134   2.718  11.887  1.00  0.00     0.048 C 
HETATM    5  C11 UNL     1      -2.348   4.274  11.945  1.00  0.00    -0.019 C 
HETATM    6  C12 UNL     1      -2.770   4.687  10.486  1.00  0.00     0.017 C 
HETATM    7  C13 UNL     1      -3.542   4.409  12.950  1.00  0.00     0.027 C 
HETATM    8  C14 UNL     1      -4.057   5.836  13.049  1.00  0.00     0.010 C 
HETATM    9  C15 UNL     1      -2.913   6.773  13.478  1.00  0.00     0.007 C 
HETATM   10  C16 UNL     1      -1.654   6.654  12.578  1.00  0.00     0.011 C 
HETATM   11  C17 UNL     1      -0.557   7.767  12.845  1.00  0.00    -0.032 C 
HETATM   12  C18 UNL     1      -1.037   9.037  12.059  1.00  0.00     0.016 C 
HETATM   13  C19 UNL     1      -0.428   8.198  14.333  1.00  0.00     0.017 C 
HETATM   14  C20 UNL     1       0.932   8.802  14.705  1.00  0.00     0.079 C 
HETATM   15  C21 UNL     1       1.709   9.355  13.522  1.00  0.00     0.131 C 
HETATM   16  O1  UNL     1       2.264  10.452  13.594  1.00  0.00    -0.298 OA
HETATM   17  C22 UNL     1       1.854   8.464  12.286  1.00  0.00     0.059 C 
HETATM   18  C23 UNL     1       3.311   8.013  12.211  1.00  0.00     0.018 C 
HETATM   19  C24 UNL     1       0.863   7.282  12.388  1.00  0.00     0.041 C 
HETATM   20  C25 UNL     1       0.811   6.378  11.152  1.00  0.00     0.194 C 
HETATM   21  C26 UNL     1       0.029   5.100  11.466  1.00  0.00     0.165 C 
HETATM   22  O3  UNL     1       0.355   4.043  10.917  1.00  0.00    -0.294 OA
HETATM   23  C27 UNL     1      -1.138   5.167  12.468  1.00  0.00     0.032 C 
HETATM   24  C28 UNL     1      -0.575   4.647  13.816  1.00  0.00     0.025 C 
HETATM   25  O4  UNL     1      -4.164   1.322  11.349  1.00  0.00    -0.308 OA
HETATM   26  C29 UNL     1      -5.481   1.706  11.380  1.00  0.00     0.290 C 
HETATM   27  O5  UNL     1      -6.403   1.076  10.892  1.00  0.00    -0.260 OA
ENDROOT
BRANCH   1  28
HETATM   28  C6  UNL     1      -6.841   3.841  11.991  1.00  0.00     0.049 C 
BRANCH  28  29
HETATM   29  C5  UNL     1      -7.754   3.724  13.225  1.00  0.00     0.032 C 
BRANCH  29  30
HETATM   30  C4  UNL     1      -7.250   4.416  14.465  1.00  0.00    -0.024 C 
HETATM   31  C2  UNL     1      -7.611   5.628  14.930  1.00  0.00    -0.091 C 
HETATM   32  C1  UNL     1      -8.561   6.562  14.233  1.00  0.00     0.042 C 
HETATM   33  C3  UNL     1      -7.061   6.137  16.235  1.00  0.00     0.042 C 
ENDBRANCH  29  30
ENDBRANCH  28  29
ENDBRANCH   1  28
BRANCH  20  34
HETATM   34  O2  UNL     1       0.290   7.052  10.023  1.00  0.00    -0.388 OA
HETATM   35  H37 UNL     1       0.283   6.415   9.286  1.00  0.00     0.210 HD
ENDBRANCH  20  34
TORSDOF 4
ENDMDL
MODEL 5
REMARK minimizedAffinity -9.35946751
REMARK  4 active torsions:
REMARK  status: ('A' for Active; 'I' for Inactive)
REMARK    1  A    between atoms: C4_4  and  C5_5 
REMARK    2  A    between atoms: C5_5  and  C6_6 
REMARK    3  A    between atoms: C6_6  and  C7_7 
REMARK    4  A    between atoms: C25_26  and  O2_27 
ROOT
HETATM    1  C7  UNL     1      -2.372   4.459  12.237  1.00  0.00     0.023 C 
HETATM    2  C8  UNL     1      -1.778   5.174  13.187  1.00  0.00    -0.034 C 
HETATM    3  C9  UNL     1      -0.305   5.086  13.094  1.00  0.00     0.163 C 
HETATM    4  C10 UNL     1       0.177   6.504  13.419  1.00  0.00     0.048 C 
HETATM    5  C11 UNL     1      -1.121   7.322  13.759  1.00  0.00    -0.019 C 
HETATM    6  C12 UNL     1      -1.561   7.981  12.399  1.00  0.00     0.017 C 
HETATM    7  C13 UNL     1      -2.118   6.197  14.202  1.00  0.00     0.027 C 
HETATM    8  C14 UNL     1      -3.525   6.726  14.426  1.00  0.00     0.010 C 
HETATM    9  C15 UNL     1      -3.499   7.840  15.489  1.00  0.00     0.007 C 
HETATM   10  C16 UNL     1      -2.483   8.968  15.168  1.00  0.00     0.011 C 
HETATM   11  C17 UNL     1      -2.602  10.237  16.110  1.00  0.00    -0.032 C 
HETATM   12  C18 UNL     1      -3.781  11.092  15.528  1.00  0.00     0.016 C 
HETATM   13  C19 UNL     1      -2.984   9.910  17.581  1.00  0.00     0.017 C 
HETATM   14  C20 UNL     1      -2.563  10.978  18.600  1.00  0.00     0.079 C 
HETATM   15  C21 UNL     1      -2.335  12.354  17.997  1.00  0.00     0.131 C 
HETATM   16  O1  UNL     1      -2.783  13.361  18.547  1.00  0.00    -0.298 OA
HETATM   17  C22 UNL     1      -1.455  12.448  16.749  1.00  0.00     0.059 C 
HETATM   18  C23 UNL     1      -0.144  13.116  17.157  1.00  0.00     0.018 C 
HETATM   19  C24 UNL     1      -1.252  11.034  16.158  1.00  0.00     0.041 C 
HETATM   20  C25 UNL     1      -0.493  10.996  14.828  1.00  0.00     0.194 C 
HETATM   21  C26 UNL     1      -0.101   9.556  14.485  1.00  0.00     0.165 C 
HETATM   22  O3  UNL     1       0.952   9.347  13.876  1.00  0.00    -0.294 OA
HETATM   23  C27 UNL     1      -1.029   8.407  14.920  1.00  0.00     0.032 C 
HETATM   24  C28 UNL     1      -0.405   7.820  16.212  1.00  0.00     0.025 C 
HETATM   25  O4  UNL     1      -0.088   4.592  11.796  1.00  0.00    -0.308 OA
HETATM   26  C29 UNL     1      -1.252   3.991  11.389  1.00  0.00     0.290 C 
HETATM   27  O5  UNL     1      -1.351   3.237  10.436  1.00  0.00    -0.260 OA
ENDROOT
BRANCH   1  28
HETATM   28  C6  UNL     1      -3.797   4.199  11.897  1.00  0.00     0.049 C 
BRANCH  28  29
HETATM   29  C5  UNL     1      -4.729   3.909  13.087  1.00  0.00     0.032 C 
BRANCH  29  30
HETATM   30  C4  UNL     1      -6.121   4.475  12.967  1.00  0.00    -0.024 C 
HETATM   31  C2  UNL     1      -7.263   3.798  12.742  1.00  0.00    -0.091 C 
HETATM   32  C1  UNL     1      -7.344   2.317  12.495  1.00  0.00     0.042 C 
HETATM   33  C3  UNL     1      -8.584   4.518  12.726  1.00  0.00     0.042 C 
ENDBRANCH  29  30
ENDBRANCH  28  29
ENDBRANCH   1  28
BRANCH  20  34
HETATM   34  O2  UNL     1      -1.225  11.607  13.782  1.00  0.00    -0.388 OA
HETATM   35  H37 UNL     1      -0.684  11.538  12.974  1.00  0.00     0.210 HD
ENDBRANCH  20  34
TORSDOF 4
ENDMDL
MODEL 6
REMARK minimizedAffinity -8.96351719
REMARK  4 active torsions:
REMARK  status: ('A' for Active; 'I' for Inactive)
REMARK    1  A    between atoms: C4_4  and  C5_5 
REMARK    2  A    between atoms: C5_5  and  C6_6 
REMARK    3  A    between atoms: C6_6  and  C7_7 
REMARK    4  A    between atoms: C25_26  and  O2_27 
ROOT
HETATM    1  C7  UNL     1       2.034   7.455  12.582  1.00  0.00     0.023 C 
HETATM    2  C8  UNL     1       1.082   6.913  13.336  1.00  0.00    -0.034 C 
HETATM    3  C9  UNL     1       1.500   6.811  14.750  1.00  0.00     0.163 C 
HETATM    4  C10 UNL     1       0.235   7.162  15.541  1.00  0.00     0.048 C 
HETATM    5  C11 UNL     1      -0.887   7.383  14.463  1.00  0.00    -0.019 C 
HETATM    6  C12 UNL     1      -0.870   8.928  14.161  1.00  0.00     0.017 C 
HETATM    7  C13 UNL     1      -0.351   6.552  13.248  1.00  0.00     0.027 C 
HETATM    8  C14 UNL     1      -1.193   6.746  11.998  1.00  0.00     0.010 C 
HETATM    9  C15 UNL     1      -2.653   6.351  12.287  1.00  0.00     0.007 C 
HETATM   10  C16 UNL     1      -3.248   7.075  13.525  1.00  0.00     0.011 C 
HETATM   11  C17 UNL     1      -4.810   6.874  13.706  1.00  0.00    -0.032 C 
HETATM   12  C18 UNL     1      -5.488   7.906  12.738  1.00  0.00     0.016 C 
HETATM   13  C19 UNL     1      -5.330   5.472  13.283  1.00  0.00     0.017 C 
HETATM   14  C20 UNL     1      -6.649   5.056  13.948  1.00  0.00     0.079 C 
HETATM   15  C21 UNL     1      -7.476   6.220  14.467  1.00  0.00     0.131 C 
HETATM   16  O1  UNL     1      -8.689   6.267  14.263  1.00  0.00    -0.298 OA
HETATM   17  C22 UNL     1      -6.767   7.270  15.326  1.00  0.00     0.059 C 
HETATM   18  C23 UNL     1      -7.269   7.109  16.759  1.00  0.00     0.018 C 
HETATM   19  C24 UNL     1      -5.237   7.086  15.200  1.00  0.00     0.041 C 
HETATM   20  C25 UNL     1      -4.401   8.155  15.910  1.00  0.00     0.194 C 
HETATM   21  C26 UNL     1      -2.932   7.725  15.967  1.00  0.00     0.165 C 
HETATM   22  O3  UNL     1      -2.244   8.054  16.937  1.00  0.00    -0.294 OA
HETATM   23  C27 UNL     1      -2.358   6.882  14.813  1.00  0.00     0.032 C 
HETATM   24  C28 UNL     1      -2.366   5.414  15.311  1.00  0.00     0.025 C 
HETATM   25  O4  UNL     1       2.598   7.685  14.832  1.00  0.00    -0.308 OA
HETATM   26  C29 UNL     1       3.072   7.863  13.556  1.00  0.00     0.290 C 
HETATM   27  O5  UNL     1       4.158   8.340  13.278  1.00  0.00    -0.260 OA
ENDROOT
BRANCH   1  28
HETATM   28  C6  UNL     1       2.133   7.763  11.130  1.00  0.00     0.049 C 
BRANCH  28  29
HETATM   29  C5  UNL     1       2.809   6.688  10.261  1.00  0.00     0.032 C 
BRANCH  29  30
HETATM   30  C4  UNL     1       2.227   6.518   8.881  1.00  0.00    -0.024 C 
HETATM   31  C2  UNL     1       2.361   7.349   7.828  1.00  0.00    -0.091 C 
HETATM   32  C1  UNL     1       3.081   8.668   7.867  1.00  0.00     0.042 C 
HETATM   33  C3  UNL     1       1.771   6.985   6.492  1.00  0.00     0.042 C 
ENDBRANCH  29  30
ENDBRANCH  28  29
ENDBRANCH   1  28
BRANCH  20  34
HETATM   34  O2  UNL     1      -4.555   9.430  15.317  1.00  0.00    -0.388 OA
HETATM   35  H37 UNL     1      -3.992  10.049  15.816  1.00  0.00     0.210 HD
ENDBRANCH  20  34
TORSDOF 4
ENDMDL
MODEL 7
REMARK minimizedAffinity -8.96057224
REMARK  4 active torsions:
REMARK  status: ('A' for Active; 'I' for Inactive)
REMARK    1  A    between atoms: C4_4  and  C5_5 
REMARK    2  A    between atoms: C5_5  and  C6_6 
REMARK    3  A    between atoms: C6_6  and  C7_7 
REMARK    4  A    between atoms: C25_26  and  O2_27 
ROOT
HETATM    1  C7  UNL     1       3.727   6.419  10.710  1.00  0.00     0.023 C 
HETATM    2  C8  UNL     1       2.527   6.984  10.802  1.00  0.00    -0.034 C 
HETATM    3  C9  UNL     1       1.565   6.374   9.860  1.00  0.00     0.163 C 
HETATM    4  C10 UNL     1       0.255   6.309  10.653  1.00  0.00     0.048 C 
HETATM    5  C11 UNL     1       0.566   6.986  12.037  1.00  0.00    -0.019 C 
HETATM    6  C12 UNL     1       0.985   5.804  12.988  1.00  0.00     0.017 C 
HETATM    7  C13 UNL     1       1.785   7.907  11.691  1.00  0.00     0.027 C 
HETATM    8  C14 UNL     1       2.390   8.554  12.925  1.00  0.00     0.010 C 
HETATM    9  C15 UNL     1       1.315   9.377  13.661  1.00  0.00     0.007 C 
HETATM   10  C16 UNL     1       0.035   8.561  13.982  1.00  0.00     0.011 C 
HETATM   11  C17 UNL     1      -0.985   9.304  14.942  1.00  0.00    -0.032 C 
HETATM   12  C18 UNL     1      -0.441   9.082  16.396  1.00  0.00     0.016 C 
HETATM   13  C19 UNL     1      -1.058  10.843  14.732  1.00  0.00     0.017 C 
HETATM   14  C20 UNL     1      -2.371  11.486  15.199  1.00  0.00     0.079 C 
HETATM   15  C21 UNL     1      -3.133  10.665  16.224  1.00  0.00     0.131 C 
HETATM   16  O1  UNL     1      -3.618  11.200  17.222  1.00  0.00    -0.298 OA
HETATM   17  C22 UNL     1      -3.358   9.181  15.924  1.00  0.00     0.059 C 
HETATM   18  C23 UNL     1      -4.841   8.991  15.616  1.00  0.00     0.018 C 
HETATM   19  C24 UNL     1      -2.441   8.750  14.756  1.00  0.00     0.041 C 
HETATM   20  C25 UNL     1      -2.470   7.253  14.434  1.00  0.00     0.194 C 
HETATM   21  C26 UNL     1      -1.763   6.986  13.103  1.00  0.00     0.165 C 
HETATM   22  O3  UNL     1      -2.164   6.070  12.380  1.00  0.00    -0.294 OA
HETATM   23  C27 UNL     1      -0.575   7.878  12.697  1.00  0.00     0.032 C 
HETATM   24  C28 UNL     1      -1.144   8.920  11.700  1.00  0.00     0.025 C 
HETATM   25  O4  UNL     1       2.182   5.163   9.499  1.00  0.00    -0.308 OA
HETATM   26  C29 UNL     1       3.521   5.292   9.772  1.00  0.00     0.290 C 
HETATM   27  O5  UNL     1       4.392   4.550   9.351  1.00  0.00    -0.260 OA
ENDROOT
BRANCH   1  28
HETATM   28  C6  UNL     1       5.024   6.659  11.401  1.00  0.00     0.049 C 
BRANCH  28  29
HETATM   29  C5  UNL     1       5.570   8.095  11.322  1.00  0.00     0.032 C 
BRANCH  29  30
HETATM   30  C4  UNL     1       6.871   8.328  12.047  1.00  0.00    -0.024 C 
HETATM   31  C2  UNL     1       7.091   8.262  13.375  1.00  0.00    -0.091 C 
HETATM   32  C1  UNL     1       6.026   8.004  14.404  1.00  0.00     0.042 C 
HETATM   33  C3  UNL     1       8.478   8.450  13.927  1.00  0.00     0.042 C 
ENDBRANCH  29  30
ENDBRANCH  28  29
ENDBRANCH   1  28
BRANCH  20  34
HETATM   34  O2  UNL     1      -1.928   6.474  15.484  1.00  0.00    -0.388 OA
HETATM   35  H37 UNL     1      -1.976   5.542  15.204  1.00  0.00     0.210 HD
ENDBRANCH  20  34
TORSDOF 4
ENDMDL
MODEL 8
REMARK minimizedAffinity -8.92111874
REMARK  4 active torsions:
REMARK  status: ('A' for Active; 'I' for Inactive)
REMARK    1  A    between atoms: C4_4  and  C5_5 
REMARK    2  A    between atoms: C5_5  and  C6_6 
REMARK    3  A    between atoms: C6_6  and  C7_7 
REMARK    4  A    between atoms: C25_26  and  O2_27 
ROOT
HETATM    1  C7  UNL     1      -4.205   4.691  12.750  1.00  0.00     0.023 C 
HETATM    2  C8  UNL     1      -3.243   5.278  13.456  1.00  0.00    -0.034 C 
HETATM    3  C9  UNL     1      -1.905   4.993  12.896  1.00  0.00     0.163 C 
HETATM    4  C10 UNL     1      -1.148   6.317  13.042  1.00  0.00     0.048 C 
HETATM    5  C11 UNL     1      -2.140   7.291  13.776  1.00  0.00    -0.019 C 
HETATM    6  C12 UNL     1      -2.890   8.059  12.624  1.00  0.00     0.017 C 
HETATM    7  C13 UNL     1      -3.094   6.296  14.521  1.00  0.00     0.027 C 
HETATM    8  C14 UNL     1      -4.266   7.003  15.180  1.00  0.00     0.010 C 
HETATM    9  C15 UNL     1      -3.746   8.059  16.173  1.00  0.00     0.007 C 
HETATM   10  C16 UNL     1      -2.734   9.049  15.538  1.00  0.00     0.011 C 
HETATM   11  C17 UNL     1      -2.365  10.283  16.462  1.00  0.00    -0.032 C 
HETATM   12  C18 UNL     1      -3.533  11.314  16.283  1.00  0.00     0.016 C 
HETATM   13  C19 UNL     1      -2.303   9.952  17.980  1.00  0.00     0.017 C 
HETATM   14  C20 UNL     1      -1.432  10.909  18.804  1.00  0.00     0.079 C 
HETATM   15  C21 UNL     1      -1.214  12.265  18.153  1.00  0.00     0.131 C 
HETATM   16  O1  UNL     1      -1.315  13.300  18.812  1.00  0.00    -0.298 OA
HETATM   17  C22 UNL     1      -0.772  12.289  16.688  1.00  0.00     0.059 C 
HETATM   18  C23 UNL     1       0.682  12.753  16.651  1.00  0.00     0.018 C 
HETATM   19  C24 UNL     1      -0.971  10.885  16.071  1.00  0.00     0.041 C 
HETATM   20  C25 UNL     1      -0.688  10.798  14.568  1.00  0.00     0.194 C 
HETATM   21  C26 UNL     1      -0.634   9.333  14.124  1.00  0.00     0.165 C 
HETATM   22  O3  UNL     1       0.130   9.006  13.212  1.00  0.00    -0.294 OA
HETATM   23  C27 UNL     1      -1.530   8.305  14.841  1.00  0.00     0.032 C 
HETATM   24  C28 UNL     1      -0.618   7.586  15.868  1.00  0.00     0.025 C 
HETATM   25  O4  UNL     1      -2.185   4.528  11.599  1.00  0.00    -0.308 OA
HETATM   26  C29 UNL     1      -3.491   4.109  11.590  1.00  0.00     0.290 C 
HETATM   27  O5  UNL     1      -3.993   3.414  10.723  1.00  0.00    -0.260 OA
ENDROOT
BRANCH   1  28
HETATM   28  C6  UNL     1      -5.686   4.642  12.885  1.00  0.00     0.049 C 
BRANCH  28  29
HETATM   29  C5  UNL     1      -6.301   5.639  13.883  1.00  0.00     0.032 C 
BRANCH  29  30
HETATM   30  C4  UNL     1      -7.740   6.004  13.621  1.00  0.00    -0.024 C 
HETATM   31  C2  UNL     1      -8.622   6.530  14.494  1.00  0.00    -0.091 C 
HETATM   32  C1  UNL     1      -8.336   6.790  15.946  1.00  0.00     0.042 C 
HETATM   33  C3  UNL     1     -10.007   6.906  14.041  1.00  0.00     0.042 C 
ENDBRANCH  29  30
ENDBRANCH  28  29
ENDBRANCH   1  28
BRANCH  20  34
HETATM   34  O2  UNL     1      -1.619  11.545  13.808  1.00  0.00    -0.388 OA
HETATM   35  H37 UNL     1      -1.378  11.435  12.870  1.00  0.00     0.210 HD
ENDBRANCH  20  34
TORSDOF 4
ENDMDL
MODEL 9
REMARK minimizedAffinity -8.89670849
REMARK  4 active torsions:
REMARK  status: ('A' for Active; 'I' for Inactive)
REMARK    1  A    between atoms: C4_4  and  C5_5 
REMARK    2  A    between atoms: C5_5  and  C6_6 
REMARK    3  A    between atoms: C6_6  and  C7_7 
REMARK    4  A    between atoms: C25_26  and  O2_27 
ROOT
HETATM    1  C7  UNL     1       4.856   7.309  11.741  1.00  0.00     0.023 C 
HETATM    2  C8  UNL     1       4.052   7.400  12.797  1.00  0.00    -0.034 C 
HETATM    3  C9  UNL     1       4.689   8.147  13.902  1.00  0.00     0.163 C 
HETATM    4  C10 UNL     1       3.552   8.990  14.489  1.00  0.00     0.048 C 
HETATM    5  C11 UNL     1       2.268   8.589  13.676  1.00  0.00    -0.019 C 
HETATM    6  C12 UNL     1       2.185   9.630  12.497  1.00  0.00     0.017 C 
HETATM    7  C13 UNL     1       2.637   7.158  13.155  1.00  0.00     0.027 C 
HETATM    8  C14 UNL     1       1.604   6.612  12.183  1.00  0.00     0.010 C 
HETATM    9  C15 UNL     1       0.221   6.574  12.860  1.00  0.00     0.007 C 
HETATM   10  C16 UNL     1      -0.198   7.937  13.472  1.00  0.00     0.011 C 
HETATM   11  C17 UNL     1      -1.705   7.994  13.962  1.00  0.00    -0.032 C 
HETATM   12  C18 UNL     1      -2.561   8.272  12.677  1.00  0.00     0.016 C 
HETATM   13  C19 UNL     1      -2.235   6.661  14.560  1.00  0.00     0.017 C 
HETATM   14  C20 UNL     1      -3.420   6.823  15.522  1.00  0.00     0.079 C 
HETATM   15  C21 UNL     1      -4.195   8.116  15.339  1.00  0.00     0.131 C 
HETATM   16  O1  UNL     1      -5.426   8.113  15.326  1.00  0.00    -0.298 OA
HETATM   17  C22 UNL     1      -3.398   9.421  15.269  1.00  0.00     0.059 C 
HETATM   18  C23 UNL     1      -3.664  10.195  16.558  1.00  0.00     0.018 C 
HETATM   19  C24 UNL     1      -1.901   9.095  15.061  1.00  0.00     0.041 C 
HETATM   20  C25 UNL     1      -1.001  10.316  14.844  1.00  0.00     0.194 C 
HETATM   21  C26 UNL     1       0.472   9.910  14.937  1.00  0.00     0.165 C 
HETATM   22  O3  UNL     1       1.291  10.711  15.395  1.00  0.00    -0.294 OA
HETATM   23  C27 UNL     1       0.888   8.504  14.466  1.00  0.00     0.032 C 
HETATM   24  C28 UNL     1       1.008   7.641  15.748  1.00  0.00     0.025 C 
HETATM   25  O4  UNL     1       5.755   8.815  13.276  1.00  0.00    -0.308 OA
HETATM   26  C29 UNL     1       6.018   8.152  12.103  1.00  0.00     0.290 C 
HETATM   27  O5  UNL     1       7.031   8.288  11.438  1.00  0.00    -0.260 OA
ENDROOT
BRANCH   1  28
HETATM   28  C6  UNL     1       4.717   6.668  10.406  1.00  0.00     0.049 C 
BRANCH  28  29
HETATM   29  C5  UNL     1       3.319   6.119  10.067  1.00  0.00     0.032 C 
BRANCH  29  30
HETATM   30  C4  UNL     1       2.928   6.211   8.614  1.00  0.00    -0.024 C 
HETATM   31  C2  UNL     1       2.087   7.098   8.048  1.00  0.00    -0.091 C 
HETATM   32  C1  UNL     1       1.312   8.142   8.802  1.00  0.00     0.042 C 
HETATM   33  C3  UNL     1       1.866   7.094   6.559  1.00  0.00     0.042 C 
ENDBRANCH  29  30
ENDBRANCH  28  29
ENDBRANCH   1  28
BRANCH  20  34
HETATM   34  O2  UNL     1      -1.290  10.979  13.627  1.00  0.00    -0.388 OA
HETATM   35  H37 UNL     1      -0.678  11.733  13.559  1.00  0.00     0.210 HD
ENDBRANCH  20  34
TORSDOF 4
ENDMDL
