MODEL 1
REMARK minimizedAffinity -7.6028347
REMARK CNNscore 0.572908223
REMARK CNNaffinity 7.51395988
REMARK  18 active torsions:
REMARK  status: ('A' for Active; 'I' for Inactive)
REMARK    1  A    between atoms: C2_2  and  C3_3 
REMARK    2  A    between atoms: C2_2  and  C29_35 
REMARK    3  A    between atoms: C4_4  and  C5_5 
REMARK    4  A    between atoms: C6_6  and  C7_7 
REMARK    5  A    between atoms: C6_6  and  C8_9 
REMARK    6  A    between atoms: C7_7  and  O1_8 
REMARK    7  A    between atoms: C12_13  and  O2_14 
REMARK    8  A    between atoms: C13_15  and  C14_16 
REMARK    9  A    between atoms: C14_16  and  C15_17 
REMARK   10  A    between atoms: C15_17  and  C16_18 
REMARK   11  A    between atoms: C16_18  and  O3_19 
REMARK   12  A    between atoms: C18_21  and  C19_22 
REMARK   13  A    between atoms: C25_29  and  O5_30 
REMARK   14  A    between atoms: C25_29  and  C26_31 
REMARK   15  A    between atoms: C26_31  and  C27_32 
REMARK   16  A    between atoms: C27_32  and  N1_33 
REMARK   17  A    between atoms: C29_35  and  C30_36 
REMARK   18  A    between atoms: C30_36  and  C31_37 
ROOT
HETATM    1  C8  UNL     1      -1.554   5.476  12.586  1.00  0.00     0.046 C 
HETATM    2  C9  UNL     1      -0.823   6.567  11.800  1.00  0.00     0.013 C 
HETATM    3  C10 UNL     1      -0.575   7.680  12.832  1.00  0.00     0.017 C 
HETATM    4  C11 UNL     1      -0.719   7.039  14.269  1.00  0.00     0.025 C 
HETATM    5  C12 UNL     1      -0.797   5.508  13.936  1.00  0.00     0.138 C 
HETATM    6  C13 UNL     1      -2.144   7.562  14.829  1.00  0.00     0.029 C 
HETATM    7  C17 UNL     1      -2.152   9.011  15.347  1.00  0.00    -0.061 C 
HETATM    8  C18 UNL     1      -3.152   9.905  15.130  1.00  0.00    -0.017 C 
HETATM    9  C20 UNL     1      -3.170  11.297  15.718  1.00  0.00     0.042 C 
HETATM   10  C21 UNL     1      -2.187  11.482  16.866  1.00  0.00     0.005 C 
HETATM   11  C22 UNL     1      -0.837  10.914  16.479  1.00  0.00     0.009 C 
HETATM   12  C23 UNL     1      -0.935   9.404  16.178  1.00  0.00     0.018 C 
HETATM   13  C24 UNL     1       0.384   8.969  15.525  1.00  0.00     0.047 C 
HETATM   14  C25 UNL     1       0.465   7.459  15.233  1.00  0.00     0.071 C 
ENDROOT
BRANCH   5  15
HETATM   15  O2  UNL     1       0.511   4.967  13.801  1.00  0.00    -0.394 OA
HETATM   16  H15 UNL     1       0.441   4.078  13.391  1.00  0.00     0.210 HD
ENDBRANCH   5  15
BRANCH   6  17
HETATM   17  C14 UNL     1      -3.026   6.634  15.721  1.00  0.00     0.012 C 
BRANCH  17  18
HETATM   18  C15 UNL     1      -4.290   6.014  15.140  1.00  0.00     0.027 C 
BRANCH  18  19
HETATM   19  C16 UNL     1      -5.464   6.128  16.113  1.00  0.00     0.164 C 
BRANCH  19  20
HETATM   20  O3  UNL     1      -6.032   7.429  16.045  1.00  0.00    -0.401 OA
HETATM   21  H23 UNL     1      -5.307   8.076  16.088  1.00  0.00     0.209 HD
ENDBRANCH  19  20
ENDBRANCH  18  19
ENDBRANCH  17  18
ENDBRANCH   6  17
BRANCH  14  22
HETATM   22  O5  UNL     1       0.232   6.802  16.500  1.00  0.00    -0.389 OA
HETATM   23  H34 UNL     1       0.475   5.866  16.378  1.00  0.00     0.210 HD
ENDBRANCH  14  22
BRANCH  14  24
HETATM   24  C26 UNL     1       1.956   7.079  14.928  1.00  0.00     0.068 C 
BRANCH  24  25
HETATM   25  C27 UNL     1       3.137   7.770  15.611  1.00  0.00     0.272 C 
BRANCH  25  26
HETATM   26  N1  UNL     1       4.184   8.280  14.723  1.00  0.00     0.079 N 
HETATM   27  C28 UNL     1       5.509   7.784  15.076  1.00  0.00     0.306 C 
HETATM   28  H39 UNL     1       3.973   7.978  13.771  1.00  0.00     0.315 HD
ENDBRANCH  25  26
ENDBRANCH  24  25
ENDBRANCH  14  24
BRANCH   1  29
HETATM   29  C6  UNL     1      -1.761   4.128  11.899  1.00  0.00    -0.050 C 
HETATM   30  C5  UNL     1      -2.954   3.496  11.815  1.00  0.00     0.005 C 
BRANCH  30  31
HETATM   31  C4  UNL     1      -4.216   3.912  12.393  1.00  0.00     0.001 C 
HETATM   32  C3  UNL     1      -5.400   3.386  12.036  1.00  0.00     0.006 C 
BRANCH  32  33
HETATM   33  C2  UNL     1      -6.704   3.748  12.585  1.00  0.00    -0.067 C 
HETATM   34  C1  UNL     1      -7.590   2.777  12.872  1.00  0.00     0.019 C 
BRANCH  33  35
HETATM   35  C29 UNL     1      -7.051   5.199  12.874  1.00  0.00     0.041 C 
BRANCH  35  36
HETATM   36  C30 UNL     1      -8.549   5.465  13.108  1.00  0.00     0.032 C 
BRANCH  36  37
HETATM   37  C31 UNL     1      -8.799   6.570  14.101  1.00  0.00    -0.024 C 
HETATM   38  C32 UNL     1      -9.980   7.090  14.490  1.00  0.00    -0.091 C 
HETATM   39  C33 UNL     1     -11.335   6.651  14.003  1.00  0.00     0.042 C 
HETATM   40  C34 UNL     1     -10.028   8.203  15.505  1.00  0.00     0.042 C 
ENDBRANCH  36  37
ENDBRANCH  35  36
ENDBRANCH  33  35
ENDBRANCH  32  33
ENDBRANCH  30  31
BRANCH  29  41
HETATM   41  C7  UNL     1      -0.567   3.465  11.262  1.00  0.00     0.198 C 
BRANCH  41  42
HETATM   42  O1  UNL     1      -0.542   2.113  11.706  1.00  0.00    -0.397 OA
HETATM   43  H8  UNL     1      -1.203   1.640  11.168  1.00  0.00     0.209 HD
ENDBRANCH  41  42
ENDBRANCH  29  41
ENDBRANCH   1  29
BRANCH   8  44
HETATM   44  C19 UNL     1      -4.377   9.605  14.321  1.00  0.00     0.265 C 
HETATM   45  O4  UNL     1      -4.331   9.145  13.184  1.00  0.00    -0.302 OA
ENDBRANCH   8  44
TORSDOF 18
ENDMDL
MODEL 2
REMARK minimizedAffinity -6.1137042
REMARK CNNscore 0.560988426
REMARK CNNaffinity 6.31398344
REMARK  18 active torsions:
REMARK  status: ('A' for Active; 'I' for Inactive)
REMARK    1  A    between atoms: C2_2  and  C3_3 
REMARK    2  A    between atoms: C2_2  and  C29_35 
REMARK    3  A    between atoms: C4_4  and  C5_5 
REMARK    4  A    between atoms: C6_6  and  C7_7 
REMARK    5  A    between atoms: C6_6  and  C8_9 
REMARK    6  A    between atoms: C7_7  and  O1_8 
REMARK    7  A    between atoms: C12_13  and  O2_14 
REMARK    8  A    between atoms: C13_15  and  C14_16 
REMARK    9  A    between atoms: C14_16  and  C15_17 
REMARK   10  A    between atoms: C15_17  and  C16_18 
REMARK   11  A    between atoms: C16_18  and  O3_19 
REMARK   12  A    between atoms: C18_21  and  C19_22 
REMARK   13  A    between atoms: C25_29  and  O5_30 
REMARK   14  A    between atoms: C25_29  and  C26_31 
REMARK   15  A    between atoms: C26_31  and  C27_32 
REMARK   16  A    between atoms: C27_32  and  N1_33 
REMARK   17  A    between atoms: C29_35  and  C30_36 
REMARK   18  A    between atoms: C30_36  and  C31_37 
ROOT
HETATM    1  C8  UNL     1       2.239  11.318  16.554  1.00  0.00     0.046 C 
HETATM    2  C9  UNL     1       1.116  11.353  15.515  1.00  0.00     0.013 C 
HETATM    3  C10 UNL     1       1.506  10.270  14.495  1.00  0.00     0.017 C 
HETATM    4  C11 UNL     1       2.555   9.314  15.192  1.00  0.00     0.025 C 
HETATM    5  C12 UNL     1       2.494   9.798  16.684  1.00  0.00     0.138 C 
HETATM    6  C13 UNL     1       3.984   9.700  14.538  1.00  0.00     0.029 C 
HETATM    7  C17 UNL     1       4.232   9.136  13.128  1.00  0.00    -0.061 C 
HETATM    8  C18 UNL     1       4.823   9.821  12.114  1.00  0.00    -0.017 C 
HETATM    9  C20 UNL     1       5.126   9.215  10.762  1.00  0.00     0.042 C 
HETATM   10  C21 UNL     1       5.070   7.694  10.755  1.00  0.00     0.005 C 
HETATM   11  C22 UNL     1       3.811   7.224  11.454  1.00  0.00     0.009 C 
HETATM   12  C23 UNL     1       3.784   7.692  12.924  1.00  0.00     0.018 C 
HETATM   13  C24 UNL     1       2.375   7.435  13.473  1.00  0.00     0.047 C 
HETATM   14  C25 UNL     1       2.215   7.785  14.965  1.00  0.00     0.071 C 
ENDROOT
BRANCH   5  15
HETATM   15  O2  UNL     1       1.423   9.155  17.364  1.00  0.00    -0.394 OA
HETATM   16  H15 UNL     1       1.272   9.619  18.215  1.00  0.00     0.210 HD
ENDBRANCH   5  15
BRANCH   6  17
HETATM   17  C14 UNL     1       5.281   9.658  15.404  1.00  0.00     0.012 C 
BRANCH  17  18
HETATM   18  C15 UNL     1       6.248   8.491  15.255  1.00  0.00     0.027 C 
BRANCH  18  19
HETATM   19  C16 UNL     1       7.613   8.818  15.861  1.00  0.00     0.164 C 
BRANCH  19  20
HETATM   20  O3  UNL     1       8.101   7.706  16.598  1.00  0.00    -0.401 OA
HETATM   21  H23 UNL     1       7.384   7.388  17.173  1.00  0.00     0.209 HD
ENDBRANCH  19  20
ENDBRANCH  18  19
ENDBRANCH  17  18
ENDBRANCH   6  17
BRANCH  14  22
HETATM   22  O5  UNL     1       3.227   7.019  15.657  1.00  0.00    -0.389 OA
HETATM   23  H34 UNL     1       3.015   7.071  16.608  1.00  0.00     0.210 HD
ENDBRANCH  14  22
BRANCH  14  24
HETATM   24  C26 UNL     1       0.886   7.144  15.498  1.00  0.00     0.068 C 
BRANCH  24  25
HETATM   25  C27 UNL     1      -0.165   6.536  14.568  1.00  0.00     0.272 C 
BRANCH  25  26
HETATM   26  N1  UNL     1      -1.058   5.543  15.169  1.00  0.00     0.079 N 
HETATM   27  C28 UNL     1      -2.394   5.565  14.585  1.00  0.00     0.306 C 
HETATM   28  H39 UNL     1      -0.657   4.617  15.017  1.00  0.00     0.315 HD
ENDBRANCH  25  26
ENDBRANCH  24  25
ENDBRANCH  14  24
BRANCH   1  29
HETATM   29  C6  UNL     1       2.046  12.135  17.831  1.00  0.00    -0.050 C 
HETATM   30  C5  UNL     1       0.976  12.018  18.650  1.00  0.00     0.005 C 
BRANCH  30  31
HETATM   31  C4  UNL     1      -0.194  11.182  18.461  1.00  0.00     0.001 C 
HETATM   32  C3  UNL     1      -1.421  11.675  18.228  1.00  0.00     0.006 C 
BRANCH  32  33
HETATM   33  C2  UNL     1      -2.637  10.893  18.016  1.00  0.00    -0.067 C 
HETATM   34  C1  UNL     1      -3.656  11.010  18.887  1.00  0.00     0.019 C 
BRANCH  33  35
HETATM   35  C29 UNL     1      -2.777   9.986  16.804  1.00  0.00     0.041 C 
BRANCH  35  36
HETATM   36  C30 UNL     1      -3.577  10.593  15.638  1.00  0.00     0.032 C 
BRANCH  36  37
HETATM   37  C31 UNL     1      -3.825   9.610  14.524  1.00  0.00    -0.024 C 
HETATM   38  C32 UNL     1      -4.882   8.790  14.356  1.00  0.00    -0.091 C 
HETATM   39  C33 UNL     1      -6.072   8.692  15.272  1.00  0.00     0.042 C 
HETATM   40  C34 UNL     1      -4.951   7.868  13.166  1.00  0.00     0.042 C 
ENDBRANCH  36  37
ENDBRANCH  35  36
ENDBRANCH  33  35
ENDBRANCH  32  33
ENDBRANCH  30  31
BRANCH  29  41
HETATM   41  C7  UNL     1       3.119  13.121  18.212  1.00  0.00     0.198 C 
BRANCH  41  42
HETATM   42  O1  UNL     1       3.987  12.472  19.134  1.00  0.00    -0.397 OA
HETATM   43  H8  UNL     1       4.574  11.906  18.599  1.00  0.00     0.209 HD
ENDBRANCH  41  42
ENDBRANCH  29  41
ENDBRANCH   1  29
BRANCH   8  44
HETATM   44  C19 UNL     1       5.286  11.242  12.226  1.00  0.00     0.265 C 
HETATM   45  O4  UNL     1       6.418  11.549  12.585  1.00  0.00    -0.302 OA
ENDBRANCH   8  44
TORSDOF 18
ENDMDL
MODEL 3
REMARK minimizedAffinity -8.52037334
REMARK CNNscore 0.542045236
REMARK CNNaffinity 7.12662077
REMARK  18 active torsions:
REMARK  status: ('A' for Active; 'I' for Inactive)
REMARK    1  A    between atoms: C2_2  and  C3_3 
REMARK    2  A    between atoms: C2_2  and  C29_35 
REMARK    3  A    between atoms: C4_4  and  C5_5 
REMARK    4  A    between atoms: C6_6  and  C7_7 
REMARK    5  A    between atoms: C6_6  and  C8_9 
REMARK    6  A    between atoms: C7_7  and  O1_8 
REMARK    7  A    between atoms: C12_13  and  O2_14 
REMARK    8  A    between atoms: C13_15  and  C14_16 
REMARK    9  A    between atoms: C14_16  and  C15_17 
REMARK   10  A    between atoms: C15_17  and  C16_18 
REMARK   11  A    between atoms: C16_18  and  O3_19 
REMARK   12  A    between atoms: C18_21  and  C19_22 
REMARK   13  A    between atoms: C25_29  and  O5_30 
REMARK   14  A    between atoms: C25_29  and  C26_31 
REMARK   15  A    between atoms: C26_31  and  C27_32 
REMARK   16  A    between atoms: C27_32  and  N1_33 
REMARK   17  A    between atoms: C29_35  and  C30_36 
REMARK   18  A    between atoms: C30_36  and  C31_37 
ROOT
HETATM    1  C8  UNL     1      -3.040   8.398  13.948  1.00  0.00     0.046 C 
HETATM    2  C9  UNL     1      -4.151   8.906  13.026  1.00  0.00     0.013 C 
HETATM    3  C10 UNL     1      -5.224   7.806  13.079  1.00  0.00     0.017 C 
HETATM    4  C11 UNL     1      -4.952   6.936  14.370  1.00  0.00     0.025 C 
HETATM    5  C12 UNL     1      -3.858   7.784  15.109  1.00  0.00     0.138 C 
HETATM    6  C13 UNL     1      -4.312   5.552  13.826  1.00  0.00     0.029 C 
HETATM    7  C17 UNL     1      -5.320   4.557  13.226  1.00  0.00    -0.061 C 
HETATM    8  C18 UNL     1      -5.104   3.817  12.107  1.00  0.00    -0.017 C 
HETATM    9  C20 UNL     1      -6.080   2.787  11.585  1.00  0.00     0.042 C 
HETATM   10  C21 UNL     1      -7.132   2.377  12.607  1.00  0.00     0.005 C 
HETATM   11  C22 UNL     1      -7.716   3.611  13.264  1.00  0.00     0.009 C 
HETATM   12  C23 UNL     1      -6.626   4.416  14.002  1.00  0.00     0.018 C 
HETATM   13  C24 UNL     1      -7.226   5.775  14.386  1.00  0.00     0.047 C 
HETATM   14  C25 UNL     1      -6.272   6.668  15.202  1.00  0.00     0.071 C 
ENDROOT
BRANCH   5  15
HETATM   15  O2  UNL     1      -4.471   8.798  15.895  1.00  0.00    -0.394 OA
HETATM   16  H15 UNL     1      -3.781   9.438  16.173  1.00  0.00     0.210 HD
ENDBRANCH   5  15
BRANCH   6  17
HETATM   17  C14 UNL     1      -3.210   4.819  14.651  1.00  0.00     0.012 C 
BRANCH  17  18
HETATM   18  C15 UNL     1      -1.823   5.438  14.771  1.00  0.00     0.027 C 
BRANCH  18  19
HETATM   19  C16 UNL     1      -0.987   5.179  13.517  1.00  0.00     0.164 C 
BRANCH  19  20
HETATM   20  O3  UNL     1       0.392   5.116  13.852  1.00  0.00    -0.401 OA
HETATM   21  H23 UNL     1       0.599   5.879  14.418  1.00  0.00     0.209 HD
ENDBRANCH  19  20
ENDBRANCH  18  19
ENDBRANCH  17  18
ENDBRANCH   6  17
BRANCH  14  22
HETATM   22  O5  UNL     1      -5.894   5.884  16.356  1.00  0.00    -0.389 OA
HETATM   23  H34 UNL     1      -5.458   6.495  16.978  1.00  0.00     0.210 HD
ENDBRANCH  14  22
BRANCH  14  24
HETATM   24  C26 UNL     1      -7.096   7.837  15.846  1.00  0.00     0.068 C 
BRANCH  24  25
HETATM   25  C27 UNL     1      -8.615   7.776  16.018  1.00  0.00     0.272 C 
BRANCH  25  26
HETATM   26  N1  UNL     1      -9.408   8.387  14.949  1.00  0.00     0.079 N 
HETATM   27  C28 UNL     1     -10.782   7.900  14.922  1.00  0.00     0.306 C 
HETATM   28  H39 UNL     1      -9.430   9.396  15.102  1.00  0.00     0.315 HD
ENDBRANCH  25  26
ENDBRANCH  24  25
ENDBRANCH  14  24
BRANCH   1  29
HETATM   29  C6  UNL     1      -1.906   9.364  14.287  1.00  0.00    -0.050 C 
HETATM   30  C5  UNL     1      -0.742   9.435  13.603  1.00  0.00     0.005 C 
BRANCH  30  31
HETATM   31  C4  UNL     1      -0.314   8.600  12.498  1.00  0.00     0.001 C 
HETATM   32  C3  UNL     1      -0.450   8.955  11.209  1.00  0.00     0.006 C 
BRANCH  32  33
HETATM   33  C2  UNL     1      -0.030   8.171  10.051  1.00  0.00    -0.067 C 
HETATM   34  C1  UNL     1      -0.478   8.510   8.828  1.00  0.00     0.019 C 
BRANCH  33  35
HETATM   35  C29 UNL     1       0.936   7.008  10.207  1.00  0.00     0.041 C 
BRANCH  35  36
HETATM   36  C30 UNL     1       2.333   7.250   9.608  1.00  0.00     0.032 C 
BRANCH  36  37
HETATM   37  C31 UNL     1       2.762   6.158   8.663  1.00  0.00    -0.024 C 
HETATM   38  C32 UNL     1       2.568   6.085   7.331  1.00  0.00    -0.091 C 
HETATM   39  C33 UNL     1       1.871   7.117   6.487  1.00  0.00     0.042 C 
HETATM   40  C34 UNL     1       3.076   4.900   6.550  1.00  0.00     0.042 C 
ENDBRANCH  36  37
ENDBRANCH  35  36
ENDBRANCH  33  35
ENDBRANCH  32  33
ENDBRANCH  30  31
BRANCH  29  41
HETATM   41  C7  UNL     1      -2.100  10.308  15.446  1.00  0.00     0.198 C 
BRANCH  41  42
HETATM   42  O1  UNL     1      -3.102  11.245  15.069  1.00  0.00    -0.397 OA
HETATM   43  H8  UNL     1      -3.956  10.788  15.184  1.00  0.00     0.209 HD
ENDBRANCH  41  42
ENDBRANCH  29  41
ENDBRANCH   1  29
BRANCH   8  44
HETATM   44  C19 UNL     1      -3.855   3.897  11.283  1.00  0.00     0.265 C 
HETATM   45  O4  UNL     1      -2.893   3.156  11.454  1.00  0.00    -0.302 OA
ENDBRANCH   8  44
TORSDOF 18
ENDMDL
MODEL 4
REMARK minimizedAffinity -8.25379181
REMARK CNNscore 0.424852997
REMARK CNNaffinity 6.78031015
REMARK  18 active torsions:
REMARK  status: ('A' for Active; 'I' for Inactive)
REMARK    1  A    between atoms: C2_2  and  C3_3 
REMARK    2  A    between atoms: C2_2  and  C29_35 
REMARK    3  A    between atoms: C4_4  and  C5_5 
REMARK    4  A    between atoms: C6_6  and  C7_7 
REMARK    5  A    between atoms: C6_6  and  C8_9 
REMARK    6  A    between atoms: C7_7  and  O1_8 
REMARK    7  A    between atoms: C12_13  and  O2_14 
REMARK    8  A    between atoms: C13_15  and  C14_16 
REMARK    9  A    between atoms: C14_16  and  C15_17 
REMARK   10  A    between atoms: C15_17  and  C16_18 
REMARK   11  A    between atoms: C16_18  and  O3_19 
REMARK   12  A    between atoms: C18_21  and  C19_22 
REMARK   13  A    between atoms: C25_29  and  O5_30 
REMARK   14  A    between atoms: C25_29  and  C26_31 
REMARK   15  A    between atoms: C26_31  and  C27_32 
REMARK   16  A    between atoms: C27_32  and  N1_33 
REMARK   17  A    between atoms: C29_35  and  C30_36 
REMARK   18  A    between atoms: C30_36  and  C31_37 
ROOT
HETATM    1  C8  UNL     1      -2.840   8.408  13.964  1.00  0.00     0.046 C 
HETATM    2  C9  UNL     1      -3.936   8.920  13.026  1.00  0.00     0.013 C 
HETATM    3  C10 UNL     1      -4.979   7.790  13.008  1.00  0.00     0.017 C 
HETATM    4  C11 UNL     1      -4.723   6.882  14.275  1.00  0.00     0.025 C 
HETATM    5  C12 UNL     1      -3.675   7.733  15.078  1.00  0.00     0.138 C 
HETATM    6  C13 UNL     1      -4.029   5.536  13.704  1.00  0.00     0.029 C 
HETATM    7  C17 UNL     1      -4.990   4.537  13.038  1.00  0.00    -0.061 C 
HETATM    8  C18 UNL     1      -4.720   3.843  11.902  1.00  0.00    -0.017 C 
HETATM    9  C20 UNL     1      -5.651   2.807  11.314  1.00  0.00     0.042 C 
HETATM   10  C21 UNL     1      -6.722   2.333  12.287  1.00  0.00     0.005 C 
HETATM   11  C22 UNL     1      -7.359   3.528  12.968  1.00  0.00     0.009 C 
HETATM   12  C23 UNL     1      -6.315   4.334  13.767  1.00  0.00     0.018 C 
HETATM   13  C24 UNL     1      -6.964   5.663  14.179  1.00  0.00     0.047 C 
HETATM   14  C25 UNL     1      -6.060   6.550  15.055  1.00  0.00     0.071 C 
ENDROOT
BRANCH   5  15
HETATM   15  O2  UNL     1      -4.340   8.701  15.878  1.00  0.00    -0.394 OA
HETATM   16  H15 UNL     1      -3.676   9.349  16.200  1.00  0.00     0.210 HD
ENDBRANCH   5  15
BRANCH   6  17
HETATM   17  C14 UNL     1      -2.933   4.804  14.537  1.00  0.00     0.012 C 
BRANCH  17  18
HETATM   18  C15 UNL     1      -1.542   5.414  14.653  1.00  0.00     0.027 C 
BRANCH  18  19
HETATM   19  C16 UNL     1      -0.696   5.114  13.415  1.00  0.00     0.164 C 
BRANCH  19  20
HETATM   20  O3  UNL     1       0.674   5.378  13.681  1.00  0.00    -0.401 OA
HETATM   21  H23 UNL     1       0.735   6.252  14.104  1.00  0.00     0.209 HD
ENDBRANCH  19  20
ENDBRANCH  18  19
ENDBRANCH  17  18
ENDBRANCH   6  17
BRANCH  14  22
HETATM   22  O5  UNL     1      -5.696   5.736  16.193  1.00  0.00    -0.389 OA
HETATM   23  H34 UNL     1      -5.295   6.336  16.849  1.00  0.00     0.210 HD
ENDBRANCH  14  22
BRANCH  14  24
HETATM   24  C26 UNL     1      -6.935   7.674  15.714  1.00  0.00     0.068 C 
BRANCH  24  25
HETATM   25  C27 UNL     1      -8.018   7.372  16.751  1.00  0.00     0.272 C 
BRANCH  25  26
HETATM   26  N1  UNL     1      -9.398   7.385  16.260  1.00  0.00     0.079 N 
HETATM   27  C28 UNL     1      -9.953   8.732  16.188  1.00  0.00     0.306 C 
HETATM   28  H39 UNL     1      -9.410   6.984  15.322  1.00  0.00     0.315 HD
ENDBRANCH  25  26
ENDBRANCH  24  25
ENDBRANCH  14  24
BRANCH   1  29
HETATM   29  C6  UNL     1      -1.744   9.391  14.373  1.00  0.00    -0.050 C 
HETATM   30  C5  UNL     1      -0.555   9.507  13.737  1.00  0.00     0.005 C 
BRANCH  30  31
HETATM   31  C4  UNL     1      -0.064   8.710  12.630  1.00  0.00     0.001 C 
HETATM   32  C3  UNL     1      -0.464   8.887  11.360  1.00  0.00     0.006 C 
BRANCH  32  33
HETATM   33  C2  UNL     1      -0.002   8.132  10.198  1.00  0.00    -0.067 C 
HETATM   34  C1  UNL     1      -0.323   8.560   8.964  1.00  0.00     0.019 C 
BRANCH  33  35
HETATM   35  C29 UNL     1       0.869   6.897  10.369  1.00  0.00     0.041 C 
BRANCH  35  36
HETATM   36  C30 UNL     1       1.992   6.756   9.326  1.00  0.00     0.032 C 
BRANCH  36  37
HETATM   37  C31 UNL     1       3.068   7.799   9.479  1.00  0.00    -0.024 C 
HETATM   38  C32 UNL     1       4.165   7.756  10.261  1.00  0.00    -0.091 C 
HETATM   39  C33 UNL     1       4.558   6.615  11.161  1.00  0.00     0.042 C 
HETATM   40  C34 UNL     1       5.135   8.909  10.280  1.00  0.00     0.042 C 
ENDBRANCH  36  37
ENDBRANCH  35  36
ENDBRANCH  33  35
ENDBRANCH  32  33
ENDBRANCH  30  31
BRANCH  29  41
HETATM   41  C7  UNL     1      -2.006  10.300  15.545  1.00  0.00     0.198 C 
BRANCH  41  42
HETATM   42  O1  UNL     1      -2.901  11.316  15.106  1.00  0.00    -0.397 OA
HETATM   43  H8  UNL     1      -3.788  10.912  15.107  1.00  0.00     0.209 HD
ENDBRANCH  41  42
ENDBRANCH  29  41
ENDBRANCH   1  29
BRANCH   8  44
HETATM   44  C19 UNL     1      -3.449   3.985  11.120  1.00  0.00     0.265 C 
HETATM   45  O4  UNL     1      -3.346   3.646   9.946  1.00  0.00    -0.302 OA
ENDBRANCH   8  44
TORSDOF 18
ENDMDL
MODEL 5
REMARK minimizedAffinity -7.29255581
REMARK CNNscore 0.387250066
REMARK CNNaffinity 6.73862457
REMARK  18 active torsions:
REMARK  status: ('A' for Active; 'I' for Inactive)
REMARK    1  A    between atoms: C2_2  and  C3_3 
REMARK    2  A    between atoms: C2_2  and  C29_35 
REMARK    3  A    between atoms: C4_4  and  C5_5 
REMARK    4  A    between atoms: C6_6  and  C7_7 
REMARK    5  A    between atoms: C6_6  and  C8_9 
REMARK    6  A    between atoms: C7_7  and  O1_8 
REMARK    7  A    between atoms: C12_13  and  O2_14 
REMARK    8  A    between atoms: C13_15  and  C14_16 
REMARK    9  A    between atoms: C14_16  and  C15_17 
REMARK   10  A    between atoms: C15_17  and  C16_18 
REMARK   11  A    between atoms: C16_18  and  O3_19 
REMARK   12  A    between atoms: C18_21  and  C19_22 
REMARK   13  A    between atoms: C25_29  and  O5_30 
REMARK   14  A    between atoms: C25_29  and  C26_31 
REMARK   15  A    between atoms: C26_31  and  C27_32 
REMARK   16  A    between atoms: C27_32  and  N1_33 
REMARK   17  A    between atoms: C29_35  and  C30_36 
REMARK   18  A    between atoms: C30_36  and  C31_37 
ROOT
HETATM    1  C8  UNL     1      -1.665   8.631  14.025  1.00  0.00     0.046 C 
HETATM    2  C9  UNL     1      -2.632   9.217  12.994  1.00  0.00     0.013 C 
HETATM    3  C10 UNL     1      -3.723   8.143  12.840  1.00  0.00     0.017 C 
HETATM    4  C11 UNL     1      -3.643   7.198  14.104  1.00  0.00     0.025 C 
HETATM    5  C12 UNL     1      -2.643   7.977  15.030  1.00  0.00     0.138 C 
HETATM    6  C13 UNL     1      -2.962   5.830  13.572  1.00  0.00     0.029 C 
HETATM    7  C17 UNL     1      -3.899   4.895  12.787  1.00  0.00    -0.061 C 
HETATM    8  C18 UNL     1      -3.547   4.211  11.667  1.00  0.00    -0.017 C 
HETATM    9  C20 UNL     1      -4.463   3.237  10.961  1.00  0.00     0.042 C 
HETATM   10  C21 UNL     1      -5.650   2.800  11.808  1.00  0.00     0.005 C 
HETATM   11  C22 UNL     1      -6.294   4.012  12.451  1.00  0.00     0.009 C 
HETATM   12  C23 UNL     1      -5.299   4.747  13.372  1.00  0.00     0.018 C 
HETATM   13  C24 UNL     1      -5.920   6.098  13.750  1.00  0.00     0.047 C 
HETATM   14  C25 UNL     1      -5.068   6.920  14.736  1.00  0.00     0.071 C 
ENDROOT
BRANCH   5  15
HETATM   15  O2  UNL     1      -3.338   8.962  15.783  1.00  0.00    -0.394 OA
HETATM   16  H15 UNL     1      -2.680   9.568  16.187  1.00  0.00     0.210 HD
ENDBRANCH   5  15
BRANCH   6  17
HETATM   17  C14 UNL     1      -1.995   5.025  14.493  1.00  0.00     0.012 C 
BRANCH  17  18
HETATM   18  C15 UNL     1      -0.489   5.195  14.335  1.00  0.00     0.027 C 
BRANCH  18  19
HETATM   19  C16 UNL     1      -0.135   5.784  12.969  1.00  0.00     0.164 C 
BRANCH  19  20
HETATM   20  O3  UNL     1       1.273   5.928  12.847  1.00  0.00    -0.401 OA
HETATM   21  H23 UNL     1       1.602   6.356  13.655  1.00  0.00     0.209 HD
ENDBRANCH  19  20
ENDBRANCH  18  19
ENDBRANCH  17  18
ENDBRANCH   6  17
BRANCH  14  22
HETATM   22  O5  UNL     1      -4.864   6.065  15.883  1.00  0.00    -0.389 OA
HETATM   23  H34 UNL     1      -4.504   6.631  16.592  1.00  0.00     0.210 HD
ENDBRANCH  14  22
BRANCH  14  24
HETATM   24  C26 UNL     1      -5.950   8.074  15.330  1.00  0.00     0.068 C 
BRANCH  24  25
HETATM   25  C27 UNL     1      -7.340   7.827  15.918  1.00  0.00     0.272 C 
BRANCH  25  26
HETATM   26  N1  UNL     1      -8.465   8.386  15.164  1.00  0.00     0.079 N 
HETATM   27  C28 UNL     1      -9.389   7.360  14.694  1.00  0.00     0.306 C 
HETATM   28  H39 UNL     1      -8.978   9.022  15.776  1.00  0.00     0.315 HD
ENDBRANCH  25  26
ENDBRANCH  24  25
ENDBRANCH  14  24
BRANCH   1  29
HETATM   29  C6  UNL     1      -0.570   9.547  14.567  1.00  0.00    -0.050 C 
HETATM   30  C5  UNL     1      -0.752  10.431  15.575  1.00  0.00     0.005 C 
BRANCH  30  31
HETATM   31  C4  UNL     1      -1.986  10.733  16.272  1.00  0.00     0.001 C 
HETATM   32  C3  UNL     1      -2.026  11.316  17.482  1.00  0.00     0.006 C 
BRANCH  32  33
HETATM   33  C2  UNL     1      -3.231  11.660  18.233  1.00  0.00    -0.067 C 
HETATM   34  C1  UNL     1      -3.810  10.727  19.011  1.00  0.00     0.019 C 
BRANCH  33  35
HETATM   35  C29 UNL     1      -3.808  13.065  18.178  1.00  0.00     0.041 C 
BRANCH  35  36
HETATM   36  C30 UNL     1      -4.205  13.649  19.545  1.00  0.00     0.032 C 
BRANCH  36  37
HETATM   37  C31 UNL     1      -5.696  13.685  19.755  1.00  0.00    -0.024 C 
HETATM   38  C32 UNL     1      -6.384  13.451  20.891  1.00  0.00    -0.091 C 
HETATM   39  C33 UNL     1      -5.783  13.102  22.226  1.00  0.00     0.042 C 
HETATM   40  C34 UNL     1      -7.889  13.536  20.903  1.00  0.00     0.042 C 
ENDBRANCH  36  37
ENDBRANCH  35  36
ENDBRANCH  33  35
ENDBRANCH  32  33
ENDBRANCH  30  31
BRANCH  29  41
HETATM   41  C7  UNL     1       0.804   9.452  13.955  1.00  0.00     0.198 C 
BRANCH  41  42
HETATM   42  O1  UNL     1       1.486   8.384  14.603  1.00  0.00    -0.397 OA
HETATM   43  H8  UNL     1       1.151   7.564  14.196  1.00  0.00     0.209 HD
ENDBRANCH  41  42
ENDBRANCH  29  41
ENDBRANCH   1  29
BRANCH   8  44
HETATM   44  C19 UNL     1      -2.198   4.304  11.022  1.00  0.00     0.265 C 
HETATM   45  O4  UNL     1      -1.708   3.391  10.365  1.00  0.00    -0.302 OA
ENDBRANCH   8  44
TORSDOF 18
ENDMDL
MODEL 6
REMARK minimizedAffinity -7.90100622
REMARK CNNscore 0.322969854
REMARK CNNaffinity 6.73475885
REMARK  18 active torsions:
REMARK  status: ('A' for Active; 'I' for Inactive)
REMARK    1  A    between atoms: C2_2  and  C3_3 
REMARK    2  A    between atoms: C2_2  and  C29_35 
REMARK    3  A    between atoms: C4_4  and  C5_5 
REMARK    4  A    between atoms: C6_6  and  C7_7 
REMARK    5  A    between atoms: C6_6  and  C8_9 
REMARK    6  A    between atoms: C7_7  and  O1_8 
REMARK    7  A    between atoms: C12_13  and  O2_14 
REMARK    8  A    between atoms: C13_15  and  C14_16 
REMARK    9  A    between atoms: C14_16  and  C15_17 
REMARK   10  A    between atoms: C15_17  and  C16_18 
REMARK   11  A    between atoms: C16_18  and  O3_19 
REMARK   12  A    between atoms: C18_21  and  C19_22 
REMARK   13  A    between atoms: C25_29  and  O5_30 
REMARK   14  A    between atoms: C25_29  and  C26_31 
REMARK   15  A    between atoms: C26_31  and  C27_32 
REMARK   16  A    between atoms: C27_32  and  N1_33 
REMARK   17  A    between atoms: C29_35  and  C30_36 
REMARK   18  A    between atoms: C30_36  and  C31_37 
ROOT
HETATM    1  C8  UNL     1      -1.059   8.441  13.187  1.00  0.00     0.046 C 
HETATM    2  C9  UNL     1      -2.075   9.094  12.248  1.00  0.00     0.013 C 
HETATM    3  C10 UNL     1      -3.408   8.405  12.590  1.00  0.00     0.017 C 
HETATM    4  C11 UNL     1      -3.249   7.739  14.014  1.00  0.00     0.025 C 
HETATM    5  C12 UNL     1      -1.876   8.327  14.497  1.00  0.00     0.138 C 
HETATM    6  C13 UNL     1      -3.108   6.152  13.730  1.00  0.00     0.029 C 
HETATM    7  C17 UNL     1      -4.425   5.425  13.408  1.00  0.00    -0.061 C 
HETATM    8  C18 UNL     1      -4.567   4.467  12.455  1.00  0.00    -0.017 C 
HETATM    9  C20 UNL     1      -5.855   3.712  12.215  1.00  0.00     0.042 C 
HETATM   10  C21 UNL     1      -6.851   3.836  13.360  1.00  0.00     0.005 C 
HETATM   11  C22 UNL     1      -6.969   5.286  13.781  1.00  0.00     0.009 C 
HETATM   12  C23 UNL     1      -5.614   5.835  14.272  1.00  0.00     0.018 C 
HETATM   13  C24 UNL     1      -5.743   7.358  14.402  1.00  0.00     0.047 C 
HETATM   14  C25 UNL     1      -4.482   8.044  14.959  1.00  0.00     0.071 C 
ENDROOT
BRANCH   5  15
HETATM   15  O2  UNL     1      -2.071   9.604  15.091  1.00  0.00    -0.394 OA
HETATM   16  H15 UNL     1      -1.196  10.039  15.190  1.00  0.00     0.210 HD
ENDBRANCH   5  15
BRANCH   6  17
HETATM   17  C14 UNL     1      -2.176   5.275  14.622  1.00  0.00     0.012 C 
BRANCH  17  18
HETATM   18  C15 UNL     1      -0.704   5.130  14.258  1.00  0.00     0.027 C 
BRANCH  18  19
HETATM   19  C16 UNL     1      -0.505   5.100  12.742  1.00  0.00     0.164 C 
BRANCH  19  20
HETATM   20  O3  UNL     1      -0.099   3.803  12.326  1.00  0.00    -0.401 OA
HETATM   21  H23 UNL     1       0.621   3.512  12.911  1.00  0.00     0.209 HD
ENDBRANCH  19  20
ENDBRANCH  18  19
ENDBRANCH  17  18
ENDBRANCH   6  17
BRANCH  14  22
HETATM   22  O5  UNL     1      -4.213   7.401  16.226  1.00  0.00    -0.389 OA
HETATM   23  H34 UNL     1      -3.548   7.949  16.682  1.00  0.00     0.210 HD
ENDBRANCH  14  22
BRANCH  14  24
HETATM   24  C26 UNL     1      -4.848   9.506  15.396  1.00  0.00     0.068 C 
BRANCH  24  25
HETATM   25  C27 UNL     1      -3.982  10.318  16.360  1.00  0.00     0.272 C 
BRANCH  25  26
HETATM   26  N1  UNL     1      -3.796   9.745  17.695  1.00  0.00     0.079 N 
HETATM   27  C28 UNL     1      -2.932  10.562  18.539  1.00  0.00     0.306 C 
HETATM   28  H39 UNL     1      -4.709   9.675  18.145  1.00  0.00     0.315 HD
ENDBRANCH  25  26
ENDBRANCH  24  25
ENDBRANCH  14  24
BRANCH   1  29
HETATM   29  C6  UNL     1       0.338   9.055  13.253  1.00  0.00    -0.050 C 
HETATM   30  C5  UNL     1       1.294   8.865  12.314  1.00  0.00     0.005 C 
BRANCH  30  31
HETATM   31  C4  UNL     1       1.221   8.022  11.138  1.00  0.00     0.001 C 
HETATM   32  C3  UNL     1       2.013   8.183  10.064  1.00  0.00     0.006 C 
BRANCH  32  33
HETATM   33  C2  UNL     1       2.002   7.364   8.855  1.00  0.00    -0.067 C 
HETATM   34  C1  UNL     1       1.331   7.796   7.772  1.00  0.00     0.019 C 
BRANCH  33  35
HETATM   35  C29 UNL     1       2.773   6.055   8.796  1.00  0.00     0.041 C 
BRANCH  35  36
HETATM   36  C30 UNL     1       3.821   5.878   9.908  1.00  0.00     0.032 C 
BRANCH  36  37
HETATM   37  C31 UNL     1       4.631   7.124  10.153  1.00  0.00    -0.024 C 
HETATM   38  C32 UNL     1       5.776   7.250  10.854  1.00  0.00    -0.091 C 
HETATM   39  C33 UNL     1       6.507   6.134  11.549  1.00  0.00     0.042 C 
HETATM   40  C34 UNL     1       6.445   8.594  10.988  1.00  0.00     0.042 C 
ENDBRANCH  36  37
ENDBRANCH  35  36
ENDBRANCH  33  35
ENDBRANCH  32  33
ENDBRANCH  30  31
BRANCH  29  41
HETATM   41  C7  UNL     1       0.671   9.939  14.427  1.00  0.00     0.198 C 
BRANCH  41  42
HETATM   42  O1  UNL     1       0.096  11.216  14.175  1.00  0.00    -0.397 OA
HETATM   43  H8  UNL     1      -0.850  11.133  14.394  1.00  0.00     0.209 HD
ENDBRANCH  41  42
ENDBRANCH  29  41
ENDBRANCH   1  29
BRANCH   8  44
HETATM   44  C19 UNL     1      -3.456   4.010  11.560  1.00  0.00     0.265 C 
HETATM   45  O4  UNL     1      -2.950   2.895  11.638  1.00  0.00    -0.302 OA
ENDBRANCH   8  44
TORSDOF 18
ENDMDL
MODEL 7
REMARK minimizedAffinity -6.27091503
REMARK CNNscore 0.290765733
REMARK CNNaffinity 6.19964218
REMARK  18 active torsions:
REMARK  status: ('A' for Active; 'I' for Inactive)
REMARK    1  A    between atoms: C2_2  and  C3_3 
REMARK    2  A    between atoms: C2_2  and  C29_35 
REMARK    3  A    between atoms: C4_4  and  C5_5 
REMARK    4  A    between atoms: C6_6  and  C7_7 
REMARK    5  A    between atoms: C6_6  and  C8_9 
REMARK    6  A    between atoms: C7_7  and  O1_8 
REMARK    7  A    between atoms: C12_13  and  O2_14 
REMARK    8  A    between atoms: C13_15  and  C14_16 
REMARK    9  A    between atoms: C14_16  and  C15_17 
REMARK   10  A    between atoms: C15_17  and  C16_18 
REMARK   11  A    between atoms: C16_18  and  O3_19 
REMARK   12  A    between atoms: C18_21  and  C19_22 
REMARK   13  A    between atoms: C25_29  and  O5_30 
REMARK   14  A    between atoms: C25_29  and  C26_31 
REMARK   15  A    between atoms: C26_31  and  C27_32 
REMARK   16  A    between atoms: C27_32  and  N1_33 
REMARK   17  A    between atoms: C29_35  and  C30_36 
REMARK   18  A    between atoms: C30_36  and  C31_37 
ROOT
HETATM    1  C8  UNL     1      -2.246   9.225  14.404  1.00  0.00     0.046 C 
HETATM    2  C9  UNL     1      -2.647   8.371  15.609  1.00  0.00     0.013 C 
HETATM    3  C10 UNL     1      -2.141   9.166  16.825  1.00  0.00     0.017 C 
HETATM    4  C11 UNL     1      -1.901  10.656  16.355  1.00  0.00     0.025 C 
HETATM    5  C12 UNL     1      -2.544  10.652  14.923  1.00  0.00     0.138 C 
HETATM    6  C13 UNL     1      -0.295  10.816  16.246  1.00  0.00     0.029 C 
HETATM    7  C17 UNL     1       0.437  10.998  17.587  1.00  0.00    -0.061 C 
HETATM    8  C18 UNL     1       1.620  10.411  17.908  1.00  0.00    -0.017 C 
HETATM    9  C20 UNL     1       2.356  10.671  19.203  1.00  0.00     0.042 C 
HETATM   10  C21 UNL     1       1.870  11.913  19.937  1.00  0.00     0.005 C 
HETATM   11  C22 UNL     1       0.356  11.916  19.992  1.00  0.00     0.009 C 
HETATM   12  C23 UNL     1      -0.251  11.935  18.574  1.00  0.00     0.018 C 
HETATM   13  C24 UNL     1      -1.753  11.647  18.703  1.00  0.00     0.047 C 
HETATM   14  C25 UNL     1      -2.515  11.709  17.366  1.00  0.00     0.071 C 
ENDROOT
BRANCH   5  15
HETATM   15  O2  UNL     1      -3.944  10.883  15.013  1.00  0.00    -0.394 OA
HETATM   16  H15 UNL     1      -4.352  10.668  14.146  1.00  0.00     0.210 HD
ENDBRANCH   5  15
BRANCH   6  17
HETATM   17  C14 UNL     1       0.331  11.708  15.130  1.00  0.00     0.012 C 
BRANCH  17  18
HETATM   18  C15 UNL     1       0.961  13.045  15.500  1.00  0.00     0.027 C 
BRANCH  18  19
HETATM   19  C16 UNL     1       0.392  14.182  14.651  1.00  0.00     0.164 C 
BRANCH  19  20
HETATM   20  O3  UNL     1       1.067  14.248  13.403  1.00  0.00    -0.401 OA
HETATM   21  H23 UNL     1       2.023  14.210  13.576  1.00  0.00     0.209 HD
ENDBRANCH  19  20
ENDBRANCH  18  19
ENDBRANCH  17  18
ENDBRANCH   6  17
BRANCH  14  22
HETATM   22  O5  UNL     1      -2.248  13.022  16.823  1.00  0.00    -0.389 OA
HETATM   23  H34 UNL     1      -2.874  13.152  16.087  1.00  0.00     0.210 HD
ENDBRANCH  14  22
BRANCH  14  24
HETATM   24  C26 UNL     1      -4.055  11.774  17.661  1.00  0.00     0.068 C 
BRANCH  24  25
HETATM   25  C27 UNL     1      -4.877  13.049  17.464  1.00  0.00     0.272 C 
BRANCH  25  26
HETATM   26  N1  UNL     1      -5.573  13.172  16.181  1.00  0.00     0.079 N 
HETATM   27  C28 UNL     1      -6.056  14.526  15.934  1.00  0.00     0.306 C 
HETATM   28  H39 UNL     1      -4.920  12.925  15.436  1.00  0.00     0.315 HD
ENDBRANCH  25  26
ENDBRANCH  24  25
ENDBRANCH  14  24
BRANCH   1  29
HETATM   29  C6  UNL     1      -2.794   8.820  13.037  1.00  0.00    -0.050 C 
HETATM   30  C5  UNL     1      -4.039   8.330  12.834  1.00  0.00     0.005 C 
BRANCH  30  31
HETATM   31  C4  UNL     1      -5.044   8.034  13.835  1.00  0.00     0.001 C 
HETATM   32  C3  UNL     1      -5.809   6.930  13.807  1.00  0.00     0.006 C 
BRANCH  32  33
HETATM   33  C2  UNL     1      -6.829   6.563  14.787  1.00  0.00    -0.067 C 
HETATM   34  C1  UNL     1      -6.473   6.385  16.072  1.00  0.00     0.019 C 
BRANCH  33  35
HETATM   35  C29 UNL     1      -8.286   6.424  14.378  1.00  0.00     0.041 C 
BRANCH  35  36
HETATM   36  C30 UNL     1      -9.294   6.986  15.397  1.00  0.00     0.032 C 
BRANCH  36  37
HETATM   37  C31 UNL     1      -9.920   8.280  14.948  1.00  0.00    -0.024 C 
HETATM   38  C32 UNL     1     -10.921   8.458  14.062  1.00  0.00    -0.091 C 
HETATM   39  C33 UNL     1     -11.647   7.365  13.326  1.00  0.00     0.042 C 
HETATM   40  C34 UNL     1     -11.417   9.844  13.739  1.00  0.00     0.042 C 
ENDBRANCH  36  37
ENDBRANCH  35  36
ENDBRANCH  33  35
ENDBRANCH  32  33
ENDBRANCH  30  31
BRANCH  29  41
HETATM   41  C7  UNL     1      -1.900   8.989  11.835  1.00  0.00     0.198 C 
BRANCH  41  42
HETATM   42  O1  UNL     1      -0.946   7.934  11.861  1.00  0.00    -0.397 OA
HETATM   43  H8  UNL     1      -1.406   7.146  11.518  1.00  0.00     0.209 HD
ENDBRANCH  41  42
ENDBRANCH  29  41
ENDBRANCH   1  29
BRANCH   8  44
HETATM   44  C19 UNL     1       2.359   9.474  17.003  1.00  0.00     0.265 C 
HETATM   45  O4  UNL     1       2.177   8.261  17.006  1.00  0.00    -0.302 OA
ENDBRANCH   8  44
TORSDOF 18
ENDMDL
MODEL 8
REMARK minimizedAffinity -6.67651224
REMARK CNNscore 0.205928698
REMARK CNNaffinity 5.45437431
REMARK  18 active torsions:
REMARK  status: ('A' for Active; 'I' for Inactive)
REMARK    1  A    between atoms: C2_2  and  C3_3 
REMARK    2  A    between atoms: C2_2  and  C29_35 
REMARK    3  A    between atoms: C4_4  and  C5_5 
REMARK    4  A    between atoms: C6_6  and  C7_7 
REMARK    5  A    between atoms: C6_6  and  C8_9 
REMARK    6  A    between atoms: C7_7  and  O1_8 
REMARK    7  A    between atoms: C12_13  and  O2_14 
REMARK    8  A    between atoms: C13_15  and  C14_16 
REMARK    9  A    between atoms: C14_16  and  C15_17 
REMARK   10  A    between atoms: C15_17  and  C16_18 
REMARK   11  A    between atoms: C16_18  and  O3_19 
REMARK   12  A    between atoms: C18_21  and  C19_22 
REMARK   13  A    between atoms: C25_29  and  O5_30 
REMARK   14  A    between atoms: C25_29  and  C26_31 
REMARK   15  A    between atoms: C26_31  and  C27_32 
REMARK   16  A    between atoms: C27_32  and  N1_33 
REMARK   17  A    between atoms: C29_35  and  C30_36 
REMARK   18  A    between atoms: C30_36  and  C31_37 
ROOT
HETATM    1  C8  UNL     1      -0.468  11.373  16.799  1.00  0.00     0.046 C 
HETATM    2  C9  UNL     1      -1.333  11.444  15.539  1.00  0.00     0.013 C 
HETATM    3  C10 UNL     1      -0.853  10.262  14.680  1.00  0.00     0.017 C 
HETATM    4  C11 UNL     1      -0.086   9.261  15.632  1.00  0.00     0.025 C 
HETATM    5  C12 UNL     1      -0.411   9.847  17.051  1.00  0.00     0.138 C 
HETATM    6  C13 UNL     1       1.483   9.463  15.290  1.00  0.00     0.029 C 
HETATM    7  C17 UNL     1       1.964   8.784  13.996  1.00  0.00    -0.061 C 
HETATM    8  C18 UNL     1       2.827   9.339  13.106  1.00  0.00    -0.017 C 
HETATM    9  C20 UNL     1       3.345   8.617  11.883  1.00  0.00     0.042 C 
HETATM   10  C21 UNL     1       3.129   7.111  11.933  1.00  0.00     0.005 C 
HETATM   11  C22 UNL     1       1.707   6.812  12.360  1.00  0.00     0.009 C 
HETATM   12  C23 UNL     1       1.418   7.379  13.765  1.00  0.00     0.018 C 
HETATM   13  C24 UNL     1      -0.096   7.294  14.003  1.00  0.00     0.047 C 
HETATM   14  C25 UNL     1      -0.532   7.758  15.406  1.00  0.00     0.071 C 
ENDROOT
BRANCH   5  15
HETATM   15  O2  UNL     1      -1.665   9.357  17.508  1.00  0.00    -0.394 OA
HETATM   16  H15 UNL     1      -1.944   9.890  18.284  1.00  0.00     0.210 HD
ENDBRANCH   5  15
BRANCH   6  17
HETATM   17  C14 UNL     1       2.553   9.358  16.421  1.00  0.00     0.012 C 
BRANCH  17  18
HETATM   18  C15 UNL     1       3.152  10.628  17.011  1.00  0.00     0.027 C 
BRANCH  18  19
HETATM   19  C16 UNL     1       4.599  10.824  16.557  1.00  0.00     0.164 C 
BRANCH  19  20
HETATM   20  O3  UNL     1       5.154   9.585  16.139  1.00  0.00    -0.401 OA
HETATM   21  H23 UNL     1       4.949   8.919  16.818  1.00  0.00     0.209 HD
ENDBRANCH  19  20
ENDBRANCH  18  19
ENDBRANCH  17  18
ENDBRANCH   6  17
BRANCH  14  22
HETATM   22  O5  UNL     1       0.221   6.948  16.337  1.00  0.00    -0.389 OA
HETATM   23  H34 UNL     1      -0.182   7.085  17.215  1.00  0.00     0.210 HD
ENDBRANCH  14  22
BRANCH  14  24
HETATM   24  C26 UNL     1      -2.005   7.284  15.663  1.00  0.00     0.068 C 
BRANCH  24  25
HETATM   25  C27 UNL     1      -2.970   6.944  14.527  1.00  0.00     0.272 C 
BRANCH  25  26
HETATM   26  N1  UNL     1      -3.249   5.520  14.326  1.00  0.00     0.079 N 
HETATM   27  C28 UNL     1      -4.398   5.292  13.456  1.00  0.00     0.306 C 
HETATM   28  H39 UNL     1      -2.431   5.090  13.894  1.00  0.00     0.315 HD
ENDBRANCH  25  26
ENDBRANCH  24  25
ENDBRANCH  14  24
BRANCH   1  29
HETATM   29  C6  UNL     1      -0.840  12.289  17.964  1.00  0.00    -0.050 C 
HETATM   30  C5  UNL     1      -0.270  12.226  19.189  1.00  0.00     0.005 C 
BRANCH  30  31
HETATM   31  C4  UNL     1       0.719  11.273  19.655  1.00  0.00     0.001 C 
HETATM   32  C3  UNL     1       1.456  11.458  20.763  1.00  0.00     0.006 C 
BRANCH  32  33
HETATM   33  C2  UNL     1       2.456  10.536  21.295  1.00  0.00    -0.067 C 
HETATM   34  C1  UNL     1       2.087   9.288  21.637  1.00  0.00     0.019 C 
BRANCH  33  35
HETATM   35  C29 UNL     1       3.911  10.958  21.427  1.00  0.00     0.041 C 
BRANCH  35  36
HETATM   36  C30 UNL     1       4.347  11.316  22.859  1.00  0.00     0.032 C 
BRANCH  36  37
HETATM   37  C31 UNL     1       5.818  11.620  22.964  1.00  0.00    -0.024 C 
HETATM   38  C32 UNL     1       6.419  12.826  23.009  1.00  0.00    -0.091 C 
HETATM   39  C33 UNL     1       5.720  14.157  22.973  1.00  0.00     0.042 C 
HETATM   40  C34 UNL     1       7.919  12.928  23.116  1.00  0.00     0.042 C 
ENDBRANCH  36  37
ENDBRANCH  35  36
ENDBRANCH  33  35
ENDBRANCH  32  33
ENDBRANCH  30  31
BRANCH  29  41
HETATM   41  C7  UNL     1      -1.896  13.339  17.733  1.00  0.00     0.198 C 
BRANCH  41  42
HETATM   42  O1  UNL     1      -2.092  14.025  18.964  1.00  0.00    -0.397 OA
HETATM   43  H8  UNL     1      -1.354  14.658  19.041  1.00  0.00     0.209 HD
ENDBRANCH  41  42
ENDBRANCH  29  41
ENDBRANCH   1  29
BRANCH   8  44
HETATM   44  C19 UNL     1       3.406  10.714  13.252  1.00  0.00     0.265 C 
HETATM   45  O4  UNL     1       4.519  11.018  12.835  1.00  0.00    -0.302 OA
ENDBRANCH   8  44
TORSDOF 18
ENDMDL
MODEL 9
REMARK minimizedAffinity -7.37457466
REMARK CNNscore 0.177903011
REMARK CNNaffinity 6.26023483
REMARK  18 active torsions:
REMARK  status: ('A' for Active; 'I' for Inactive)
REMARK    1  A    between atoms: C2_2  and  C3_3 
REMARK    2  A    between atoms: C2_2  and  C29_35 
REMARK    3  A    between atoms: C4_4  and  C5_5 
REMARK    4  A    between atoms: C6_6  and  C7_7 
REMARK    5  A    between atoms: C6_6  and  C8_9 
REMARK    6  A    between atoms: C7_7  and  O1_8 
REMARK    7  A    between atoms: C12_13  and  O2_14 
REMARK    8  A    between atoms: C13_15  and  C14_16 
REMARK    9  A    between atoms: C14_16  and  C15_17 
REMARK   10  A    between atoms: C15_17  and  C16_18 
REMARK   11  A    between atoms: C16_18  and  O3_19 
REMARK   12  A    between atoms: C18_21  and  C19_22 
REMARK   13  A    between atoms: C25_29  and  O5_30 
REMARK   14  A    between atoms: C25_29  and  C26_31 
REMARK   15  A    between atoms: C26_31  and  C27_32 
REMARK   16  A    between atoms: C27_32  and  N1_33 
REMARK   17  A    between atoms: C29_35  and  C30_36 
REMARK   18  A    between atoms: C30_36  and  C31_37 
ROOT
HETATM    1  C8  UNL     1       0.934   6.011  12.542  1.00  0.00     0.046 C 
HETATM    2  C9  UNL     1       0.380   5.534  13.887  1.00  0.00     0.013 C 
HETATM    3  C10 UNL     1       0.112   6.830  14.671  1.00  0.00     0.017 C 
HETATM    4  C11 UNL     1       0.050   8.015  13.627  1.00  0.00     0.025 C 
HETATM    5  C12 UNL     1       0.042   7.243  12.260  1.00  0.00     0.138 C 
HETATM    6  C13 UNL     1       1.444   8.816  13.807  1.00  0.00     0.029 C 
HETATM    7  C17 UNL     1       1.511   9.745  15.033  1.00  0.00    -0.061 C 
HETATM    8  C18 UNL     1       2.596   9.886  15.838  1.00  0.00    -0.017 C 
HETATM    9  C20 UNL     1       2.661  10.865  16.988  1.00  0.00     0.042 C 
HETATM   10  C21 UNL     1       1.579  11.934  16.935  1.00  0.00     0.005 C 
HETATM   11  C22 UNL     1       0.237  11.289  16.652  1.00  0.00     0.009 C 
HETATM   12  C23 UNL     1       0.247  10.557  15.295  1.00  0.00     0.018 C 
HETATM   13  C24 UNL     1      -1.025   9.702  15.214  1.00  0.00     0.047 C 
HETATM   14  C25 UNL     1      -1.193   8.964  13.872  1.00  0.00     0.071 C 
ENDROOT
BRANCH   5  15
HETATM   15  O2  UNL     1      -1.283   6.850  11.926  1.00  0.00    -0.394 OA
HETATM   16  H15 UNL     1      -1.240   6.199  11.193  1.00  0.00     0.210 HD
ENDBRANCH   5  15
BRANCH   6  17
HETATM   17  C14 UNL     1       2.149   9.454  12.570  1.00  0.00     0.012 C 
BRANCH  17  18
HETATM   18  C15 UNL     1       2.987   8.579  11.648  1.00  0.00     0.027 C 
BRANCH  18  19
HETATM   19  C16 UNL     1       4.382   8.336  12.225  1.00  0.00     0.164 C 
BRANCH  19  20
HETATM   20  O3  UNL     1       4.440   7.059  12.846  1.00  0.00    -0.401 OA
HETATM   21  H23 UNL     1       3.660   6.968  13.419  1.00  0.00     0.209 HD
ENDBRANCH  19  20
ENDBRANCH  18  19
ENDBRANCH  17  18
ENDBRANCH   6  17
BRANCH  14  22
HETATM   22  O5  UNL     1      -1.150   9.989  12.853  1.00  0.00    -0.389 OA
HETATM   23  H34 UNL     1      -1.452   9.572  12.025  1.00  0.00     0.210 HD
ENDBRANCH  14  22
BRANCH  14  24
HETATM   24  C26 UNL     1      -2.668   8.442  13.760  1.00  0.00     0.068 C 
BRANCH  24  25
HETATM   25  C27 UNL     1      -3.718   8.706  14.841  1.00  0.00     0.272 C 
BRANCH  25  26
HETATM   26  N1  UNL     1      -4.352   7.521  15.423  1.00  0.00     0.079 N 
HETATM   27  C28 UNL     1      -3.418   6.414  15.594  1.00  0.00     0.306 C 
HETATM   28  H39 UNL     1      -4.722   7.772  16.341  1.00  0.00     0.315 HD
ENDBRANCH  25  26
ENDBRANCH  24  25
ENDBRANCH  14  24
BRANCH   1  29
HETATM   29  C6  UNL     1       1.106   4.969  11.439  1.00  0.00    -0.050 C 
HETATM   30  C5  UNL     1       0.204   3.998  11.167  1.00  0.00     0.005 C 
BRANCH  30  31
HETATM   31  C4  UNL     1      -1.026   3.710  11.879  1.00  0.00     0.001 C 
HETATM   32  C3  UNL     1      -2.157   3.321  11.269  1.00  0.00     0.006 C 
BRANCH  32  33
HETATM   33  C2  UNL     1      -3.424   3.003  11.924  1.00  0.00    -0.067 C 
HETATM   34  C1  UNL     1      -3.952   1.775  11.776  1.00  0.00     0.019 C 
BRANCH  33  35
HETATM   35  C29 UNL     1      -4.124   4.028  12.802  1.00  0.00     0.041 C 
BRANCH  35  36
HETATM   36  C30 UNL     1      -5.659   3.909  12.825  1.00  0.00     0.032 C 
BRANCH  36  37
HETATM   37  C31 UNL     1      -6.318   5.000  13.628  1.00  0.00    -0.024 C 
HETATM   38  C32 UNL     1      -7.489   5.622  13.384  1.00  0.00    -0.091 C 
HETATM   39  C33 UNL     1      -8.410   5.339  12.229  1.00  0.00     0.042 C 
HETATM   40  C34 UNL     1      -7.988   6.701  14.311  1.00  0.00     0.042 C 
ENDBRANCH  36  37
ENDBRANCH  35  36
ENDBRANCH  33  35
ENDBRANCH  32  33
ENDBRANCH  30  31
BRANCH  29  41
HETATM   41  C7  UNL     1       2.348   5.033  10.588  1.00  0.00     0.198 C 
BRANCH  41  42
HETATM   42  O1  UNL     1       2.689   3.699  10.230  1.00  0.00    -0.397 OA
HETATM   43  H8  UNL     1       2.093   3.455   9.498  1.00  0.00     0.209 HD
ENDBRANCH  41  42
ENDBRANCH  29  41
ENDBRANCH   1  29
BRANCH   8  44
HETATM   44  C19 UNL     1       3.873   9.123  15.657  1.00  0.00     0.265 C 
HETATM   45  O4  UNL     1       3.936   7.900  15.726  1.00  0.00    -0.302 OA
ENDBRANCH   8  44
TORSDOF 18
ENDMDL
