MODEL 1
REMARK minimizedAffinity -9.36507797
REMARK CNNscore 0.363065481
REMARK CNNaffinity 7.43256044
REMARK  15 active torsions:
REMARK  status: ('A' for Active; 'I' for Inactive)
REMARK    1  A    between atoms: C2_2  and  C3_3 
REMARK    2  A    between atoms: C2_2  and  C37_47 
REMARK    3  A    between atoms: C3_3  and  C4_4 
REMARK    4  A    between atoms: C4_4  and  C5_5 
REMARK    5  A    between atoms: C5_5  and  C6_6 
REMARK    6  A    between atoms: C5_5  and  C13_20 
REMARK    7  A    between atoms: C6_6  and  O2_8 
REMARK    8  A    between atoms: O2_8  and  C7_9 
REMARK    9  A    between atoms: C8_11  and  C9_12 
REMARK   10  A    between atoms: C9_12  and  O4_13 
REMARK   11  A    between atoms: C10_14  and  O5_15 
REMARK   12  A    between atoms: C11_16  and  O6_17 
REMARK   13  A    between atoms: C12_18  and  O7_19 
REMARK   14  A    between atoms: C14_21  and  O8_22 
REMARK   15  A    between atoms: O8_22  and  C15_23 
ROOT
HETATM    1  C13 UNL     1      -3.022  49.298 -22.023  1.00  0.00     0.038 C 
HETATM    2  C14 UNL     1      -2.956  50.447 -20.975  1.00  0.00     0.138 C 
HETATM    3  C17 UNL     1      -4.031  50.144 -19.899  1.00  0.00     0.047 C 
HETATM    4  C18 UNL     1      -4.541  48.724 -20.222  1.00  0.00    -0.010 C 
HETATM    5  C19 UNL     1      -3.578  47.716 -19.521  1.00  0.00     0.021 C 
HETATM    6  C20 UNL     1      -5.938  48.307 -19.763  1.00  0.00    -0.068 C 
HETATM    7  C21 UNL     1      -6.649  47.392 -20.473  1.00  0.00    -0.068 C 
HETATM    8  C22 UNL     1      -6.109  46.813 -21.787  1.00  0.00     0.036 C 
HETATM    9  C23 UNL     1      -4.747  47.327 -22.294  1.00  0.00     0.015 C 
HETATM   10  C24 UNL     1      -4.464  48.743 -21.794  1.00  0.00    -0.026 C 
HETATM   11  C25 UNL     1      -5.508  49.709 -22.445  1.00  0.00     0.016 C 
HETATM   12  C26 UNL     1      -8.058  46.919 -20.025  1.00  0.00    -0.015 C 
HETATM   13  C27 UNL     1      -9.077  47.742 -20.843  1.00  0.00     0.020 C 
HETATM   14  C28 UNL     1      -8.252  45.408 -20.287  1.00  0.00     0.021 C 
HETATM   15  C29 UNL     1      -9.595  44.845 -19.855  1.00  0.00     0.080 C 
HETATM   16  C30 UNL     1     -10.344  45.661 -18.834  1.00  0.00     0.135 C 
HETATM   17  O10 UNL     1     -11.567  45.506 -18.733  1.00  0.00    -0.297 OA
HETATM   18  C31 UNL     1      -9.574  46.584 -17.879  1.00  0.00     0.018 C 
HETATM   19  C32 UNL     1      -9.271  45.733 -16.625  1.00  0.00     0.023 C 
HETATM   20  C33 UNL     1     -10.535  47.723 -17.454  1.00  0.00     0.023 C 
HETATM   21  C34 UNL     1      -8.218  47.106 -18.479  1.00  0.00     0.013 C 
HETATM   22  C35 UNL     1      -7.851  48.543 -18.071  1.00  0.00     0.011 C 
HETATM   23  C36 UNL     1      -6.424  48.909 -18.469  1.00  0.00     0.036 C 
ENDROOT
BRANCH   1  24
HETATM   24  C5  UNL     1      -2.636  49.651 -23.490  1.00  0.00     0.093 C 
BRANCH  24  25
HETATM   25  C4  UNL     1      -3.758  49.512 -24.544  1.00  0.00     0.019 C 
BRANCH  25  26
HETATM   26  C3  UNL     1      -3.554  48.311 -25.482  1.00  0.00     0.034 C 
BRANCH  26  27
HETATM   27  C2  UNL     1      -4.327  48.467 -26.778  1.00  0.00    -0.086 C 
HETATM   28  C1  UNL     1      -3.867  49.285 -27.743  1.00  0.00     0.014 C 
BRANCH  27  29
HETATM   29  C37 UNL     1      -5.626  47.675 -26.889  1.00  0.00     0.005 C 
HETATM   30  C38 UNL     1      -6.381  47.880 -28.208  1.00  0.00     0.014 C 
HETATM   31  C39 UNL     1      -6.548  47.982 -25.707  1.00  0.00     0.014 C 
ENDBRANCH  27  29
ENDBRANCH  26  27
ENDBRANCH  25  26
ENDBRANCH  24  25
BRANCH  24  32
HETATM   32  C6  UNL     1      -2.123  51.091 -23.533  1.00  0.00     0.266 C 
HETATM   33  O1  UNL     1      -2.830  52.069 -23.337  1.00  0.00    -0.265 OA
BRANCH  32  34
HETATM   34  O2  UNL     1      -0.795  51.132 -23.821  1.00  0.00    -0.287 OA
BRANCH  34  35
HETATM   35  C7  UNL     1      -0.357  52.324 -24.487  1.00  0.00     0.301 C 
HETATM   36  O3  UNL     1       1.043  52.186 -24.825  1.00  0.00    -0.348 OA
HETATM   37  C8  UNL     1       1.230  51.607 -26.115  1.00  0.00     0.179 C 
HETATM   38  C10 UNL     1       0.809  52.616 -27.209  1.00  0.00     0.180 C 
HETATM   39  C11 UNL     1      -0.394  53.461 -26.740  1.00  0.00     0.183 C 
HETATM   40  C12 UNL     1      -1.239  52.673 -25.725  1.00  0.00     0.205 C 
BRANCH  37  41
HETATM   41  C9  UNL     1       2.699  51.213 -26.295  1.00  0.00     0.198 C 
BRANCH  41  42
HETATM   42  O4  UNL     1       3.302  52.016 -27.309  1.00  0.00    -0.398 OA
HETATM   43  H12 UNL     1       4.240  51.759 -27.350  1.00  0.00     0.209 HD
ENDBRANCH  41  42
ENDBRANCH  37  41
BRANCH  38  44
HETATM   44  O5  UNL     1       0.485  51.922 -28.418  1.00  0.00    -0.390 OA
HETATM   45  H14 UNL     1       1.236  51.312 -28.587  1.00  0.00     0.210 HD
ENDBRANCH  38  44
BRANCH  39  46
HETATM   46  O6  UNL     1       0.041  54.702 -26.163  1.00  0.00    -0.390 OA
HETATM   47  H16 UNL     1       0.787  54.514 -25.565  1.00  0.00     0.210 HD
ENDBRANCH  39  46
BRANCH  40  48
HETATM   48  O7  UNL     1      -1.766  51.477 -26.330  1.00  0.00    -0.388 OA
HETATM   49  H18 UNL     1      -2.013  51.688 -27.249  1.00  0.00     0.210 HD
ENDBRANCH  40  48
ENDBRANCH  34  35
ENDBRANCH  32  34
ENDBRANCH  24  32
ENDBRANCH   1  24
BRANCH   2  50
HETATM   50  O8  UNL     1      -1.644  50.475 -20.392  1.00  0.00    -0.316 OA
BRANCH  50  51
HETATM   51  C15 UNL     1      -1.366  51.561 -19.618  1.00  0.00     0.255 C 
HETATM   52  C16 UNL     1       0.007  52.072 -19.925  1.00  0.00     0.126 C 
HETATM   53  O9  UNL     1      -2.114  52.055 -18.786  1.00  0.00    -0.266 OA
ENDBRANCH  50  51
ENDBRANCH   2  50
TORSDOF 15
ENDMDL
MODEL 2
REMARK minimizedAffinity -8.7771101
REMARK CNNscore 0.268687874
REMARK CNNaffinity 7.33552313
REMARK  15 active torsions:
REMARK  status: ('A' for Active; 'I' for Inactive)
REMARK    1  A    between atoms: C2_2  and  C3_3 
REMARK    2  A    between atoms: C2_2  and  C37_47 
REMARK    3  A    between atoms: C3_3  and  C4_4 
REMARK    4  A    between atoms: C4_4  and  C5_5 
REMARK    5  A    between atoms: C5_5  and  C6_6 
REMARK    6  A    between atoms: C5_5  and  C13_20 
REMARK    7  A    between atoms: C6_6  and  O2_8 
REMARK    8  A    between atoms: O2_8  and  C7_9 
REMARK    9  A    between atoms: C8_11  and  C9_12 
REMARK   10  A    between atoms: C9_12  and  O4_13 
REMARK   11  A    between atoms: C10_14  and  O5_15 
REMARK   12  A    between atoms: C11_16  and  O6_17 
REMARK   13  A    between atoms: C12_18  and  O7_19 
REMARK   14  A    between atoms: C14_21  and  O8_22 
REMARK   15  A    between atoms: O8_22  and  C15_23 
ROOT
HETATM    1  C13 UNL     1      -2.487  50.024 -21.015  1.00  0.00     0.038 C 
HETATM    2  C14 UNL     1      -2.948  50.949 -19.850  1.00  0.00     0.138 C 
HETATM    3  C17 UNL     1      -3.394  50.026 -18.685  1.00  0.00     0.047 C 
HETATM    4  C18 UNL     1      -2.977  48.602 -19.113  1.00  0.00    -0.010 C 
HETATM    5  C19 UNL     1      -1.491  48.405 -18.678  1.00  0.00     0.021 C 
HETATM    6  C20 UNL     1      -3.714  47.399 -18.526  1.00  0.00    -0.068 C 
HETATM    7  C21 UNL     1      -3.831  46.251 -19.242  1.00  0.00    -0.068 C 
HETATM    8  C22 UNL     1      -3.303  46.154 -20.679  1.00  0.00     0.036 C 
HETATM    9  C23 UNL     1      -2.660  47.412 -21.296  1.00  0.00     0.015 C 
HETATM   10  C24 UNL     1      -3.216  48.688 -20.665  1.00  0.00    -0.026 C 
HETATM   11  C25 UNL     1      -4.730  48.801 -21.045  1.00  0.00     0.016 C 
HETATM   12  C26 UNL     1      -4.546  44.996 -18.672  1.00  0.00    -0.015 C 
HETATM   13  C27 UNL     1      -5.983  45.015 -19.237  1.00  0.00     0.020 C 
HETATM   14  C28 UNL     1      -3.819  43.698 -19.093  1.00  0.00     0.021 C 
HETATM   15  C29 UNL     1      -4.430  42.413 -18.558  1.00  0.00     0.080 C 
HETATM   16  C30 UNL     1      -5.320  42.570 -17.352  1.00  0.00     0.135 C 
HETATM   17  O10 UNL     1      -6.148  41.685 -17.108  1.00  0.00    -0.297 OA
HETATM   18  C31 UNL     1      -5.116  43.757 -16.401  1.00  0.00     0.018 C 
HETATM   19  C32 UNL     1      -4.134  43.264 -15.316  1.00  0.00     0.023 C 
HETATM   20  C33 UNL     1      -6.474  44.042 -15.712  1.00  0.00     0.023 C 
HETATM   21  C34 UNL     1      -4.501  45.020 -17.108  1.00  0.00     0.013 C 
HETATM   22  C35 UNL     1      -5.022  46.366 -16.576  1.00  0.00     0.011 C 
HETATM   23  C36 UNL     1      -4.219  47.548 -17.113  1.00  0.00     0.036 C 
ENDROOT
BRANCH   1  24
HETATM   24  C5  UNL     1      -2.674  50.562 -22.464  1.00  0.00     0.093 C 
BRANCH  24  25
HETATM   25  C4  UNL     1      -4.010  51.282 -22.759  1.00  0.00     0.019 C 
BRANCH  25  26
HETATM   26  C3  UNL     1      -4.547  50.994 -24.170  1.00  0.00     0.034 C 
BRANCH  26  27
HETATM   27  C2  UNL     1      -5.422  49.755 -24.200  1.00  0.00    -0.086 C 
HETATM   28  C1  UNL     1      -6.661  49.791 -23.675  1.00  0.00     0.014 C 
BRANCH  27  29
HETATM   29  C37 UNL     1      -4.805  48.508 -24.827  1.00  0.00     0.005 C 
HETATM   30  C38 UNL     1      -3.325  48.654 -25.200  1.00  0.00     0.014 C 
HETATM   31  C39 UNL     1      -5.610  48.064 -26.051  1.00  0.00     0.014 C 
ENDBRANCH  27  29
ENDBRANCH  26  27
ENDBRANCH  25  26
ENDBRANCH  24  25
BRANCH  24  32
HETATM   32  C6  UNL     1      -1.535  51.530 -22.783  1.00  0.00     0.266 C 
HETATM   33  O1  UNL     1      -1.202  52.452 -22.052  1.00  0.00    -0.265 OA
BRANCH  32  34
HETATM   34  O2  UNL     1      -0.955  51.233 -23.977  1.00  0.00    -0.287 OA
BRANCH  34  35
HETATM   35  C7  UNL     1      -0.447  52.361 -24.701  1.00  0.00     0.301 C 
HETATM   36  O3  UNL     1       0.960  52.155 -24.967  1.00  0.00    -0.348 OA
HETATM   37  C8  UNL     1       1.180  51.484 -26.206  1.00  0.00     0.179 C 
HETATM   38  C10 UNL     1       0.842  52.429 -27.382  1.00  0.00     0.180 C 
HETATM   39  C11 UNL     1      -0.349  53.343 -27.024  1.00  0.00     0.183 C 
HETATM   40  C12 UNL     1      -1.263  52.654 -25.997  1.00  0.00     0.205 C 
BRANCH  37  41
HETATM   41  C9  UNL     1       2.641  51.030 -26.294  1.00  0.00     0.198 C 
BRANCH  41  42
HETATM   42  O4  UNL     1       3.267  51.610 -27.438  1.00  0.00    -0.398 OA
HETATM   43  H12 UNL     1       4.198  51.330 -27.421  1.00  0.00     0.209 HD
ENDBRANCH  41  42
ENDBRANCH  37  41
BRANCH  38  44
HETATM   44  O5  UNL     1       0.544  51.665 -28.555  1.00  0.00    -0.390 OA
HETATM   45  H14 UNL     1       1.280  51.022 -28.650  1.00  0.00     0.210 HD
ENDBRANCH  38  44
BRANCH  39  46
HETATM   46  O6  UNL     1       0.105  54.605 -26.513  1.00  0.00    -0.390 OA
HETATM   47  H16 UNL     1       0.818  54.434 -25.870  1.00  0.00     0.210 HD
ENDBRANCH  39  46
BRANCH  40  48
HETATM   48  O7  UNL     1      -1.807  51.438 -26.545  1.00  0.00    -0.388 OA
HETATM   49  H18 UNL     1      -2.008  51.593 -27.486  1.00  0.00     0.210 HD
ENDBRANCH  40  48
ENDBRANCH  34  35
ENDBRANCH  32  34
ENDBRANCH  24  32
ENDBRANCH   1  24
BRANCH   2  50
HETATM   50  O8  UNL     1      -1.847  51.780 -19.449  1.00  0.00    -0.316 OA
BRANCH  50  51
HETATM   51  C15 UNL     1      -0.700  51.123 -19.126  1.00  0.00     0.255 C 
HETATM   52  C16 UNL     1      -0.385  51.321 -17.675  1.00  0.00     0.126 C 
HETATM   53  O9  UNL     1      -0.012  50.467 -19.895  1.00  0.00    -0.266 OA
ENDBRANCH  50  51
ENDBRANCH   2  50
TORSDOF 15
ENDMDL
MODEL 3
REMARK minimizedAffinity -9.41380787
REMARK CNNscore 0.264027059
REMARK CNNaffinity 7.21174383
REMARK  15 active torsions:
REMARK  status: ('A' for Active; 'I' for Inactive)
REMARK    1  A    between atoms: C2_2  and  C3_3 
REMARK    2  A    between atoms: C2_2  and  C37_47 
REMARK    3  A    between atoms: C3_3  and  C4_4 
REMARK    4  A    between atoms: C4_4  and  C5_5 
REMARK    5  A    between atoms: C5_5  and  C6_6 
REMARK    6  A    between atoms: C5_5  and  C13_20 
REMARK    7  A    between atoms: C6_6  and  O2_8 
REMARK    8  A    between atoms: O2_8  and  C7_9 
REMARK    9  A    between atoms: C8_11  and  C9_12 
REMARK   10  A    between atoms: C9_12  and  O4_13 
REMARK   11  A    between atoms: C10_14  and  O5_15 
REMARK   12  A    between atoms: C11_16  and  O6_17 
REMARK   13  A    between atoms: C12_18  and  O7_19 
REMARK   14  A    between atoms: C14_21  and  O8_22 
REMARK   15  A    between atoms: O8_22  and  C15_23 
ROOT
HETATM    1  C13 UNL     1      -3.986  50.297 -25.265  1.00  0.00     0.038 C 
HETATM    2  C14 UNL     1      -4.688  48.967 -24.859  1.00  0.00     0.138 C 
HETATM    3  C17 UNL     1      -4.432  48.762 -23.343  1.00  0.00     0.047 C 
HETATM    4  C18 UNL     1      -3.782  50.076 -22.859  1.00  0.00    -0.010 C 
HETATM    5  C19 UNL     1      -4.940  51.064 -22.512  1.00  0.00     0.021 C 
HETATM    6  C20 UNL     1      -2.902  50.061 -21.610  1.00  0.00    -0.068 C 
HETATM    7  C21 UNL     1      -1.881  50.948 -21.479  1.00  0.00    -0.068 C 
HETATM    8  C22 UNL     1      -1.535  51.931 -22.605  1.00  0.00     0.036 C 
HETATM    9  C23 UNL     1      -2.363  51.860 -23.903  1.00  0.00     0.015 C 
HETATM   10  C24 UNL     1      -2.931  50.458 -24.125  1.00  0.00    -0.026 C 
HETATM   11  C25 UNL     1      -1.735  49.480 -24.375  1.00  0.00     0.016 C 
HETATM   12  C26 UNL     1      -0.982  50.985 -20.214  1.00  0.00    -0.015 C 
HETATM   13  C27 UNL     1       0.295  50.189 -20.561  1.00  0.00     0.020 C 
HETATM   14  C28 UNL     1      -0.622  52.437 -19.825  1.00  0.00     0.021 C 
HETATM   15  C29 UNL     1       0.236  52.578 -18.579  1.00  0.00     0.080 C 
HETATM   16  C30 UNL     1       0.223  51.397 -17.644  1.00  0.00     0.135 C 
HETATM   17  O10 UNL     1       1.163  51.258 -16.852  1.00  0.00    -0.297 OA
HETATM   18  C31 UNL     1      -0.989  50.455 -17.619  1.00  0.00     0.018 C 
HETATM   19  C32 UNL     1      -1.937  51.019 -16.537  1.00  0.00     0.023 C 
HETATM   20  C33 UNL     1      -0.493  49.069 -17.136  1.00  0.00     0.023 C 
HETATM   21  C34 UNL     1      -1.758  50.397 -18.989  1.00  0.00     0.013 C 
HETATM   22  C35 UNL     1      -2.341  49.016 -19.335  1.00  0.00     0.011 C 
HETATM   23  C36 UNL     1      -3.281  49.071 -20.537  1.00  0.00     0.036 C 
ENDROOT
BRANCH   1  24
HETATM   24  C5  UNL     1      -3.457  50.403 -26.725  1.00  0.00     0.093 C 
BRANCH  24  25
HETATM   25  C4  UNL     1      -1.977  50.816 -26.887  1.00  0.00     0.019 C 
BRANCH  25  26
HETATM   26  C3  UNL     1      -1.809  52.230 -27.466  1.00  0.00     0.034 C 
BRANCH  26  27
HETATM   27  C2  UNL     1      -0.423  52.788 -27.204  1.00  0.00    -0.086 C 
HETATM   28  C1  UNL     1      -0.159  54.084 -27.455  1.00  0.00     0.014 C 
BRANCH  27  29
HETATM   29  C37 UNL     1       0.614  51.802 -26.675  1.00  0.00     0.005 C 
HETATM   30  C38 UNL     1       1.129  52.120 -25.266  1.00  0.00     0.014 C 
HETATM   31  C39 UNL     1       1.791  51.684 -27.646  1.00  0.00     0.014 C 
ENDBRANCH  27  29
ENDBRANCH  26  27
ENDBRANCH  25  26
ENDBRANCH  24  25
BRANCH  24  32
HETATM   32  C6  UNL     1      -3.651  49.055 -27.420  1.00  0.00     0.266 C 
HETATM   33  O1  UNL     1      -3.022  48.046 -27.133  1.00  0.00    -0.265 OA
BRANCH  32  34
HETATM   34  O2  UNL     1      -4.599  49.132 -28.392  1.00  0.00    -0.287 OA
BRANCH  34  35
HETATM   35  C7  UNL     1      -5.145  47.873 -28.807  1.00  0.00     0.301 C 
HETATM   36  O3  UNL     1      -6.293  47.565 -27.983  1.00  0.00    -0.348 OA
HETATM   37  C8  UNL     1      -7.505  48.073 -28.537  1.00  0.00     0.179 C 
HETATM   38  C10 UNL     1      -7.884  47.267 -29.801  1.00  0.00     0.180 C 
HETATM   39  C11 UNL     1      -6.619  46.841 -30.577  1.00  0.00     0.183 C 
HETATM   40  C12 UNL     1      -5.478  47.841 -30.330  1.00  0.00     0.205 C 
BRANCH  37  41
HETATM   41  C9  UNL     1      -8.626  47.983 -27.496  1.00  0.00     0.198 C 
BRANCH  41  42
HETATM   42  O4  UNL     1      -9.093  49.290 -27.164  1.00  0.00    -0.398 OA
HETATM   43  H12 UNL     1      -9.830  49.174 -26.539  1.00  0.00     0.209 HD
ENDBRANCH  41  42
ENDBRANCH  37  41
BRANCH  38  44
HETATM   44  O5  UNL     1      -8.741  48.046 -30.642  1.00  0.00    -0.390 OA
HETATM   45  H14 UNL     1      -9.452  48.387 -30.056  1.00  0.00     0.210 HD
ENDBRANCH  38  44
BRANCH  39  46
HETATM   46  O6  UNL     1      -6.206  45.518 -30.202  1.00  0.00    -0.390 OA
HETATM   47  H16 UNL     1      -6.247  45.450 -29.231  1.00  0.00     0.210 HD
ENDBRANCH  39  46
BRANCH  40  48
HETATM   48  O7  UNL     1      -5.847  49.152 -30.801  1.00  0.00    -0.388 OA
HETATM   49  H18 UNL     1      -6.354  49.044 -31.626  1.00  0.00     0.210 HD
ENDBRANCH  40  48
ENDBRANCH  34  35
ENDBRANCH  32  34
ENDBRANCH  24  32
ENDBRANCH   1  24
BRANCH   2  50
HETATM   50  O8  UNL     1      -6.095  49.079 -25.128  1.00  0.00    -0.316 OA
BRANCH  50  51
HETATM   51  C15 UNL     1      -6.904  48.296 -24.362  1.00  0.00     0.255 C 
HETATM   52  C16 UNL     1      -7.894  49.145 -23.627  1.00  0.00     0.126 C 
HETATM   53  O9  UNL     1      -6.842  47.078 -24.272  1.00  0.00    -0.266 OA
ENDBRANCH  50  51
ENDBRANCH   2  50
TORSDOF 15
ENDMDL
MODEL 4
REMARK minimizedAffinity -8.49800682
REMARK CNNscore 0.26001814
REMARK CNNaffinity 7.48452187
REMARK  15 active torsions:
REMARK  status: ('A' for Active; 'I' for Inactive)
REMARK    1  A    between atoms: C2_2  and  C3_3 
REMARK    2  A    between atoms: C2_2  and  C37_47 
REMARK    3  A    between atoms: C3_3  and  C4_4 
REMARK    4  A    between atoms: C4_4  and  C5_5 
REMARK    5  A    between atoms: C5_5  and  C6_6 
REMARK    6  A    between atoms: C5_5  and  C13_20 
REMARK    7  A    between atoms: C6_6  and  O2_8 
REMARK    8  A    between atoms: O2_8  and  C7_9 
REMARK    9  A    between atoms: C8_11  and  C9_12 
REMARK   10  A    between atoms: C9_12  and  O4_13 
REMARK   11  A    between atoms: C10_14  and  O5_15 
REMARK   12  A    between atoms: C11_16  and  O6_17 
REMARK   13  A    between atoms: C12_18  and  O7_19 
REMARK   14  A    between atoms: C14_21  and  O8_22 
REMARK   15  A    between atoms: O8_22  and  C15_23 
ROOT
HETATM    1  C13 UNL     1      -1.688  48.644 -18.319  1.00  0.00     0.038 C 
HETATM    2  C14 UNL     1      -3.195  48.283 -18.472  1.00  0.00     0.138 C 
HETATM    3  C17 UNL     1      -3.584  48.570 -19.946  1.00  0.00     0.047 C 
HETATM    4  C18 UNL     1      -2.253  48.876 -20.666  1.00  0.00    -0.010 C 
HETATM    5  C19 UNL     1      -1.642  47.510 -21.109  1.00  0.00     0.021 C 
HETATM    6  C20 UNL     1      -2.267  49.724 -21.938  1.00  0.00    -0.068 C 
HETATM    7  C21 UNL     1      -1.197  50.497 -22.258  1.00  0.00    -0.068 C 
HETATM    8  C22 UNL     1       0.015  50.603 -21.323  1.00  0.00     0.036 C 
HETATM    9  C23 UNL     1      -0.034  49.828 -19.991  1.00  0.00     0.015 C 
HETATM   10  C24 UNL     1      -1.473  49.619 -19.520  1.00  0.00    -0.026 C 
HETATM   11  C25 UNL     1      -2.081  51.019 -19.175  1.00  0.00     0.016 C 
HETATM   12  C26 UNL     1      -1.158  51.349 -23.555  1.00  0.00    -0.015 C 
HETATM   13  C27 UNL     1      -1.558  52.785 -23.147  1.00  0.00     0.020 C 
HETATM   14  C28 UNL     1       0.252  51.342 -24.189  1.00  0.00     0.021 C 
HETATM   15  C29 UNL     1       0.382  52.130 -25.482  1.00  0.00     0.080 C 
HETATM   16  C30 UNL     1      -0.907  52.397 -26.214  1.00  0.00     0.135 C 
HETATM   17  O10 UNL     1      -0.949  53.335 -27.018  1.00  0.00    -0.297 OA
HETATM   18  C31 UNL     1      -2.101  51.450 -26.028  1.00  0.00     0.018 C 
HETATM   19  C32 UNL     1      -1.970  50.384 -27.139  1.00  0.00     0.023 C 
HETATM   20  C33 UNL     1      -3.390  52.264 -26.307  1.00  0.00     0.023 C 
HETATM   21  C34 UNL     1      -2.111  50.729 -24.631  1.00  0.00     0.013 C 
HETATM   22  C35 UNL     1      -3.513  50.503 -24.040  1.00  0.00     0.011 C 
HETATM   23  C36 UNL     1      -3.483  49.588 -22.818  1.00  0.00     0.036 C 
ENDROOT
BRANCH   1  24
HETATM   24  C5  UNL     1      -1.216  49.144 -16.922  1.00  0.00     0.093 C 
BRANCH  24  25
HETATM   25  C4  UNL     1       0.161  49.844 -16.877  1.00  0.00     0.019 C 
BRANCH  25  26
HETATM   26  C3  UNL     1       0.124  51.192 -16.138  1.00  0.00     0.034 C 
BRANCH  26  27
HETATM   27  C2  UNL     1       1.177  52.152 -16.659  1.00  0.00    -0.086 C 
HETATM   28  C1  UNL     1       1.070  52.662 -17.899  1.00  0.00     0.014 C 
BRANCH  27  29
HETATM   29  C37 UNL     1       2.333  52.464 -15.713  1.00  0.00     0.005 C 
HETATM   30  C38 UNL     1       3.715  52.448 -16.377  1.00  0.00     0.014 C 
HETATM   31  C39 UNL     1       2.319  51.515 -14.513  1.00  0.00     0.014 C 
ENDBRANCH  27  29
ENDBRANCH  26  27
ENDBRANCH  25  26
ENDBRANCH  24  25
BRANCH  24  32
HETATM   32  C6  UNL     1      -2.258  50.114 -16.366  1.00  0.00     0.266 C 
HETATM   33  O1  UNL     1      -2.444  51.239 -16.809  1.00  0.00    -0.265 OA
BRANCH  32  34
HETATM   34  O2  UNL     1      -2.936  49.566 -15.322  1.00  0.00    -0.287 OA
BRANCH  34  35
HETATM   35  C7  UNL     1      -2.217  49.538 -14.082  1.00  0.00     0.301 C 
HETATM   36  O3  UNL     1      -2.223  50.865 -13.506  1.00  0.00    -0.348 OA
HETATM   37  C8  UNL     1      -3.343  51.075 -12.649  1.00  0.00     0.179 C 
HETATM   38  C10 UNL     1      -3.178  50.243 -11.355  1.00  0.00     0.180 C 
HETATM   39  C11 UNL     1      -2.481  48.899 -11.654  1.00  0.00     0.183 C 
HETATM   40  C12 UNL     1      -2.766  48.458 -13.100  1.00  0.00     0.205 C 
BRANCH  37  41
HETATM   41  C9  UNL     1      -3.462  52.564 -12.310  1.00  0.00     0.198 C 
BRANCH  41  42
HETATM   42  O4  UNL     1      -4.538  52.775 -11.397  1.00  0.00    -0.398 OA
HETATM   43  H12 UNL     1      -4.540  53.723 -11.180  1.00  0.00     0.209 HD
ENDBRANCH  41  42
ENDBRANCH  37  41
BRANCH  38  44
HETATM   44  O5  UNL     1      -4.456  50.014 -10.753  1.00  0.00    -0.390 OA
HETATM   45  H14 UNL     1      -4.893  50.893 -10.709  1.00  0.00     0.210 HD
ENDBRANCH  38  44
BRANCH  39  46
HETATM   46  O6  UNL     1      -1.065  48.993 -11.437  1.00  0.00    -0.390 OA
HETATM   47  H16 UNL     1      -0.750  49.823 -11.839  1.00  0.00     0.210 HD
ENDBRANCH  39  46
BRANCH  40  48
HETATM   48  O7  UNL     1      -4.179  48.259 -13.296  1.00  0.00    -0.388 OA
HETATM   49  H18 UNL     1      -4.543  47.858 -12.485  1.00  0.00     0.210 HD
ENDBRANCH  40  48
ENDBRANCH  34  35
ENDBRANCH  32  34
ENDBRANCH  24  32
ENDBRANCH   1  24
BRANCH   2  50
HETATM   50  O8  UNL     1      -3.379  46.894 -18.157  1.00  0.00    -0.316 OA
BRANCH  50  51
HETATM   51  C15 UNL     1      -4.085  46.637 -17.021  1.00  0.00     0.255 C 
HETATM   52  C16 UNL     1      -3.176  46.089 -15.965  1.00  0.00     0.126 C 
HETATM   53  O9  UNL     1      -5.285  46.814 -16.871  1.00  0.00    -0.266 OA
ENDBRANCH  50  51
ENDBRANCH   2  50
TORSDOF 15
ENDMDL
MODEL 5
REMARK minimizedAffinity -9.81736279
REMARK CNNscore 0.229263023
REMARK CNNaffinity 6.57710266
REMARK  15 active torsions:
REMARK  status: ('A' for Active; 'I' for Inactive)
REMARK    1  A    between atoms: C2_2  and  C3_3 
REMARK    2  A    between atoms: C2_2  and  C37_47 
REMARK    3  A    between atoms: C3_3  and  C4_4 
REMARK    4  A    between atoms: C4_4  and  C5_5 
REMARK    5  A    between atoms: C5_5  and  C6_6 
REMARK    6  A    between atoms: C5_5  and  C13_20 
REMARK    7  A    between atoms: C6_6  and  O2_8 
REMARK    8  A    between atoms: O2_8  and  C7_9 
REMARK    9  A    between atoms: C8_11  and  C9_12 
REMARK   10  A    between atoms: C9_12  and  O4_13 
REMARK   11  A    between atoms: C10_14  and  O5_15 
REMARK   12  A    between atoms: C11_16  and  O6_17 
REMARK   13  A    between atoms: C12_18  and  O7_19 
REMARK   14  A    between atoms: C14_21  and  O8_22 
REMARK   15  A    between atoms: O8_22  and  C15_23 
ROOT
HETATM    1  C13 UNL     1      -4.077  50.170 -22.947  1.00  0.00     0.038 C 
HETATM    2  C14 UNL     1      -4.055  48.977 -23.949  1.00  0.00     0.138 C 
HETATM    3  C17 UNL     1      -5.241  48.049 -23.577  1.00  0.00     0.047 C 
HETATM    4  C18 UNL     1      -6.052  48.829 -22.519  1.00  0.00    -0.010 C 
HETATM    5  C19 UNL     1      -7.041  49.758 -23.289  1.00  0.00     0.021 C 
HETATM    6  C20 UNL     1      -6.931  48.060 -21.534  1.00  0.00    -0.068 C 
HETATM    7  C21 UNL     1      -7.166  48.559 -20.292  1.00  0.00    -0.068 C 
HETATM    8  C22 UNL     1      -6.499  49.856 -19.818  1.00  0.00     0.036 C 
HETATM    9  C23 UNL     1      -5.527  50.561 -20.785  1.00  0.00     0.015 C 
HETATM   10  C24 UNL     1      -4.891  49.569 -21.758  1.00  0.00    -0.026 C 
HETATM   11  C25 UNL     1      -3.981  48.596 -20.937  1.00  0.00     0.016 C 
HETATM   12  C26 UNL     1      -8.077  47.825 -19.271  1.00  0.00    -0.015 C 
HETATM   13  C27 UNL     1      -7.136  47.037 -18.333  1.00  0.00     0.020 C 
HETATM   14  C28 UNL     1      -8.931  48.827 -18.460  1.00  0.00     0.021 C 
HETATM   15  C29 UNL     1      -9.877  48.199 -17.451  1.00  0.00     0.080 C 
HETATM   16  C30 UNL     1     -10.215  46.750 -17.689  1.00  0.00     0.135 C 
HETATM   17  O10 UNL     1     -10.628  46.074 -16.740  1.00  0.00    -0.297 OA
HETATM   18  C31 UNL     1     -10.141  46.172 -19.110  1.00  0.00     0.018 C 
HETATM   19  C32 UNL     1     -11.551  46.354 -19.712  1.00  0.00     0.023 C 
HETATM   20  C33 UNL     1      -9.875  44.651 -18.981  1.00  0.00     0.023 C 
HETATM   21  C34 UNL     1      -9.097  46.910 -20.026  1.00  0.00     0.013 C 
HETATM   22  C35 UNL     1      -8.365  45.996 -21.022  1.00  0.00     0.011 C 
HETATM   23  C36 UNL     1      -7.557  46.788 -22.047  1.00  0.00     0.036 C 
ENDROOT
BRANCH   1  24
HETATM   24  C5  UNL     1      -2.710  50.827 -22.595  1.00  0.00     0.093 C 
BRANCH  24  25
HETATM   25  C4  UNL     1      -1.495  49.875 -22.515  1.00  0.00     0.019 C 
BRANCH  25  26
HETATM   26  C3  UNL     1      -0.740  49.978 -21.180  1.00  0.00     0.034 C 
BRANCH  26  27
HETATM   27  C2  UNL     1      -1.028  51.285 -20.467  1.00  0.00    -0.086 C 
HETATM   28  C1  UNL     1      -2.013  51.352 -19.553  1.00  0.00     0.014 C 
BRANCH  27  29
HETATM   29  C37 UNL     1      -0.164  52.477 -20.866  1.00  0.00     0.005 C 
HETATM   30  C38 UNL     1       1.092  52.108 -21.665  1.00  0.00     0.014 C 
HETATM   31  C39 UNL     1       0.224  53.300 -19.635  1.00  0.00     0.014 C 
ENDBRANCH  27  29
ENDBRANCH  26  27
ENDBRANCH  25  26
ENDBRANCH  24  25
BRANCH  24  32
HETATM   32  C6  UNL     1      -2.398  51.905 -23.634  1.00  0.00     0.266 C 
HETATM   33  O1  UNL     1      -3.010  52.960 -23.722  1.00  0.00    -0.265 OA
BRANCH  32  34
HETATM   34  O2  UNL     1      -1.365  51.533 -24.436  1.00  0.00    -0.287 OA
BRANCH  34  35
HETATM   35  C7  UNL     1      -0.739  52.605 -25.153  1.00  0.00     0.301 C 
HETATM   36  O3  UNL     1       0.687  52.364 -25.206  1.00  0.00    -0.348 OA
HETATM   37  C8  UNL     1       1.063  51.610 -26.357  1.00  0.00     0.179 C 
HETATM   38  C10 UNL     1       0.910  52.479 -27.627  1.00  0.00     0.180 C 
HETATM   39  C11 UNL     1      -0.300  53.429 -27.497  1.00  0.00     0.183 C 
HETATM   40  C12 UNL     1      -1.361  52.820 -26.566  1.00  0.00     0.205 C 
BRANCH  37  41
HETATM   41  C9  UNL     1       2.511  51.134 -26.211  1.00  0.00     0.198 C 
BRANCH  41  42
HETATM   42  O4  UNL     1       3.279  51.548 -27.341  1.00  0.00    -0.398 OA
HETATM   43  H12 UNL     1       4.195  51.262 -27.177  1.00  0.00     0.209 HD
ENDBRANCH  41  42
ENDBRANCH  37  41
BRANCH  38  44
HETATM   44  O5  UNL     1       0.761  51.643 -28.779  1.00  0.00    -0.390 OA
HETATM   45  H14 UNL     1       1.490  50.986 -28.728  1.00  0.00     0.210 HD
ENDBRANCH  38  44
BRANCH  39  46
HETATM   46  O6  UNL     1       0.106  54.717 -27.009  1.00  0.00    -0.390 OA
HETATM   47  H16 UNL     1       0.720  54.580 -26.265  1.00  0.00     0.210 HD
ENDBRANCH  39  46
BRANCH  40  48
HETATM   48  O7  UNL     1      -1.850  51.577 -27.105  1.00  0.00    -0.388 OA
HETATM   49  H18 UNL     1      -1.915  51.672 -28.073  1.00  0.00     0.210 HD
ENDBRANCH  40  48
ENDBRANCH  34  35
ENDBRANCH  32  34
ENDBRANCH  24  32
ENDBRANCH   1  24
BRANCH   2  50
HETATM   50  O8  UNL     1      -4.203  49.484 -25.284  1.00  0.00    -0.316 OA
BRANCH  50  51
HETATM   51  C15 UNL     1      -3.524  48.805 -26.250  1.00  0.00     0.255 C 
HETATM   52  C16 UNL     1      -4.470  48.348 -27.318  1.00  0.00     0.126 C 
HETATM   53  O9  UNL     1      -2.321  48.587 -26.258  1.00  0.00    -0.266 OA
ENDBRANCH  50  51
ENDBRANCH   2  50
TORSDOF 15
ENDMDL
MODEL 6
REMARK minimizedAffinity -8.01763248
REMARK CNNscore 0.191792086
REMARK CNNaffinity 6.43312597
REMARK  15 active torsions:
REMARK  status: ('A' for Active; 'I' for Inactive)
REMARK    1  A    between atoms: C2_2  and  C3_3 
REMARK    2  A    between atoms: C2_2  and  C37_47 
REMARK    3  A    between atoms: C3_3  and  C4_4 
REMARK    4  A    between atoms: C4_4  and  C5_5 
REMARK    5  A    between atoms: C5_5  and  C6_6 
REMARK    6  A    between atoms: C5_5  and  C13_20 
REMARK    7  A    between atoms: C6_6  and  O2_8 
REMARK    8  A    between atoms: O2_8  and  C7_9 
REMARK    9  A    between atoms: C8_11  and  C9_12 
REMARK   10  A    between atoms: C9_12  and  O4_13 
REMARK   11  A    between atoms: C10_14  and  O5_15 
REMARK   12  A    between atoms: C11_16  and  O6_17 
REMARK   13  A    between atoms: C12_18  and  O7_19 
REMARK   14  A    between atoms: C14_21  and  O8_22 
REMARK   15  A    between atoms: O8_22  and  C15_23 
ROOT
HETATM    1  C13 UNL     1     -10.484  46.297 -27.979  1.00  0.00     0.038 C 
HETATM    2  C14 UNL     1     -10.551  45.061 -28.923  1.00  0.00     0.138 C 
HETATM    3  C17 UNL     1     -11.998  44.507 -28.844  1.00  0.00     0.047 C 
HETATM    4  C18 UNL     1     -12.792  45.555 -28.035  1.00  0.00    -0.010 C 
HETATM    5  C19 UNL     1     -13.281  46.643 -29.041  1.00  0.00     0.021 C 
HETATM    6  C20 UNL     1     -14.053  45.126 -27.286  1.00  0.00    -0.068 C 
HETATM    7  C21 UNL     1     -14.429  45.770 -26.151  1.00  0.00    -0.068 C 
HETATM    8  C22 UNL     1     -13.565  46.884 -25.546  1.00  0.00     0.036 C 
HETATM    9  C23 UNL     1     -12.240  47.230 -26.252  1.00  0.00     0.015 C 
HETATM   10  C24 UNL     1     -11.687  46.030 -27.020  1.00  0.00    -0.026 C 
HETATM   11  C25 UNL     1     -11.296  44.925 -25.983  1.00  0.00     0.016 C 
HETATM   12  C26 UNL     1     -15.719  45.385 -25.377  1.00  0.00    -0.015 C 
HETATM   13  C27 UNL     1     -15.277  44.460 -24.221  1.00  0.00     0.020 C 
HETATM   14  C28 UNL     1     -16.434  46.638 -24.821  1.00  0.00     0.021 C 
HETATM   15  C29 UNL     1     -17.726  46.364 -24.069  1.00  0.00     0.080 C 
HETATM   16  C30 UNL     1     -18.379  45.038 -24.361  1.00  0.00     0.135 C 
HETATM   17  O10 UNL     1     -19.172  44.573 -23.534  1.00  0.00    -0.297 OA
HETATM   18  C31 UNL     1     -18.132  44.344 -25.708  1.00  0.00     0.018 C 
HETATM   19  C32 UNL     1     -19.258  44.835 -26.646  1.00  0.00     0.023 C 
HETATM   20  C33 UNL     1     -18.329  42.823 -25.493  1.00  0.00     0.023 C 
HETATM   21  C34 UNL     1     -16.742  44.707 -26.348  1.00  0.00     0.013 C 
HETATM   22  C35 UNL     1     -16.073  43.555 -27.115  1.00  0.00     0.011 C 
HETATM   23  C36 UNL     1     -14.863  44.023 -27.919  1.00  0.00     0.036 C 
ENDROOT
BRANCH   1  24
HETATM   24  C5  UNL     1      -9.113  46.604 -27.308  1.00  0.00     0.093 C 
BRANCH  24  25
HETATM   25  C4  UNL     1      -9.130  46.795 -25.774  1.00  0.00     0.019 C 
BRANCH  25  26
HETATM   26  C3  UNL     1      -8.039  47.759 -25.278  1.00  0.00     0.034 C 
BRANCH  26  27
HETATM   27  C2  UNL     1      -7.357  47.245 -24.025  1.00  0.00    -0.086 C 
HETATM   28  C1  UNL     1      -7.611  46.000 -23.581  1.00  0.00     0.014 C 
BRANCH  27  29
HETATM   29  C37 UNL     1      -6.414  48.217 -23.322  1.00  0.00     0.005 C 
HETATM   30  C38 UNL     1      -7.007  49.612 -23.085  1.00  0.00     0.014 C 
HETATM   31  C39 UNL     1      -5.092  48.334 -24.085  1.00  0.00     0.014 C 
ENDBRANCH  27  29
ENDBRANCH  26  27
ENDBRANCH  25  26
ENDBRANCH  24  25
BRANCH  24  32
HETATM   32  C6  UNL     1      -8.139  45.469 -27.632  1.00  0.00     0.266 C 
HETATM   33  O1  UNL     1      -8.250  44.334 -27.192  1.00  0.00    -0.265 OA
BRANCH  32  34
HETATM   34  O2  UNL     1      -7.146  45.893 -28.458  1.00  0.00    -0.287 OA
BRANCH  34  35
HETATM   35  C7  UNL     1      -7.373  47.168 -29.074  1.00  0.00     0.301 C 
HETATM   36  O3  UNL     1      -6.448  48.130 -28.516  1.00  0.00    -0.348 OA
HETATM   37  C8  UNL     1      -5.227  48.190 -29.250  1.00  0.00     0.179 C 
HETATM   38  C10 UNL     1      -5.473  48.852 -30.626  1.00  0.00     0.180 C 
HETATM   39  C11 UNL     1      -6.865  48.472 -31.174  1.00  0.00     0.183 C 
HETATM   40  C12 UNL     1      -7.298  47.100 -30.630  1.00  0.00     0.205 C 
BRANCH  37  41
HETATM   41  C9  UNL     1      -4.187  48.988 -28.457  1.00  0.00     0.198 C 
BRANCH  41  42
HETATM   42  O4  UNL     1      -3.780  50.138 -29.199  1.00  0.00    -0.398 OA
HETATM   43  H12 UNL     1      -3.159  50.630 -28.634  1.00  0.00     0.209 HD
ENDBRANCH  41  42
ENDBRANCH  37  41
BRANCH  38  44
HETATM   44  O5  UNL     1      -4.453  48.460 -31.549  1.00  0.00    -0.390 OA
HETATM   45  H14 UNL     1      -3.600  48.612 -31.087  1.00  0.00     0.210 HD
ENDBRANCH  38  44
BRANCH  39  46
HETATM   46  O6  UNL     1      -7.842  49.468 -30.837  1.00  0.00    -0.390 OA
HETATM   47  H16 UNL     1      -7.720  49.709 -29.901  1.00  0.00     0.210 HD
ENDBRANCH  39  46
BRANCH  40  48
HETATM   48  O7  UNL     1      -6.377  46.077 -31.053  1.00  0.00    -0.388 OA
HETATM   49  H18 UNL     1      -6.103  46.277 -31.967  1.00  0.00     0.210 HD
ENDBRANCH  40  48
ENDBRANCH  34  35
ENDBRANCH  32  34
ENDBRANCH  24  32
ENDBRANCH   1  24
BRANCH   2  50
HETATM   50  O8  UNL     1     -10.238  45.476 -30.262  1.00  0.00    -0.316 OA
BRANCH  50  51
HETATM   51  C15 UNL     1     -10.679  46.716 -30.613  1.00  0.00     0.255 C 
HETATM   52  C16 UNL     1     -11.383  46.656 -31.933  1.00  0.00     0.126 C 
HETATM   53  O9  UNL     1     -10.526  47.739 -29.960  1.00  0.00    -0.266 OA
ENDBRANCH  50  51
ENDBRANCH   2  50
TORSDOF 15
ENDMDL
MODEL 7
REMARK minimizedAffinity -8.24403381
REMARK CNNscore 0.183655635
REMARK CNNaffinity 6.18984652
REMARK  15 active torsions:
REMARK  status: ('A' for Active; 'I' for Inactive)
REMARK    1  A    between atoms: C2_2  and  C3_3 
REMARK    2  A    between atoms: C2_2  and  C37_47 
REMARK    3  A    between atoms: C3_3  and  C4_4 
REMARK    4  A    between atoms: C4_4  and  C5_5 
REMARK    5  A    between atoms: C5_5  and  C6_6 
REMARK    6  A    between atoms: C5_5  and  C13_20 
REMARK    7  A    between atoms: C6_6  and  O2_8 
REMARK    8  A    between atoms: O2_8  and  C7_9 
REMARK    9  A    between atoms: C8_11  and  C9_12 
REMARK   10  A    between atoms: C9_12  and  O4_13 
REMARK   11  A    between atoms: C10_14  and  O5_15 
REMARK   12  A    between atoms: C11_16  and  O6_17 
REMARK   13  A    between atoms: C12_18  and  O7_19 
REMARK   14  A    between atoms: C14_21  and  O8_22 
REMARK   15  A    between atoms: O8_22  and  C15_23 
ROOT
HETATM    1  C13 UNL     1      -5.022  48.878 -21.163  1.00  0.00     0.038 C 
HETATM    2  C14 UNL     1      -3.858  48.842 -20.130  1.00  0.00     0.138 C 
HETATM    3  C17 UNL     1      -2.711  49.715 -20.706  1.00  0.00     0.047 C 
HETATM    4  C18 UNL     1      -3.314  50.411 -21.945  1.00  0.00    -0.010 C 
HETATM    5  C19 UNL     1      -4.027  51.707 -21.446  1.00  0.00     0.021 C 
HETATM    6  C20 UNL     1      -2.386  50.887 -23.062  1.00  0.00    -0.068 C 
HETATM    7  C21 UNL     1      -2.828  50.938 -24.346  1.00  0.00    -0.068 C 
HETATM    8  C22 UNL     1      -4.233  50.450 -24.722  1.00  0.00     0.036 C 
HETATM    9  C23 UNL     1      -5.117  49.869 -23.601  1.00  0.00     0.015 C 
HETATM   10  C24 UNL     1      -4.272  49.280 -22.472  1.00  0.00    -0.026 C 
HETATM   11  C25 UNL     1      -3.500  48.041 -23.036  1.00  0.00     0.016 C 
HETATM   12  C26 UNL     1      -1.928  51.443 -25.505  1.00  0.00    -0.015 C 
HETATM   13  C27 UNL     1      -1.343  50.186 -26.186  1.00  0.00     0.020 C 
HETATM   14  C28 UNL     1      -2.740  52.278 -26.522  1.00  0.00     0.021 C 
HETATM   15  C29 UNL     1      -1.936  52.841 -27.683  1.00  0.00     0.080 C 
HETATM   16  C30 UNL     1      -0.449  52.934 -27.459  1.00  0.00     0.135 C 
HETATM   17  O10 UNL     1       0.295  52.990 -28.445  1.00  0.00    -0.297 OA
HETATM   18  C31 UNL     1       0.103  53.060 -26.033  1.00  0.00     0.018 C 
HETATM   19  C32 UNL     1       0.207  54.576 -25.754  1.00  0.00     0.023 C 
HETATM   20  C33 UNL     1       1.540  52.482 -26.036  1.00  0.00     0.023 C 
HETATM   21  C34 UNL     1      -0.828  52.406 -24.947  1.00  0.00     0.013 C 
HETATM   22  C35 UNL     1      -0.077  51.745 -23.779  1.00  0.00     0.011 C 
HETATM   23  C36 UNL     1      -1.015  51.351 -22.640  1.00  0.00     0.036 C 
ENDROOT
BRANCH   1  24
HETATM   24  C5  UNL     1      -5.939  47.622 -21.242  1.00  0.00     0.093 C 
BRANCH  24  25
HETATM   25  C4  UNL     1      -6.062  46.783 -19.950  1.00  0.00     0.019 C 
BRANCH  25  26
HETATM   26  C3  UNL     1      -7.133  45.684 -20.049  1.00  0.00     0.034 C 
BRANCH  26  27
HETATM   27  C2  UNL     1      -6.536  44.346 -20.441  1.00  0.00    -0.086 C 
HETATM   28  C1  UNL     1      -6.303  44.066 -21.736  1.00  0.00     0.014 C 
BRANCH  27  29
HETATM   29  C37 UNL     1      -6.254  43.372 -19.301  1.00  0.00     0.005 C 
HETATM   30  C38 UNL     1      -5.061  43.759 -18.419  1.00  0.00     0.014 C 
HETATM   31  C39 UNL     1      -6.066  41.951 -19.839  1.00  0.00     0.014 C 
ENDBRANCH  27  29
ENDBRANCH  26  27
ENDBRANCH  25  26
ENDBRANCH  24  25
BRANCH  24  32
HETATM   32  C6  UNL     1      -7.344  48.060 -21.657  1.00  0.00     0.266 C 
HETATM   33  O1  UNL     1      -8.023  48.854 -21.022  1.00  0.00    -0.265 OA
BRANCH  32  34
HETATM   34  O2  UNL     1      -7.730  47.451 -22.810  1.00  0.00    -0.287 OA
BRANCH  34  35
HETATM   35  C7  UNL     1      -9.141  47.478 -23.066  1.00  0.00     0.301 C 
HETATM   36  O3  UNL     1      -9.402  48.390 -24.158  1.00  0.00    -0.348 OA
HETATM   37  C8  UNL     1      -9.364  47.736 -25.425  1.00  0.00     0.179 C 
HETATM   38  C10 UNL     1     -10.593  46.810 -25.575  1.00  0.00     0.180 C 
HETATM   39  C11 UNL     1     -10.970  46.177 -24.219  1.00  0.00     0.183 C 
HETATM   40  C12 UNL     1      -9.728  46.057 -23.321  1.00  0.00     0.205 C 
BRANCH  37  41
HETATM   41  C9  UNL     1      -9.348  48.781 -26.545  1.00  0.00     0.198 C 
BRANCH  41  42
HETATM   42  O4  UNL     1      -9.639  50.073 -26.014  1.00  0.00    -0.398 OA
HETATM   43  H12 UNL     1      -9.571  50.702 -26.753  1.00  0.00     0.209 HD
ENDBRANCH  41  42
ENDBRANCH  37  41
BRANCH  38  44
HETATM   44  O5  UNL     1     -10.322  45.787 -26.539  1.00  0.00    -0.390 OA
HETATM   45  H14 UNL     1      -9.968  46.251 -27.329  1.00  0.00     0.210 HD
ENDBRANCH  38  44
BRANCH  39  46
HETATM   46  O6  UNL     1     -11.986  46.946 -23.557  1.00  0.00    -0.390 OA
HETATM   47  H16 UNL     1     -11.746  47.888 -23.623  1.00  0.00     0.210 HD
ENDBRANCH  39  46
BRANCH  40  48
HETATM   48  O7  UNL     1      -8.745  45.200 -23.933  1.00  0.00    -0.388 OA
HETATM   49  H18 UNL     1      -9.215  44.467 -24.373  1.00  0.00     0.210 HD
ENDBRANCH  40  48
ENDBRANCH  34  35
ENDBRANCH  32  34
ENDBRANCH  24  32
ENDBRANCH   1  24
BRANCH   2  50
HETATM   50  O8  UNL     1      -4.324  49.374 -18.880  1.00  0.00    -0.316 OA
BRANCH  50  51
HETATM   51  C15 UNL     1      -3.571  49.061 -17.789  1.00  0.00     0.255 C 
HETATM   52  C16 UNL     1      -3.085  50.312 -17.125  1.00  0.00     0.126 C 
HETATM   53  O9  UNL     1      -3.314  47.931 -17.399  1.00  0.00    -0.266 OA
ENDBRANCH  50  51
ENDBRANCH   2  50
TORSDOF 15
ENDMDL
MODEL 8
REMARK minimizedAffinity -10.209362
REMARK CNNscore 0.177348018
REMARK CNNaffinity 6.64419031
REMARK  15 active torsions:
REMARK  status: ('A' for Active; 'I' for Inactive)
REMARK    1  A    between atoms: C2_2  and  C3_3 
REMARK    2  A    between atoms: C2_2  and  C37_47 
REMARK    3  A    between atoms: C3_3  and  C4_4 
REMARK    4  A    between atoms: C4_4  and  C5_5 
REMARK    5  A    between atoms: C5_5  and  C6_6 
REMARK    6  A    between atoms: C5_5  and  C13_20 
REMARK    7  A    between atoms: C6_6  and  O2_8 
REMARK    8  A    between atoms: O2_8  and  C7_9 
REMARK    9  A    between atoms: C8_11  and  C9_12 
REMARK   10  A    between atoms: C9_12  and  O4_13 
REMARK   11  A    between atoms: C10_14  and  O5_15 
REMARK   12  A    between atoms: C11_16  and  O6_17 
REMARK   13  A    between atoms: C12_18  and  O7_19 
REMARK   14  A    between atoms: C14_21  and  O8_22 
REMARK   15  A    between atoms: O8_22  and  C15_23 
ROOT
HETATM    1  C13 UNL     1      -2.554  50.346 -21.811  1.00  0.00     0.038 C 
HETATM    2  C14 UNL     1      -2.985  49.909 -20.379  1.00  0.00     0.138 C 
HETATM    3  C17 UNL     1      -4.133  48.879 -20.544  1.00  0.00     0.047 C 
HETATM    4  C18 UNL     1      -4.193  48.576 -22.057  1.00  0.00    -0.010 C 
HETATM    5  C19 UNL     1      -3.158  47.444 -22.343  1.00  0.00     0.021 C 
HETATM    6  C20 UNL     1      -5.499  48.069 -22.668  1.00  0.00    -0.068 C 
HETATM    7  C21 UNL     1      -5.804  48.347 -23.963  1.00  0.00    -0.068 C 
HETATM    8  C22 UNL     1      -4.894  49.236 -24.819  1.00  0.00     0.036 C 
HETATM    9  C23 UNL     1      -3.636  49.831 -24.155  1.00  0.00     0.015 C 
HETATM   10  C24 UNL     1      -3.824  49.987 -22.646  1.00  0.00    -0.026 C 
HETATM   11  C25 UNL     1      -4.935  51.062 -22.401  1.00  0.00     0.016 C 
HETATM   12  C26 UNL     1      -7.105  47.826 -24.630  1.00  0.00    -0.015 C 
HETATM   13  C27 UNL     1      -8.124  48.986 -24.567  1.00  0.00     0.020 C 
HETATM   14  C28 UNL     1      -6.854  47.409 -26.097  1.00  0.00     0.021 C 
HETATM   15  C29 UNL     1      -8.067  46.858 -26.828  1.00  0.00     0.080 C 
HETATM   16  C30 UNL     1      -9.180  46.350 -25.950  1.00  0.00     0.135 C 
HETATM   17  O10 UNL     1     -10.319  46.268 -26.424  1.00  0.00    -0.297 OA
HETATM   18  C31 UNL     1      -8.868  45.852 -24.532  1.00  0.00     0.018 C 
HETATM   19  C32 UNL     1      -8.604  44.336 -24.667  1.00  0.00     0.023 C 
HETATM   20  C33 UNL     1     -10.150  46.033 -23.680  1.00  0.00     0.023 C 
HETATM   21  C34 UNL     1      -7.600  46.534 -23.899  1.00  0.00     0.013 C 
HETATM   22  C35 UNL     1      -7.697  46.777 -22.384  1.00  0.00     0.011 C 
HETATM   23  C36 UNL     1      -6.360  47.205 -21.782  1.00  0.00     0.036 C 
ENDROOT
BRANCH   1  24
HETATM   24  C5  UNL     1      -1.998  51.791 -21.974  1.00  0.00     0.093 C 
BRANCH  24  25
HETATM   25  C4  UNL     1      -0.493  51.982 -21.677  1.00  0.00     0.019 C 
BRANCH  25  26
HETATM   26  C3  UNL     1      -0.107  51.564 -20.248  1.00  0.00     0.034 C 
BRANCH  26  27
HETATM   27  C2  UNL     1       0.518  52.709 -19.473  1.00  0.00    -0.086 C 
HETATM   28  C1  UNL     1       0.928  53.816 -20.119  1.00  0.00     0.014 C 
BRANCH  27  29
HETATM   29  C37 UNL     1       0.661  52.507 -17.968  1.00  0.00     0.005 C 
HETATM   30  C38 UNL     1       2.091  52.674 -17.440  1.00  0.00     0.014 C 
HETATM   31  C39 UNL     1       0.107  51.142 -17.552  1.00  0.00     0.014 C 
ENDBRANCH  27  29
ENDBRANCH  26  27
ENDBRANCH  25  26
ENDBRANCH  24  25
BRANCH  24  32
HETATM   32  C6  UNL     1      -2.260  52.264 -23.404  1.00  0.00     0.266 C 
HETATM   33  O1  UNL     1      -3.219  52.951 -23.728  1.00  0.00    -0.265 OA
BRANCH  32  34
HETATM   34  O2  UNL     1      -1.299  51.816 -24.256  1.00  0.00    -0.287 OA
BRANCH  34  35
HETATM   35  C7  UNL     1      -0.789  52.800 -25.165  1.00  0.00     0.301 C 
HETATM   36  O3  UNL     1       0.644  52.641 -25.274  1.00  0.00    -0.348 OA
HETATM   37  C8  UNL     1       1.007  51.742 -26.321  1.00  0.00     0.179 C 
HETATM   38  C10 UNL     1       0.725  52.394 -27.694  1.00  0.00     0.180 C 
HETATM   39  C11 UNL     1      -0.539  53.278 -27.630  1.00  0.00     0.183 C 
HETATM   40  C12 UNL     1      -1.502  52.757 -26.551  1.00  0.00     0.205 C 
BRANCH  37  41
HETATM   41  C9  UNL     1       2.492  51.383 -26.200  1.00  0.00     0.198 C 
BRANCH  41  42
HETATM   42  O4  UNL     1       3.223  51.947 -27.288  1.00  0.00    -0.398 OA
HETATM   43  H12 UNL     1       4.160  51.730 -27.139  1.00  0.00     0.209 HD
ENDBRANCH  41  42
ENDBRANCH  37  41
BRANCH  38  44
HETATM   44  O5  UNL     1       0.571  51.383 -28.695  1.00  0.00    -0.390 OA
HETATM   45  H14 UNL     1       1.345  50.786 -28.594  1.00  0.00     0.210 HD
ENDBRANCH  38  44
BRANCH  39  46
HETATM   46  O6  UNL     1      -0.198  54.648 -27.369  1.00  0.00    -0.390 OA
HETATM   47  H16 UNL     1       0.464  54.665 -26.654  1.00  0.00     0.210 HD
ENDBRANCH  39  46
BRANCH  40  48
HETATM   48  O7  UNL     1      -1.932  51.418 -26.863  1.00  0.00    -0.388 OA
HETATM   49  H18 UNL     1      -2.057  51.359 -27.828  1.00  0.00     0.210 HD
ENDBRANCH  40  48
ENDBRANCH  34  35
ENDBRANCH  32  34
ENDBRANCH  24  32
ENDBRANCH   1  24
BRANCH   2  50
HETATM   50  O8  UNL     1      -1.860  49.316 -19.712  1.00  0.00    -0.316 OA
BRANCH  50  51
HETATM   51  C15 UNL     1      -1.711  47.974 -19.890  1.00  0.00     0.255 C 
HETATM   52  C16 UNL     1      -0.690  47.707 -20.953  1.00  0.00     0.126 C 
HETATM   53  O9  UNL     1      -2.317  47.102 -19.283  1.00  0.00    -0.266 OA
ENDBRANCH  50  51
ENDBRANCH   2  50
TORSDOF 15
ENDMDL
MODEL 9
REMARK minimizedAffinity -8.15133762
REMARK CNNscore 0.175689951
REMARK CNNaffinity 6.81226158
REMARK  15 active torsions:
REMARK  status: ('A' for Active; 'I' for Inactive)
REMARK    1  A    between atoms: C2_2  and  C3_3 
REMARK    2  A    between atoms: C2_2  and  C37_47 
REMARK    3  A    between atoms: C3_3  and  C4_4 
REMARK    4  A    between atoms: C4_4  and  C5_5 
REMARK    5  A    between atoms: C5_5  and  C6_6 
REMARK    6  A    between atoms: C5_5  and  C13_20 
REMARK    7  A    between atoms: C6_6  and  O2_8 
REMARK    8  A    between atoms: O2_8  and  C7_9 
REMARK    9  A    between atoms: C8_11  and  C9_12 
REMARK   10  A    between atoms: C9_12  and  O4_13 
REMARK   11  A    between atoms: C10_14  and  O5_15 
REMARK   12  A    between atoms: C11_16  and  O6_17 
REMARK   13  A    between atoms: C12_18  and  O7_19 
REMARK   14  A    between atoms: C14_21  and  O8_22 
REMARK   15  A    between atoms: O8_22  and  C15_23 
ROOT
HETATM    1  C13 UNL     1      -0.783  51.079 -17.495  1.00  0.00     0.038 C 
HETATM    2  C14 UNL     1       0.764  51.254 -17.464  1.00  0.00     0.138 C 
HETATM    3  C17 UNL     1       1.190  51.780 -18.860  1.00  0.00     0.047 C 
HETATM    4  C18 UNL     1      -0.129  52.107 -19.591  1.00  0.00    -0.010 C 
HETATM    5  C19 UNL     1      -0.534  53.559 -19.186  1.00  0.00     0.021 C 
HETATM    6  C20 UNL     1      -0.158  52.111 -21.119  1.00  0.00    -0.068 C 
HETATM    7  C21 UNL     1      -1.300  51.798 -21.784  1.00  0.00    -0.068 C 
HETATM    8  C22 UNL     1      -2.563  51.361 -21.032  1.00  0.00     0.036 C 
HETATM    9  C23 UNL     1      -2.486  51.256 -19.496  1.00  0.00     0.015 C 
HETATM   10  C24 UNL     1      -1.059  50.970 -19.028  1.00  0.00    -0.026 C 
HETATM   11  C25 UNL     1      -0.655  49.545 -19.534  1.00  0.00     0.016 C 
HETATM   12  C26 UNL     1      -1.380  51.819 -23.335  1.00  0.00    -0.015 C 
HETATM   13  C27 UNL     1      -1.191  50.358 -23.802  1.00  0.00     0.020 C 
HETATM   14  C28 UNL     1      -2.742  52.368 -23.819  1.00  0.00     0.021 C 
HETATM   15  C29 UNL     1      -2.904  52.452 -25.327  1.00  0.00     0.080 C 
HETATM   16  C30 UNL     1      -1.623  52.460 -26.120  1.00  0.00     0.135 C 
HETATM   17  O10 UNL     1      -1.661  52.127 -27.310  1.00  0.00    -0.297 OA
HETATM   18  C31 UNL     1      -0.328  52.973 -25.475  1.00  0.00     0.018 C 
HETATM   19  C32 UNL     1      -0.262  54.480 -25.804  1.00  0.00     0.023 C 
HETATM   20  C33 UNL     1       0.857  52.281 -26.193  1.00  0.00     0.023 C 
HETATM   21  C34 UNL     1      -0.299  52.792 -23.913  1.00  0.00     0.013 C 
HETATM   22  C35 UNL     1       1.087  52.460 -23.335  1.00  0.00     0.011 C 
HETATM   23  C36 UNL     1       1.111  52.542 -21.811  1.00  0.00     0.036 C 
ENDROOT
BRANCH   1  24
HETATM   24  C5  UNL     1      -1.389  49.961 -16.596  1.00  0.00     0.093 C 
BRANCH  24  25
HETATM   25  C4  UNL     1      -0.768  49.804 -15.189  1.00  0.00     0.019 C 
BRANCH  25  26
HETATM   26  C3  UNL     1      -1.172  50.933 -14.227  1.00  0.00     0.034 C 
BRANCH  26  27
HETATM   27  C2  UNL     1      -0.988  50.532 -12.775  1.00  0.00    -0.086 C 
HETATM   28  C1  UNL     1       0.129  49.887 -12.390  1.00  0.00     0.014 C 
BRANCH  27  29
HETATM   29  C37 UNL     1      -2.132  50.881 -11.828  1.00  0.00     0.005 C 
HETATM   30  C38 UNL     1      -3.500  50.341 -12.262  1.00  0.00     0.014 C 
HETATM   31  C39 UNL     1      -2.213  52.394 -11.614  1.00  0.00     0.014 C 
ENDBRANCH  27  29
ENDBRANCH  26  27
ENDBRANCH  25  26
ENDBRANCH  24  25
BRANCH  24  32
HETATM   32  C6  UNL     1      -2.886  50.222 -16.425  1.00  0.00     0.266 C 
HETATM   33  O1  UNL     1      -3.364  51.328 -16.219  1.00  0.00    -0.265 OA
BRANCH  32  34
HETATM   34  O2  UNL     1      -3.601  49.069 -16.528  1.00  0.00    -0.287 OA
BRANCH  34  35
HETATM   35  C7  UNL     1      -3.694  48.530 -17.853  1.00  0.00     0.301 C 
HETATM   36  O3  UNL     1      -3.044  47.239 -17.882  1.00  0.00    -0.348 OA
HETATM   37  C8  UNL     1      -3.944  46.176 -17.576  1.00  0.00     0.179 C 
HETATM   38  C10 UNL     1      -4.939  45.978 -18.743  1.00  0.00     0.180 C 
HETATM   39  C11 UNL     1      -5.293  47.332 -19.396  1.00  0.00     0.183 C 
HETATM   40  C12 UNL     1      -5.164  48.470 -18.370  1.00  0.00     0.205 C 
BRANCH  37  41
HETATM   41  C9  UNL     1      -3.156  44.886 -17.328  1.00  0.00     0.198 C 
BRANCH  41  42
HETATM   42  O4  UNL     1      -3.482  43.913 -18.320  1.00  0.00    -0.398 OA
HETATM   43  H12 UNL     1      -2.923  43.136 -18.145  1.00  0.00     0.209 HD
ENDBRANCH  41  42
ENDBRANCH  37  41
BRANCH  38  44
HETATM   44  O5  UNL     1      -6.126  45.331 -18.273  1.00  0.00    -0.390 OA
HETATM   45  H14 UNL     1      -5.820  44.550 -17.762  1.00  0.00     0.210 HD
ENDBRANCH  38  44
BRANCH  39  46
HETATM   46  O6  UNL     1      -4.452  47.592 -20.530  1.00  0.00    -0.390 OA
HETATM   47  H16 UNL     1      -3.534  47.378 -20.284  1.00  0.00     0.210 HD
ENDBRANCH  39  46
BRANCH  40  48
HETATM   48  O7  UNL     1      -6.082  48.269 -17.278  1.00  0.00    -0.388 OA
HETATM   49  H18 UNL     1      -6.912  47.909 -17.643  1.00  0.00     0.210 HD
ENDBRANCH  40  48
ENDBRANCH  34  35
ENDBRANCH  32  34
ENDBRANCH  24  32
ENDBRANCH   1  24
BRANCH   2  50
HETATM   50  O8  UNL     1       1.109  52.197 -16.437  1.00  0.00    -0.316 OA
BRANCH  50  51
HETATM   51  C15 UNL     1       2.256  51.930 -15.753  1.00  0.00     0.255 C 
HETATM   52  C16 UNL     1       3.367  52.800 -16.254  1.00  0.00     0.126 C 
HETATM   53  O9  UNL     1       2.379  51.101 -14.863  1.00  0.00    -0.266 OA
ENDBRANCH  50  51
ENDBRANCH   2  50
TORSDOF 15
ENDMDL
