MODEL 1
REMARK minimizedAffinity -9.19430351
REMARK  5 active torsions:
REMARK  status: ('A' for Active; 'I' for Inactive)
REMARK    1  A    between atoms: O1_2  and  C2_3 
REMARK    2  A    between atoms: C12_15  and  C13_16 
REMARK    3  A    between atoms: C13_16  and  C15_18 
REMARK    4  A    between atoms: C15_18  and  C16_19 
REMARK    5  A    between atoms: C16_19  and  C17_21 
ROOT
HETATM    1  C2  UNL     1      -7.326  49.307 -21.515  1.00  0.00     0.270 C 
HETATM    2  O2  UNL     1      -7.783  47.954 -21.430  1.00  0.00    -0.347 OA
HETATM    3  C3  UNL     1      -7.192  47.187 -22.500  1.00  0.00     0.089 C 
HETATM    4  C4  UNL     1      -6.029  46.404 -21.869  1.00  0.00     0.118 C 
HETATM    5  C5  UNL     1      -4.934  47.274 -21.284  1.00  0.00     0.135 C 
HETATM    6  O3  UNL     1      -4.093  46.759 -20.541  1.00  0.00    -0.297 OA
HETATM    7  C6  UNL     1      -4.824  48.750 -21.677  1.00  0.00     0.078 C 
HETATM    8  C7  UNL     1      -6.091  49.291 -22.459  1.00  0.00     0.027 C 
HETATM    9  C8  UNL     1      -5.881  50.727 -23.026  1.00  0.00     0.016 C 
HETATM   10  C9  UNL     1      -4.490  51.057 -23.591  1.00  0.00     0.011 C 
HETATM   11  C10 UNL     1      -3.380  50.637 -22.616  1.00  0.00    -0.032 C 
HETATM   12  C11 UNL     1      -3.543  51.483 -21.315  1.00  0.00     0.016 C 
HETATM   13  C12 UNL     1      -1.920  50.772 -23.137  1.00  0.00    -0.002 C 
HETATM   14  C21 UNL     1      -1.135  49.807 -22.205  1.00  0.00     0.006 C 
HETATM   15  C22 UNL     1      -2.178  48.845 -21.580  1.00  0.00     0.011 C 
HETATM   16  C23 UNL     1      -3.474  49.081 -22.388  1.00  0.00    -0.025 C 
HETATM   17  C24 UNL     1      -3.307  48.223 -23.684  1.00  0.00     0.016 C 
HETATM   18  C25 UNL     1      -6.577  48.227 -23.469  1.00  0.00     0.036 C 
HETATM   19  C26 UNL     1      -7.560  48.687 -24.549  1.00  0.00     0.016 C 
HETATM   20  C27 UNL     1      -8.019  47.515 -25.409  1.00  0.00     0.079 C 
HETATM   21  C28 UNL     1      -8.065  46.208 -24.645  1.00  0.00     0.137 C 
HETATM   22  O5  UNL     1      -7.940  45.142 -25.248  1.00  0.00    -0.297 OA
HETATM   23  C29 UNL     1      -8.309  46.276 -23.135  1.00  0.00     0.045 C 
HETATM   24  C30 UNL     1      -8.328  44.844 -22.555  1.00  0.00     0.026 C 
HETATM   25  C31 UNL     1      -9.740  46.826 -22.922  1.00  0.00     0.026 C 
ENDROOT
BRANCH  13  26
HETATM   26  C13 UNL     1      -1.328  52.197 -23.332  1.00  0.00    -0.007 C 
HETATM   27  C14 UNL     1      -2.057  52.890 -24.500  1.00  0.00     0.011 C 
BRANCH  26  28
HETATM   28  C15 UNL     1       0.189  52.267 -23.600  1.00  0.00     0.087 C 
BRANCH  28  29
HETATM   29  C16 UNL     1       0.527  53.286 -24.678  1.00  0.00     0.149 C 
HETATM   30  O4  UNL     1       1.012  54.382 -24.414  1.00  0.00    -0.293 OA
BRANCH  29  31
HETATM   31  C17 UNL     1       0.286  52.859 -26.089  1.00  0.00     0.052 C 
HETATM   32  C18 UNL     1       1.090  52.047 -26.803  1.00  0.00    -0.084 C 
HETATM   33  C19 UNL     1       0.722  51.657 -28.208  1.00  0.00     0.043 C 
HETATM   34  C20 UNL     1       2.392  51.467 -26.319  1.00  0.00     0.043 C 
ENDBRANCH  29  31
ENDBRANCH  28  29
ENDBRANCH  26  28
ENDBRANCH  13  26
BRANCH   1  35
HETATM   35  O1  UNL     1      -7.001  49.836 -20.241  1.00  0.00    -0.365 OA
HETATM   36  C1  UNL     1      -7.511  49.040 -19.181  1.00  0.00     0.204 C 
ENDBRANCH   1  35
TORSDOF 5
ENDMDL
MODEL 2
REMARK minimizedAffinity -9.00877666
REMARK  5 active torsions:
REMARK  status: ('A' for Active; 'I' for Inactive)
REMARK    1  A    between atoms: O1_2  and  C2_3 
REMARK    2  A    between atoms: C12_15  and  C13_16 
REMARK    3  A    between atoms: C13_16  and  C15_18 
REMARK    4  A    between atoms: C15_18  and  C16_19 
REMARK    5  A    between atoms: C16_19  and  C17_21 
ROOT
HETATM    1  C2  UNL     1      -5.486  49.026 -20.854  1.00  0.00     0.270 C 
HETATM    2  O2  UNL     1      -5.736  48.529 -19.537  1.00  0.00    -0.347 OA
HETATM    3  C3  UNL     1      -4.537  47.905 -19.030  1.00  0.00     0.089 C 
HETATM    4  C4  UNL     1      -3.894  48.929 -18.081  1.00  0.00     0.118 C 
HETATM    5  C5  UNL     1      -3.477  50.225 -18.748  1.00  0.00     0.135 C 
HETATM    6  O3  UNL     1      -3.188  51.196 -18.042  1.00  0.00    -0.297 OA
HETATM    7  C6  UNL     1      -3.334  50.302 -20.271  1.00  0.00     0.078 C 
HETATM    8  C7  UNL     1      -3.941  49.047 -21.025  1.00  0.00     0.027 C 
HETATM    9  C8  UNL     1      -3.610  49.043 -22.548  1.00  0.00     0.016 C 
HETATM   10  C9  UNL     1      -2.208  49.521 -22.958  1.00  0.00     0.011 C 
HETATM   11  C10 UNL     1      -1.855  50.854 -22.280  1.00  0.00    -0.032 C 
HETATM   12  C11 UNL     1      -2.861  51.932 -22.793  1.00  0.00     0.016 C 
HETATM   13  C12 UNL     1      -0.401  51.368 -22.488  1.00  0.00    -0.002 C 
HETATM   14  C21 UNL     1      -0.215  52.355 -21.302  1.00  0.00     0.006 C 
HETATM   15  C22 UNL     1      -1.300  52.000 -20.252  1.00  0.00     0.011 C 
HETATM   16  C23 UNL     1      -1.878  50.644 -20.718  1.00  0.00    -0.025 C 
HETATM   17  C24 UNL     1      -0.870  49.570 -20.192  1.00  0.00     0.016 C 
HETATM   18  C25 UNL     1      -3.598  47.754 -20.252  1.00  0.00     0.036 C 
HETATM   19  C26 UNL     1      -3.792  46.427 -20.991  1.00  0.00     0.016 C 
HETATM   20  C27 UNL     1      -3.504  45.241 -20.076  1.00  0.00     0.079 C 
HETATM   21  C28 UNL     1      -3.837  45.524 -18.626  1.00  0.00     0.137 C 
HETATM   22  O5  UNL     1      -3.250  44.913 -17.732  1.00  0.00    -0.297 OA
HETATM   23  C29 UNL     1      -4.937  46.549 -18.336  1.00  0.00     0.045 C 
HETATM   24  C30 UNL     1      -5.124  46.680 -16.808  1.00  0.00     0.026 C 
HETATM   25  C31 UNL     1      -6.268  45.961 -18.866  1.00  0.00     0.026 C 
ENDROOT
BRANCH  13  26
HETATM   26  C13 UNL     1       0.013  51.877 -23.897  1.00  0.00    -0.007 C 
HETATM   27  C14 UNL     1       0.544  53.320 -23.776  1.00  0.00     0.011 C 
BRANCH  26  28
HETATM   28  C15 UNL     1      -1.090  51.858 -24.974  1.00  0.00     0.087 C 
BRANCH  28  29
HETATM   29  C16 UNL     1      -0.765  50.888 -26.100  1.00  0.00     0.149 C 
HETATM   30  O4  UNL     1      -1.620  50.173 -26.614  1.00  0.00    -0.293 OA
BRANCH  29  31
HETATM   31  C17 UNL     1       0.646  50.890 -26.587  1.00  0.00     0.052 C 
HETATM   32  C18 UNL     1       1.151  51.740 -27.502  1.00  0.00    -0.084 C 
HETATM   33  C19 UNL     1       2.604  51.669 -27.888  1.00  0.00     0.043 C 
HETATM   34  C20 UNL     1       0.370  52.804 -28.225  1.00  0.00     0.043 C 
ENDBRANCH  29  31
ENDBRANCH  28  29
ENDBRANCH  26  28
ENDBRANCH  13  26
BRANCH   1  35
HETATM   35  O1  UNL     1      -6.049  50.312 -21.049  1.00  0.00    -0.365 OA
HETATM   36  C1  UNL     1      -6.903  50.360 -22.183  1.00  0.00     0.204 C 
ENDBRANCH   1  35
TORSDOF 5
ENDMDL
MODEL 3
REMARK minimizedAffinity -8.96245193
REMARK  5 active torsions:
REMARK  status: ('A' for Active; 'I' for Inactive)
REMARK    1  A    between atoms: O1_2  and  C2_3 
REMARK    2  A    between atoms: C12_15  and  C13_16 
REMARK    3  A    between atoms: C13_16  and  C15_18 
REMARK    4  A    between atoms: C15_18  and  C16_19 
REMARK    5  A    between atoms: C16_19  and  C17_21 
ROOT
HETATM    1  C2  UNL     1      -5.713  48.970 -21.082  1.00  0.00     0.270 C 
HETATM    2  O2  UNL     1      -5.814  48.638 -19.695  1.00  0.00    -0.347 OA
HETATM    3  C3  UNL     1      -4.561  48.077 -19.250  1.00  0.00     0.089 C 
HETATM    4  C4  UNL     1      -3.830  49.207 -18.507  1.00  0.00     0.118 C 
HETATM    5  C5  UNL     1      -3.502  50.411 -19.367  1.00  0.00     0.135 C 
HETATM    6  O3  UNL     1      -3.149  51.461 -18.820  1.00  0.00    -0.297 OA
HETATM    7  C6  UNL     1      -3.524  50.302 -20.895  1.00  0.00     0.078 C 
HETATM    8  C7  UNL     1      -4.196  48.966 -21.421  1.00  0.00     0.027 C 
HETATM    9  C8  UNL     1      -4.031  48.776 -22.959  1.00  0.00     0.016 C 
HETATM   10  C9  UNL     1      -2.687  49.198 -23.574  1.00  0.00     0.011 C 
HETATM   11  C10 UNL     1      -2.277  50.602 -23.104  1.00  0.00    -0.032 C 
HETATM   12  C11 UNL     1      -3.344  51.612 -23.632  1.00  0.00     0.016 C 
HETATM   13  C12 UNL     1      -0.860  51.083 -23.530  1.00  0.00    -0.002 C 
HETATM   14  C21 UNL     1      -0.558  52.207 -22.500  1.00  0.00     0.006 C 
HETATM   15  C22 UNL     1      -1.519  51.985 -21.303  1.00  0.00     0.011 C 
HETATM   16  C23 UNL     1      -2.129  50.584 -21.536  1.00  0.00    -0.025 C 
HETATM   17  C24 UNL     1      -1.059  49.579 -20.996  1.00  0.00     0.016 C 
HETATM   18  C25 UNL     1      -3.758  47.776 -20.539  1.00  0.00     0.036 C 
HETATM   19  C26 UNL     1      -4.015  46.369 -21.086  1.00  0.00     0.016 C 
HETATM   20  C27 UNL     1      -3.617  45.303 -20.071  1.00  0.00     0.079 C 
HETATM   21  C28 UNL     1      -3.796  45.762 -18.638  1.00  0.00     0.137 C 
HETATM   22  O5  UNL     1      -3.109  45.263 -17.746  1.00  0.00    -0.297 OA
HETATM   23  C29 UNL     1      -4.868  46.817 -18.356  1.00  0.00     0.045 C 
HETATM   24  C30 UNL     1      -4.891  47.133 -16.845  1.00  0.00     0.026 C 
HETATM   25  C31 UNL     1      -6.243  46.172 -18.663  1.00  0.00     0.026 C 
ENDROOT
BRANCH  13  26
HETATM   26  C13 UNL     1      -0.606  51.416 -25.027  1.00  0.00    -0.007 C 
HETATM   27  C14 UNL     1       0.440  52.546 -25.122  1.00  0.00     0.011 C 
BRANCH  26  28
HETATM   28  C15 UNL     1      -1.843  51.835 -25.846  1.00  0.00     0.087 C 
BRANCH  28  29
HETATM   29  C16 UNL     1      -1.804  51.274 -27.260  1.00  0.00     0.149 C 
HETATM   30  O4  UNL     1      -0.813  51.378 -27.977  1.00  0.00    -0.293 OA
BRANCH  29  31
HETATM   31  C17 UNL     1      -3.021  50.539 -27.713  1.00  0.00     0.052 C 
HETATM   32  C18 UNL     1      -3.322  49.264 -27.396  1.00  0.00    -0.084 C 
HETATM   33  C19 UNL     1      -4.601  48.640 -27.884  1.00  0.00     0.043 C 
HETATM   34  C20 UNL     1      -2.461  48.347 -26.570  1.00  0.00     0.043 C 
ENDBRANCH  29  31
ENDBRANCH  28  29
ENDBRANCH  26  28
ENDBRANCH  13  26
BRANCH   1  35
HETATM   35  O1  UNL     1      -6.308  50.224 -21.370  1.00  0.00    -0.365 OA
HETATM   36  C1  UNL     1      -7.228  50.149 -22.449  1.00  0.00     0.204 C 
ENDBRANCH   1  35
TORSDOF 5
ENDMDL
MODEL 4
REMARK minimizedAffinity -8.59817696
REMARK  5 active torsions:
REMARK  status: ('A' for Active; 'I' for Inactive)
REMARK    1  A    between atoms: O1_2  and  C2_3 
REMARK    2  A    between atoms: C12_15  and  C13_16 
REMARK    3  A    between atoms: C13_16  and  C15_18 
REMARK    4  A    between atoms: C15_18  and  C16_19 
REMARK    5  A    between atoms: C16_19  and  C17_21 
ROOT
HETATM    1  C2  UNL     1      -4.264  49.562 -19.096  1.00  0.00     0.270 C 
HETATM    2  O2  UNL     1      -4.643  48.255 -18.657  1.00  0.00    -0.347 OA
HETATM    3  C3  UNL     1      -5.507  47.656 -19.647  1.00  0.00     0.089 C 
HETATM    4  C4  UNL     1      -4.624  46.686 -20.449  1.00  0.00     0.118 C 
HETATM    5  C5  UNL     1      -3.482  47.349 -21.193  1.00  0.00     0.135 C 
HETATM    6  O3  UNL     1      -2.578  46.645 -21.654  1.00  0.00    -0.297 OA
HETATM    7  C6  UNL     1      -3.494  48.860 -21.444  1.00  0.00     0.078 C 
HETATM    8  C7  UNL     1      -4.602  49.628 -20.611  1.00  0.00     0.027 C 
HETATM    9  C8  UNL     1      -4.736  51.124 -21.025  1.00  0.00     0.016 C 
HETATM   10  C9  UNL     1      -4.605  51.449 -22.522  1.00  0.00     0.011 C 
HETATM   11  C10 UNL     1      -3.366  50.775 -23.130  1.00  0.00    -0.032 C 
HETATM   12  C11 UNL     1      -2.105  51.377 -22.433  1.00  0.00     0.016 C 
HETATM   13  C12 UNL     1      -3.205  50.895 -24.673  1.00  0.00    -0.002 C 
HETATM   14  C21 UNL     1      -2.246  49.720 -25.008  1.00  0.00     0.006 C 
HETATM   15  C22 UNL     1      -2.306  48.739 -23.809  1.00  0.00     0.011 C 
HETATM   16  C23 UNL     1      -3.509  49.215 -22.964  1.00  0.00    -0.025 C 
HETATM   17  C24 UNL     1      -4.766  48.601 -23.663  1.00  0.00     0.016 C 
HETATM   18  C25 UNL     1      -5.911  48.808 -20.599  1.00  0.00     0.036 C 
HETATM   19  C26 UNL     1      -7.185  49.531 -20.150  1.00  0.00     0.016 C 
HETATM   20  C27 UNL     1      -8.371  48.574 -20.101  1.00  0.00     0.079 C 
HETATM   21  C28 UNL     1      -7.968  47.156 -19.753  1.00  0.00     0.137 C 
HETATM   22  O5  UNL     1      -8.665  46.213 -20.128  1.00  0.00    -0.297 OA
HETATM   23  C29 UNL     1      -6.709  46.962 -18.904  1.00  0.00     0.045 C 
HETATM   24  C30 UNL     1      -6.485  45.454 -18.659  1.00  0.00     0.026 C 
HETATM   25  C31 UNL     1      -6.996  47.569 -17.508  1.00  0.00     0.026 C 
ENDROOT
BRANCH  13  26
HETATM   26  C13 UNL     1      -2.854  52.283 -25.279  1.00  0.00    -0.007 C 
HETATM   27  C14 UNL     1      -2.640  52.130 -26.799  1.00  0.00     0.011 C 
BRANCH  26  28
HETATM   28  C15 UNL     1      -1.617  52.986 -24.686  1.00  0.00     0.087 C 
BRANCH  28  29
HETATM   29  C16 UNL     1      -0.555  53.251 -25.742  1.00  0.00     0.149 C 
HETATM   30  O4  UNL     1      -0.696  54.104 -26.613  1.00  0.00    -0.293 OA
BRANCH  29  31
HETATM   31  C17 UNL     1       0.701  52.451 -25.630  1.00  0.00     0.052 C 
HETATM   32  C18 UNL     1       1.298  51.796 -26.644  1.00  0.00    -0.084 C 
HETATM   33  C19 UNL     1       2.585  51.051 -26.415  1.00  0.00     0.043 C 
HETATM   34  C20 UNL     1       0.779  51.718 -28.055  1.00  0.00     0.043 C 
ENDBRANCH  29  31
ENDBRANCH  28  29
ENDBRANCH  26  28
ENDBRANCH  13  26
BRANCH   1  35
HETATM   35  O1  UNL     1      -2.891  49.821 -18.857  1.00  0.00    -0.365 OA
HETATM   36  C1  UNL     1      -2.348  48.972 -17.855  1.00  0.00     0.204 C 
ENDBRANCH   1  35
TORSDOF 5
ENDMDL
MODEL 5
REMARK minimizedAffinity -8.47226334
REMARK  5 active torsions:
REMARK  status: ('A' for Active; 'I' for Inactive)
REMARK    1  A    between atoms: O1_2  and  C2_3 
REMARK    2  A    between atoms: C12_15  and  C13_16 
REMARK    3  A    between atoms: C13_16  and  C15_18 
REMARK    4  A    between atoms: C15_18  and  C16_19 
REMARK    5  A    between atoms: C16_19  and  C17_21 
ROOT
HETATM    1  C2  UNL     1      -6.752  48.991 -20.528  1.00  0.00     0.270 C 
HETATM    2  O2  UNL     1      -7.276  47.693 -20.820  1.00  0.00    -0.347 OA
HETATM    3  C3  UNL     1      -6.723  47.229 -22.070  1.00  0.00     0.089 C 
HETATM    4  C4  UNL     1      -5.600  46.246 -21.698  1.00  0.00     0.118 C 
HETATM    5  C5  UNL     1      -4.465  46.863 -20.906  1.00  0.00     0.135 C 
HETATM    6  O3  UNL     1      -3.650  46.121 -20.348  1.00  0.00    -0.297 OA
HETATM    7  C6  UNL     1      -4.281  48.383 -20.871  1.00  0.00     0.078 C 
HETATM    8  C7  UNL     1      -5.519  49.182 -21.454  1.00  0.00     0.027 C 
HETATM    9  C8  UNL     1      -5.237  50.707 -21.598  1.00  0.00     0.016 C 
HETATM   10  C9  UNL     1      -3.831  51.116 -22.066  1.00  0.00     0.011 C 
HETATM   11  C10 UNL     1      -2.744  50.387 -21.262  1.00  0.00    -0.032 C 
HETATM   12  C11 UNL     1      -2.866  50.840 -19.774  1.00  0.00     0.016 C 
HETATM   13  C12 UNL     1      -1.279  50.592 -21.743  1.00  0.00    -0.002 C 
HETATM   14  C21 UNL     1      -0.543  49.369 -21.129  1.00  0.00     0.006 C 
HETATM   15  C22 UNL     1      -1.633  48.320 -20.785  1.00  0.00     0.011 C 
HETATM   16  C23 UNL     1      -2.915  48.836 -21.478  1.00  0.00    -0.025 C 
HETATM   17  C24 UNL     1      -2.790  48.369 -22.965  1.00  0.00     0.016 C 
HETATM   18  C25 UNL     1      -6.056  48.469 -22.715  1.00  0.00     0.036 C 
HETATM   19  C26 UNL     1      -7.013  49.260 -23.611  1.00  0.00     0.016 C 
HETATM   20  C27 UNL     1      -7.529  48.400 -24.759  1.00  0.00     0.079 C 
HETATM   21  C28 UNL     1      -7.641  46.935 -24.391  1.00  0.00     0.137 C 
HETATM   22  O5  UNL     1      -7.567  46.076 -25.270  1.00  0.00    -0.297 OA
HETATM   23  C29 UNL     1      -7.882  46.587 -22.920  1.00  0.00     0.045 C 
HETATM   24  C30 UNL     1      -7.972  45.053 -22.765  1.00  0.00     0.026 C 
HETATM   25  C31 UNL     1      -9.285  47.123 -22.542  1.00  0.00     0.026 C 
ENDROOT
BRANCH  13  26
HETATM   26  C13 UNL     1      -0.617  51.985 -21.538  1.00  0.00    -0.007 C 
HETATM   27  C14 UNL     1      -0.156  52.530 -22.905  1.00  0.00     0.011 C 
BRANCH  26  28
HETATM   28  C15 UNL     1       0.584  52.026 -20.573  1.00  0.00     0.087 C 
BRANCH  28  29
HETATM   29  C16 UNL     1       0.223  52.678 -19.246  1.00  0.00     0.149 C 
HETATM   30  O4  UNL     1      -0.055  53.870 -19.158  1.00  0.00    -0.293 OA
BRANCH  29  31
HETATM   31  C17 UNL     1       0.171  51.774 -18.059  1.00  0.00     0.052 C 
HETATM   32  C18 UNL     1       1.066  51.760 -17.053  1.00  0.00    -0.084 C 
HETATM   33  C19 UNL     1       0.887  50.825 -15.888  1.00  0.00     0.043 C 
HETATM   34  C20 UNL     1       2.299  52.619 -16.974  1.00  0.00     0.043 C 
ENDBRANCH  29  31
ENDBRANCH  28  29
ENDBRANCH  26  28
ENDBRANCH  13  26
BRANCH   1  35
HETATM   35  O1  UNL     1      -6.403  49.125 -19.161  1.00  0.00    -0.365 OA
HETATM   36  C1  UNL     1      -7.286  48.412 -18.307  1.00  0.00     0.204 C 
ENDBRANCH   1  35
TORSDOF 5
ENDMDL
MODEL 6
REMARK minimizedAffinity -8.46716976
REMARK  5 active torsions:
REMARK  status: ('A' for Active; 'I' for Inactive)
REMARK    1  A    between atoms: O1_2  and  C2_3 
REMARK    2  A    between atoms: C12_15  and  C13_16 
REMARK    3  A    between atoms: C13_16  and  C15_18 
REMARK    4  A    between atoms: C15_18  and  C16_19 
REMARK    5  A    between atoms: C16_19  and  C17_21 
ROOT
HETATM    1  C2  UNL     1      -5.112  46.333 -21.094  1.00  0.00     0.270 C 
HETATM    2  O2  UNL     1      -6.042  46.290 -20.009  1.00  0.00    -0.347 OA
HETATM    3  C3  UNL     1      -5.533  47.086 -18.917  1.00  0.00     0.089 C 
HETATM    4  C4  UNL     1      -6.290  48.423 -18.977  1.00  0.00     0.118 C 
HETATM    5  C5  UNL     1      -6.065  49.212 -20.251  1.00  0.00     0.135 C 
HETATM    6  O3  UNL     1      -6.811  50.162 -20.507  1.00  0.00    -0.297 OA
HETATM    7  C6  UNL     1      -4.877  48.890 -21.163  1.00  0.00     0.078 C 
HETATM    8  C7  UNL     1      -4.158  47.525 -20.803  1.00  0.00     0.027 C 
HETATM    9  C8  UNL     1      -2.838  47.311 -21.603  1.00  0.00     0.016 C 
HETATM   10  C9  UNL     1      -1.958  48.549 -21.840  1.00  0.00     0.011 C 
HETATM   11  C10 UNL     1      -2.788  49.727 -22.372  1.00  0.00    -0.032 C 
HETATM   12  C11 UNL     1      -3.362  49.316 -23.764  1.00  0.00     0.016 C 
HETATM   13  C12 UNL     1      -2.045  51.088 -22.504  1.00  0.00    -0.002 C 
HETATM   14  C21 UNL     1      -3.211  52.114 -22.518  1.00  0.00     0.006 C 
HETATM   15  C22 UNL     1      -4.446  51.393 -21.918  1.00  0.00     0.011 C 
HETATM   16  C23 UNL     1      -3.887  50.090 -21.304  1.00  0.00    -0.025 C 
HETATM   17  C24 UNL     1      -3.323  50.507 -19.906  1.00  0.00     0.016 C 
HETATM   18  C25 UNL     1      -4.053  47.377 -19.268  1.00  0.00     0.036 C 
HETATM   19  C26 UNL     1      -3.094  46.309 -18.734  1.00  0.00     0.016 C 
HETATM   20  C27 UNL     1      -3.167  46.217 -17.214  1.00  0.00     0.079 C 
HETATM   21  C28 UNL     1      -4.541  46.549 -16.670  1.00  0.00     0.137 C 
HETATM   22  O5  UNL     1      -4.657  46.984 -15.524  1.00  0.00    -0.297 OA
HETATM   23  C29 UNL     1      -5.747  46.287 -17.577  1.00  0.00     0.045 C 
HETATM   24  C30 UNL     1      -7.041  46.683 -16.833  1.00  0.00     0.026 C 
HETATM   25  C31 UNL     1      -5.843  44.756 -17.787  1.00  0.00     0.026 C 
ENDROOT
BRANCH  13  26
HETATM   26  C13 UNL     1      -0.962  51.240 -23.610  1.00  0.00    -0.007 C 
HETATM   27  C14 UNL     1       0.137  52.201 -23.112  1.00  0.00     0.011 C 
BRANCH  26  28
HETATM   28  C15 UNL     1      -1.461  51.745 -24.979  1.00  0.00     0.087 C 
BRANCH  28  29
HETATM   29  C16 UNL     1      -0.996  50.849 -26.117  1.00  0.00     0.149 C 
HETATM   30  O4  UNL     1      -1.779  50.174 -26.779  1.00  0.00    -0.293 OA
BRANCH  29  31
HETATM   31  C17 UNL     1       0.465  50.876 -26.425  1.00  0.00     0.052 C 
HETATM   32  C18 UNL     1       1.055  51.685 -27.326  1.00  0.00    -0.084 C 
HETATM   33  C19 UNL     1       2.546  51.647 -27.522  1.00  0.00     0.043 C 
HETATM   34  C20 UNL     1       0.338  52.668 -28.212  1.00  0.00     0.043 C 
ENDBRANCH  29  31
ENDBRANCH  28  29
ENDBRANCH  26  28
ENDBRANCH  13  26
BRANCH   1  35
HETATM   35  O1  UNL     1      -5.765  46.482 -22.343  1.00  0.00    -0.365 OA
HETATM   36  C1  UNL     1      -7.145  46.156 -22.272  1.00  0.00     0.204 C 
ENDBRANCH   1  35
TORSDOF 5
ENDMDL
MODEL 7
REMARK minimizedAffinity -8.34651566
REMARK  5 active torsions:
REMARK  status: ('A' for Active; 'I' for Inactive)
REMARK    1  A    between atoms: O1_2  and  C2_3 
REMARK    2  A    between atoms: C12_15  and  C13_16 
REMARK    3  A    between atoms: C13_16  and  C15_18 
REMARK    4  A    between atoms: C15_18  and  C16_19 
REMARK    5  A    between atoms: C16_19  and  C17_21 
ROOT
HETATM    1  C2  UNL     1      -3.088  52.280 -22.883  1.00  0.00     0.270 C 
HETATM    2  O2  UNL     1      -3.216  51.653 -24.162  1.00  0.00    -0.347 OA
HETATM    3  C3  UNL     1      -2.048  50.843 -24.411  1.00  0.00     0.089 C 
HETATM    4  C4  UNL     1      -2.465  49.393 -24.112  1.00  0.00     0.118 C 
HETATM    5  C5  UNL     1      -2.886  49.146 -22.677  1.00  0.00     0.135 C 
HETATM    6  O3  UNL     1      -3.472  48.096 -22.396  1.00  0.00    -0.297 OA
HETATM    7  C6  UNL     1      -2.513  50.145 -21.577  1.00  0.00     0.078 C 
HETATM    8  C7  UNL     1      -1.957  51.519 -22.136  1.00  0.00     0.027 C 
HETATM    9  C8  UNL     1      -1.396  52.442 -21.013  1.00  0.00     0.016 C 
HETATM   10  C9  UNL     1      -0.621  51.762 -19.873  1.00  0.00     0.011 C 
HETATM   11  C10 UNL     1      -1.395  50.557 -19.317  1.00  0.00    -0.032 C 
HETATM   12  C11 UNL     1      -2.724  51.089 -18.695  1.00  0.00     0.016 C 
HETATM   13  C12 UNL     1      -0.648  49.686 -18.266  1.00  0.00    -0.002 C 
HETATM   14  C21 UNL     1      -1.419  48.339 -18.329  1.00  0.00     0.006 C 
HETATM   15  C22 UNL     1      -2.184  48.326 -19.679  1.00  0.00     0.011 C 
HETATM   16  C23 UNL     1      -1.600  49.513 -20.479  1.00  0.00    -0.025 C 
HETATM   17  C24 UNL     1      -0.275  48.969 -21.106  1.00  0.00     0.016 C 
HETATM   18  C25 UNL     1      -1.016  51.257 -23.333  1.00  0.00     0.036 C 
HETATM   19  C26 UNL     1      -0.119  52.414 -23.782  1.00  0.00     0.016 C 
HETATM   20  C27 UNL     1       0.682  52.038 -25.024  1.00  0.00     0.079 C 
HETATM   21  C28 UNL     1      -0.051  51.062 -25.922  1.00  0.00     0.137 C 
HETATM   22  O5  UNL     1       0.587  50.312 -26.661  1.00  0.00    -0.297 OA
HETATM   23  C29 UNL     1      -1.582  51.083 -25.895  1.00  0.00     0.045 C 
HETATM   24  C30 UNL     1      -2.125  50.026 -26.882  1.00  0.00     0.026 C 
HETATM   25  C31 UNL     1      -2.036  52.450 -26.464  1.00  0.00     0.026 C 
ENDROOT
BRANCH  13  26
HETATM   26  C13 UNL     1      -0.392  50.283 -16.853  1.00  0.00    -0.007 C 
HETATM   27  C14 UNL     1       0.747  51.318 -16.942  1.00  0.00     0.011 C 
BRANCH  26  28
HETATM   28  C15 UNL     1      -0.037  49.269 -15.746  1.00  0.00     0.087 C 
BRANCH  28  29
HETATM   29  C16 UNL     1      -1.179  49.089 -14.756  1.00  0.00     0.149 C 
HETATM   30  O4  UNL     1      -1.900  48.095 -14.764  1.00  0.00    -0.293 OA
BRANCH  29  31
HETATM   31  C17 UNL     1      -1.343  50.164 -13.734  1.00  0.00     0.052 C 
HETATM   32  C18 UNL     1      -2.269  51.142 -13.776  1.00  0.00    -0.084 C 
HETATM   33  C19 UNL     1      -2.360  52.151 -12.664  1.00  0.00     0.043 C 
HETATM   34  C20 UNL     1      -3.268  51.347 -14.883  1.00  0.00     0.043 C 
ENDBRANCH  29  31
ENDBRANCH  28  29
ENDBRANCH  26  28
ENDBRANCH  13  26
BRANCH   1  35
HETATM   35  O1  UNL     1      -4.305  52.250 -22.156  1.00  0.00    -0.365 OA
HETATM   36  C1  UNL     1      -5.401  51.831 -22.957  1.00  0.00     0.204 C 
ENDBRANCH   1  35
TORSDOF 5
ENDMDL
MODEL 8
REMARK minimizedAffinity -8.30620861
REMARK  5 active torsions:
REMARK  status: ('A' for Active; 'I' for Inactive)
REMARK    1  A    between atoms: O1_2  and  C2_3 
REMARK    2  A    between atoms: C12_15  and  C13_16 
REMARK    3  A    between atoms: C13_16  and  C15_18 
REMARK    4  A    between atoms: C15_18  and  C16_19 
REMARK    5  A    between atoms: C16_19  and  C17_21 
ROOT
HETATM    1  C2  UNL     1      -1.527  49.957 -23.100  1.00  0.00     0.270 C 
HETATM    2  O2  UNL     1      -1.418  50.979 -24.095  1.00  0.00    -0.347 OA
HETATM    3  C3  UNL     1      -2.540  50.882 -24.998  1.00  0.00     0.089 C 
HETATM    4  C4  UNL     1      -3.529  51.977 -24.565  1.00  0.00     0.118 C 
HETATM    5  C5  UNL     1      -4.069  51.811 -23.158  1.00  0.00     0.135 C 
HETATM    6  O3  UNL     1      -4.663  52.756 -22.629  1.00  0.00    -0.297 OA
HETATM    7  C6  UNL     1      -3.956  50.465 -22.438  1.00  0.00     0.078 C 
HETATM    8  C7  UNL     1      -2.991  49.440 -23.166  1.00  0.00     0.027 C 
HETATM    9  C8  UNL     1      -3.043  48.015 -22.538  1.00  0.00     0.016 C 
HETATM   10  C9  UNL     1      -4.418  47.506 -22.075  1.00  0.00     0.011 C 
HETATM   11  C10 UNL     1      -5.140  48.557 -21.218  1.00  0.00    -0.032 C 
HETATM   12  C11 UNL     1      -4.292  48.784 -19.927  1.00  0.00     0.016 C 
HETATM   13  C12 UNL     1      -6.607  48.228 -20.818  1.00  0.00    -0.002 C 
HETATM   14  C21 UNL     1      -7.189  49.628 -20.474  1.00  0.00     0.006 C 
HETATM   15  C22 UNL     1      -6.256  50.673 -21.139  1.00  0.00     0.011 C 
HETATM   16  C23 UNL     1      -5.350  49.855 -22.087  1.00  0.00    -0.025 C 
HETATM   17  C24 UNL     1      -6.202  49.640 -23.380  1.00  0.00     0.016 C 
HETATM   18  C25 UNL     1      -3.202  49.516 -24.695  1.00  0.00     0.036 C 
HETATM   19  C26 UNL     1      -2.625  48.375 -25.537  1.00  0.00     0.016 C 
HETATM   20  C27 UNL     1      -2.829  48.633 -27.026  1.00  0.00     0.079 C 
HETATM   21  C28 UNL     1      -2.817  50.107 -27.373  1.00  0.00     0.137 C 
HETATM   22  O5  UNL     1      -3.419  50.506 -28.370  1.00  0.00    -0.297 OA
HETATM   23  C29 UNL     1      -2.009  51.044 -26.471  1.00  0.00     0.045 C 
HETATM   24  C30 UNL     1      -2.122  52.490 -27.003  1.00  0.00     0.026 C 
HETATM   25  C31 UNL     1      -0.516  50.662 -26.627  1.00  0.00     0.026 C 
ENDROOT
BRANCH  13  26
HETATM   26  C13 UNL     1      -6.861  47.090 -19.789  1.00  0.00    -0.007 C 
HETATM   27  C14 UNL     1      -5.983  45.876 -20.153  1.00  0.00     0.011 C 
BRANCH  26  28
HETATM   28  C15 UNL     1      -8.319  46.609 -19.659  1.00  0.00     0.087 C 
BRANCH  28  29
HETATM   29  C16 UNL     1      -9.162  47.569 -18.833  1.00  0.00     0.149 C 
HETATM   30  O4  UNL     1      -8.812  47.955 -17.721  1.00  0.00    -0.293 OA
BRANCH  29  31
HETATM   31  C17 UNL     1     -10.417  48.064 -19.471  1.00  0.00     0.052 C 
HETATM   32  C18 UNL     1     -11.661  47.871 -18.992  1.00  0.00    -0.084 C 
HETATM   33  C19 UNL     1     -12.851  48.451 -19.706  1.00  0.00     0.043 C 
HETATM   34  C20 UNL     1     -12.004  47.084 -17.755  1.00  0.00     0.043 C 
ENDBRANCH  29  31
ENDBRANCH  28  29
ENDBRANCH  26  28
ENDBRANCH  13  26
BRANCH   1  35
HETATM   35  O1  UNL     1      -1.203  50.441 -21.808  1.00  0.00    -0.365 OA
HETATM   36  C1  UNL     1      -0.450  51.644 -21.856  1.00  0.00     0.204 C 
ENDBRANCH   1  35
TORSDOF 5
ENDMDL
MODEL 9
REMARK minimizedAffinity -8.21830559
REMARK  5 active torsions:
REMARK  status: ('A' for Active; 'I' for Inactive)
REMARK    1  A    between atoms: O1_2  and  C2_3 
REMARK    2  A    between atoms: C12_15  and  C13_16 
REMARK    3  A    between atoms: C13_16  and  C15_18 
REMARK    4  A    between atoms: C15_18  and  C16_19 
REMARK    5  A    between atoms: C16_19  and  C17_21 
ROOT
HETATM    1  C2  UNL     1      -5.671  46.300 -19.882  1.00  0.00     0.270 C 
HETATM    2  O2  UNL     1      -6.992  45.753 -19.865  1.00  0.00    -0.347 OA
HETATM    3  C3  UNL     1      -7.931  46.775 -20.262  1.00  0.00     0.089 C 
HETATM    4  C4  UNL     1      -8.272  46.490 -21.734  1.00  0.00     0.118 C 
HETATM    5  C5  UNL     1      -7.089  46.577 -22.678  1.00  0.00     0.135 C 
HETATM    6  O3  UNL     1      -7.200  46.126 -23.822  1.00  0.00    -0.297 OA
HETATM    7  C6  UNL     1      -5.805  47.292 -22.247  1.00  0.00     0.078 C 
HETATM    8  C7  UNL     1      -5.755  47.620 -20.697  1.00  0.00     0.027 C 
HETATM    9  C8  UNL     1      -4.544  48.520 -20.312  1.00  0.00     0.016 C 
HETATM   10  C9  UNL     1      -4.163  49.637 -21.297  1.00  0.00     0.011 C 
HETATM   11  C10 UNL     1      -4.068  49.102 -22.733  1.00  0.00    -0.032 C 
HETATM   12  C11 UNL     1      -2.910  48.055 -22.778  1.00  0.00     0.016 C 
HETATM   13  C12 UNL     1      -3.844  50.163 -23.849  1.00  0.00    -0.002 C 
HETATM   14  C21 UNL     1      -4.330  49.423 -25.126  1.00  0.00     0.006 C 
HETATM   15  C22 UNL     1      -5.225  48.250 -24.648  1.00  0.00     0.011 C 
HETATM   16  C23 UNL     1      -5.474  48.524 -23.148  1.00  0.00    -0.025 C 
HETATM   17  C24 UNL     1      -6.640  49.564 -23.112  1.00  0.00     0.016 C 
HETATM   18  C25 UNL     1      -7.142  48.106 -20.220  1.00  0.00     0.036 C 
HETATM   19  C26 UNL     1      -7.208  48.794 -18.853  1.00  0.00     0.016 C 
HETATM   20  C27 UNL     1      -8.646  49.133 -18.478  1.00  0.00     0.079 C 
HETATM   21  C28 UNL     1      -9.649  48.147 -19.042  1.00  0.00     0.137 C 
HETATM   22  O5  UNL     1     -10.808  48.505 -19.251  1.00  0.00    -0.297 OA
HETATM   23  C29 UNL     1      -9.172  46.714 -19.294  1.00  0.00     0.045 C 
HETATM   24  C30 UNL     1     -10.342  45.878 -19.856  1.00  0.00     0.026 C 
HETATM   25  C31 UNL     1      -8.841  46.088 -17.916  1.00  0.00     0.026 C 
ENDROOT
BRANCH  13  26
HETATM   26  C13 UNL     1      -2.464  50.875 -23.933  1.00  0.00    -0.007 C 
HETATM   27  C14 UNL     1      -2.523  52.185 -23.121  1.00  0.00     0.011 C 
BRANCH  26  28
HETATM   28  C15 UNL     1      -1.961  51.209 -25.351  1.00  0.00     0.087 C 
BRANCH  28  29
HETATM   29  C16 UNL     1      -0.972  52.365 -25.344  1.00  0.00     0.149 C 
HETATM   30  O4  UNL     1      -1.334  53.534 -25.245  1.00  0.00    -0.293 OA
BRANCH  29  31
HETATM   31  C17 UNL     1       0.473  51.999 -25.410  1.00  0.00     0.052 C 
HETATM   32  C18 UNL     1       1.141  51.668 -26.532  1.00  0.00    -0.084 C 
HETATM   33  C19 UNL     1       2.611  51.352 -26.479  1.00  0.00     0.043 C 
HETATM   34  C20 UNL     1       0.535  51.567 -27.907  1.00  0.00     0.043 C 
ENDBRANCH  29  31
ENDBRANCH  28  29
ENDBRANCH  26  28
ENDBRANCH  13  26
BRANCH   1  35
HETATM   35  O1  UNL     1      -4.734  45.398 -20.446  1.00  0.00    -0.365 OA
HETATM   36  C1  UNL     1      -3.879  44.826 -19.467  1.00  0.00     0.204 C 
ENDBRANCH   1  35
TORSDOF 5
ENDMDL
