MODEL 1
REMARK minimizedAffinity -8.48610115
REMARK  14 active torsions:
REMARK  status: ('A' for Active; 'I' for Inactive)
REMARK    1  A    between atoms: C2_2  and  C3_3 
REMARK    2  A    between atoms: C2_2  and  C26_30 
REMARK    3  A    between atoms: C4_4  and  C5_5 
REMARK    4  A    between atoms: C6_6  and  C7_7 
REMARK    5  A    between atoms: C6_6  and  C9_9 
REMARK    6  A    between atoms: C13_13  and  C14_14 
REMARK    7  A    between atoms: C14_14  and  C15_15 
REMARK    8  A    between atoms: C15_15  and  C16_16 
REMARK    9  A    between atoms: C16_16  and  O1_17 
REMARK   10  A    between atoms: C18_19  and  C20_21 
REMARK   11  A    between atoms: C23_25  and  O3_27 
REMARK   12  A    between atoms: C25_28  and  O4_29 
REMARK   13  A    between atoms: C26_30  and  C27_31 
REMARK   14  A    between atoms: C27_31  and  C28_32 
ROOT
HETATM    1  C9  UNL     1      -1.540   6.080  12.709  1.00  0.00     0.044 C 
HETATM    2  C10 UNL     1      -1.982   7.499  12.354  1.00  0.00     0.013 C 
HETATM    3  C11 UNL     1      -0.806   8.377  12.781  1.00  0.00     0.017 C 
HETATM    4  C12 UNL     1       0.491   7.485  12.751  1.00  0.00     0.024 C 
HETATM    5  C13 UNL     1       1.536   8.219  11.783  1.00  0.00     0.029 C 
HETATM    6  C17 UNL     1       2.978   7.866  12.153  1.00  0.00    -0.066 C 
HETATM    7  C18 UNL     1       3.847   7.044  11.523  1.00  0.00    -0.021 C 
HETATM    8  C19 UNL     1       5.283   6.826  11.910  1.00  0.00     0.052 C 
HETATM    9  C21 UNL     1       3.337   8.523  13.483  1.00  0.00     0.038 C 
HETATM   10  C22 UNL     1       2.144   8.545  14.460  1.00  0.00     0.042 C 
HETATM   11  C23 UNL     1       1.162   7.371  14.225  1.00  0.00     0.065 C 
HETATM   12  C24 UNL     1       0.221   7.293  15.440  1.00  0.00     0.047 C 
HETATM   13  C25 UNL     1      -0.059   6.093  12.270  1.00  0.00     0.138 C 
ENDROOT
BRANCH   5  14
HETATM   14  C14 UNL     1       1.193   8.373  10.274  1.00  0.00     0.012 C 
BRANCH  14  15
HETATM   15  C15 UNL     1       1.827   7.315   9.350  1.00  0.00     0.027 C 
BRANCH  15  16
HETATM   16  C16 UNL     1       1.824   7.657   7.864  1.00  0.00     0.164 C 
BRANCH  16  17
HETATM   17  O1  UNL     1       2.770   8.673   7.569  1.00  0.00    -0.401 OA
HETATM   18  H23 UNL     1       2.574   9.432   8.142  1.00  0.00     0.209 HD
ENDBRANCH  16  17
ENDBRANCH  15  16
ENDBRANCH  14  15
ENDBRANCH   5  14
BRANCH  11  19
HETATM   19  O3  UNL     1       1.979   6.186  14.321  1.00  0.00    -0.389 OA
HETATM   20  H35 UNL     1       1.403   5.415  14.452  1.00  0.00     0.210 HD
ENDBRANCH  11  19
BRANCH  13  21
HETATM   21  O4  UNL     1      -0.020   5.939  10.857  1.00  0.00    -0.394 OA
HETATM   22  H37 UNL     1       0.861   5.553  10.649  1.00  0.00     0.210 HD
ENDBRANCH  13  21
BRANCH   1  23
HETATM   23  C6  UNL     1      -2.385   4.921  12.171  1.00  0.00    -0.074 C 
HETATM   24  C5  UNL     1      -3.605   4.618  12.673  1.00  0.00     0.003 C 
BRANCH  24  25
HETATM   25  C4  UNL     1      -4.285   5.260  13.785  1.00  0.00     0.001 C 
HETATM   26  C3  UNL     1      -5.046   6.352  13.621  1.00  0.00     0.006 C 
BRANCH  26  27
HETATM   27  C2  UNL     1      -5.781   7.087  14.643  1.00  0.00    -0.067 C 
HETATM   28  C1  UNL     1      -5.875   8.426  14.535  1.00  0.00     0.019 C 
BRANCH  27  29
HETATM   29  C26 UNL     1      -6.417   6.390  15.833  1.00  0.00     0.041 C 
BRANCH  29  30
HETATM   30  C27 UNL     1      -7.850   5.899  15.568  1.00  0.00     0.032 C 
BRANCH  30  31
HETATM   31  C28 UNL     1      -8.330   6.135  14.162  1.00  0.00    -0.024 C 
HETATM   32  C29 UNL     1      -8.308   5.275  13.125  1.00  0.00    -0.091 C 
HETATM   33  C30 UNL     1      -7.822   3.853  13.189  1.00  0.00     0.042 C 
HETATM   34  C31 UNL     1      -8.812   5.691  11.767  1.00  0.00     0.042 C 
ENDBRANCH  30  31
ENDBRANCH  29  30
ENDBRANCH  27  29
ENDBRANCH  26  27
ENDBRANCH  24  25
BRANCH  23  35
HETATM   35  C7  UNL     1      -1.769   4.131  11.018  1.00  0.00     0.030 C 
HETATM   36  C8  UNL     1      -1.371   2.679  11.272  1.00  0.00     0.010 C 
ENDBRANCH  23  35
ENDBRANCH   1  23
BRANCH   7  37
HETATM   37  C20 UNL     1       3.456   6.198  10.363  1.00  0.00     0.265 C 
HETATM   38  O2  UNL     1       4.226   5.410   9.827  1.00  0.00    -0.302 OA
ENDBRANCH   7  37
TORSDOF 14
ENDMDL
MODEL 2
REMARK minimizedAffinity -8.27924919
REMARK  14 active torsions:
REMARK  status: ('A' for Active; 'I' for Inactive)
REMARK    1  A    between atoms: C2_2  and  C3_3 
REMARK    2  A    between atoms: C2_2  and  C26_30 
REMARK    3  A    between atoms: C4_4  and  C5_5 
REMARK    4  A    between atoms: C6_6  and  C7_7 
REMARK    5  A    between atoms: C6_6  and  C9_9 
REMARK    6  A    between atoms: C13_13  and  C14_14 
REMARK    7  A    between atoms: C14_14  and  C15_15 
REMARK    8  A    between atoms: C15_15  and  C16_16 
REMARK    9  A    between atoms: C16_16  and  O1_17 
REMARK   10  A    between atoms: C18_19  and  C20_21 
REMARK   11  A    between atoms: C23_25  and  O3_27 
REMARK   12  A    between atoms: C25_28  and  O4_29 
REMARK   13  A    between atoms: C26_30  and  C27_31 
REMARK   14  A    between atoms: C27_31  and  C28_32 
ROOT
HETATM    1  C9  UNL     1      -1.208   4.804  12.415  1.00  0.00     0.044 C 
HETATM    2  C10 UNL     1      -1.978   5.997  11.847  1.00  0.00     0.013 C 
HETATM    3  C11 UNL     1      -1.124   7.208  12.220  1.00  0.00     0.017 C 
HETATM    4  C12 UNL     1       0.361   6.712  12.388  1.00  0.00     0.024 C 
HETATM    5  C13 UNL     1       1.258   7.592  11.394  1.00  0.00     0.029 C 
HETATM    6  C17 UNL     1       2.700   7.696  11.893  1.00  0.00    -0.066 C 
HETATM    7  C18 UNL     1       3.813   7.081  11.432  1.00  0.00    -0.021 C 
HETATM    8  C19 UNL     1       5.212   7.314  11.929  1.00  0.00     0.052 C 
HETATM    9  C21 UNL     1       2.745   8.573  13.141  1.00  0.00     0.038 C 
HETATM   10  C22 UNL     1       1.503   8.375  14.034  1.00  0.00     0.042 C 
HETATM   11  C23 UNL     1       0.897   6.957  13.901  1.00  0.00     0.065 C 
HETATM   12  C24 UNL     1      -0.099   6.759  15.058  1.00  0.00     0.047 C 
HETATM   13  C25 UNL     1       0.250   5.177  12.067  1.00  0.00     0.138 C 
ENDROOT
BRANCH   5  14
HETATM   14  C14 UNL     1       1.029   7.473   9.860  1.00  0.00     0.012 C 
BRANCH  14  15
HETATM   15  C15 UNL     1       2.293   7.162   9.034  1.00  0.00     0.027 C 
BRANCH  15  16
HETATM   16  C16 UNL     1       2.362   7.832   7.666  1.00  0.00     0.164 C 
BRANCH  16  17
HETATM   17  O1  UNL     1       2.878   9.150   7.764  1.00  0.00    -0.401 OA
HETATM   18  H23 UNL     1       2.331   9.633   8.406  1.00  0.00     0.209 HD
ENDBRANCH  16  17
ENDBRANCH  15  16
ENDBRANCH  14  15
ENDBRANCH   5  14
BRANCH  11  19
HETATM   19  O3  UNL     1       1.987   6.062  14.204  1.00  0.00    -0.389 OA
HETATM   20  H35 UNL     1       1.629   5.182  14.403  1.00  0.00     0.210 HD
ENDBRANCH  11  19
BRANCH  13  21
HETATM   21  O4  UNL     1       0.461   4.882  10.692  1.00  0.00    -0.394 OA
HETATM   22  H37 UNL     1       1.428   4.733  10.591  1.00  0.00     0.210 HD
ENDBRANCH  13  21
BRANCH   1  23
HETATM   23  C6  UNL     1      -1.659   3.404  11.989  1.00  0.00    -0.074 C 
HETATM   24  C5  UNL     1      -2.954   3.015  12.030  1.00  0.00     0.003 C 
BRANCH  24  25
HETATM   25  C4  UNL     1      -4.092   3.783  12.506  1.00  0.00     0.001 C 
HETATM   26  C3  UNL     1      -5.343   3.302  12.468  1.00  0.00     0.006 C 
BRANCH  26  27
HETATM   27  C2  UNL     1      -6.565   3.962  12.913  1.00  0.00    -0.067 C 
HETATM   28  C1  UNL     1      -7.408   3.287  13.718  1.00  0.00     0.019 C 
BRANCH  27  29
HETATM   29  C26 UNL     1      -6.922   5.372  12.477  1.00  0.00     0.041 C 
BRANCH  29  30
HETATM   30  C27 UNL     1      -7.133   6.346  13.647  1.00  0.00     0.032 C 
BRANCH  30  31
HETATM   31  C28 UNL     1      -5.922   6.530  14.521  1.00  0.00    -0.024 C 
HETATM   32  C29 UNL     1      -4.852   7.318  14.295  1.00  0.00    -0.091 C 
HETATM   33  C30 UNL     1      -4.680   8.226  13.108  1.00  0.00     0.042 C 
HETATM   34  C31 UNL     1      -3.706   7.361  15.273  1.00  0.00     0.042 C 
ENDBRANCH  30  31
ENDBRANCH  29  30
ENDBRANCH  27  29
ENDBRANCH  26  27
ENDBRANCH  24  25
BRANCH  23  35
HETATM   35  C7  UNL     1      -0.552   2.473  11.500  1.00  0.00     0.030 C 
HETATM   36  C8  UNL     1      -0.958   1.178  10.798  1.00  0.00     0.010 C 
ENDBRANCH  23  35
ENDBRANCH   1  23
BRANCH   7  37
HETATM   37  C20 UNL     1       3.772   6.034  10.375  1.00  0.00     0.265 C 
HETATM   38  O2  UNL     1       4.719   5.293  10.138  1.00  0.00    -0.302 OA
ENDBRANCH   7  37
TORSDOF 14
ENDMDL
MODEL 3
REMARK minimizedAffinity -8.27357101
REMARK  14 active torsions:
REMARK  status: ('A' for Active; 'I' for Inactive)
REMARK    1  A    between atoms: C2_2  and  C3_3 
REMARK    2  A    between atoms: C2_2  and  C26_30 
REMARK    3  A    between atoms: C4_4  and  C5_5 
REMARK    4  A    between atoms: C6_6  and  C7_7 
REMARK    5  A    between atoms: C6_6  and  C9_9 
REMARK    6  A    between atoms: C13_13  and  C14_14 
REMARK    7  A    between atoms: C14_14  and  C15_15 
REMARK    8  A    between atoms: C15_15  and  C16_16 
REMARK    9  A    between atoms: C16_16  and  O1_17 
REMARK   10  A    between atoms: C18_19  and  C20_21 
REMARK   11  A    between atoms: C23_25  and  O3_27 
REMARK   12  A    between atoms: C25_28  and  O4_29 
REMARK   13  A    between atoms: C26_30  and  C27_31 
REMARK   14  A    between atoms: C27_31  and  C28_32 
ROOT
HETATM    1  C9  UNL     1      -1.274   4.812  12.371  1.00  0.00     0.044 C 
HETATM    2  C10 UNL     1      -2.015   6.015  11.789  1.00  0.00     0.013 C 
HETATM    3  C11 UNL     1      -1.170   7.217  12.208  1.00  0.00     0.017 C 
HETATM    4  C12 UNL     1       0.305   6.711  12.425  1.00  0.00     0.024 C 
HETATM    5  C13 UNL     1       1.243   7.597  11.475  1.00  0.00     0.029 C 
HETATM    6  C17 UNL     1       2.667   7.687  12.028  1.00  0.00    -0.066 C 
HETATM    7  C18 UNL     1       3.792   7.071  11.602  1.00  0.00    -0.021 C 
HETATM    8  C19 UNL     1       5.173   7.291  12.153  1.00  0.00     0.052 C 
HETATM    9  C21 UNL     1       2.669   8.549  13.288  1.00  0.00     0.038 C 
HETATM   10  C22 UNL     1       1.394   8.347  14.132  1.00  0.00     0.042 C 
HETATM   11  C23 UNL     1       0.786   6.934  13.960  1.00  0.00     0.065 C 
HETATM   12  C24 UNL     1      -0.253   6.728  15.076  1.00  0.00     0.047 C 
HETATM   13  C25 UNL     1       0.199   5.180  12.081  1.00  0.00     0.138 C 
ENDROOT
BRANCH   5  14
HETATM   14  C14 UNL     1       1.071   7.497   9.933  1.00  0.00     0.012 C 
BRANCH  14  15
HETATM   15  C15 UNL     1       2.385   7.389   9.135  1.00  0.00     0.027 C 
BRANCH  15  16
HETATM   16  C16 UNL     1       2.301   7.814   7.673  1.00  0.00     0.164 C 
BRANCH  16  17
HETATM   17  O1  UNL     1       2.701   9.165   7.506  1.00  0.00    -0.401 OA
HETATM   18  H23 UNL     1       2.156   9.708   8.100  1.00  0.00     0.209 HD
ENDBRANCH  16  17
ENDBRANCH  15  16
ENDBRANCH  14  15
ENDBRANCH   5  14
BRANCH  11  19
HETATM   19  O3  UNL     1       1.860   6.030  14.292  1.00  0.00    -0.389 OA
HETATM   20  H35 UNL     1       1.490   5.150  14.467  1.00  0.00     0.210 HD
ENDBRANCH  11  19
BRANCH  13  21
HETATM   21  O4  UNL     1       0.458   4.900  10.712  1.00  0.00    -0.394 OA
HETATM   22  H37 UNL     1       1.429   4.747  10.645  1.00  0.00     0.210 HD
ENDBRANCH  13  21
BRANCH   1  23
HETATM   23  C6  UNL     1      -1.716   3.419  11.911  1.00  0.00    -0.074 C 
HETATM   24  C5  UNL     1      -2.986   2.977  12.053  1.00  0.00     0.003 C 
BRANCH  24  25
HETATM   25  C4  UNL     1      -4.098   3.674  12.678  1.00  0.00     0.001 C 
HETATM   26  C3  UNL     1      -5.352   3.200  12.635  1.00  0.00     0.006 C 
BRANCH  26  27
HETATM   27  C2  UNL     1      -6.549   3.793  13.218  1.00  0.00    -0.067 C 
HETATM   28  C1  UNL     1      -7.742   3.222  12.965  1.00  0.00     0.019 C 
BRANCH  27  29
HETATM   29  C26 UNL     1      -6.489   5.044  14.076  1.00  0.00     0.041 C 
BRANCH  29  30
HETATM   30  C27 UNL     1      -7.149   6.272  13.424  1.00  0.00     0.032 C 
BRANCH  30  31
HETATM   31  C28 UNL     1      -8.627   6.385  13.683  1.00  0.00    -0.024 C 
HETATM   32  C29 UNL     1      -9.272   7.340  14.382  1.00  0.00    -0.091 C 
HETATM   33  C30 UNL     1      -8.621   8.536  15.021  1.00  0.00     0.042 C 
HETATM   34  C31 UNL     1     -10.767   7.283  14.564  1.00  0.00     0.042 C 
ENDBRANCH  30  31
ENDBRANCH  29  30
ENDBRANCH  27  29
ENDBRANCH  26  27
ENDBRANCH  24  25
BRANCH  23  35
HETATM   35  C7  UNL     1      -0.630   2.559  11.268  1.00  0.00     0.030 C 
HETATM   36  C8  UNL     1      -1.032   1.199  10.700  1.00  0.00     0.010 C 
ENDBRANCH  23  35
ENDBRANCH   1  23
BRANCH   7  37
HETATM   37  C20 UNL     1       3.786   6.037  10.532  1.00  0.00     0.265 C 
HETATM   38  O2  UNL     1       4.780   5.390  10.228  1.00  0.00    -0.302 OA
ENDBRANCH   7  37
TORSDOF 14
ENDMDL
MODEL 4
REMARK minimizedAffinity -8.16185093
REMARK  14 active torsions:
REMARK  status: ('A' for Active; 'I' for Inactive)
REMARK    1  A    between atoms: C2_2  and  C3_3 
REMARK    2  A    between atoms: C2_2  and  C26_30 
REMARK    3  A    between atoms: C4_4  and  C5_5 
REMARK    4  A    between atoms: C6_6  and  C7_7 
REMARK    5  A    between atoms: C6_6  and  C9_9 
REMARK    6  A    between atoms: C13_13  and  C14_14 
REMARK    7  A    between atoms: C14_14  and  C15_15 
REMARK    8  A    between atoms: C15_15  and  C16_16 
REMARK    9  A    between atoms: C16_16  and  O1_17 
REMARK   10  A    between atoms: C18_19  and  C20_21 
REMARK   11  A    between atoms: C23_25  and  O3_27 
REMARK   12  A    between atoms: C25_28  and  O4_29 
REMARK   13  A    between atoms: C26_30  and  C27_31 
REMARK   14  A    between atoms: C27_31  and  C28_32 
ROOT
HETATM    1  C9  UNL     1      -0.632   5.932  12.585  1.00  0.00     0.044 C 
HETATM    2  C10 UNL     1      -1.174   7.165  11.861  1.00  0.00     0.013 C 
HETATM    3  C11 UNL     1      -0.167   8.267  12.188  1.00  0.00     0.017 C 
HETATM    4  C12 UNL     1       1.212   7.575  12.505  1.00  0.00     0.024 C 
HETATM    5  C13 UNL     1       2.290   8.211  11.505  1.00  0.00     0.029 C 
HETATM    6  C17 UNL     1       3.700   8.148  12.096  1.00  0.00    -0.066 C 
HETATM    7  C18 UNL     1       4.729   7.333  11.773  1.00  0.00    -0.021 C 
HETATM    8  C19 UNL     1       6.116   7.403  12.347  1.00  0.00     0.052 C 
HETATM    9  C21 UNL     1       3.806   9.127  13.263  1.00  0.00     0.038 C 
HETATM   10  C22 UNL     1       2.499   9.202  14.077  1.00  0.00     0.042 C 
HETATM   11  C23 UNL     1       1.690   7.884  14.026  1.00  0.00     0.065 C 
HETATM   12  C24 UNL     1       0.610   7.949  15.120  1.00  0.00     0.047 C 
HETATM   13  C25 UNL     1       0.885   6.049  12.312  1.00  0.00     0.138 C 
ENDROOT
BRANCH   5  14
HETATM   14  C14 UNL     1       2.136   7.978   9.975  1.00  0.00     0.012 C 
BRANCH  14  15
HETATM   15  C15 UNL     1       2.332   6.520   9.514  1.00  0.00     0.027 C 
BRANCH  15  16
HETATM   16  C16 UNL     1       2.487   6.324   8.010  1.00  0.00     0.164 C 
BRANCH  16  17
HETATM   17  O1  UNL     1       3.126   5.092   7.714  1.00  0.00    -0.401 OA
HETATM   18  H23 UNL     1       3.968   5.075   8.197  1.00  0.00     0.209 HD
ENDBRANCH  16  17
ENDBRANCH  15  16
ENDBRANCH  14  15
ENDBRANCH   5  14
BRANCH  11  19
HETATM   19  O3  UNL     1       2.610   6.871  14.484  1.00  0.00    -0.389 OA
HETATM   20  H35 UNL     1       2.109   6.078  14.732  1.00  0.00     0.210 HD
ENDBRANCH  11  19
BRANCH  13  21
HETATM   21  O4  UNL     1       1.127   5.593  10.988  1.00  0.00    -0.394 OA
HETATM   22  H37 UNL     1       2.064   5.294  10.970  1.00  0.00     0.210 HD
ENDBRANCH  13  21
BRANCH   1  23
HETATM   23  C6  UNL     1      -1.268   4.579  12.252  1.00  0.00    -0.074 C 
HETATM   24  C5  UNL     1      -2.606   4.384  12.267  1.00  0.00     0.003 C 
BRANCH  24  25
HETATM   25  C4  UNL     1      -3.634   5.344  12.630  1.00  0.00     0.001 C 
HETATM   26  C3  UNL     1      -3.926   5.626  13.909  1.00  0.00     0.006 C 
BRANCH  26  27
HETATM   27  C2  UNL     1      -4.924   6.565  14.408  1.00  0.00    -0.067 C 
HETATM   28  C1  UNL     1      -5.057   7.755  13.791  1.00  0.00     0.019 C 
BRANCH  27  29
HETATM   29  C26 UNL     1      -5.793   6.249  15.612  1.00  0.00     0.041 C 
BRANCH  29  30
HETATM   30  C27 UNL     1      -7.217   5.800  15.246  1.00  0.00     0.032 C 
BRANCH  30  31
HETATM   31  C28 UNL     1      -7.288   4.434  14.617  1.00  0.00    -0.024 C 
HETATM   32  C29 UNL     1      -7.624   4.124  13.350  1.00  0.00    -0.091 C 
HETATM   33  C30 UNL     1      -7.963   5.120  12.275  1.00  0.00     0.042 C 
HETATM   34  C31 UNL     1      -7.668   2.688  12.894  1.00  0.00     0.042 C 
ENDBRANCH  30  31
ENDBRANCH  29  30
ENDBRANCH  27  29
ENDBRANCH  26  27
ENDBRANCH  24  25
BRANCH  23  35
HETATM   35  C7  UNL     1      -0.293   3.462  11.887  1.00  0.00     0.030 C 
HETATM   36  C8  UNL     1      -0.854   2.205  11.225  1.00  0.00     0.010 C 
ENDBRANCH  23  35
ENDBRANCH   1  23
BRANCH   7  37
HETATM   37  C20 UNL     1       4.589   6.205  10.812  1.00  0.00     0.265 C 
HETATM   38  O2  UNL     1       5.551   5.600  10.354  1.00  0.00    -0.302 OA
ENDBRANCH   7  37
TORSDOF 14
ENDMDL
MODEL 5
REMARK minimizedAffinity -7.89083767
REMARK  14 active torsions:
REMARK  status: ('A' for Active; 'I' for Inactive)
REMARK    1  A    between atoms: C2_2  and  C3_3 
REMARK    2  A    between atoms: C2_2  and  C26_30 
REMARK    3  A    between atoms: C4_4  and  C5_5 
REMARK    4  A    between atoms: C6_6  and  C7_7 
REMARK    5  A    between atoms: C6_6  and  C9_9 
REMARK    6  A    between atoms: C13_13  and  C14_14 
REMARK    7  A    between atoms: C14_14  and  C15_15 
REMARK    8  A    between atoms: C15_15  and  C16_16 
REMARK    9  A    between atoms: C16_16  and  O1_17 
REMARK   10  A    between atoms: C18_19  and  C20_21 
REMARK   11  A    between atoms: C23_25  and  O3_27 
REMARK   12  A    between atoms: C25_28  and  O4_29 
REMARK   13  A    between atoms: C26_30  and  C27_31 
REMARK   14  A    between atoms: C27_31  and  C28_32 
ROOT
HETATM    1  C9  UNL     1      -3.329   6.091  13.432  1.00  0.00     0.044 C 
HETATM    2  C10 UNL     1      -3.868   7.429  12.928  1.00  0.00     0.013 C 
HETATM    3  C11 UNL     1      -2.992   8.473  13.620  1.00  0.00     0.017 C 
HETATM    4  C12 UNL     1      -1.616   7.789  13.963  1.00  0.00     0.024 C 
HETATM    5  C13 UNL     1      -0.473   8.682  13.281  1.00  0.00     0.029 C 
HETATM    6  C17 UNL     1       0.855   8.550  14.029  1.00  0.00    -0.066 C 
HETATM    7  C18 UNL     1       1.973   7.875  13.678  1.00  0.00    -0.021 C 
HETATM    8  C19 UNL     1       3.271   7.876  14.436  1.00  0.00     0.052 C 
HETATM    9  C21 UNL     1       0.746   9.244  15.385  1.00  0.00     0.038 C 
HETATM   10  C22 UNL     1      -0.653   9.075  16.011  1.00  0.00     0.042 C 
HETATM   11  C23 UNL     1      -1.351   7.768  15.565  1.00  0.00     0.065 C 
HETATM   12  C24 UNL     1      -2.558   7.536  16.490  1.00  0.00     0.047 C 
HETATM   13  C25 UNL     1      -1.803   6.333  13.399  1.00  0.00     0.138 C 
ENDROOT
BRANCH   5  14
HETATM   14  C14 UNL     1      -0.422   8.794  11.731  1.00  0.00     0.012 C 
BRANCH  14  15
HETATM   15  C15 UNL     1       0.094   7.537  11.002  1.00  0.00     0.027 C 
BRANCH  15  16
HETATM   16  C16 UNL     1       0.407   7.721   9.522  1.00  0.00     0.164 C 
BRANCH  16  17
HETATM   17  O1  UNL     1       1.771   8.057   9.322  1.00  0.00    -0.401 OA
HETATM   18  H23 UNL     1       1.961   8.844   9.859  1.00  0.00     0.209 HD
ENDBRANCH  16  17
ENDBRANCH  15  16
ENDBRANCH  14  15
ENDBRANCH   5  14
BRANCH  11  19
HETATM   19  O3  UNL     1      -0.421   6.720  15.911  1.00  0.00    -0.389 OA
HETATM   20  H35 UNL     1      -0.889   5.869  15.910  1.00  0.00     0.210 HD
ENDBRANCH  11  19
BRANCH  13  21
HETATM   21  O4  UNL     1      -1.369   6.199  12.052  1.00  0.00    -0.394 OA
HETATM   22  H37 UNL     1      -0.417   5.954  12.097  1.00  0.00     0.210 HD
ENDBRANCH  13  21
BRANCH   1  23
HETATM   23  C6  UNL     1      -3.818   4.821  12.729  1.00  0.00    -0.074 C 
HETATM   24  C5  UNL     1      -5.091   4.376  12.838  1.00  0.00     0.003 C 
BRANCH  24  25
HETATM   25  C4  UNL     1      -6.161   4.950  13.636  1.00  0.00     0.001 C 
HETATM   26  C3  UNL     1      -7.205   5.581  13.080  1.00  0.00     0.006 C 
BRANCH  26  27
HETATM   27  C2  UNL     1      -8.340   6.194  13.759  1.00  0.00    -0.067 C 
HETATM   28  C1  UNL     1      -8.195   6.576  15.043  1.00  0.00     0.019 C 
BRANCH  27  29
HETATM   29  C26 UNL     1      -9.680   6.388  13.072  1.00  0.00     0.041 C 
BRANCH  29  30
HETATM   30  C27 UNL     1     -10.760   6.994  13.983  1.00  0.00     0.032 C 
BRANCH  30  31
HETATM   31  C28 UNL     1     -12.034   7.358  13.269  1.00  0.00    -0.024 C 
HETATM   32  C29 UNL     1     -13.260   6.828  13.445  1.00  0.00    -0.091 C 
HETATM   33  C30 UNL     1     -13.608   5.767  14.452  1.00  0.00     0.042 C 
HETATM   34  C31 UNL     1     -14.429   7.298  12.618  1.00  0.00     0.042 C 
ENDBRANCH  30  31
ENDBRANCH  29  30
ENDBRANCH  27  29
ENDBRANCH  26  27
ENDBRANCH  24  25
BRANCH  23  35
HETATM   35  C7  UNL     1      -2.779   4.091  11.882  1.00  0.00     0.030 C 
HETATM   36  C8  UNL     1      -3.187   3.622  10.487  1.00  0.00     0.010 C 
ENDBRANCH  23  35
ENDBRANCH   1  23
BRANCH   7  37
HETATM   37  C20 UNL     1       2.035   6.989  12.485  1.00  0.00     0.265 C 
HETATM   38  O2  UNL     1       3.075   6.766  11.877  1.00  0.00    -0.302 OA
ENDBRANCH   7  37
TORSDOF 14
ENDMDL
MODEL 6
REMARK minimizedAffinity -7.8190608
REMARK  14 active torsions:
REMARK  status: ('A' for Active; 'I' for Inactive)
REMARK    1  A    between atoms: C2_2  and  C3_3 
REMARK    2  A    between atoms: C2_2  and  C26_30 
REMARK    3  A    between atoms: C4_4  and  C5_5 
REMARK    4  A    between atoms: C6_6  and  C7_7 
REMARK    5  A    between atoms: C6_6  and  C9_9 
REMARK    6  A    between atoms: C13_13  and  C14_14 
REMARK    7  A    between atoms: C14_14  and  C15_15 
REMARK    8  A    between atoms: C15_15  and  C16_16 
REMARK    9  A    between atoms: C16_16  and  O1_17 
REMARK   10  A    between atoms: C18_19  and  C20_21 
REMARK   11  A    between atoms: C23_25  and  O3_27 
REMARK   12  A    between atoms: C25_28  and  O4_29 
REMARK   13  A    between atoms: C26_30  and  C27_31 
REMARK   14  A    between atoms: C27_31  and  C28_32 
ROOT
HETATM    1  C9  UNL     1       0.588   8.505  13.674  1.00  0.00     0.044 C 
HETATM    2  C10 UNL     1       1.844   8.059  14.420  1.00  0.00     0.013 C 
HETATM    3  C11 UNL     1       2.342   6.849  13.630  1.00  0.00     0.017 C 
HETATM    4  C12 UNL     1       1.815   6.994  12.153  1.00  0.00     0.024 C 
HETATM    5  C13 UNL     1       3.099   6.941  11.196  1.00  0.00     0.029 C 
HETATM    6  C17 UNL     1       2.732   6.424   9.803  1.00  0.00    -0.066 C 
HETATM    7  C18 UNL     1       2.607   7.105   8.642  1.00  0.00    -0.021 C 
HETATM    8  C19 UNL     1       2.331   6.497   7.295  1.00  0.00     0.052 C 
HETATM    9  C21 UNL     1       2.396   4.937   9.885  1.00  0.00     0.038 C 
HETATM   10  C22 UNL     1       1.661   4.579  11.193  1.00  0.00     0.042 C 
HETATM   11  C23 UNL     1       0.835   5.763  11.752  1.00  0.00     0.065 C 
HETATM   12  C24 UNL     1      -0.106   5.211  12.837  1.00  0.00     0.047 C 
HETATM   13  C25 UNL     1       1.027   8.354  12.200  1.00  0.00     0.138 C 
ENDROOT
BRANCH   5  14
HETATM   14  C14 UNL     1       4.163   8.070  11.291  1.00  0.00     0.012 C 
BRANCH  14  15
HETATM   15  C15 UNL     1       5.594   7.654  10.896  1.00  0.00     0.027 C 
BRANCH  15  16
HETATM   16  C16 UNL     1       6.106   6.373  11.545  1.00  0.00     0.164 C 
BRANCH  16  17
HETATM   17  O1  UNL     1       6.086   5.289  10.630  1.00  0.00    -0.401 OA
HETATM   18  H23 UNL     1       5.181   5.214  10.284  1.00  0.00     0.209 HD
ENDBRANCH  16  17
ENDBRANCH  15  16
ENDBRANCH  14  15
ENDBRANCH   5  14
BRANCH  11  19
HETATM   19  O3  UNL     1      -0.040   6.142  10.671  1.00  0.00    -0.389 OA
HETATM   20  H35 UNL     1      -0.762   6.688  11.024  1.00  0.00     0.210 HD
ENDBRANCH  11  19
BRANCH  13  21
HETATM   21  O4  UNL     1       1.834   9.476  11.867  1.00  0.00    -0.394 OA
HETATM   22  H37 UNL     1       1.764   9.581  10.891  1.00  0.00     0.210 HD
ENDBRANCH  13  21
BRANCH   1  23
HETATM   23  C6  UNL     1      -0.017   9.860  14.054  1.00  0.00    -0.074 C 
HETATM   24  C5  UNL     1      -1.317  10.162  13.834  1.00  0.00     0.003 C 
BRANCH  24  25
HETATM   25  C4  UNL     1      -2.318   9.331  13.186  1.00  0.00     0.001 C 
HETATM   26  C3  UNL     1      -3.013   8.399  13.855  1.00  0.00     0.006 C 
BRANCH  26  27
HETATM   27  C2  UNL     1      -4.040   7.507  13.331  1.00  0.00    -0.067 C 
HETATM   28  C1  UNL     1      -5.318   7.933  13.314  1.00  0.00     0.019 C 
BRANCH  27  29
HETATM   29  C26 UNL     1      -3.714   6.111  12.833  1.00  0.00     0.041 C 
BRANCH  29  30
HETATM   30  C27 UNL     1      -4.692   5.033  13.331  1.00  0.00     0.032 C 
BRANCH  30  31
HETATM   31  C28 UNL     1      -4.812   3.843  12.418  1.00  0.00    -0.024 C 
HETATM   32  C29 UNL     1      -5.895   3.070  12.207  1.00  0.00    -0.091 C 
HETATM   33  C30 UNL     1      -7.247   3.282  12.833  1.00  0.00     0.042 C 
HETATM   34  C31 UNL     1      -5.830   1.892  11.269  1.00  0.00     0.042 C 
ENDBRANCH  30  31
ENDBRANCH  29  30
ENDBRANCH  27  29
ENDBRANCH  26  27
ENDBRANCH  24  25
BRANCH  23  35
HETATM   35  C7  UNL     1       0.940  10.851  14.713  1.00  0.00     0.030 C 
HETATM   36  C8  UNL     1       0.739  11.171  16.193  1.00  0.00     0.010 C 
ENDBRANCH  23  35
ENDBRANCH   1  23
BRANCH   7  37
HETATM   37  C20 UNL     1       2.687   8.589   8.568  1.00  0.00     0.265 C 
HETATM   38  O2  UNL     1       3.257   9.178   7.658  1.00  0.00    -0.302 OA
ENDBRANCH   7  37
TORSDOF 14
ENDMDL
MODEL 7
REMARK minimizedAffinity -7.61746788
REMARK  14 active torsions:
REMARK  status: ('A' for Active; 'I' for Inactive)
REMARK    1  A    between atoms: C2_2  and  C3_3 
REMARK    2  A    between atoms: C2_2  and  C26_30 
REMARK    3  A    between atoms: C4_4  and  C5_5 
REMARK    4  A    between atoms: C6_6  and  C7_7 
REMARK    5  A    between atoms: C6_6  and  C9_9 
REMARK    6  A    between atoms: C13_13  and  C14_14 
REMARK    7  A    between atoms: C14_14  and  C15_15 
REMARK    8  A    between atoms: C15_15  and  C16_16 
REMARK    9  A    between atoms: C16_16  and  O1_17 
REMARK   10  A    between atoms: C18_19  and  C20_21 
REMARK   11  A    between atoms: C23_25  and  O3_27 
REMARK   12  A    between atoms: C25_28  and  O4_29 
REMARK   13  A    between atoms: C26_30  and  C27_31 
REMARK   14  A    between atoms: C27_31  and  C28_32 
ROOT
HETATM    1  C9  UNL     1       0.952   7.657  10.909  1.00  0.00     0.044 C 
HETATM    2  C10 UNL     1       0.849   6.844  12.199  1.00  0.00     0.013 C 
HETATM    3  C11 UNL     1       2.289   6.430  12.499  1.00  0.00     0.017 C 
HETATM    4  C12 UNL     1       3.241   7.487  11.823  1.00  0.00     0.024 C 
HETATM    5  C13 UNL     1       4.181   8.072  12.982  1.00  0.00     0.029 C 
HETATM    6  C17 UNL     1       5.513   8.569  12.417  1.00  0.00    -0.066 C 
HETATM    7  C18 UNL     1       5.940   9.836  12.220  1.00  0.00    -0.021 C 
HETATM    8  C19 UNL     1       7.309  10.235  11.743  1.00  0.00     0.052 C 
HETATM    9  C21 UNL     1       6.352   7.375  11.967  1.00  0.00     0.038 C 
HETATM   10  C22 UNL     1       5.486   6.255  11.356  1.00  0.00     0.042 C 
HETATM   11  C23 UNL     1       4.190   6.795  10.703  1.00  0.00     0.065 C 
HETATM   12  C24 UNL     1       3.588   5.667   9.847  1.00  0.00     0.047 C 
HETATM   13  C25 UNL     1       2.227   8.492  11.164  1.00  0.00     0.138 C 
ENDROOT
BRANCH   5  14
HETATM   14  C14 UNL     1       3.539   8.883  14.142  1.00  0.00     0.012 C 
BRANCH  14  15
HETATM   15  C15 UNL     1       3.394   8.117  15.472  1.00  0.00     0.027 C 
BRANCH  15  16
HETATM   16  C16 UNL     1       2.058   8.292  16.186  1.00  0.00     0.164 C 
BRANCH  16  17
HETATM   17  O1  UNL     1       1.433   7.041  16.423  1.00  0.00    -0.401 OA
HETATM   18  H23 UNL     1       1.360   6.583  15.570  1.00  0.00     0.209 HD
ENDBRANCH  16  17
ENDBRANCH  15  16
ENDBRANCH  14  15
ENDBRANCH   5  14
BRANCH  11  19
HETATM   19  O3  UNL     1       4.644   7.775   9.746  1.00  0.00    -0.389 OA
HETATM   20  H35 UNL     1       3.926   7.960   9.118  1.00  0.00     0.210 HD
ENDBRANCH  11  19
BRANCH  13  21
HETATM   21  O4  UNL     1       1.877   9.571  12.022  1.00  0.00    -0.394 OA
HETATM   22  H37 UNL     1       2.539  10.279  11.851  1.00  0.00     0.210 HD
ENDBRANCH  13  21
BRANCH   1  23
HETATM   23  C6  UNL     1      -0.286   8.445  10.469  1.00  0.00    -0.074 C 
HETATM   24  C5  UNL     1      -1.283   8.766  11.324  1.00  0.00     0.003 C 
BRANCH  24  25
HETATM   25  C4  UNL     1      -1.393   8.404  12.727  1.00  0.00     0.001 C 
HETATM   26  C3  UNL     1      -2.369   7.603  13.182  1.00  0.00     0.006 C 
BRANCH  26  27
HETATM   27  C2  UNL     1      -2.591   7.161  14.554  1.00  0.00    -0.067 C 
HETATM   28  C1  UNL     1      -2.058   7.882  15.559  1.00  0.00     0.019 C 
BRANCH  27  29
HETATM   29  C26 UNL     1      -3.378   5.904  14.875  1.00  0.00     0.041 C 
BRANCH  29  30
HETATM   30  C27 UNL     1      -4.643   5.731  14.019  1.00  0.00     0.032 C 
BRANCH  30  31
HETATM   31  C28 UNL     1      -4.551   4.627  13.000  1.00  0.00    -0.024 C 
HETATM   32  C29 UNL     1      -5.528   3.792  12.596  1.00  0.00    -0.091 C 
HETATM   33  C30 UNL     1      -6.955   3.834  13.069  1.00  0.00     0.042 C 
HETATM   34  C31 UNL     1      -5.250   2.718  11.576  1.00  0.00     0.042 C 
ENDBRANCH  30  31
ENDBRANCH  29  30
ENDBRANCH  27  29
ENDBRANCH  26  27
ENDBRANCH  24  25
BRANCH  23  35
HETATM   35  C7  UNL     1      -0.319   8.859   8.999  1.00  0.00     0.030 C 
HETATM   36  C8  UNL     1       0.591   8.117   8.022  1.00  0.00     0.010 C 
ENDBRANCH  23  35
ENDBRANCH   1  23
BRANCH   7  37
HETATM   37  C20 UNL     1       5.061  11.021  12.417  1.00  0.00     0.265 C 
HETATM   38  O2  UNL     1       5.206  12.066  11.795  1.00  0.00    -0.302 OA
ENDBRANCH   7  37
TORSDOF 14
ENDMDL
MODEL 8
REMARK minimizedAffinity -7.54670906
REMARK  14 active torsions:
REMARK  status: ('A' for Active; 'I' for Inactive)
REMARK    1  A    between atoms: C2_2  and  C3_3 
REMARK    2  A    between atoms: C2_2  and  C26_30 
REMARK    3  A    between atoms: C4_4  and  C5_5 
REMARK    4  A    between atoms: C6_6  and  C7_7 
REMARK    5  A    between atoms: C6_6  and  C9_9 
REMARK    6  A    between atoms: C13_13  and  C14_14 
REMARK    7  A    between atoms: C14_14  and  C15_15 
REMARK    8  A    between atoms: C15_15  and  C16_16 
REMARK    9  A    between atoms: C16_16  and  O1_17 
REMARK   10  A    between atoms: C18_19  and  C20_21 
REMARK   11  A    between atoms: C23_25  and  O3_27 
REMARK   12  A    between atoms: C25_28  and  O4_29 
REMARK   13  A    between atoms: C26_30  and  C27_31 
REMARK   14  A    between atoms: C27_31  and  C28_32 
ROOT
HETATM    1  C9  UNL     1      -1.622  10.659  16.786  1.00  0.00     0.044 C 
HETATM    2  C10 UNL     1      -2.116  11.647  15.729  1.00  0.00     0.013 C 
HETATM    3  C11 UNL     1      -1.726  11.002  14.400  1.00  0.00     0.017 C 
HETATM    4  C12 UNL     1      -1.630   9.448  14.632  1.00  0.00     0.024 C 
HETATM    5  C13 UNL     1      -2.621   8.760  13.577  1.00  0.00     0.029 C 
HETATM    6  C17 UNL     1      -2.170   7.338  13.238  1.00  0.00    -0.066 C 
HETATM    7  C18 UNL     1      -2.693   6.156  13.634  1.00  0.00    -0.021 C 
HETATM    8  C19 UNL     1      -2.238   4.799  13.175  1.00  0.00     0.052 C 
HETATM    9  C21 UNL     1      -0.891   7.395  12.407  1.00  0.00     0.038 C 
HETATM   10  C22 UNL     1       0.037   8.545  12.849  1.00  0.00     0.042 C 
HETATM   11  C23 UNL     1      -0.129   8.900  14.346  1.00  0.00     0.065 C 
HETATM   12  C24 UNL     1       1.053   9.797  14.752  1.00  0.00     0.047 C 
HETATM   13  C25 UNL     1      -2.007   9.303  16.152  1.00  0.00     0.138 C 
ENDROOT
BRANCH   5  14
HETATM   14  C14 UNL     1      -4.149   9.028  13.686  1.00  0.00     0.012 C 
BRANCH  14  15
HETATM   15  C15 UNL     1      -4.715   9.011  15.120  1.00  0.00     0.027 C 
BRANCH  15  16
HETATM   16  C16 UNL     1      -6.157   8.533  15.250  1.00  0.00     0.164 C 
BRANCH  16  17
HETATM   17  O1  UNL     1      -6.316   7.674  16.367  1.00  0.00    -0.401 OA
HETATM   18  H23 UNL     1      -5.675   6.951  16.276  1.00  0.00     0.209 HD
ENDBRANCH  16  17
ENDBRANCH  15  16
ENDBRANCH  14  15
ENDBRANCH   5  14
BRANCH  11  19
HETATM   19  O3  UNL     1       0.100   7.659  15.044  1.00  0.00    -0.389 OA
HETATM   20  H35 UNL     1       0.277   7.850  15.980  1.00  0.00     0.210 HD
ENDBRANCH  11  19
BRANCH  13  21
HETATM   21  O4  UNL     1      -3.399   9.102  16.362  1.00  0.00    -0.394 OA
HETATM   22  H37 UNL     1      -3.540   8.128  16.335  1.00  0.00     0.210 HD
ENDBRANCH  13  21
BRANCH   1  23
HETATM   23  C6  UNL     1      -2.086  10.876  18.229  1.00  0.00    -0.074 C 
HETATM   24  C5  UNL     1      -1.221  10.934  19.268  1.00  0.00     0.003 C 
BRANCH  24  25
HETATM   25  C4  UNL     1       0.221  10.760  19.226  1.00  0.00     0.001 C 
HETATM   26  C3  UNL     1       0.971  10.752  20.338  1.00  0.00     0.006 C 
BRANCH  26  27
HETATM   27  C2  UNL     1       2.416  10.584  20.437  1.00  0.00    -0.067 C 
HETATM   28  C1  UNL     1       3.207  11.308  19.623  1.00  0.00     0.019 C 
BRANCH  27  29
HETATM   29  C26 UNL     1       3.046   9.601  21.407  1.00  0.00     0.041 C 
BRANCH  29  30
HETATM   30  C27 UNL     1       3.353  10.207  22.787  1.00  0.00     0.032 C 
BRANCH  30  31
HETATM   31  C28 UNL     1       4.771  10.687  22.946  1.00  0.00    -0.024 C 
HETATM   32  C29 UNL     1       5.220  11.958  22.925  1.00  0.00    -0.091 C 
HETATM   33  C30 UNL     1       4.355  13.180  22.777  1.00  0.00     0.042 C 
HETATM   34  C31 UNL     1       6.689  12.258  23.076  1.00  0.00     0.042 C 
ENDBRANCH  30  31
ENDBRANCH  29  30
ENDBRANCH  27  29
ENDBRANCH  26  27
ENDBRANCH  24  25
BRANCH  23  35
HETATM   35  C7  UNL     1      -3.592  11.037  18.424  1.00  0.00     0.030 C 
HETATM   36  C8  UNL     1      -4.107  12.356  18.995  1.00  0.00     0.010 C 
ENDBRANCH  23  35
ENDBRANCH   1  23
BRANCH   7  37
HETATM   37  C20 UNL     1      -3.788   6.057  14.637  1.00  0.00     0.265 C 
HETATM   38  O2  UNL     1      -3.585   6.080  15.845  1.00  0.00    -0.302 OA
ENDBRANCH   7  37
TORSDOF 14
ENDMDL
MODEL 9
REMARK minimizedAffinity -7.53615856
REMARK  14 active torsions:
REMARK  status: ('A' for Active; 'I' for Inactive)
REMARK    1  A    between atoms: C2_2  and  C3_3 
REMARK    2  A    between atoms: C2_2  and  C26_30 
REMARK    3  A    between atoms: C4_4  and  C5_5 
REMARK    4  A    between atoms: C6_6  and  C7_7 
REMARK    5  A    between atoms: C6_6  and  C9_9 
REMARK    6  A    between atoms: C13_13  and  C14_14 
REMARK    7  A    between atoms: C14_14  and  C15_15 
REMARK    8  A    between atoms: C15_15  and  C16_16 
REMARK    9  A    between atoms: C16_16  and  O1_17 
REMARK   10  A    between atoms: C18_19  and  C20_21 
REMARK   11  A    between atoms: C23_25  and  O3_27 
REMARK   12  A    between atoms: C25_28  and  O4_29 
REMARK   13  A    between atoms: C26_30  and  C27_31 
REMARK   14  A    between atoms: C27_31  and  C28_32 
ROOT
HETATM    1  C9  UNL     1      -1.180   7.389  13.437  1.00  0.00     0.044 C 
HETATM    2  C10 UNL     1       0.049   7.527  14.334  1.00  0.00     0.013 C 
HETATM    3  C11 UNL     1       1.132   6.724  13.616  1.00  0.00     0.017 C 
HETATM    4  C12 UNL     1       0.766   6.691  12.085  1.00  0.00     0.024 C 
HETATM    5  C13 UNL     1       2.028   7.283  11.294  1.00  0.00     0.029 C 
HETATM    6  C17 UNL     1       2.098   6.732   9.869  1.00  0.00    -0.066 C 
HETATM    7  C18 UNL     1       1.804   7.342   8.698  1.00  0.00    -0.021 C 
HETATM    8  C19 UNL     1       1.991   6.748   7.330  1.00  0.00     0.052 C 
HETATM    9  C21 UNL     1       2.478   5.254   9.913  1.00  0.00     0.038 C 
HETATM   10  C22 UNL     1       1.850   4.530  11.121  1.00  0.00     0.042 C 
HETATM   11  C23 UNL     1       0.515   5.172  11.570  1.00  0.00     0.065 C 
HETATM   12  C24 UNL     1      -0.180   4.193  12.532  1.00  0.00     0.047 C 
HETATM   13  C25 UNL     1      -0.560   7.535  12.029  1.00  0.00     0.138 C 
ENDROOT
BRANCH   5  14
HETATM   14  C14 UNL     1       2.434   8.767  11.516  1.00  0.00     0.012 C 
BRANCH  14  15
HETATM   15  C15 UNL     1       3.814   8.976  12.170  1.00  0.00     0.027 C 
BRANCH  15  16
HETATM   16  C16 UNL     1       4.586   7.701  12.493  1.00  0.00     0.164 C 
BRANCH  16  17
HETATM   17  O1  UNL     1       4.557   7.419  13.883  1.00  0.00    -0.401 OA
HETATM   18  H23 UNL     1       4.891   8.203  14.349  1.00  0.00     0.209 HD
ENDBRANCH  16  17
ENDBRANCH  15  16
ENDBRANCH  14  15
ENDBRANCH   5  14
BRANCH  11  19
HETATM   19  O3  UNL     1      -0.310   5.167  10.387  1.00  0.00    -0.389 OA
HETATM   20  H35 UNL     1      -1.236   5.302  10.647  1.00  0.00     0.210 HD
ENDBRANCH  11  19
BRANCH  13  21
HETATM   21  O4  UNL     1      -0.328   8.918  11.795  1.00  0.00    -0.394 OA
HETATM   22  H37 UNL     1      -0.330   9.033  10.818  1.00  0.00     0.210 HD
ENDBRANCH  13  21
BRANCH   1  23
HETATM   23  C6  UNL     1      -2.379   8.295  13.735  1.00  0.00    -0.074 C 
HETATM   24  C5  UNL     1      -3.611   7.803  14.003  1.00  0.00     0.003 C 
BRANCH  24  25
HETATM   25  C4  UNL     1      -4.022   6.409  14.008  1.00  0.00     0.001 C 
HETATM   26  C3  UNL     1      -4.469   5.794  12.903  1.00  0.00     0.006 C 
BRANCH  26  27
HETATM   27  C2  UNL     1      -4.907   4.409  12.770  1.00  0.00    -0.067 C 
HETATM   28  C1  UNL     1      -4.054   3.510  12.244  1.00  0.00     0.019 C 
BRANCH  27  29
HETATM   29  C26 UNL     1      -6.298   3.964  13.182  1.00  0.00     0.041 C 
BRANCH  29  30
HETATM   30  C27 UNL     1      -7.421   4.574  12.327  1.00  0.00     0.032 C 
BRANCH  30  31
HETATM   31  C28 UNL     1      -8.201   5.658  13.019  1.00  0.00    -0.024 C 
HETATM   32  C29 UNL     1      -8.226   5.947  14.335  1.00  0.00    -0.091 C 
HETATM   33  C30 UNL     1      -7.418   5.243  15.392  1.00  0.00     0.042 C 
HETATM   34  C31 UNL     1      -9.092   7.061  14.864  1.00  0.00     0.042 C 
ENDBRANCH  30  31
ENDBRANCH  29  30
ENDBRANCH  27  29
ENDBRANCH  26  27
ENDBRANCH  24  25
BRANCH  23  35
HETATM   35  C7  UNL     1      -2.095   9.795  13.723  1.00  0.00     0.030 C 
HETATM   36  C8  UNL     1      -2.217  10.561  15.039  1.00  0.00     0.010 C 
ENDBRANCH  23  35
ENDBRANCH   1  23
BRANCH   7  37
HETATM   37  C20 UNL     1       1.199   8.699   8.630  1.00  0.00     0.265 C 
HETATM   38  O2  UNL     1       0.013   8.910   8.855  1.00  0.00    -0.302 OA
ENDBRANCH   7  37
TORSDOF 14
ENDMDL
