MODEL 1
REMARK minimizedAffinity -10.1520624
REMARK  7 active torsions:
REMARK  status: ('A' for Active; 'I' for Inactive)
REMARK    1  A    between atoms: C2_2  and  C4_4 
REMARK    2  A    between atoms: C4_4  and  C6_6 
REMARK    3  A    between atoms: C7_7  and  C8_8 
REMARK    4  A    between atoms: C8_8  and  O1_10 
REMARK    5  A    between atoms: C8_8  and  C10_11 
REMARK    6  A    between atoms: C15_16  and  O2_17 
REMARK    7  A    between atoms: C26_29  and  O4_30 
ROOT
HETATM    1  C10 UNL     1      -0.624  51.757 -25.463  1.00  0.00     0.034 C 
HETATM    2  C11 UNL     1      -0.020  53.187 -25.511  1.00  0.00     0.009 C 
HETATM    3  C12 UNL     1       0.256  53.597 -24.054  1.00  0.00     0.006 C 
HETATM    4  C13 UNL     1      -0.028  52.333 -23.248  1.00  0.00     0.003 C 
HETATM    5  C14 UNL     1      -0.267  52.472 -21.735  1.00  0.00     0.024 C 
HETATM    6  C15 UNL     1       0.892  53.200 -21.026  1.00  0.00     0.123 C 
HETATM    7  C16 UNL     1       0.694  53.238 -19.509  1.00  0.00     0.038 C 
HETATM    8  C17 UNL     1       0.483  51.830 -18.932  1.00  0.00     0.003 C 
HETATM    9  C18 UNL     1       0.420  51.873 -17.402  1.00  0.00     0.083 C 
HETATM   10  C19 UNL     1       0.264  50.476 -16.846  1.00  0.00     0.127 C 
HETATM   11  O3  UNL     1       0.906  50.104 -15.863  1.00  0.00    -0.298 OA
HETATM   12  C20 UNL     1      -0.806  49.606 -17.462  1.00  0.00     0.079 C 
HETATM   13  C21 UNL     1      -0.765  49.654 -18.987  1.00  0.00     0.017 C 
HETATM   14  C22 UNL     1      -0.738  51.095 -19.577  1.00  0.00    -0.035 C 
HETATM   15  C23 UNL     1      -2.080  51.793 -19.244  1.00  0.00     0.016 C 
HETATM   16  C24 UNL     1      -0.500  51.045 -21.135  1.00  0.00     0.003 C 
HETATM   17  C25 UNL     1      -1.580  50.258 -21.919  1.00  0.00     0.038 C 
HETATM   18  C26 UNL     1      -1.349  50.241 -23.442  1.00  0.00     0.127 C 
HETATM   19  C27 UNL     1      -1.206  51.667 -24.011  1.00  0.00    -0.007 C 
HETATM   20  C28 UNL     1      -2.534  52.450 -23.858  1.00  0.00     0.019 C 
ENDROOT
BRANCH   1  21
HETATM   21  C8  UNL     1      -1.448  51.357 -26.726  1.00  0.00     0.076 C 
HETATM   22  C9  UNL     1      -2.258  52.578 -27.212  1.00  0.00     0.051 C 
BRANCH  21  23
HETATM   23  C7  UNL     1      -2.314  50.122 -26.591  1.00  0.00     0.007 C 
HETATM   24  C6  UNL     1      -3.309  49.724 -27.405  1.00  0.00    -0.023 C 
BRANCH  24  25
HETATM   25  C4  UNL     1      -4.147  48.462 -27.291  1.00  0.00     0.007 C 
HETATM   26  C5  UNL     1      -4.766  48.229 -25.904  1.00  0.00     0.014 C 
BRANCH  25  27
HETATM   27  C2  UNL     1      -5.230  48.342 -28.405  1.00  0.00    -0.015 C 
HETATM   28  C1  UNL     1      -4.733  47.641 -29.674  1.00  0.00     0.010 C 
HETATM   29  C3  UNL     1      -6.502  47.650 -27.902  1.00  0.00     0.010 C 
ENDBRANCH  25  27
ENDBRANCH  24  25
ENDBRANCH  21  23
BRANCH  21  30
HETATM   30  O1  UNL     1      -0.546  51.089 -27.807  1.00  0.00    -0.386 OA
HETATM   31  H17 UNL     1       0.118  50.445 -27.484  1.00  0.00     0.211 HD
ENDBRANCH  21  30
ENDBRANCH   1  21
BRANCH  18  32
HETATM   32  O4  UNL     1      -2.442  49.573 -24.072  1.00  0.00    -0.395 OA
HETATM   33  H43 UNL     1      -2.486  48.675 -23.693  1.00  0.00     0.210 HD
ENDBRANCH  18  32
BRANCH   6  34
HETATM   34  O2  UNL     1       2.122  52.541 -21.321  1.00  0.00    -0.395 OA
HETATM   35  H26 UNL     1       2.839  53.050 -20.904  1.00  0.00     0.210 HD
ENDBRANCH   6  34
TORSDOF 7
ENDMDL
MODEL 2
REMARK minimizedAffinity -9.81327534
REMARK  7 active torsions:
REMARK  status: ('A' for Active; 'I' for Inactive)
REMARK    1  A    between atoms: C2_2  and  C4_4 
REMARK    2  A    between atoms: C4_4  and  C6_6 
REMARK    3  A    between atoms: C7_7  and  C8_8 
REMARK    4  A    between atoms: C8_8  and  O1_10 
REMARK    5  A    between atoms: C8_8  and  C10_11 
REMARK    6  A    between atoms: C15_16  and  O2_17 
REMARK    7  A    between atoms: C26_29  and  O4_30 
ROOT
HETATM    1  C10 UNL     1      -1.846  50.509 -25.011  1.00  0.00     0.034 C 
HETATM    2  C11 UNL     1      -1.485  51.951 -25.460  1.00  0.00     0.009 C 
HETATM    3  C12 UNL     1      -0.991  52.692 -24.205  1.00  0.00     0.006 C 
HETATM    4  C13 UNL     1      -0.917  51.608 -23.135  1.00  0.00     0.003 C 
HETATM    5  C14 UNL     1      -0.870  52.043 -21.660  1.00  0.00     0.024 C 
HETATM    6  C15 UNL     1       0.284  53.025 -21.378  1.00  0.00     0.123 C 
HETATM    7  C16 UNL     1       0.387  53.367 -19.890  1.00  0.00     0.038 C 
HETATM    8  C17 UNL     1       0.508  52.102 -19.027  1.00  0.00     0.003 C 
HETATM    9  C18 UNL     1       0.743  52.465 -17.558  1.00  0.00     0.083 C 
HETATM   10  C19 UNL     1       0.912  51.212 -16.730  1.00  0.00     0.127 C 
HETATM   11  O3  UNL     1       1.783  51.131 -15.865  1.00  0.00    -0.298 OA
HETATM   12  C20 UNL     1      -0.116  50.121 -16.916  1.00  0.00     0.079 C 
HETATM   13  C21 UNL     1      -0.386  49.844 -18.393  1.00  0.00     0.017 C 
HETATM   14  C22 UNL     1      -0.692  51.119 -19.233  1.00  0.00    -0.035 C 
HETATM   15  C23 UNL     1      -2.031  51.725 -18.744  1.00  0.00     0.016 C 
HETATM   16  C24 UNL     1      -0.763  50.761 -20.767  1.00  0.00     0.003 C 
HETATM   17  C25 UNL     1      -1.846  49.713 -21.127  1.00  0.00     0.038 C 
HETATM   18  C26 UNL     1      -1.920  49.394 -22.633  1.00  0.00     0.127 C 
HETATM   19  C27 UNL     1      -2.109  50.671 -23.475  1.00  0.00    -0.007 C 
HETATM   20  C28 UNL     1      -3.483  51.322 -23.177  1.00  0.00     0.019 C 
ENDROOT
BRANCH   1  21
HETATM   21  C8  UNL     1      -2.834  49.761 -25.960  1.00  0.00     0.076 C 
HETATM   22  C9  UNL     1      -2.912  50.513 -27.306  1.00  0.00     0.051 C 
BRANCH  21  23
HETATM   23  C7  UNL     1      -4.209  49.473 -25.394  1.00  0.00     0.007 C 
HETATM   24  C6  UNL     1      -4.928  48.342 -25.519  1.00  0.00    -0.023 C 
BRANCH  24  25
HETATM   25  C4  UNL     1      -6.288  48.040 -24.913  1.00  0.00     0.007 C 
HETATM   26  C5  UNL     1      -6.873  49.175 -24.058  1.00  0.00     0.014 C 
BRANCH  25  27
HETATM   27  C2  UNL     1      -7.330  47.547 -25.961  1.00  0.00    -0.015 C 
HETATM   28  C1  UNL     1      -6.775  47.457 -27.386  1.00  0.00     0.010 C 
HETATM   29  C3  UNL     1      -7.951  46.201 -25.568  1.00  0.00     0.010 C 
ENDBRANCH  25  27
ENDBRANCH  24  25
ENDBRANCH  21  23
BRANCH  21  30
HETATM   30  O1  UNL     1      -2.276  48.488 -26.307  1.00  0.00    -0.386 OA
HETATM   31  H17 UNL     1      -2.029  48.037 -25.473  1.00  0.00     0.211 HD
ENDBRANCH  21  30
ENDBRANCH   1  21
BRANCH  18  32
HETATM   32  O4  UNL     1      -3.004  48.494 -22.865  1.00  0.00    -0.395 OA
HETATM   33  H43 UNL     1      -2.836  47.699 -22.325  1.00  0.00     0.210 HD
ENDBRANCH  18  32
BRANCH   6  34
HETATM   34  O2  UNL     1       1.516  52.453 -21.813  1.00  0.00    -0.395 OA
HETATM   35  H26 UNL     1       2.216  53.113 -21.670  1.00  0.00     0.210 HD
ENDBRANCH   6  34
TORSDOF 7
ENDMDL
MODEL 3
REMARK minimizedAffinity -9.54771709
REMARK  7 active torsions:
REMARK  status: ('A' for Active; 'I' for Inactive)
REMARK    1  A    between atoms: C2_2  and  C4_4 
REMARK    2  A    between atoms: C4_4  and  C6_6 
REMARK    3  A    between atoms: C7_7  and  C8_8 
REMARK    4  A    between atoms: C8_8  and  O1_10 
REMARK    5  A    between atoms: C8_8  and  C10_11 
REMARK    6  A    between atoms: C15_16  and  O2_17 
REMARK    7  A    between atoms: C26_29  and  O4_30 
ROOT
HETATM    1  C10 UNL     1      -0.507  52.575 -20.917  1.00  0.00     0.034 C 
HETATM    2  C11 UNL     1       0.341  52.169 -22.153  1.00  0.00     0.009 C 
HETATM    3  C12 UNL     1      -0.486  51.133 -22.933  1.00  0.00     0.006 C 
HETATM    4  C13 UNL     1      -1.836  51.118 -22.222  1.00  0.00     0.003 C 
HETATM    5  C14 UNL     1      -2.766  49.915 -22.450  1.00  0.00     0.024 C 
HETATM    6  C15 UNL     1      -3.051  49.674 -23.946  1.00  0.00     0.123 C 
HETATM    7  C16 UNL     1      -4.061  48.544 -24.157  1.00  0.00     0.038 C 
HETATM    8  C17 UNL     1      -5.360  48.796 -23.376  1.00  0.00     0.003 C 
HETATM    9  C18 UNL     1      -6.407  47.726 -23.702  1.00  0.00     0.083 C 
HETATM   10  C19 UNL     1      -7.695  48.015 -22.967  1.00  0.00     0.127 C 
HETATM   11  O3  UNL     1      -8.787  47.900 -23.523  1.00  0.00    -0.298 OA
HETATM   12  C20 UNL     1      -7.592  48.317 -21.491  1.00  0.00     0.079 C 
HETATM   13  C21 UNL     1      -6.484  49.324 -21.195  1.00  0.00     0.017 C 
HETATM   14  C22 UNL     1      -5.113  48.966 -21.840  1.00  0.00    -0.035 C 
HETATM   15  C23 UNL     1      -4.582  47.665 -21.189  1.00  0.00     0.016 C 
HETATM   16  C24 UNL     1      -4.089  50.150 -21.647  1.00  0.00     0.003 C 
HETATM   17  C25 UNL     1      -3.810  50.515 -20.167  1.00  0.00     0.038 C 
HETATM   18  C26 UNL     1      -2.789  51.656 -19.994  1.00  0.00     0.127 C 
HETATM   19  C27 UNL     1      -1.469  51.353 -20.731  1.00  0.00    -0.007 C 
HETATM   20  C28 UNL     1      -0.757  50.133 -20.092  1.00  0.00     0.019 C 
ENDROOT
BRANCH   1  21
HETATM   21  C8  UNL     1       0.314  53.188 -19.740  1.00  0.00     0.076 C 
HETATM   22  C9  UNL     1       1.673  53.687 -20.274  1.00  0.00     0.051 C 
BRANCH  21  23
HETATM   23  C7  UNL     1       0.477  52.311 -18.516  1.00  0.00     0.007 C 
HETATM   24  C6  UNL     1       1.229  52.552 -17.426  1.00  0.00    -0.023 C 
BRANCH  24  25
HETATM   25  C4  UNL     1       1.356  51.690 -16.181  1.00  0.00     0.007 C 
HETATM   26  C5  UNL     1       0.726  50.294 -16.304  1.00  0.00     0.014 C 
BRANCH  25  27
HETATM   27  C2  UNL     1       2.816  51.592 -15.650  1.00  0.00    -0.015 C 
HETATM   28  C1  UNL     1       3.729  52.719 -16.144  1.00  0.00     0.010 C 
HETATM   29  C3  UNL     1       2.871  51.523 -14.119  1.00  0.00     0.010 C 
ENDBRANCH  25  27
ENDBRANCH  24  25
ENDBRANCH  21  23
BRANCH  21  30
HETATM   30  O1  UNL     1      -0.337  54.381 -19.285  1.00  0.00    -0.386 OA
HETATM   31  H17 UNL     1      -1.275  54.155 -19.108  1.00  0.00     0.211 HD
ENDBRANCH  21  30
ENDBRANCH   1  21
BRANCH  18  32
HETATM   32  O4  UNL     1      -2.536  51.848 -18.602  1.00  0.00    -0.395 OA
HETATM   33  H43 UNL     1      -3.393  52.050 -18.181  1.00  0.00     0.210 HD
ENDBRANCH  18  32
BRANCH   6  34
HETATM   34  O2  UNL     1      -3.557  50.869 -24.536  1.00  0.00    -0.395 OA
HETATM   35  H26 UNL     1      -3.678  50.703 -25.487  1.00  0.00     0.210 HD
ENDBRANCH   6  34
TORSDOF 7
ENDMDL
MODEL 4
REMARK minimizedAffinity -9.47550488
REMARK  7 active torsions:
REMARK  status: ('A' for Active; 'I' for Inactive)
REMARK    1  A    between atoms: C2_2  and  C4_4 
REMARK    2  A    between atoms: C4_4  and  C6_6 
REMARK    3  A    between atoms: C7_7  and  C8_8 
REMARK    4  A    between atoms: C8_8  and  O1_10 
REMARK    5  A    between atoms: C8_8  and  C10_11 
REMARK    6  A    between atoms: C15_16  and  O2_17 
REMARK    7  A    between atoms: C26_29  and  O4_30 
ROOT
HETATM    1  C10 UNL     1      -0.078  51.951 -21.444  1.00  0.00     0.034 C 
HETATM    2  C11 UNL     1       0.323  53.425 -21.163  1.00  0.00     0.009 C 
HETATM    3  C12 UNL     1       0.577  53.531 -19.650  1.00  0.00     0.006 C 
HETATM    4  C13 UNL     1       0.490  52.092 -19.153  1.00  0.00     0.003 C 
HETATM    5  C14 UNL     1       0.273  51.852 -17.649  1.00  0.00     0.024 C 
HETATM    6  C15 UNL     1       1.339  52.556 -16.787  1.00  0.00     0.123 C 
HETATM    7  C16 UNL     1       1.177  52.223 -15.302  1.00  0.00     0.038 C 
HETATM    8  C17 UNL     1       1.177  50.706 -15.060  1.00  0.00     0.003 C 
HETATM    9  C18 UNL     1       1.148  50.394 -13.560  1.00  0.00     0.083 C 
HETATM   10  C19 UNL     1       1.200  48.901 -13.337  1.00  0.00     0.127 C 
HETATM   11  O3  UNL     1       1.912  48.410 -12.460  1.00  0.00    -0.298 OA
HETATM   12  C20 UNL     1       0.244  48.051 -14.140  1.00  0.00     0.079 C 
HETATM   13  C21 UNL     1       0.239  48.446 -15.614  1.00  0.00     0.017 C 
HETATM   14  C22 UNL     1       0.053  49.972 -15.862  1.00  0.00    -0.035 C 
HETATM   15  C23 UNL     1      -1.364  50.383 -15.388  1.00  0.00     0.016 C 
HETATM   16  C24 UNL     1       0.254  50.308 -17.390  1.00  0.00     0.003 C 
HETATM   17  C25 UNL     1      -0.727  49.574 -18.338  1.00  0.00     0.038 C 
HETATM   18  C26 UNL     1      -0.535  49.933 -19.824  1.00  0.00     0.127 C 
HETATM   19  C27 UNL     1      -0.604  51.456 -20.054  1.00  0.00    -0.007 C 
HETATM   20  C28 UNL     1      -2.023  51.991 -19.736  1.00  0.00     0.019 C 
ENDROOT
BRANCH   1  21
HETATM   21  C8  UNL     1      -0.871  51.735 -22.771  1.00  0.00     0.076 C 
HETATM   22  C9  UNL     1      -1.221  50.239 -22.915  1.00  0.00     0.051 C 
BRANCH  21  23
HETATM   23  C7  UNL     1      -0.230  52.289 -24.026  1.00  0.00     0.007 C 
HETATM   24  C6  UNL     1       0.505  51.622 -24.936  1.00  0.00    -0.023 C 
BRANCH  24  25
HETATM   25  C4  UNL     1       1.109  52.171 -26.217  1.00  0.00     0.007 C 
HETATM   26  C5  UNL     1       2.450  51.534 -26.615  1.00  0.00     0.014 C 
BRANCH  25  27
HETATM   27  C2  UNL     1       0.116  52.161 -27.417  1.00  0.00    -0.015 C 
HETATM   28  C1  UNL     1      -1.032  51.159 -27.259  1.00  0.00     0.010 C 
HETATM   29  C3  UNL     1      -0.457  53.554 -27.704  1.00  0.00     0.010 C 
ENDBRANCH  25  27
ENDBRANCH  24  25
ENDBRANCH  21  23
BRANCH  21  30
HETATM   30  O1  UNL     1      -2.147  52.379 -22.664  1.00  0.00    -0.386 OA
HETATM   31  H17 UNL     1      -1.987  53.304 -22.383  1.00  0.00     0.211 HD
ENDBRANCH  21  30
ENDBRANCH   1  21
BRANCH  18  32
HETATM   32  O4  UNL     1      -1.541  49.278 -20.596  1.00  0.00    -0.395 OA
HETATM   33  H43 UNL     1      -1.451  48.321 -20.430  1.00  0.00     0.210 HD
ENDBRANCH  18  32
BRANCH   6  34
HETATM   34  O2  UNL     1       2.640  52.159 -17.215  1.00  0.00    -0.395 OA
HETATM   35  H26 UNL     1       3.291  52.656 -16.690  1.00  0.00     0.210 HD
ENDBRANCH   6  34
TORSDOF 7
ENDMDL
MODEL 5
REMARK minimizedAffinity -9.30898762
REMARK  7 active torsions:
REMARK  status: ('A' for Active; 'I' for Inactive)
REMARK    1  A    between atoms: C2_2  and  C4_4 
REMARK    2  A    between atoms: C4_4  and  C6_6 
REMARK    3  A    between atoms: C7_7  and  C8_8 
REMARK    4  A    between atoms: C8_8  and  O1_10 
REMARK    5  A    between atoms: C8_8  and  C10_11 
REMARK    6  A    between atoms: C15_16  and  O2_17 
REMARK    7  A    between atoms: C26_29  and  O4_30 
ROOT
HETATM    1  C10 UNL     1      -0.666  51.215 -15.403  1.00  0.00     0.034 C 
HETATM    2  C11 UNL     1       0.840  51.591 -15.390  1.00  0.00     0.009 C 
HETATM    3  C12 UNL     1       1.248  51.825 -16.855  1.00  0.00     0.006 C 
HETATM    4  C13 UNL     1      -0.066  51.753 -17.626  1.00  0.00     0.003 C 
HETATM    5  C14 UNL     1      -0.007  51.521 -19.145  1.00  0.00     0.024 C 
HETATM    6  C15 UNL     1       0.871  52.566 -19.861  1.00  0.00     0.123 C 
HETATM    7  C16 UNL     1       0.836  52.391 -21.381  1.00  0.00     0.038 C 
HETATM    8  C17 UNL     1      -0.603  52.409 -21.919  1.00  0.00     0.003 C 
HETATM    9  C18 UNL     1      -0.612  52.366 -23.450  1.00  0.00     0.083 C 
HETATM   10  C19 UNL     1      -2.031  52.436 -23.966  1.00  0.00     0.127 C 
HETATM   11  O3  UNL     1      -2.326  53.144 -24.929  1.00  0.00    -0.298 OA
HETATM   12  C20 UNL     1      -3.038  51.502 -23.338  1.00  0.00     0.079 C 
HETATM   13  C21 UNL     1      -2.943  51.509 -21.814  1.00  0.00     0.017 C 
HETATM   14  C22 UNL     1      -1.500  51.305 -21.267  1.00  0.00    -0.035 C 
HETATM   15  C23 UNL     1      -1.026  49.877 -21.638  1.00  0.00     0.016 C 
HETATM   16  C24 UNL     1      -1.469  51.520 -19.705  1.00  0.00     0.003 C 
HETATM   17  C25 UNL     1      -2.392  50.562 -18.912  1.00  0.00     0.038 C 
HETATM   18  C26 UNL     1      -2.331  50.767 -17.386  1.00  0.00     0.127 C 
HETATM   19  C27 UNL     1      -0.885  50.679 -16.859  1.00  0.00    -0.007 C 
HETATM   20  C28 UNL     1      -0.321  49.248 -17.051  1.00  0.00     0.019 C 
ENDROOT
BRANCH   1  21
HETATM   21  C8  UNL     1      -1.154  50.441 -14.138  1.00  0.00     0.076 C 
HETATM   22  C9  UNL     1      -1.820  49.119 -14.577  1.00  0.00     0.051 C 
BRANCH  21  23
HETATM   23  C7  UNL     1      -2.026  51.221 -13.177  1.00  0.00     0.007 C 
HETATM   24  C6  UNL     1      -3.092  50.774 -12.487  1.00  0.00    -0.023 C 
BRANCH  24  25
HETATM   25  C4  UNL     1      -3.938  51.547 -11.490  1.00  0.00     0.007 C 
HETATM   26  C5  UNL     1      -4.737  50.669 -10.514  1.00  0.00     0.014 C 
BRANCH  25  27
HETATM   27  C2  UNL     1      -3.135  52.637 -10.720  1.00  0.00    -0.015 C 
HETATM   28  C1  UNL     1      -3.917  53.937 -10.498  1.00  0.00     0.010 C 
HETATM   29  C3  UNL     1      -2.605  52.123  -9.376  1.00  0.00     0.010 C 
ENDBRANCH  25  27
ENDBRANCH  24  25
ENDBRANCH  21  23
BRANCH  21  30
HETATM   30  O1  UNL     1      -0.014  50.018 -13.380  1.00  0.00    -0.386 OA
HETATM   31  H17 UNL     1       0.551  50.805 -13.233  1.00  0.00     0.211 HD
ENDBRANCH  21  30
ENDBRANCH   1  21
BRANCH  18  32
HETATM   32  O4  UNL     1      -3.142  49.779 -16.750  1.00  0.00    -0.395 OA
HETATM   33  H43 UNL     1      -4.046  49.880 -17.103  1.00  0.00     0.210 HD
ENDBRANCH  18  32
BRANCH   6  34
HETATM   34  O2  UNL     1       0.418  53.878 -19.532  1.00  0.00    -0.395 OA
HETATM   35  H26 UNL     1       1.020  54.515 -19.954  1.00  0.00     0.210 HD
ENDBRANCH   6  34
TORSDOF 7
ENDMDL
MODEL 6
REMARK minimizedAffinity -9.19298744
REMARK  7 active torsions:
REMARK  status: ('A' for Active; 'I' for Inactive)
REMARK    1  A    between atoms: C2_2  and  C4_4 
REMARK    2  A    between atoms: C4_4  and  C6_6 
REMARK    3  A    between atoms: C7_7  and  C8_8 
REMARK    4  A    between atoms: C8_8  and  O1_10 
REMARK    5  A    between atoms: C8_8  and  C10_11 
REMARK    6  A    between atoms: C15_16  and  O2_17 
REMARK    7  A    between atoms: C26_29  and  O4_30 
ROOT
HETATM    1  C10 UNL     1      -2.754  50.908 -24.891  1.00  0.00     0.034 C 
HETATM    2  C11 UNL     1      -2.774  49.813 -25.992  1.00  0.00     0.009 C 
HETATM    3  C12 UNL     1      -3.835  48.783 -25.569  1.00  0.00     0.006 C 
HETATM    4  C13 UNL     1      -4.503  49.411 -24.350  1.00  0.00     0.003 C 
HETATM    5  C14 UNL     1      -5.312  48.499 -23.413  1.00  0.00     0.024 C 
HETATM    6  C15 UNL     1      -6.407  47.716 -24.163  1.00  0.00     0.123 C 
HETATM    7  C16 UNL     1      -7.275  46.895 -23.207  1.00  0.00     0.038 C 
HETATM    8  C17 UNL     1      -7.877  47.771 -22.098  1.00  0.00     0.003 C 
HETATM    9  C18 UNL     1      -8.846  46.962 -21.230  1.00  0.00     0.083 C 
HETATM   10  C19 UNL     1      -9.469  47.848 -20.177  1.00  0.00     0.127 C 
HETATM   11  O3  UNL     1     -10.670  47.780 -19.914  1.00  0.00    -0.298 OA
HETATM   12  C20 UNL     1      -8.536  48.720 -19.372  1.00  0.00     0.079 C 
HETATM   13  C21 UNL     1      -7.531  49.447 -20.263  1.00  0.00     0.017 C 
HETATM   14  C22 UNL     1      -6.784  48.519 -21.265  1.00  0.00    -0.035 C 
HETATM   15  C23 UNL     1      -5.892  47.539 -20.464  1.00  0.00     0.016 C 
HETATM   16  C24 UNL     1      -5.919  49.377 -22.267  1.00  0.00     0.003 C 
HETATM   17  C25 UNL     1      -4.846  50.261 -21.585  1.00  0.00     0.038 C 
HETATM   18  C26 UNL     1      -3.992  51.073 -22.579  1.00  0.00     0.127 C 
HETATM   19  C27 UNL     1      -3.343  50.165 -23.643  1.00  0.00    -0.007 C 
HETATM   20  C28 UNL     1      -2.318  49.206 -22.989  1.00  0.00     0.019 C 
ENDROOT
BRANCH   1  21
HETATM   21  C8  UNL     1      -1.437  51.743 -24.829  1.00  0.00     0.076 C 
HETATM   22  C9  UNL     1      -0.386  51.104 -25.761  1.00  0.00     0.051 C 
BRANCH  21  23
HETATM   23  C7  UNL     1      -0.881  52.005 -23.445  1.00  0.00     0.007 C 
HETATM   24  C6  UNL     1       0.378  52.352 -23.118  1.00  0.00    -0.023 C 
BRANCH  24  25
HETATM   25  C4  UNL     1       0.922  52.656 -21.733  1.00  0.00     0.007 C 
HETATM   26  C5  UNL     1       1.437  54.093 -21.551  1.00  0.00     0.014 C 
BRANCH  25  27
HETATM   27  C2  UNL     1      -0.064  52.274 -20.589  1.00  0.00    -0.015 C 
HETATM   28  C1  UNL     1      -0.063  50.780 -20.249  1.00  0.00     0.010 C 
HETATM   29  C3  UNL     1       0.186  53.090 -19.315  1.00  0.00     0.010 C 
ENDBRANCH  25  27
ENDBRANCH  24  25
ENDBRANCH  21  23
BRANCH  21  30
HETATM   30  O1  UNL     1      -1.673  53.032 -25.409  1.00  0.00    -0.386 OA
HETATM   31  H17 UNL     1      -2.465  53.411 -24.973  1.00  0.00     0.211 HD
ENDBRANCH  21  30
ENDBRANCH   1  21
BRANCH  18  32
HETATM   32  O4  UNL     1      -2.981  51.777 -21.858  1.00  0.00    -0.395 OA
HETATM   33  H43 UNL     1      -3.435  52.345 -21.208  1.00  0.00     0.210 HD
ENDBRANCH  18  32
BRANCH   6  34
HETATM   34  O2  UNL     1      -7.237  48.625 -24.884  1.00  0.00    -0.395 OA
HETATM   35  H26 UNL     1      -7.885  48.101 -25.387  1.00  0.00     0.210 HD
ENDBRANCH   6  34
TORSDOF 7
ENDMDL
MODEL 7
REMARK minimizedAffinity -8.99757576
REMARK  7 active torsions:
REMARK  status: ('A' for Active; 'I' for Inactive)
REMARK    1  A    between atoms: C2_2  and  C4_4 
REMARK    2  A    between atoms: C4_4  and  C6_6 
REMARK    3  A    between atoms: C7_7  and  C8_8 
REMARK    4  A    between atoms: C8_8  and  O1_10 
REMARK    5  A    between atoms: C8_8  and  C10_11 
REMARK    6  A    between atoms: C15_16  and  O2_17 
REMARK    7  A    between atoms: C26_29  and  O4_30 
ROOT
HETATM    1  C10 UNL     1      -0.088  51.813 -15.544  1.00  0.00     0.034 C 
HETATM    2  C11 UNL     1       1.393  52.262 -15.677  1.00  0.00     0.009 C 
HETATM    3  C12 UNL     1       1.680  52.391 -17.183  1.00  0.00     0.006 C 
HETATM    4  C13 UNL     1       0.319  52.191 -17.843  1.00  0.00     0.003 C 
HETATM    5  C14 UNL     1       0.280  51.835 -19.339  1.00  0.00     0.024 C 
HETATM    6  C15 UNL     1       1.045  52.857 -20.202  1.00  0.00     0.123 C 
HETATM    7  C16 UNL     1       0.910  52.554 -21.695  1.00  0.00     0.038 C 
HETATM    8  C17 UNL     1      -0.563  52.457 -22.120  1.00  0.00     0.003 C 
HETATM    9  C18 UNL     1      -0.681  52.285 -23.638  1.00  0.00     0.083 C 
HETATM   10  C19 UNL     1      -2.136  52.243 -24.047  1.00  0.00     0.127 C 
HETATM   11  O3  UNL     1      -2.538  52.852 -25.038  1.00  0.00    -0.298 OA
HETATM   12  C20 UNL     1      -3.042  51.317 -23.271  1.00  0.00     0.079 C 
HETATM   13  C21 UNL     1      -2.837  51.457 -21.764  1.00  0.00     0.017 C 
HETATM   14  C22 UNL     1      -1.349  51.369 -21.316  1.00  0.00    -0.035 C 
HETATM   15  C23 UNL     1      -0.826  49.940 -21.606  1.00  0.00     0.016 C 
HETATM   16  C24 UNL     1      -1.216  51.717 -19.783  1.00  0.00     0.003 C 
HETATM   17  C25 UNL     1      -2.026  50.784 -18.847  1.00  0.00     0.038 C 
HETATM   18  C26 UNL     1      -1.865  51.120 -17.351  1.00  0.00     0.127 C 
HETATM   19  C27 UNL     1      -0.382  51.147 -16.931  1.00  0.00    -0.007 C 
HETATM   20  C28 UNL     1       0.243  49.734 -17.051  1.00  0.00     0.019 C 
ENDROOT
BRANCH   1  21
HETATM   21  C8  UNL     1      -0.439  51.126 -14.188  1.00  0.00     0.076 C 
HETATM   22  C9  UNL     1      -1.960  51.229 -13.945  1.00  0.00     0.051 C 
BRANCH  21  23
HETATM   23  C7  UNL     1       0.357  51.585 -12.985  1.00  0.00     0.007 C 
HETATM   24  C6  UNL     1       0.243  52.750 -12.319  1.00  0.00    -0.023 C 
BRANCH  24  25
HETATM   25  C4  UNL     1       1.013  53.189 -11.086  1.00  0.00     0.007 C 
HETATM   26  C5  UNL     1       2.512  52.851 -11.115  1.00  0.00     0.014 C 
BRANCH  25  27
HETATM   27  C2  UNL     1       0.793  54.689 -10.727  1.00  0.00    -0.015 C 
HETATM   28  C1  UNL     1      -0.650  55.023 -10.335  1.00  0.00     0.010 C 
HETATM   29  C3  UNL     1       1.746  55.165  -9.625  1.00  0.00     0.010 C 
ENDBRANCH  25  27
ENDBRANCH  24  25
ENDBRANCH  21  23
BRANCH  21  30
HETATM   30  O1  UNL     1      -0.203  49.717 -14.302  1.00  0.00    -0.386 OA
HETATM   31  H17 UNL     1       0.709  49.598 -14.642  1.00  0.00     0.211 HD
ENDBRANCH  21  30
ENDBRANCH   1  21
BRANCH  18  32
HETATM   32  O4  UNL     1      -2.573  50.151 -16.578  1.00  0.00    -0.395 OA
HETATM   33  H43 UNL     1      -3.504  50.179 -16.867  1.00  0.00     0.210 HD
ENDBRANCH  18  32
BRANCH   6  34
HETATM   34  O2  UNL     1       0.547  54.169 -19.945  1.00  0.00    -0.395 OA
HETATM   35  H26 UNL     1       1.081  54.796 -20.462  1.00  0.00     0.210 HD
ENDBRANCH   6  34
TORSDOF 7
ENDMDL
MODEL 8
REMARK minimizedAffinity -8.78834057
REMARK  7 active torsions:
REMARK  status: ('A' for Active; 'I' for Inactive)
REMARK    1  A    between atoms: C2_2  and  C4_4 
REMARK    2  A    between atoms: C4_4  and  C6_6 
REMARK    3  A    between atoms: C7_7  and  C8_8 
REMARK    4  A    between atoms: C8_8  and  O1_10 
REMARK    5  A    between atoms: C8_8  and  C10_11 
REMARK    6  A    between atoms: C15_16  and  O2_17 
REMARK    7  A    between atoms: C26_29  and  O4_30 
ROOT
HETATM    1  C10 UNL     1      -0.494  50.614 -21.737  1.00  0.00     0.034 C 
HETATM    2  C11 UNL     1      -0.062  49.879 -20.439  1.00  0.00     0.009 C 
HETATM    3  C12 UNL     1      -1.176  48.868 -20.115  1.00  0.00     0.006 C 
HETATM    4  C13 UNL     1      -2.105  48.934 -21.323  1.00  0.00     0.003 C 
HETATM    5  C14 UNL     1      -3.534  48.384 -21.173  1.00  0.00     0.024 C 
HETATM    6  C15 UNL     1      -3.547  46.923 -20.682  1.00  0.00     0.123 C 
HETATM    7  C16 UNL     1      -4.966  46.352 -20.639  1.00  0.00     0.038 C 
HETATM    8  C17 UNL     1      -5.671  46.490 -21.997  1.00  0.00     0.003 C 
HETATM    9  C18 UNL     1      -7.037  45.797 -21.975  1.00  0.00     0.083 C 
HETATM   10  C19 UNL     1      -7.696  45.896 -23.331  1.00  0.00     0.127 C 
HETATM   11  O3  UNL     1      -8.274  44.932 -23.833  1.00  0.00    -0.298 OA
HETATM   12  C20 UNL     1      -7.732  47.259 -23.980  1.00  0.00     0.079 C 
HETATM   13  C21 UNL     1      -6.374  47.955 -23.910  1.00  0.00     0.017 C 
HETATM   14  C22 UNL     1      -5.744  47.974 -22.486  1.00  0.00    -0.035 C 
HETATM   15  C23 UNL     1      -6.630  48.848 -21.563  1.00  0.00     0.016 C 
HETATM   16  C24 UNL     1      -4.270  48.533 -22.546  1.00  0.00     0.003 C 
HETATM   17  C25 UNL     1      -4.158  49.972 -23.109  1.00  0.00     0.038 C 
HETATM   18  C26 UNL     1      -2.715  50.514 -23.137  1.00  0.00     0.127 C 
HETATM   19  C27 UNL     1      -2.050  50.426 -21.749  1.00  0.00    -0.007 C 
HETATM   20  C28 UNL     1      -2.765  51.362 -20.742  1.00  0.00     0.019 C 
ENDROOT
BRANCH   1  21
HETATM   21  C8  UNL     1       0.188  52.001 -21.955  1.00  0.00     0.076 C 
HETATM   22  C9  UNL     1      -0.293  52.981 -20.864  1.00  0.00     0.051 C 
BRANCH  21  23
HETATM   23  C7  UNL     1       0.060  52.593 -23.343  1.00  0.00     0.007 C 
HETATM   24  C6  UNL     1       0.441  52.041 -24.510  1.00  0.00    -0.023 C 
BRANCH  24  25
HETATM   25  C4  UNL     1       0.271  52.619 -25.905  1.00  0.00     0.007 C 
HETATM   26  C5  UNL     1       0.050  54.140 -25.943  1.00  0.00     0.014 C 
BRANCH  25  27
HETATM   27  C2  UNL     1       1.409  52.202 -26.883  1.00  0.00    -0.015 C 
HETATM   28  C1  UNL     1       2.388  51.183 -26.292  1.00  0.00     0.010 C 
HETATM   29  C3  UNL     1       0.861  51.673 -28.214  1.00  0.00     0.010 C 
ENDBRANCH  25  27
ENDBRANCH  24  25
ENDBRANCH  21  23
BRANCH  21  30
HETATM   30  O1  UNL     1       1.594  51.875 -21.709  1.00  0.00    -0.386 OA
HETATM   31  H17 UNL     1       1.922  51.125 -22.248  1.00  0.00     0.211 HD
ENDBRANCH  21  30
ENDBRANCH   1  21
BRANCH  18  32
HETATM   32  O4  UNL     1      -2.735  51.870 -23.583  1.00  0.00    -0.395 OA
HETATM   33  H43 UNL     1      -3.151  51.875 -24.465  1.00  0.00     0.210 HD
ENDBRANCH  18  32
BRANCH   6  34
HETATM   34  O2  UNL     1      -2.746  46.119 -21.546  1.00  0.00    -0.395 OA
HETATM   35  H26 UNL     1      -2.731  45.217 -21.184  1.00  0.00     0.210 HD
ENDBRANCH   6  34
TORSDOF 7
ENDMDL
MODEL 9
REMARK minimizedAffinity -8.77425957
REMARK  7 active torsions:
REMARK  status: ('A' for Active; 'I' for Inactive)
REMARK    1  A    between atoms: C2_2  and  C4_4 
REMARK    2  A    between atoms: C4_4  and  C6_6 
REMARK    3  A    between atoms: C7_7  and  C8_8 
REMARK    4  A    between atoms: C8_8  and  O1_10 
REMARK    5  A    between atoms: C8_8  and  C10_11 
REMARK    6  A    between atoms: C15_16  and  O2_17 
REMARK    7  A    between atoms: C26_29  and  O4_30 
ROOT
HETATM    1  C10 UNL     1       0.621  50.623 -16.880  1.00  0.00     0.034 C 
HETATM    2  C11 UNL     1      -0.120  49.329 -16.444  1.00  0.00     0.009 C 
HETATM    3  C12 UNL     1      -0.929  48.854 -17.663  1.00  0.00     0.006 C 
HETATM    4  C13 UNL     1      -0.485  49.779 -18.792  1.00  0.00     0.003 C 
HETATM    5  C14 UNL     1      -1.375  49.882 -20.042  1.00  0.00     0.024 C 
HETATM    6  C15 UNL     1      -1.648  48.505 -20.678  1.00  0.00     0.123 C 
HETATM    7  C16 UNL     1      -2.444  48.629 -21.979  1.00  0.00     0.038 C 
HETATM    8  C17 UNL     1      -1.756  49.576 -22.974  1.00  0.00     0.003 C 
HETATM    9  C18 UNL     1      -2.494  49.586 -24.316  1.00  0.00     0.083 C 
HETATM   10  C19 UNL     1      -1.776  50.481 -25.300  1.00  0.00     0.127 C 
HETATM   11  O3  UNL     1      -1.611  50.140 -26.471  1.00  0.00    -0.298 OA
HETATM   12  C20 UNL     1      -1.394  51.862 -24.822  1.00  0.00     0.079 C 
HETATM   13  C21 UNL     1      -0.737  51.821 -23.444  1.00  0.00     0.017 C 
HETATM   14  C22 UNL     1      -1.536  51.008 -22.383  1.00  0.00    -0.035 C 
HETATM   15  C23 UNL     1      -2.876  51.736 -22.107  1.00  0.00     0.016 C 
HETATM   16  C24 UNL     1      -0.694  50.858 -21.058  1.00  0.00     0.003 C 
HETATM   17  C25 UNL     1      -0.303  52.203 -20.396  1.00  0.00     0.038 C 
HETATM   18  C26 UNL     1       0.497  52.039 -19.089  1.00  0.00     0.127 C 
HETATM   19  C27 UNL     1      -0.243  51.139 -18.080  1.00  0.00    -0.007 C 
HETATM   20  C28 UNL     1      -1.559  51.810 -17.614  1.00  0.00     0.019 C 
ENDROOT
BRANCH   1  21
HETATM   21  C8  UNL     1       1.063  51.546 -15.702  1.00  0.00     0.076 C 
HETATM   22  C9  UNL     1       2.578  51.374 -15.461  1.00  0.00     0.051 C 
BRANCH  21  23
HETATM   23  C7  UNL     1       0.269  51.412 -14.419  1.00  0.00     0.007 C 
HETATM   24  C6  UNL     1      -0.110  52.395 -13.581  1.00  0.00    -0.023 C 
BRANCH  24  25
HETATM   25  C4  UNL     1      -0.944  52.262 -12.318  1.00  0.00     0.007 C 
HETATM   26  C5  UNL     1      -0.692  53.356 -11.268  1.00  0.00     0.014 C 
BRANCH  25  27
HETATM   27  C2  UNL     1      -2.468  52.111 -12.603  1.00  0.00    -0.015 C 
HETATM   28  C1  UNL     1      -2.974  50.668 -12.502  1.00  0.00     0.010 C 
HETATM   29  C3  UNL     1      -3.316  53.015 -11.700  1.00  0.00     0.010 C 
ENDBRANCH  25  27
ENDBRANCH  24  25
ENDBRANCH  21  23
BRANCH  21  30
HETATM   30  O1  UNL     1       0.931  52.915 -16.105  1.00  0.00    -0.386 OA
HETATM   31  H17 UNL     1       0.022  53.034 -16.451  1.00  0.00     0.211 HD
ENDBRANCH  21  30
ENDBRANCH   1  21
BRANCH  18  32
HETATM   32  O4  UNL     1       0.724  53.327 -18.517  1.00  0.00    -0.395 OA
HETATM   33  H43 UNL     1       1.203  53.855 -19.182  1.00  0.00     0.210 HD
ENDBRANCH  18  32
BRANCH   6  34
HETATM   34  O2  UNL     1      -0.411  47.848 -20.948  1.00  0.00    -0.395 OA
HETATM   35  H26 UNL     1      -0.615  46.965 -21.300  1.00  0.00     0.210 HD
ENDBRANCH   6  34
TORSDOF 7
ENDMDL
