MODEL 1
REMARK minimizedAffinity -9.92727089
REMARK  4 active torsions:
REMARK  status: ('A' for Active; 'I' for Inactive)
REMARK    1  A    between atoms: C2_2  and  C4_4 
REMARK    2  A    between atoms: C4_4  and  C5_5 
REMARK    3  A    between atoms: C5_5  and  O1_6 
REMARK    4  A    between atoms: C8_9  and  C9_10 
ROOT
HETATM    1  C9  UNL     1      -0.762  49.393 -18.200  1.00  0.00     0.001 C 
HETATM    2  C10 UNL     1      -1.987  48.439 -18.203  1.00  0.00     0.007 C 
HETATM    3  C11 UNL     1      -2.597  48.492 -19.617  1.00  0.00     0.011 C 
HETATM    4  C12 UNL     1      -1.526  49.170 -20.494  1.00  0.00    -0.032 C 
HETATM    5  C13 UNL     1      -0.523  48.046 -20.906  1.00  0.00     0.016 C 
HETATM    6  C14 UNL     1      -2.079  49.888 -21.754  1.00  0.00     0.004 C 
HETATM    7  C15 UNL     1      -2.592  48.939 -22.848  1.00  0.00     0.007 C 
HETATM    8  C16 UNL     1      -3.198  49.740 -23.999  1.00  0.00     0.007 C 
HETATM    9  C17 UNL     1      -2.098  50.501 -24.752  1.00  0.00     0.010 C 
HETATM   10  C18 UNL     1      -2.601  51.400 -25.931  1.00  0.00     0.018 C 
HETATM   11  C19 UNL     1      -3.808  52.281 -25.568  1.00  0.00     0.023 C 
HETATM   12  C20 UNL     1      -2.984  50.521 -27.136  1.00  0.00     0.023 C 
HETATM   13  C21 UNL     1      -1.448  52.310 -26.390  1.00  0.00     0.135 C 
HETATM   14  O2  UNL     1      -1.631  53.327 -27.062  1.00  0.00    -0.297 OA
HETATM   15  C22 UNL     1      -0.052  51.848 -26.060  1.00  0.00     0.080 C 
HETATM   16  C23 UNL     1       0.124  51.729 -24.551  1.00  0.00     0.018 C 
HETATM   17  C24 UNL     1      -1.149  51.281 -23.832  1.00  0.00    -0.026 A 
HETATM   18  C25 UNL     1      -1.703  52.227 -22.794  1.00  0.00     0.021 A 
HETATM   19  C26 UNL     1      -1.078  50.927 -22.320  1.00  0.00    -0.027 A 
HETATM   20  C27 UNL     1       0.285  51.033 -21.631  1.00  0.00     0.011 C 
HETATM   21  C28 UNL     1       0.329  50.833 -20.105  1.00  0.00     0.011 C 
HETATM   22  C29 UNL     1      -0.951  50.245 -19.496  1.00  0.00    -0.032 C 
HETATM   23  C30 UNL     1      -1.925  51.425 -19.215  1.00  0.00     0.016 C 
ENDROOT
BRANCH   1  24
HETATM   24  C8  UNL     1      -0.465  50.033 -16.817  1.00  0.00     0.014 C 
HETATM   25  C7  UNL     1       0.263  49.104 -15.845  1.00  0.00     0.010 C 
HETATM   26  C6  UNL     1       0.272  49.738 -14.457  1.00  0.00     0.041 C 
HETATM   27  C4  UNL     1       0.822  51.193 -14.467  1.00  0.00     0.085 C 
HETATM   28  O3  UNL     1       1.163  51.610 -15.806  1.00  0.00    -0.377 OA
HETATM   29  C31 UNL     1       0.158  51.436 -16.808  1.00  0.00     0.174 C 
BRANCH  27  30
HETATM   30  C2  UNL     1       2.147  51.264 -13.623  1.00  0.00     0.014 C 
HETATM   31  C1  UNL     1       3.426  51.444 -14.454  1.00  0.00     0.012 C 
HETATM   32  C3  UNL     1       2.344  50.014 -12.743  1.00  0.00     0.012 C 
ENDBRANCH  27  30
BRANCH  27  33
HETATM   33  C5  UNL     1      -0.272  52.145 -13.903  1.00  0.00     0.202 C 
BRANCH  33  34
HETATM   34  O1  UNL     1       0.286  53.231 -13.165  1.00  0.00    -0.398 OA
HETATM   35  H10 UNL     1       1.165  53.395 -13.557  1.00  0.00     0.209 HD
ENDBRANCH  33  34
ENDBRANCH  27  33
ENDBRANCH   1  24
TORSDOF 4
ENDMDL
MODEL 2
REMARK minimizedAffinity -9.77356052
REMARK  4 active torsions:
REMARK  status: ('A' for Active; 'I' for Inactive)
REMARK    1  A    between atoms: C2_2  and  C4_4 
REMARK    2  A    between atoms: C4_4  and  C5_5 
REMARK    3  A    between atoms: C5_5  and  O1_6 
REMARK    4  A    between atoms: C8_9  and  C9_10 
ROOT
HETATM    1  C9  UNL     1      -1.344  49.625 -18.015  1.00  0.00     0.001 C 
HETATM    2  C10 UNL     1      -2.454  48.559 -18.216  1.00  0.00     0.007 C 
HETATM    3  C11 UNL     1      -2.814  48.557 -19.714  1.00  0.00     0.011 C 
HETATM    4  C12 UNL     1      -1.676  49.337 -20.403  1.00  0.00    -0.032 C 
HETATM    5  C13 UNL     1      -0.515  48.314 -20.620  1.00  0.00     0.016 C 
HETATM    6  C14 UNL     1      -2.068  50.003 -21.748  1.00  0.00     0.004 C 
HETATM    7  C15 UNL     1      -2.292  49.013 -22.901  1.00  0.00     0.007 C 
HETATM    8  C16 UNL     1      -2.763  49.756 -24.151  1.00  0.00     0.007 C 
HETATM    9  C17 UNL     1      -1.626  50.621 -24.713  1.00  0.00     0.010 C 
HETATM   10  C18 UNL     1      -2.000  51.471 -25.972  1.00  0.00     0.018 C 
HETATM   11  C19 UNL     1      -3.329  52.233 -25.835  1.00  0.00     0.023 C 
HETATM   12  C20 UNL     1      -2.084  50.564 -27.214  1.00  0.00     0.023 C 
HETATM   13  C21 UNL     1      -0.876  52.488 -26.239  1.00  0.00     0.135 C 
HETATM   14  O2  UNL     1      -1.034  53.485 -26.945  1.00  0.00    -0.297 OA
HETATM   15  C22 UNL     1       0.480  52.160 -25.667  1.00  0.00     0.080 C 
HETATM   16  C23 UNL     1       0.402  52.053 -24.149  1.00  0.00     0.018 C 
HETATM   17  C24 UNL     1      -0.927  51.485 -23.654  1.00  0.00    -0.026 A 
HETATM   18  C25 UNL     1      -1.739  52.370 -22.739  1.00  0.00     0.021 A 
HETATM   19  C26 UNL     1      -1.086  51.134 -22.148  1.00  0.00    -0.027 A 
HETATM   20  C27 UNL     1       0.121  51.367 -21.235  1.00  0.00     0.011 C 
HETATM   21  C28 UNL     1      -0.081  51.167 -19.722  1.00  0.00     0.011 C 
HETATM   22  C29 UNL     1      -1.386  50.458 -19.335  1.00  0.00    -0.032 C 
HETATM   23  C30 UNL     1      -2.499  51.540 -19.242  1.00  0.00     0.016 C 
ENDROOT
BRANCH   1  24
HETATM   24  C8  UNL     1      -1.352  50.286 -16.610  1.00  0.00     0.014 C 
HETATM   25  C7  UNL     1      -2.703  50.217 -15.898  1.00  0.00     0.010 C 
HETATM   26  C6  UNL     1      -2.663  51.107 -14.659  1.00  0.00     0.041 C 
HETATM   27  C4  UNL     1      -1.450  50.797 -13.737  1.00  0.00     0.085 C 
HETATM   28  O3  UNL     1      -0.626  49.752 -14.297  1.00  0.00    -0.377 OA
HETATM   29  C31 UNL     1      -0.207  49.923 -15.653  1.00  0.00     0.174 C 
BRANCH  27  30
HETATM   30  C2  UNL     1      -1.964  50.267 -12.347  1.00  0.00     0.014 C 
HETATM   31  C1  UNL     1      -1.338  48.938 -11.899  1.00  0.00     0.012 C 
HETATM   32  C3  UNL     1      -3.493  50.085 -12.324  1.00  0.00     0.012 C 
ENDBRANCH  27  30
BRANCH  27  33
HETATM   33  C5  UNL     1      -0.595  52.087 -13.581  1.00  0.00     0.202 C 
BRANCH  33  34
HETATM   34  O1  UNL     1      -0.976  52.852 -12.439  1.00  0.00    -0.398 OA
HETATM   35  H10 UNL     1      -1.324  52.210 -11.792  1.00  0.00     0.209 HD
ENDBRANCH  33  34
ENDBRANCH  27  33
ENDBRANCH   1  24
TORSDOF 4
ENDMDL
MODEL 3
REMARK minimizedAffinity -9.65133476
REMARK  4 active torsions:
REMARK  status: ('A' for Active; 'I' for Inactive)
REMARK    1  A    between atoms: C2_2  and  C4_4 
REMARK    2  A    between atoms: C4_4  and  C5_5 
REMARK    3  A    between atoms: C5_5  and  O1_6 
REMARK    4  A    between atoms: C8_9  and  C9_10 
ROOT
HETATM    1  C9  UNL     1      -2.917  52.127 -23.395  1.00  0.00     0.001 C 
HETATM    2  C10 UNL     1      -4.382  52.304 -23.877  1.00  0.00     0.007 C 
HETATM    3  C11 UNL     1      -5.203  51.158 -23.256  1.00  0.00     0.011 C 
HETATM    4  C12 UNL     1      -4.302  50.566 -22.154  1.00  0.00    -0.032 C 
HETATM    5  C13 UNL     1      -4.501  51.470 -20.895  1.00  0.00     0.016 C 
HETATM    6  C14 UNL     1      -4.593  49.083 -21.805  1.00  0.00     0.004 C 
HETATM    7  C15 UNL     1      -5.915  48.858 -21.056  1.00  0.00     0.007 C 
HETATM    8  C16 UNL     1      -6.153  47.363 -20.843  1.00  0.00     0.007 C 
HETATM    9  C17 UNL     1      -5.137  46.803 -19.837  1.00  0.00     0.010 C 
HETATM   10  C18 UNL     1      -5.249  45.265 -19.570  1.00  0.00     0.018 C 
HETATM   11  C19 UNL     1      -5.365  44.419 -20.848  1.00  0.00     0.023 C 
HETATM   12  C20 UNL     1      -6.471  44.973 -18.679  1.00  0.00     0.023 C 
HETATM   13  C21 UNL     1      -4.006  44.804 -18.787  1.00  0.00     0.135 C 
HETATM   14  O2  UNL     1      -3.663  43.623 -18.719  1.00  0.00    -0.297 OA
HETATM   15  C22 UNL     1      -3.265  45.865 -18.013  1.00  0.00     0.080 C 
HETATM   16  C23 UNL     1      -2.753  46.947 -18.956  1.00  0.00     0.018 C 
HETATM   17  C24 UNL     1      -3.687  47.205 -20.138  1.00  0.00    -0.026 A 
HETATM   18  C25 UNL     1      -3.106  46.985 -21.514  1.00  0.00     0.021 A 
HETATM   19  C26 UNL     1      -3.401  48.409 -21.078  1.00  0.00    -0.027 A 
HETATM   20  C27 UNL     1      -2.191  49.290 -20.753  1.00  0.00     0.011 C 
HETATM   21  C28 UNL     1      -1.817  50.387 -21.767  1.00  0.00     0.011 C 
HETATM   22  C29 UNL     1      -2.884  50.671 -22.833  1.00  0.00    -0.032 C 
HETATM   23  C30 UNL     1      -2.669  49.660 -23.995  1.00  0.00     0.016 C 
ENDROOT
BRANCH   1  24
HETATM   24  C8  UNL     1      -1.856  52.659 -24.397  1.00  0.00     0.014 C 
HETATM   25  C7  UNL     1      -0.412  52.360 -23.992  1.00  0.00     0.010 C 
HETATM   26  C6  UNL     1       0.535  53.139 -24.899  1.00  0.00     0.041 C 
HETATM   27  C4  UNL     1       0.245  52.906 -26.409  1.00  0.00     0.085 C 
HETATM   28  O3  UNL     1      -0.885  52.026 -26.592  1.00  0.00    -0.377 OA
HETATM   29  C31 UNL     1      -2.082  52.364 -25.887  1.00  0.00     0.174 C 
BRANCH  27  30
HETATM   30  C2  UNL     1       1.478  52.199 -27.083  1.00  0.00     0.014 C 
HETATM   31  C1  UNL     1       1.161  51.479 -28.402  1.00  0.00     0.012 C 
HETATM   32  C3  UNL     1       2.141  51.170 -26.147  1.00  0.00     0.012 C 
ENDBRANCH  27  30
BRANCH  27  33
HETATM   33  C5  UNL     1      -0.068  54.276 -27.077  1.00  0.00     0.202 C 
BRANCH  33  34
HETATM   34  O1  UNL     1       0.215  55.375 -26.213  1.00  0.00    -0.398 OA
HETATM   35  H10 UNL     1       0.939  55.075 -25.631  1.00  0.00     0.209 HD
ENDBRANCH  33  34
ENDBRANCH  27  33
ENDBRANCH   1  24
TORSDOF 4
ENDMDL
MODEL 4
REMARK minimizedAffinity -9.55148983
REMARK  4 active torsions:
REMARK  status: ('A' for Active; 'I' for Inactive)
REMARK    1  A    between atoms: C2_2  and  C4_4 
REMARK    2  A    between atoms: C4_4  and  C5_5 
REMARK    3  A    between atoms: C5_5  and  O1_6 
REMARK    4  A    between atoms: C8_9  and  C9_10 
ROOT
HETATM    1  C9  UNL     1      -1.854  50.945 -22.944  1.00  0.00     0.001 C 
HETATM    2  C10 UNL     1      -2.690  52.243 -22.777  1.00  0.00     0.007 C 
HETATM    3  C11 UNL     1      -4.072  51.824 -22.242  1.00  0.00     0.011 C 
HETATM    4  C12 UNL     1      -3.898  50.368 -21.766  1.00  0.00    -0.032 C 
HETATM    5  C13 UNL     1      -3.300  50.448 -20.326  1.00  0.00     0.016 C 
HETATM    6  C14 UNL     1      -5.201  49.526 -21.765  1.00  0.00     0.004 C 
HETATM    7  C15 UNL     1      -6.207  49.921 -20.673  1.00  0.00     0.007 C 
HETATM    8  C16 UNL     1      -7.488  49.101 -20.814  1.00  0.00     0.007 C 
HETATM    9  C17 UNL     1      -7.218  47.631 -20.457  1.00  0.00     0.010 C 
HETATM   10  C18 UNL     1      -8.449  46.676 -20.608  1.00  0.00     0.018 C 
HETATM   11  C19 UNL     1      -9.209  46.848 -21.934  1.00  0.00     0.023 C 
HETATM   12  C20 UNL     1      -9.436  46.900 -19.447  1.00  0.00     0.023 C 
HETATM   13  C21 UNL     1      -7.963  45.219 -20.505  1.00  0.00     0.135 C 
HETATM   14  O2  UNL     1      -8.634  44.265 -20.903  1.00  0.00    -0.297 OA
HETATM   15  C22 UNL     1      -6.650  44.994 -19.799  1.00  0.00     0.080 C 
HETATM   16  C23 UNL     1      -5.528  45.729 -20.522  1.00  0.00     0.018 C 
HETATM   17  C24 UNL     1      -5.980  47.047 -21.149  1.00  0.00    -0.026 A 
HETATM   18  C25 UNL     1      -5.815  47.172 -22.645  1.00  0.00     0.021 A 
HETATM   19  C26 UNL     1      -4.912  48.003 -21.752  1.00  0.00    -0.027 A 
HETATM   20  C27 UNL     1      -3.445  47.570 -21.667  1.00  0.00     0.011 C 
HETATM   21  C28 UNL     1      -2.404  48.437 -22.397  1.00  0.00     0.011 C 
HETATM   22  C29 UNL     1      -2.919  49.805 -22.866  1.00  0.00    -0.032 C 
HETATM   23  C30 UNL     1      -3.585  49.606 -24.257  1.00  0.00     0.016 C 
ENDROOT
BRANCH   1  24
HETATM   24  C8  UNL     1      -0.794  51.020 -24.076  1.00  0.00     0.014 C 
HETATM   25  C7  UNL     1      -1.375  50.874 -25.483  1.00  0.00     0.010 C 
HETATM   26  C6  UNL     1      -0.233  50.707 -26.482  1.00  0.00     0.041 C 
HETATM   27  C4  UNL     1       0.839  51.826 -26.358  1.00  0.00     0.085 C 
HETATM   28  O3  UNL     1       0.511  52.745 -25.294  1.00  0.00    -0.377 OA
HETATM   29  C31 UNL     1       0.221  52.170 -24.017  1.00  0.00     0.174 C 
BRANCH  27  30
HETATM   30  C2  UNL     1       0.879  52.671 -27.684  1.00  0.00     0.014 C 
HETATM   31  C1  UNL     1      -0.021  53.916 -27.676  1.00  0.00     0.012 C 
HETATM   32  C3  UNL     1       0.493  51.834 -28.918  1.00  0.00     0.012 C 
ENDBRANCH  27  30
BRANCH  27  33
HETATM   33  C5  UNL     1       2.217  51.170 -26.053  1.00  0.00     0.202 C 
BRANCH  33  34
HETATM   34  O1  UNL     1       3.184  51.450 -27.062  1.00  0.00    -0.398 OA
HETATM   35  H10 UNL     1       2.935  52.317 -27.435  1.00  0.00     0.209 HD
ENDBRANCH  33  34
ENDBRANCH  27  33
ENDBRANCH   1  24
TORSDOF 4
ENDMDL
MODEL 5
REMARK minimizedAffinity -9.52832985
REMARK  4 active torsions:
REMARK  status: ('A' for Active; 'I' for Inactive)
REMARK    1  A    between atoms: C2_2  and  C4_4 
REMARK    2  A    between atoms: C4_4  and  C5_5 
REMARK    3  A    between atoms: C5_5  and  O1_6 
REMARK    4  A    between atoms: C8_9  and  C9_10 
ROOT
HETATM    1  C9  UNL     1      -1.480  51.187 -22.686  1.00  0.00     0.001 C 
HETATM    2  C10 UNL     1      -2.740  52.074 -22.874  1.00  0.00     0.007 C 
HETATM    3  C11 UNL     1      -3.876  51.421 -22.065  1.00  0.00     0.011 C 
HETATM    4  C12 UNL     1      -3.181  50.399 -21.143  1.00  0.00    -0.032 C 
HETATM    5  C13 UNL     1      -2.678  51.202 -19.902  1.00  0.00     0.016 C 
HETATM    6  C14 UNL     1      -4.077  49.215 -20.695  1.00  0.00     0.004 C 
HETATM    7  C15 UNL     1      -5.175  49.599 -19.692  1.00  0.00     0.007 C 
HETATM    8  C16 UNL     1      -6.057  48.389 -19.386  1.00  0.00     0.007 C 
HETATM    9  C17 UNL     1      -5.266  47.346 -18.583  1.00  0.00     0.010 C 
HETATM   10  C18 UNL     1      -6.051  46.034 -18.246  1.00  0.00     0.018 C 
HETATM   11  C19 UNL     1      -6.799  45.433 -19.448  1.00  0.00     0.023 C 
HETATM   12  C20 UNL     1      -7.069  46.303 -17.122  1.00  0.00     0.023 C 
HETATM   13  C21 UNL     1      -5.061  44.985 -17.710  1.00  0.00     0.135 C 
HETATM   14  O2  UNL     1      -5.322  43.782 -17.672  1.00  0.00    -0.297 OA
HETATM   15  C22 UNL     1      -3.769  45.510 -17.134  1.00  0.00     0.080 C 
HETATM   16  C23 UNL     1      -2.989  46.275 -18.195  1.00  0.00     0.018 C 
HETATM   17  C24 UNL     1      -3.888  47.026 -19.177  1.00  0.00    -0.026 A 
HETATM   18  C25 UNL     1      -3.758  46.648 -20.633  1.00  0.00     0.021 A 
HETATM   19  C26 UNL     1      -3.243  48.007 -20.196  1.00  0.00    -0.027 A 
HETATM   20  C27 UNL     1      -1.722  48.180 -20.147  1.00  0.00     0.011 C 
HETATM   21  C28 UNL     1      -1.066  49.029 -21.250  1.00  0.00     0.011 C 
HETATM   22  C29 UNL     1      -2.045  49.858 -22.093  1.00  0.00    -0.032 C 
HETATM   23  C30 UNL     1      -2.567  48.947 -23.240  1.00  0.00     0.016 C 
ENDROOT
BRANCH   1  24
HETATM   24  C8  UNL     1      -0.505  51.213 -23.895  1.00  0.00     0.014 C 
HETATM   25  C7  UNL     1      -1.180  50.964 -25.244  1.00  0.00     0.010 C 
HETATM   26  C6  UNL     1      -0.109  50.760 -26.311  1.00  0.00     0.041 C 
HETATM   27  C4  UNL     1       0.939  51.909 -26.336  1.00  0.00     0.085 C 
HETATM   28  O3  UNL     1       0.663  52.886 -25.310  1.00  0.00    -0.377 OA
HETATM   29  C31 UNL     1       0.480  52.388 -23.982  1.00  0.00     0.174 C 
BRANCH  27  30
HETATM   30  C2  UNL     1       0.860  52.667 -27.711  1.00  0.00     0.014 C 
HETATM   31  C1  UNL     1      -0.046  53.907 -27.707  1.00  0.00     0.012 C 
HETATM   32  C3  UNL     1       0.381  51.752 -28.854  1.00  0.00     0.012 C 
ENDBRANCH  27  30
BRANCH  27  33
HETATM   33  C5  UNL     1       2.351  51.304 -26.092  1.00  0.00     0.202 C 
BRANCH  33  34
HETATM   34  O1  UNL     1       3.213  51.475 -27.215  1.00  0.00    -0.398 OA
HETATM   35  H10 UNL     1       2.913  52.291 -27.658  1.00  0.00     0.209 HD
ENDBRANCH  33  34
ENDBRANCH  27  33
ENDBRANCH   1  24
TORSDOF 4
ENDMDL
MODEL 6
REMARK minimizedAffinity -9.49690819
REMARK  4 active torsions:
REMARK  status: ('A' for Active; 'I' for Inactive)
REMARK    1  A    between atoms: C2_2  and  C4_4 
REMARK    2  A    between atoms: C4_4  and  C5_5 
REMARK    3  A    between atoms: C5_5  and  O1_6 
REMARK    4  A    between atoms: C8_9  and  C9_10 
ROOT
HETATM    1  C9  UNL     1      -2.043  49.886 -23.003  1.00  0.00     0.001 C 
HETATM    2  C10 UNL     1      -1.232  49.958 -21.682  1.00  0.00     0.007 C 
HETATM    3  C11 UNL     1      -2.199  49.601 -20.537  1.00  0.00     0.011 C 
HETATM    4  C12 UNL     1      -3.430  48.981 -21.228  1.00  0.00    -0.032 C 
HETATM    5  C13 UNL     1      -3.079  47.479 -21.478  1.00  0.00     0.016 C 
HETATM    6  C14 UNL     1      -4.753  49.100 -20.425  1.00  0.00     0.004 C 
HETATM    7  C15 UNL     1      -4.815  48.209 -19.175  1.00  0.00     0.007 C 
HETATM    8  C16 UNL     1      -6.111  48.468 -18.407  1.00  0.00     0.007 C 
HETATM    9  C17 UNL     1      -7.314  47.949 -19.208  1.00  0.00     0.010 C 
HETATM   10  C18 UNL     1      -8.709  48.199 -18.544  1.00  0.00     0.018 C 
HETATM   11  C19 UNL     1      -8.902  49.633 -18.023  1.00  0.00     0.023 C 
HETATM   12  C20 UNL     1      -8.917  47.222 -17.372  1.00  0.00     0.023 C 
HETATM   13  C21 UNL     1      -9.812  47.898 -19.575  1.00  0.00     0.135 C 
HETATM   14  O2  UNL     1     -10.968  48.307 -19.452  1.00  0.00    -0.297 OA
HETATM   15  C22 UNL     1      -9.438  46.987 -20.717  1.00  0.00     0.080 C 
HETATM   16  C23 UNL     1      -8.301  47.595 -21.528  1.00  0.00     0.018 C 
HETATM   17  C24 UNL     1      -7.316  48.395 -20.676  1.00  0.00    -0.026 A 
HETATM   18  C25 UNL     1      -7.153  49.855 -21.027  1.00  0.00     0.021 A 
HETATM   19  C26 UNL     1      -6.001  48.912 -21.324  1.00  0.00    -0.027 A 
HETATM   20  C27 UNL     1      -5.757  48.573 -22.798  1.00  0.00     0.011 C 
HETATM   21  C28 UNL     1      -4.534  49.211 -23.483  1.00  0.00     0.011 C 
HETATM   22  C29 UNL     1      -3.530  49.868 -22.526  1.00  0.00    -0.032 C 
HETATM   23  C30 UNL     1      -4.017  51.321 -22.257  1.00  0.00     0.016 C 
ENDROOT
BRANCH   1  24
HETATM   24  C8  UNL     1      -1.534  50.849 -24.109  1.00  0.00     0.014 C 
HETATM   25  C7  UNL     1      -0.192  51.509 -23.790  1.00  0.00     0.010 C 
HETATM   26  C6  UNL     1       0.081  52.610 -24.810  1.00  0.00     0.041 C 
HETATM   27  C4  UNL     1      -0.040  52.111 -26.278  1.00  0.00     0.085 C 
HETATM   28  O3  UNL     1      -0.419  50.719 -26.324  1.00  0.00    -0.377 OA
HETATM   29  C31 UNL     1      -1.566  50.341 -25.558  1.00  0.00     0.174 C 
BRANCH  27  30
HETATM   30  C2  UNL     1       1.357  52.220 -26.992  1.00  0.00     0.014 C 
HETATM   31  C1  UNL     1       1.346  51.843 -28.481  1.00  0.00     0.012 C 
HETATM   32  C3  UNL     1       2.429  51.350 -26.307  1.00  0.00     0.012 C 
ENDBRANCH  27  30
BRANCH  27  33
HETATM   33  C5  UNL     1      -1.126  52.955 -27.006  1.00  0.00     0.202 C 
BRANCH  33  34
HETATM   34  O1  UNL     1      -0.684  54.283 -27.280  1.00  0.00    -0.398 OA
HETATM   35  H10 UNL     1       0.285  54.224 -27.383  1.00  0.00     0.209 HD
ENDBRANCH  33  34
ENDBRANCH  27  33
ENDBRANCH   1  24
TORSDOF 4
ENDMDL
MODEL 7
REMARK minimizedAffinity -9.4279871
REMARK  4 active torsions:
REMARK  status: ('A' for Active; 'I' for Inactive)
REMARK    1  A    between atoms: C2_2  and  C4_4 
REMARK    2  A    between atoms: C4_4  and  C5_5 
REMARK    3  A    between atoms: C5_5  and  O1_6 
REMARK    4  A    between atoms: C8_9  and  C9_10 
ROOT
HETATM    1  C9  UNL     1      -1.134  50.504 -22.927  1.00  0.00     0.001 C 
HETATM    2  C10 UNL     1      -0.714  50.652 -21.440  1.00  0.00     0.007 C 
HETATM    3  C11 UNL     1      -1.823  50.002 -20.591  1.00  0.00     0.011 C 
HETATM    4  C12 UNL     1      -2.665  49.178 -21.587  1.00  0.00    -0.032 C 
HETATM    5  C13 UNL     1      -1.921  47.817 -21.765  1.00  0.00     0.016 C 
HETATM    6  C14 UNL     1      -4.134  48.939 -21.151  1.00  0.00     0.004 C 
HETATM    7  C15 UNL     1      -4.293  47.962 -19.975  1.00  0.00     0.007 C 
HETATM    8  C16 UNL     1      -5.761  47.866 -19.563  1.00  0.00     0.007 C 
HETATM    9  C17 UNL     1      -6.573  47.157 -20.657  1.00  0.00     0.010 C 
HETATM   10  C18 UNL     1      -8.107  47.038 -20.371  1.00  0.00     0.018 C 
HETATM   11  C19 UNL     1      -8.753  48.349 -19.892  1.00  0.00     0.023 C 
HETATM   12  C20 UNL     1      -8.363  45.952 -19.310  1.00  0.00     0.023 C 
HETATM   13  C21 UNL     1      -8.819  46.582 -21.657  1.00  0.00     0.135 C 
HETATM   14  O2  UNL     1     -10.032  46.713 -21.829  1.00  0.00    -0.297 OA
HETATM   15  C22 UNL     1      -7.972  45.868 -22.680  1.00  0.00     0.080 C 
HETATM   16  C23 UNL     1      -6.845  46.774 -23.159  1.00  0.00     0.018 C 
HETATM   17  C24 UNL     1      -6.317  47.704 -22.067  1.00  0.00    -0.026 A 
HETATM   18  C25 UNL     1      -6.419  49.186 -22.338  1.00  0.00     0.021 A 
HETATM   19  C26 UNL     1      -5.042  48.549 -22.345  1.00  0.00    -0.027 A 
HETATM   20  C27 UNL     1      -4.369  48.387 -23.711  1.00  0.00     0.011 C 
HETATM   21  C28 UNL     1      -3.200  49.332 -24.046  1.00  0.00     0.011 C 
HETATM   22  C29 UNL     1      -2.646  50.120 -22.850  1.00  0.00    -0.032 C 
HETATM   23  C30 UNL     1      -3.510  51.403 -22.690  1.00  0.00     0.016 C 
ENDROOT
BRANCH   1  24
HETATM   24  C8  UNL     1      -0.608  51.639 -23.847  1.00  0.00     0.014 C 
HETATM   25  C7  UNL     1       0.256  51.149 -25.009  1.00  0.00     0.010 C 
HETATM   26  C6  UNL     1       0.918  52.347 -25.683  1.00  0.00     0.041 C 
HETATM   27  C4  UNL     1      -0.103  53.450 -26.080  1.00  0.00     0.085 C 
HETATM   28  O3  UNL     1      -1.442  53.087 -25.682  1.00  0.00    -0.377 OA
HETATM   29  C31 UNL     1      -1.622  52.691 -24.320  1.00  0.00     0.174 C 
BRANCH  27  30
HETATM   30  C2  UNL     1      -0.128  53.610 -27.645  1.00  0.00     0.014 C 
HETATM   31  C1  UNL     1      -1.530  53.783 -28.248  1.00  0.00     0.012 C 
HETATM   32  C3  UNL     1       0.536  52.419 -28.361  1.00  0.00     0.012 C 
ENDBRANCH  27  30
BRANCH  27  33
HETATM   33  C5  UNL     1       0.292  54.778 -25.373  1.00  0.00     0.202 C 
BRANCH  33  34
HETATM   34  O1  UNL     1       0.320  55.883 -26.274  1.00  0.00    -0.398 OA
HETATM   35  H10 UNL     1      -0.333  55.676 -26.968  1.00  0.00     0.209 HD
ENDBRANCH  33  34
ENDBRANCH  27  33
ENDBRANCH   1  24
TORSDOF 4
ENDMDL
MODEL 8
REMARK minimizedAffinity -9.20273018
REMARK  4 active torsions:
REMARK  status: ('A' for Active; 'I' for Inactive)
REMARK    1  A    between atoms: C2_2  and  C4_4 
REMARK    2  A    between atoms: C4_4  and  C5_5 
REMARK    3  A    between atoms: C5_5  and  O1_6 
REMARK    4  A    between atoms: C8_9  and  C9_10 
ROOT
HETATM    1  C9  UNL     1      -1.279  51.617 -22.194  1.00  0.00     0.001 C 
HETATM    2  C10 UNL     1      -2.655  50.917 -22.353  1.00  0.00     0.007 C 
HETATM    3  C11 UNL     1      -3.053  50.382 -20.964  1.00  0.00     0.011 C 
HETATM    4  C12 UNL     1      -2.105  51.086 -19.973  1.00  0.00    -0.032 C 
HETATM    5  C13 UNL     1      -2.737  52.484 -19.682  1.00  0.00     0.016 C 
HETATM    6  C14 UNL     1      -1.862  50.316 -18.649  1.00  0.00     0.004 C 
HETATM    7  C15 UNL     1      -3.073  50.288 -17.704  1.00  0.00     0.007 C 
HETATM    8  C16 UNL     1      -2.765  49.431 -16.477  1.00  0.00     0.007 C 
HETATM    9  C17 UNL     1      -1.713  50.123 -15.598  1.00  0.00     0.010 C 
HETATM   10  C18 UNL     1      -1.278  49.318 -14.328  1.00  0.00     0.018 C 
HETATM   11  C19 UNL     1      -0.955  47.841 -14.610  1.00  0.00     0.023 C 
HETATM   12  C20 UNL     1      -2.385  49.381 -13.259  1.00  0.00     0.023 C 
HETATM   13  C21 UNL     1      -0.031  49.985 -13.719  1.00  0.00     0.135 C 
HETATM   14  O2  UNL     1       0.713  49.406 -12.927  1.00  0.00    -0.297 OA
HETATM   15  C22 UNL     1       0.193  51.436 -14.064  1.00  0.00     0.080 C 
HETATM   16  C23 UNL     1       0.359  51.602 -15.569  1.00  0.00     0.018 C 
HETATM   17  C24 UNL     1      -0.490  50.622 -16.379  1.00  0.00    -0.026 A 
HETATM   18  C25 UNL     1       0.256  49.689 -17.302  1.00  0.00     0.021 A 
HETATM   19  C26 UNL     1      -0.580  50.794 -17.921  1.00  0.00    -0.027 A 
HETATM   20  C27 UNL     1       0.187  51.962 -18.549  1.00  0.00     0.011 C 
HETATM   21  C28 UNL     1       0.225  52.044 -20.086  1.00  0.00     0.011 C 
HETATM   22  C29 UNL     1      -0.767  51.120 -20.806  1.00  0.00    -0.032 C 
HETATM   23  C30 UNL     1      -0.088  49.729 -20.960  1.00  0.00     0.016 C 
ENDROOT
BRANCH   1  24
HETATM   24  C8  UNL     1      -0.399  51.574 -23.473  1.00  0.00     0.014 C 
HETATM   25  C7  UNL     1      -1.172  51.240 -24.750  1.00  0.00     0.010 C 
HETATM   26  C6  UNL     1      -0.182  50.976 -25.880  1.00  0.00     0.041 C 
HETATM   27  C4  UNL     1       0.851  52.125 -26.053  1.00  0.00     0.085 C 
HETATM   28  O3  UNL     1       0.645  53.161 -25.070  1.00  0.00    -0.377 OA
HETATM   29  C31 UNL     1       0.567  52.745 -23.705  1.00  0.00     0.174 C 
BRANCH  27  30
HETATM   30  C2  UNL     1       0.663  52.798 -27.462  1.00  0.00     0.014 C 
HETATM   31  C1  UNL     1      -0.216  54.058 -27.457  1.00  0.00     0.012 C 
HETATM   32  C3  UNL     1       0.065  51.826 -28.496  1.00  0.00     0.012 C 
ENDBRANCH  27  30
BRANCH  27  33
HETATM   33  C5  UNL     1       2.283  51.542 -25.881  1.00  0.00     0.202 C 
BRANCH  33  34
HETATM   34  O1  UNL     1       3.155  51.929 -26.940  1.00  0.00    -0.398 OA
HETATM   35  H10 UNL     1       2.829  52.796 -27.249  1.00  0.00     0.209 HD
ENDBRANCH  33  34
ENDBRANCH  27  33
ENDBRANCH   1  24
TORSDOF 4
ENDMDL
MODEL 9
REMARK minimizedAffinity -9.12090397
REMARK  4 active torsions:
REMARK  status: ('A' for Active; 'I' for Inactive)
REMARK    1  A    between atoms: C2_2  and  C4_4 
REMARK    2  A    between atoms: C4_4  and  C5_5 
REMARK    3  A    between atoms: C5_5  and  O1_6 
REMARK    4  A    between atoms: C8_9  and  C9_10 
ROOT
HETATM    1  C9  UNL     1      -3.543  50.661 -24.938  1.00  0.00     0.001 C 
HETATM    2  C10 UNL     1      -3.851  49.529 -25.954  1.00  0.00     0.007 C 
HETATM    3  C11 UNL     1      -4.491  48.373 -25.163  1.00  0.00     0.011 C 
HETATM    4  C12 UNL     1      -4.876  48.981 -23.799  1.00  0.00    -0.032 C 
HETATM    5  C13 UNL     1      -6.257  49.680 -24.007  1.00  0.00     0.016 C 
HETATM    6  C14 UNL     1      -4.957  47.960 -22.634  1.00  0.00     0.004 C 
HETATM    7  C15 UNL     1      -6.156  47.002 -22.716  1.00  0.00     0.007 C 
HETATM    8  C16 UNL     1      -6.094  45.981 -21.580  1.00  0.00     0.007 C 
HETATM    9  C17 UNL     1      -6.351  46.672 -20.233  1.00  0.00     0.010 C 
HETATM   10  C18 UNL     1      -6.268  45.735 -18.982  1.00  0.00     0.018 C 
HETATM   11  C19 UNL     1      -5.029  44.825 -18.969  1.00  0.00     0.023 C 
HETATM   12  C20 UNL     1      -7.525  44.849 -18.903  1.00  0.00     0.023 C 
HETATM   13  C21 UNL     1      -6.254  46.602 -17.710  1.00  0.00     0.135 C 
HETATM   14  O2  UNL     1      -5.874  46.176 -16.619  1.00  0.00    -0.297 OA
HETATM   15  C22 UNL     1      -6.823  47.993 -17.836  1.00  0.00     0.080 C 
HETATM   16  C23 UNL     1      -6.036  48.796 -18.865  1.00  0.00     0.018 C 
HETATM   17  C24 UNL     1      -5.519  47.944 -20.024  1.00  0.00    -0.026 A 
HETATM   18  C25 UNL     1      -4.023  47.914 -20.222  1.00  0.00     0.021 A 
HETATM   19  C26 UNL     1      -4.868  48.647 -21.248  1.00  0.00    -0.027 A 
HETATM   20  C27 UNL     1      -4.795  50.177 -21.229  1.00  0.00     0.011 C 
HETATM   21  C28 UNL     1      -4.015  50.866 -22.363  1.00  0.00     0.011 C 
HETATM   22  C29 UNL     1      -3.664  49.956 -23.549  1.00  0.00    -0.032 C 
HETATM   23  C30 UNL     1      -2.333  49.230 -23.207  1.00  0.00     0.016 C 
ENDROOT
BRANCH   1  24
HETATM   24  C8  UNL     1      -2.323  51.540 -25.324  1.00  0.00     0.014 C 
HETATM   25  C7  UNL     1      -1.002  51.074 -24.712  1.00  0.00     0.010 C 
HETATM   26  C6  UNL     1       0.064  52.140 -24.946  1.00  0.00     0.041 C 
HETATM   27  C4  UNL     1       0.176  52.558 -26.440  1.00  0.00     0.085 C 
HETATM   28  O3  UNL     1      -0.789  51.853 -27.250  1.00  0.00    -0.377 OA
HETATM   29  C31 UNL     1      -2.148  51.891 -26.808  1.00  0.00     0.174 C 
BRANCH  27  30
HETATM   30  C2  UNL     1       1.596  52.170 -26.993  1.00  0.00     0.014 C 
HETATM   31  C1  UNL     1       1.600  51.654 -28.440  1.00  0.00     0.012 C 
HETATM   32  C3  UNL     1       2.287  51.102 -26.124  1.00  0.00     0.012 C 
ENDBRANCH  27  30
BRANCH  27  33
HETATM   33  C5  UNL     1      -0.089  54.087 -26.554  1.00  0.00     0.202 C 
BRANCH  33  34
HETATM   34  O1  UNL     1       0.245  54.784 -25.356  1.00  0.00    -0.398 OA
HETATM   35  H10 UNL     1       0.961  54.268 -24.939  1.00  0.00     0.209 HD
ENDBRANCH  33  34
ENDBRANCH  27  33
ENDBRANCH   1  24
TORSDOF 4
ENDMDL
