MODEL 1
REMARK minimizedAffinity -10.2667255
REMARK  7 active torsions:
REMARK  status: ('A' for Active; 'I' for Inactive)
REMARK    1  A    between atoms: C2_2  and  C4_4 
REMARK    2  A    between atoms: C4_4  and  C6_6 
REMARK    3  A    between atoms: C7_7  and  C8_8 
REMARK    4  A    between atoms: C8_8  and  O1_10 
REMARK    5  A    between atoms: C8_8  and  C10_11 
REMARK    6  A    between atoms: C15_16  and  O2_17 
REMARK    7  A    between atoms: C26_29  and  O4_30 
ROOT
HETATM    1  C10 UNL     1      -1.938   5.071  11.829  1.00  0.00     0.034 C 
HETATM    2  C11 UNL     1      -2.389   3.581  11.709  1.00  0.00     0.009 C 
HETATM    3  C12 UNL     1      -3.746   3.470  12.416  1.00  0.00     0.006 C 
HETATM    4  C13 UNL     1      -4.117   4.913  12.738  1.00  0.00     0.003 C 
HETATM    5  C14 UNL     1      -5.212   5.157  13.790  1.00  0.00     0.024 C 
HETATM    6  C15 UNL     1      -6.512   4.394  13.471  1.00  0.00     0.123 C 
HETATM    7  C16 UNL     1      -7.641   4.743  14.440  1.00  0.00     0.038 C 
HETATM    8  C17 UNL     1      -7.879   6.258  14.557  1.00  0.00     0.003 C 
HETATM    9  C18 UNL     1      -9.039   6.529  15.528  1.00  0.00     0.083 C 
HETATM   10  C19 UNL     1      -9.138   7.995  15.884  1.00  0.00     0.127 C 
HETATM   11  O3  UNL     1      -9.862   8.382  16.800  1.00  0.00    -0.298 OA
HETATM   12  C20 UNL     1      -8.380   8.966  15.016  1.00  0.00     0.079 C 
HETATM   13  C21 UNL     1      -6.909   8.583  14.850  1.00  0.00     0.017 C 
HETATM   14  C22 UNL     1      -6.589   7.055  14.930  1.00  0.00    -0.035 C 
HETATM   15  C23 UNL     1      -6.140   6.733  16.381  1.00  0.00     0.016 C 
HETATM   16  C24 UNL     1      -5.452   6.695  13.900  1.00  0.00     0.003 C 
HETATM   17  C25 UNL     1      -4.124   7.458  14.135  1.00  0.00     0.038 C 
HETATM   18  C26 UNL     1      -3.017   7.107  13.120  1.00  0.00     0.127 C 
HETATM   19  C27 UNL     1      -2.753   5.587  13.064  1.00  0.00    -0.007 C 
HETATM   20  C28 UNL     1      -2.152   5.093  14.404  1.00  0.00     0.019 C 
ENDROOT
BRANCH   1  21
HETATM   21  C8  UNL     1      -0.398   5.273  11.648  1.00  0.00     0.076 C 
HETATM   22  C9  UNL     1       0.401   5.446  12.945  1.00  0.00     0.051 C 
BRANCH  21  23
HETATM   23  C7  UNL     1      -0.079   6.339  10.611  1.00  0.00     0.007 C 
HETATM   24  C6  UNL     1       1.145   6.765  10.253  1.00  0.00    -0.023 C 
BRANCH  24  25
HETATM   25  C4  UNL     1       1.401   7.819   9.197  1.00  0.00     0.007 C 
HETATM   26  C5  UNL     1       0.059   8.339   8.672  1.00  0.00     0.014 C 
BRANCH  25  27
HETATM   27  C2  UNL     1       2.327   7.340   8.043  1.00  0.00    -0.015 C 
HETATM   28  C1  UNL     1       2.889   5.941   8.315  1.00  0.00     0.010 C 
HETATM   29  C3  UNL     1       1.677   7.371   6.655  1.00  0.00     0.010 C 
ENDBRANCH  25  27
ENDBRANCH  24  25
ENDBRANCH  21  23
BRANCH  21  30
HETATM   30  O1  UNL     1       0.085   4.038  11.076  1.00  0.00    -0.386 OA
HETATM   31  H17 UNL     1      -0.015   4.099  10.111  1.00  0.00     0.211 HD
ENDBRANCH  21  30
ENDBRANCH   1  21
BRANCH  18  32
HETATM   32  O4  UNL     1      -1.838   7.804  13.495  1.00  0.00    -0.395 OA
HETATM   33  H43 UNL     1      -2.036   8.756  13.499  1.00  0.00     0.210 HD
ENDBRANCH  18  32
BRANCH   6  34
HETATM   34  O2  UNL     1      -6.945   4.625  12.133  1.00  0.00    -0.395 OA
HETATM   35  H26 UNL     1      -7.107   5.573  12.005  1.00  0.00     0.210 HD
ENDBRANCH   6  34
TORSDOF 7
ENDMDL
MODEL 2
REMARK minimizedAffinity -9.97503471
REMARK  7 active torsions:
REMARK  status: ('A' for Active; 'I' for Inactive)
REMARK    1  A    between atoms: C2_2  and  C4_4 
REMARK    2  A    between atoms: C4_4  and  C6_6 
REMARK    3  A    between atoms: C7_7  and  C8_8 
REMARK    4  A    between atoms: C8_8  and  O1_10 
REMARK    5  A    between atoms: C8_8  and  C10_11 
REMARK    6  A    between atoms: C15_16  and  O2_17 
REMARK    7  A    between atoms: C26_29  and  O4_30 
ROOT
HETATM    1  C10 UNL     1      -5.165   6.941  13.692  1.00  0.00     0.034 C 
HETATM    2  C11 UNL     1      -5.160   8.474  13.991  1.00  0.00     0.009 C 
HETATM    3  C12 UNL     1      -3.730   8.970  13.735  1.00  0.00     0.006 C 
HETATM    4  C13 UNL     1      -3.025   7.769  13.117  1.00  0.00     0.003 C 
HETATM    5  C14 UNL     1      -1.487   7.768  13.098  1.00  0.00     0.024 C 
HETATM    6  C15 UNL     1      -0.908   9.042  12.451  1.00  0.00     0.123 C 
HETATM    7  C16 UNL     1       0.612   8.980  12.310  1.00  0.00     0.038 C 
HETATM    8  C17 UNL     1       1.093   7.706  11.596  1.00  0.00     0.003 C 
HETATM    9  C18 UNL     1       2.625   7.725  11.472  1.00  0.00     0.083 C 
HETATM   10  C19 UNL     1       3.166   6.386  11.026  1.00  0.00     0.127 C 
HETATM   11  O3  UNL     1       4.371   6.139  11.068  1.00  0.00    -0.298 OA
HETATM   12  C20 UNL     1       2.180   5.404  10.451  1.00  0.00     0.079 C 
HETATM   13  C21 UNL     1       0.970   5.184  11.359  1.00  0.00     0.017 C 
HETATM   14  C22 UNL     1       0.565   6.395  12.260  1.00  0.00    -0.035 C 
HETATM   15  C23 UNL     1       1.204   6.187  13.660  1.00  0.00     0.016 C 
HETATM   16  C24 UNL     1      -1.005   6.476  12.369  1.00  0.00     0.003 C 
HETATM   17  C25 UNL     1      -1.661   5.209  12.974  1.00  0.00     0.038 C 
HETATM   18  C26 UNL     1      -3.198   5.291  13.072  1.00  0.00     0.127 C 
HETATM   19  C27 UNL     1      -3.656   6.547  13.845  1.00  0.00    -0.007 C 
HETATM   20  C28 UNL     1      -3.228   6.453  15.331  1.00  0.00     0.019 C 
ENDROOT
BRANCH   1  21
HETATM   21  C8  UNL     1      -6.345   6.177  14.377  1.00  0.00     0.076 C 
HETATM   22  C9  UNL     1      -6.324   6.170  15.910  1.00  0.00     0.051 C 
BRANCH  21  23
HETATM   23  C7  UNL     1      -6.551   4.792  13.783  1.00  0.00     0.007 C 
HETATM   24  C6  UNL     1      -6.862   4.507  12.506  1.00  0.00    -0.023 C 
BRANCH  24  25
HETATM   25  C4  UNL     1      -7.036   3.102  11.969  1.00  0.00     0.007 C 
HETATM   26  C5  UNL     1      -7.812   2.266  12.992  1.00  0.00     0.014 C 
BRANCH  25  27
HETATM   27  C2  UNL     1      -5.702   2.418  11.555  1.00  0.00    -0.015 C 
HETATM   28  C1  UNL     1      -5.926   0.968  11.113  1.00  0.00     0.010 C 
HETATM   29  C3  UNL     1      -4.915   3.168  10.475  1.00  0.00     0.010 C 
ENDBRANCH  25  27
ENDBRANCH  24  25
ENDBRANCH  21  23
BRANCH  21  30
HETATM   30  O1  UNL     1      -7.535   6.916  14.025  1.00  0.00    -0.386 OA
HETATM   31  H17 UNL     1      -7.846   6.584  13.166  1.00  0.00     0.211 HD
ENDBRANCH  21  30
ENDBRANCH   1  21
BRANCH  18  32
HETATM   32  O4  UNL     1      -3.662   4.113  13.715  1.00  0.00    -0.395 OA
HETATM   33  H43 UNL     1      -3.374   3.346  13.192  1.00  0.00     0.210 HD
ENDBRANCH  18  32
BRANCH   6  34
HETATM   34  O2  UNL     1      -1.495   9.300  11.178  1.00  0.00    -0.395 OA
HETATM   35  H26 UNL     1      -1.323   8.551  10.585  1.00  0.00     0.210 HD
ENDBRANCH   6  34
TORSDOF 7
ENDMDL
MODEL 3
REMARK minimizedAffinity -9.75886822
REMARK  7 active torsions:
REMARK  status: ('A' for Active; 'I' for Inactive)
REMARK    1  A    between atoms: C2_2  and  C4_4 
REMARK    2  A    between atoms: C4_4  and  C6_6 
REMARK    3  A    between atoms: C7_7  and  C8_8 
REMARK    4  A    between atoms: C8_8  and  O1_10 
REMARK    5  A    between atoms: C8_8  and  C10_11 
REMARK    6  A    between atoms: C15_16  and  O2_17 
REMARK    7  A    between atoms: C26_29  and  O4_30 
ROOT
HETATM    1  C10 UNL     1      -5.646   6.438  13.306  1.00  0.00     0.034 C 
HETATM    2  C11 UNL     1      -5.758   7.924  13.772  1.00  0.00     0.009 C 
HETATM    3  C12 UNL     1      -4.346   8.521  13.693  1.00  0.00     0.006 C 
HETATM    4  C13 UNL     1      -3.523   7.438  13.007  1.00  0.00     0.003 C 
HETATM    5  C14 UNL     1      -1.991   7.520  13.117  1.00  0.00     0.024 C 
HETATM    6  C15 UNL     1      -1.444   8.888  12.665  1.00  0.00     0.123 C 
HETATM    7  C16 UNL     1       0.084   8.923  12.645  1.00  0.00     0.038 C 
HETATM    8  C17 UNL     1       0.696   7.767  11.838  1.00  0.00     0.003 C 
HETATM    9  C18 UNL     1       2.229   7.880  11.845  1.00  0.00     0.083 C 
HETATM   10  C19 UNL     1       2.884   6.631  11.300  1.00  0.00     0.127 C 
HETATM   11  O3  UNL     1       4.094   6.444  11.414  1.00  0.00    -0.298 OA
HETATM   12  C20 UNL     1       2.007   5.672  10.539  1.00  0.00     0.079 C 
HETATM   13  C21 UNL     1       0.747   5.286  11.313  1.00  0.00     0.017 C 
HETATM   14  C22 UNL     1       0.200   6.362  12.306  1.00  0.00    -0.035 C 
HETATM   15  C23 UNL     1       0.741   6.027  13.722  1.00  0.00     0.016 C 
HETATM   16  C24 UNL     1      -1.376   6.347  12.292  1.00  0.00     0.003 C 
HETATM   17  C25 UNL     1      -1.998   4.986  12.696  1.00  0.00     0.038 C 
HETATM   18  C26 UNL     1      -3.540   4.976  12.673  1.00  0.00     0.127 C 
HETATM   19  C27 UNL     1      -4.132   6.109  13.539  1.00  0.00    -0.007 C 
HETATM   20  C28 UNL     1      -3.815   5.867  15.036  1.00  0.00     0.019 C 
ENDROOT
BRANCH   1  21
HETATM   21  C8  UNL     1      -6.826   5.539  13.801  1.00  0.00     0.076 C 
HETATM   22  C9  UNL     1      -6.839   4.108  13.250  1.00  0.00     0.051 C 
BRANCH  21  23
HETATM   23  C7  UNL     1      -8.172   6.235  13.667  1.00  0.00     0.007 C 
HETATM   24  C6  UNL     1      -8.966   6.642  14.674  1.00  0.00    -0.023 C 
BRANCH  24  25
HETATM   25  C4  UNL     1     -10.289   7.349  14.477  1.00  0.00     0.007 C 
HETATM   26  C5  UNL     1     -10.689   7.264  13.000  1.00  0.00     0.014 C 
BRANCH  25  27
HETATM   27  C2  UNL     1     -10.302   8.815  14.997  1.00  0.00    -0.015 C 
HETATM   28  C1  UNL     1      -8.883   9.333  15.254  1.00  0.00     0.010 C 
HETATM   29  C3  UNL     1     -11.052   9.800  14.093  1.00  0.00     0.010 C 
ENDBRANCH  25  27
ENDBRANCH  24  25
ENDBRANCH  21  23
BRANCH  21  30
HETATM   30  O1  UNL     1      -6.622   5.388  15.222  1.00  0.00    -0.386 OA
HETATM   31  H17 UNL     1      -7.042   6.146  15.664  1.00  0.00     0.211 HD
ENDBRANCH  21  30
ENDBRANCH   1  21
BRANCH  18  32
HETATM   32  O4  UNL     1      -3.979   3.709  13.141  1.00  0.00    -0.395 OA
HETATM   33  H43 UNL     1      -3.604   3.024  12.562  1.00  0.00     0.210 HD
ENDBRANCH  18  32
BRANCH   6  34
HETATM   34  O2  UNL     1      -1.945   9.260  11.384  1.00  0.00    -0.395 OA
HETATM   35  H26 UNL     1      -1.683   8.595  10.729  1.00  0.00     0.210 HD
ENDBRANCH   6  34
TORSDOF 7
ENDMDL
MODEL 4
REMARK minimizedAffinity -9.32333088
REMARK  7 active torsions:
REMARK  status: ('A' for Active; 'I' for Inactive)
REMARK    1  A    between atoms: C2_2  and  C4_4 
REMARK    2  A    between atoms: C4_4  and  C6_6 
REMARK    3  A    between atoms: C7_7  and  C8_8 
REMARK    4  A    between atoms: C8_8  and  O1_10 
REMARK    5  A    between atoms: C8_8  and  C10_11 
REMARK    6  A    between atoms: C15_16  and  O2_17 
REMARK    7  A    between atoms: C26_29  and  O4_30 
ROOT
HETATM    1  C10 UNL     1      -0.971   5.669  12.790  1.00  0.00     0.034 C 
HETATM    2  C11 UNL     1      -1.123   5.450  11.251  1.00  0.00     0.009 C 
HETATM    3  C12 UNL     1       0.180   5.940  10.603  1.00  0.00     0.006 C 
HETATM    4  C13 UNL     1       1.096   6.231  11.785  1.00  0.00     0.003 C 
HETATM    5  C14 UNL     1       2.334   7.110  11.537  1.00  0.00     0.024 C 
HETATM    6  C15 UNL     1       3.206   6.581  10.381  1.00  0.00     0.123 C 
HETATM    7  C16 UNL     1       4.502   7.375  10.224  1.00  0.00     0.038 C 
HETATM    8  C17 UNL     1       5.296   7.485  11.535  1.00  0.00     0.003 C 
HETATM    9  C18 UNL     1       6.593   8.274  11.294  1.00  0.00     0.083 C 
HETATM   10  C19 UNL     1       7.272   8.642  12.594  1.00  0.00     0.127 C 
HETATM   11  O3  UNL     1       8.204   9.445  12.622  1.00  0.00    -0.298 OA
HETATM   12  C20 UNL     1       6.818   7.920  13.835  1.00  0.00     0.079 C 
HETATM   13  C21 UNL     1       5.302   7.972  14.025  1.00  0.00     0.017 C 
HETATM   14  C22 UNL     1       4.454   8.067  12.715  1.00  0.00    -0.035 C 
HETATM   15  C23 UNL     1       4.116   9.563  12.469  1.00  0.00     0.016 C 
HETATM   16  C24 UNL     1       3.137   7.214  12.870  1.00  0.00     0.003 C 
HETATM   17  C25 UNL     1       2.230   7.664  14.043  1.00  0.00     0.038 C 
HETATM   18  C26 UNL     1       0.946   6.822  14.193  1.00  0.00     0.127 C 
HETATM   19  C27 UNL     1       0.134   6.776  12.881  1.00  0.00    -0.007 C 
HETATM   20  C28 UNL     1      -0.422   8.181  12.540  1.00  0.00     0.019 C 
ENDROOT
BRANCH   1  21
HETATM   21  C8  UNL     1      -2.336   5.727  13.549  1.00  0.00     0.076 C 
HETATM   22  C9  UNL     1      -2.239   5.957  15.062  1.00  0.00     0.051 C 
BRANCH  21  23
HETATM   23  C7  UNL     1      -3.244   4.563  13.186  1.00  0.00     0.007 C 
HETATM   24  C6  UNL     1      -4.498   4.646  12.704  1.00  0.00    -0.023 C 
BRANCH  24  25
HETATM   25  C4  UNL     1      -5.348   3.447  12.342  1.00  0.00     0.007 C 
HETATM   26  C5  UNL     1      -5.132   3.107  10.863  1.00  0.00     0.014 C 
BRANCH  25  27
HETATM   27  C2  UNL     1      -6.855   3.620  12.681  1.00  0.00    -0.015 C 
HETATM   28  C1  UNL     1      -7.580   2.271  12.734  1.00  0.00     0.010 C 
HETATM   29  C3  UNL     1      -7.128   4.400  13.972  1.00  0.00     0.010 C 
ENDBRANCH  25  27
ENDBRANCH  24  25
ENDBRANCH  21  23
BRANCH  21  30
HETATM   30  O1  UNL     1      -3.007   6.900  13.038  1.00  0.00    -0.386 OA
HETATM   31  H17 UNL     1      -3.490   6.639  12.236  1.00  0.00     0.211 HD
ENDBRANCH  21  30
ENDBRANCH   1  21
BRANCH  18  32
HETATM   32  O4  UNL     1       0.170   7.387  15.240  1.00  0.00    -0.395 OA
HETATM   33  H43 UNL     1       0.704   7.381  16.053  1.00  0.00     0.210 HD
ENDBRANCH  18  32
BRANCH   6  34
HETATM   34  O2  UNL     1       3.510   5.198  10.540  1.00  0.00    -0.395 OA
HETATM   35  H26 UNL     1       3.992   5.067  11.371  1.00  0.00     0.210 HD
ENDBRANCH   6  34
TORSDOF 7
ENDMDL
MODEL 5
REMARK minimizedAffinity -9.2040205
REMARK  7 active torsions:
REMARK  status: ('A' for Active; 'I' for Inactive)
REMARK    1  A    between atoms: C2_2  and  C4_4 
REMARK    2  A    between atoms: C4_4  and  C6_6 
REMARK    3  A    between atoms: C7_7  and  C8_8 
REMARK    4  A    between atoms: C8_8  and  O1_10 
REMARK    5  A    between atoms: C8_8  and  C10_11 
REMARK    6  A    between atoms: C15_16  and  O2_17 
REMARK    7  A    between atoms: C26_29  and  O4_30 
ROOT
HETATM    1  C10 UNL     1       1.198   7.482  13.466  1.00  0.00     0.034 C 
HETATM    2  C11 UNL     1       1.429   8.673  14.450  1.00  0.00     0.009 C 
HETATM    3  C12 UNL     1       0.054   9.056  15.013  1.00  0.00     0.006 C 
HETATM    4  C13 UNL     1      -0.876   7.964  14.498  1.00  0.00     0.003 C 
HETATM    5  C14 UNL     1      -2.390   8.235  14.530  1.00  0.00     0.024 C 
HETATM    6  C15 UNL     1      -2.881   8.654  15.929  1.00  0.00     0.123 C 
HETATM    7  C16 UNL     1      -4.402   8.790  15.992  1.00  0.00     0.038 C 
HETATM    8  C17 UNL     1      -5.134   7.539  15.480  1.00  0.00     0.003 C 
HETATM    9  C18 UNL     1      -6.653   7.740  15.594  1.00  0.00     0.083 C 
HETATM   10  C19 UNL     1      -7.417   6.661  14.861  1.00  0.00     0.127 C 
HETATM   11  O3  UNL     1      -8.626   6.760  14.660  1.00  0.00    -0.298 OA
HETATM   12  C20 UNL     1      -6.650   5.426  14.464  1.00  0.00     0.079 C 
HETATM   13  C21 UNL     1      -5.368   5.750  13.697  1.00  0.00     0.017 C 
HETATM   14  C22 UNL     1      -4.695   7.117  14.042  1.00  0.00    -0.035 C 
HETATM   15  C23 UNL     1      -5.163   8.161  12.991  1.00  0.00     0.016 C 
HETATM   16  C24 UNL     1      -3.127   6.960  14.013  1.00  0.00     0.003 C 
HETATM   17  C25 UNL     1      -2.564   6.499  12.645  1.00  0.00     0.038 C 
HETATM   18  C26 UNL     1      -1.030   6.340  12.625  1.00  0.00     0.127 C 
HETATM   19  C27 UNL     1      -0.315   7.629  13.086  1.00  0.00    -0.007 C 
HETATM   20  C28 UNL     1      -0.550   8.771  12.066  1.00  0.00     0.019 C 
ENDROOT
BRANCH   1  21
HETATM   21  C8  UNL     1       2.350   7.300  12.426  1.00  0.00     0.076 C 
HETATM   22  C9  UNL     1       3.760   7.611  12.943  1.00  0.00     0.051 C 
BRANCH  21  23
HETATM   23  C7  UNL     1       2.042   7.985  11.103  1.00  0.00     0.007 C 
HETATM   24  C6  UNL     1       1.979   7.399   9.894  1.00  0.00    -0.023 C 
BRANCH  24  25
HETATM   25  C4  UNL     1       1.647   8.133   8.613  1.00  0.00     0.007 C 
HETATM   26  C5  UNL     1       0.130   8.327   8.523  1.00  0.00     0.014 C 
BRANCH  25  27
HETATM   27  C2  UNL     1       2.220   7.457   7.335  1.00  0.00    -0.015 C 
HETATM   28  C1  UNL     1       2.708   6.033   7.622  1.00  0.00     0.010 C 
HETATM   29  C3  UNL     1       1.258   7.438   6.143  1.00  0.00     0.010 C 
ENDBRANCH  25  27
ENDBRANCH  24  25
ENDBRANCH  21  23
BRANCH  21  30
HETATM   30  O1  UNL     1       2.370   5.888  12.120  1.00  0.00    -0.386 OA
HETATM   31  H17 UNL     1       1.730   5.731  11.406  1.00  0.00     0.211 HD
ENDBRANCH  21  30
ENDBRANCH   1  21
BRANCH  18  32
HETATM   32  O4  UNL     1      -0.640   5.999  11.303  1.00  0.00    -0.395 OA
HETATM   33  H43 UNL     1      -1.091   5.174  11.055  1.00  0.00     0.210 HD
ENDBRANCH  18  32
BRANCH   6  34
HETATM   34  O2  UNL     1      -2.442   7.746  16.936  1.00  0.00    -0.395 OA
HETATM   35  H26 UNL     1      -2.786   6.860  16.745  1.00  0.00     0.210 HD
ENDBRANCH   6  34
TORSDOF 7
ENDMDL
MODEL 6
REMARK minimizedAffinity -9.17221928
REMARK  7 active torsions:
REMARK  status: ('A' for Active; 'I' for Inactive)
REMARK    1  A    between atoms: C2_2  and  C4_4 
REMARK    2  A    between atoms: C4_4  and  C6_6 
REMARK    3  A    between atoms: C7_7  and  C8_8 
REMARK    4  A    between atoms: C8_8  and  O1_10 
REMARK    5  A    between atoms: C8_8  and  C10_11 
REMARK    6  A    between atoms: C15_16  and  O2_17 
REMARK    7  A    between atoms: C26_29  and  O4_30 
ROOT
HETATM    1  C10 UNL     1      -0.475   6.012  11.520  1.00  0.00     0.034 C 
HETATM    2  C11 UNL     1      -0.495   4.468  11.291  1.00  0.00     0.009 C 
HETATM    3  C12 UNL     1      -1.811   3.949  11.888  1.00  0.00     0.006 C 
HETATM    4  C13 UNL     1      -2.578   5.214  12.253  1.00  0.00     0.003 C 
HETATM    5  C14 UNL     1      -3.757   5.083  13.232  1.00  0.00     0.024 C 
HETATM    6  C15 UNL     1      -4.780   4.024  12.778  1.00  0.00     0.123 C 
HETATM    7  C16 UNL     1      -6.016   3.990  13.676  1.00  0.00     0.038 C 
HETATM    8  C17 UNL     1      -6.664   5.373  13.851  1.00  0.00     0.003 C 
HETATM    9  C18 UNL     1      -7.909   5.257  14.745  1.00  0.00     0.083 C 
HETATM   10  C19 UNL     1      -8.422   6.615  15.167  1.00  0.00     0.127 C 
HETATM   11  O3  UNL     1      -9.277   6.729  16.044  1.00  0.00    -0.298 OA
HETATM   12  C20 UNL     1      -7.907   7.810  14.408  1.00  0.00     0.079 C 
HETATM   13  C21 UNL     1      -6.381   7.847  14.334  1.00  0.00     0.017 C 
HETATM   14  C22 UNL     1      -5.663   6.459  14.360  1.00  0.00    -0.035 C 
HETATM   15  C23 UNL     1      -5.229   6.170  15.823  1.00  0.00     0.016 C 
HETATM   16  C24 UNL     1      -4.412   6.489  13.401  1.00  0.00     0.003 C 
HETATM   17  C25 UNL     1      -3.358   7.562  13.773  1.00  0.00     0.038 C 
HETATM   18  C26 UNL     1      -2.140   7.590  12.827  1.00  0.00     0.127 C 
HETATM   19  C27 UNL     1      -1.470   6.204  12.715  1.00  0.00    -0.007 C 
HETATM   20  C28 UNL     1      -0.836   5.799  14.069  1.00  0.00     0.019 C 
ENDROOT
BRANCH   1  21
HETATM   21  C8  UNL     1       0.960   6.631  11.465  1.00  0.00     0.076 C 
HETATM   22  C9  UNL     1       1.077   8.069  11.984  1.00  0.00     0.051 C 
BRANCH  21  23
HETATM   23  C7  UNL     1       1.615   6.438  10.106  1.00  0.00     0.007 C 
HETATM   24  C6  UNL     1       2.699   5.688   9.840  1.00  0.00    -0.023 C 
BRANCH  24  25
HETATM   25  C4  UNL     1       3.295   5.520   8.459  1.00  0.00     0.007 C 
HETATM   26  C5  UNL     1       2.419   6.257   7.440  1.00  0.00     0.014 C 
BRANCH  25  27
HETATM   27  C2  UNL     1       3.531   4.037   8.053  1.00  0.00    -0.015 C 
HETATM   28  C1  UNL     1       3.799   3.900   6.550  1.00  0.00     0.010 C 
HETATM   29  C3  UNL     1       4.644   3.335   8.838  1.00  0.00     0.010 C 
ENDBRANCH  25  27
ENDBRANCH  24  25
ENDBRANCH  21  23
BRANCH  21  30
HETATM   30  O1  UNL     1       1.753   5.841  12.378  1.00  0.00    -0.386 OA
HETATM   31  H17 UNL     1       2.089   5.072  11.889  1.00  0.00     0.211 HD
ENDBRANCH  21  30
ENDBRANCH   1  21
BRANCH  18  32
HETATM   32  O4  UNL     1      -1.219   8.551  13.325  1.00  0.00    -0.395 OA
HETATM   33  H43 UNL     1      -1.668   9.412  13.362  1.00  0.00     0.210 HD
ENDBRANCH  18  32
BRANCH   6  34
HETATM   34  O2  UNL     1      -5.180   4.222  11.425  1.00  0.00    -0.395 OA
HETATM   35  H26 UNL     1      -5.587   5.098  11.333  1.00  0.00     0.210 HD
ENDBRANCH   6  34
TORSDOF 7
ENDMDL
MODEL 7
REMARK minimizedAffinity -8.89284134
REMARK  7 active torsions:
REMARK  status: ('A' for Active; 'I' for Inactive)
REMARK    1  A    between atoms: C2_2  and  C4_4 
REMARK    2  A    between atoms: C4_4  and  C6_6 
REMARK    3  A    between atoms: C7_7  and  C8_8 
REMARK    4  A    between atoms: C8_8  and  O1_10 
REMARK    5  A    between atoms: C8_8  and  C10_11 
REMARK    6  A    between atoms: C15_16  and  O2_17 
REMARK    7  A    between atoms: C26_29  and  O4_30 
ROOT
HETATM    1  C10 UNL     1      -5.088   5.847  13.423  1.00  0.00     0.034 C 
HETATM    2  C11 UNL     1      -5.845   4.526  13.074  1.00  0.00     0.009 C 
HETATM    3  C12 UNL     1      -7.330   4.776  13.368  1.00  0.00     0.006 C 
HETATM    4  C13 UNL     1      -7.403   6.266  13.678  1.00  0.00     0.003 C 
HETATM    5  C14 UNL     1      -8.655   6.791  14.401  1.00  0.00     0.024 C 
HETATM    6  C15 UNL     1      -9.958   6.394  13.680  1.00  0.00     0.123 C 
HETATM    7  C16 UNL     1     -11.191   7.028  14.322  1.00  0.00     0.038 C 
HETATM    8  C17 UNL     1     -11.065   8.552  14.477  1.00  0.00     0.003 C 
HETATM    9  C18 UNL     1     -12.347   9.120  15.106  1.00  0.00     0.083 C 
HETATM   10  C19 UNL     1     -12.172  10.561  15.527  1.00  0.00     0.127 C 
HETATM   11  O3  UNL     1     -13.007  11.126  16.232  1.00  0.00    -0.298 OA
HETATM   12  C20 UNL     1     -10.979  11.298  14.975  1.00  0.00     0.079 C 
HETATM   13  C21 UNL     1      -9.668  10.543  15.196  1.00  0.00     0.017 C 
HETATM   14  C22 UNL     1      -9.779   8.985  15.250  1.00  0.00    -0.035 C 
HETATM   15  C23 UNL     1      -9.860   8.561  16.741  1.00  0.00     0.016 C 
HETATM   16  C24 UNL     1      -8.523   8.338  14.552  1.00  0.00     0.003 C 
HETATM   17  C25 UNL     1      -7.170   8.728  15.200  1.00  0.00     0.038 C 
HETATM   18  C26 UNL     1      -5.945   8.098  14.508  1.00  0.00     0.127 C 
HETATM   19  C27 UNL     1      -6.066   6.561  14.418  1.00  0.00    -0.007 C 
HETATM   20  C28 UNL     1      -6.017   5.931  15.832  1.00  0.00     0.019 C 
ENDROOT
BRANCH   1  21
HETATM   21  C8  UNL     1      -3.562   5.640  13.690  1.00  0.00     0.076 C 
HETATM   22  C9  UNL     1      -3.148   5.623  15.167  1.00  0.00     0.051 C 
BRANCH  21  23
HETATM   23  C7  UNL     1      -2.701   6.567  12.846  1.00  0.00     0.007 C 
HETATM   24  C6  UNL     1      -1.376   6.760  12.968  1.00  0.00    -0.023 C 
BRANCH  24  25
HETATM   25  C4  UNL     1      -0.569   7.685  12.082  1.00  0.00     0.007 C 
HETATM   26  C5  UNL     1      -1.366   8.972  11.842  1.00  0.00     0.014 C 
BRANCH  25  27
HETATM   27  C2  UNL     1      -0.108   7.033  10.748  1.00  0.00    -0.015 C 
HETATM   28  C1  UNL     1       0.257   8.090   9.700  1.00  0.00     0.010 C 
HETATM   29  C3  UNL     1       1.049   6.038  10.896  1.00  0.00     0.010 C 
ENDBRANCH  25  27
ENDBRANCH  24  25
ENDBRANCH  21  23
BRANCH  21  30
HETATM   30  O1  UNL     1      -3.266   4.311  13.207  1.00  0.00    -0.386 OA
HETATM   31  H17 UNL     1      -3.069   4.379  12.257  1.00  0.00     0.211 HD
ENDBRANCH  21  30
ENDBRANCH   1  21
BRANCH  18  32
HETATM   32  O4  UNL     1      -4.787   8.464  15.245  1.00  0.00    -0.395 OA
HETATM   33  H43 UNL     1      -4.731   9.434  15.264  1.00  0.00     0.210 HD
ENDBRANCH  18  32
BRANCH   6  34
HETATM   34  O2  UNL     1      -9.917   6.726  12.295  1.00  0.00    -0.395 OA
HETATM   35  H26 UNL     1      -9.792   7.683  12.196  1.00  0.00     0.210 HD
ENDBRANCH   6  34
TORSDOF 7
ENDMDL
MODEL 8
REMARK minimizedAffinity -8.88222408
REMARK  7 active torsions:
REMARK  status: ('A' for Active; 'I' for Inactive)
REMARK    1  A    between atoms: C2_2  and  C4_4 
REMARK    2  A    between atoms: C4_4  and  C6_6 
REMARK    3  A    between atoms: C7_7  and  C8_8 
REMARK    4  A    between atoms: C8_8  and  O1_10 
REMARK    5  A    between atoms: C8_8  and  C10_11 
REMARK    6  A    between atoms: C15_16  and  O2_17 
REMARK    7  A    between atoms: C26_29  and  O4_30 
ROOT
HETATM    1  C10 UNL     1      -1.308   9.480  14.190  1.00  0.00     0.034 C 
HETATM    2  C11 UNL     1      -0.150   8.432  14.211  1.00  0.00     0.009 C 
HETATM    3  C12 UNL     1      -0.800   7.051  14.043  1.00  0.00     0.006 C 
HETATM    4  C13 UNL     1      -2.259   7.362  13.736  1.00  0.00     0.003 C 
HETATM    5  C14 UNL     1      -3.286   6.228  13.901  1.00  0.00     0.024 C 
HETATM    6  C15 UNL     1      -2.895   4.964  13.112  1.00  0.00     0.123 C 
HETATM    7  C16 UNL     1      -3.980   3.889  13.166  1.00  0.00     0.038 C 
HETATM    8  C17 UNL     1      -5.363   4.417  12.752  1.00  0.00     0.003 C 
HETATM    9  C18 UNL     1      -6.394   3.278  12.809  1.00  0.00     0.083 C 
HETATM   10  C19 UNL     1      -7.807   3.797  12.675  1.00  0.00     0.127 C 
HETATM   11  O3  UNL     1      -8.777   3.075  12.902  1.00  0.00    -0.298 OA
HETATM   12  C20 UNL     1      -7.977   5.206  12.169  1.00  0.00     0.079 C 
HETATM   13  C21 UNL     1      -7.138   6.217  12.951  1.00  0.00     0.017 C 
HETATM   14  C22 UNL     1      -5.811   5.669  13.569  1.00  0.00    -0.035 C 
HETATM   15  C23 UNL     1      -6.091   5.293  15.050  1.00  0.00     0.016 C 
HETATM   16  C24 UNL     1      -4.686   6.769  13.475  1.00  0.00     0.003 C 
HETATM   17  C25 UNL     1      -5.030   8.088  14.212  1.00  0.00     0.038 C 
HETATM   18  C26 UNL     1      -3.929   9.163  14.110  1.00  0.00     0.127 C 
HETATM   19  C27 UNL     1      -2.562   8.628  14.588  1.00  0.00    -0.007 C 
HETATM   20  C28 UNL     1      -2.601   8.327  16.107  1.00  0.00     0.019 C 
ENDROOT
BRANCH   1  21
HETATM   21  C8  UNL     1      -0.927  10.843  14.853  1.00  0.00     0.076 C 
HETATM   22  C9  UNL     1       0.576  11.105  15.004  1.00  0.00     0.051 C 
BRANCH  21  23
HETATM   23  C7  UNL     1      -1.701  11.091  16.139  1.00  0.00     0.007 C 
HETATM   24  C6  UNL     1      -1.200  11.094  17.387  1.00  0.00    -0.023 C 
BRANCH  24  25
HETATM   25  C4  UNL     1      -2.020  11.367  18.629  1.00  0.00     0.007 C 
HETATM   26  C5  UNL     1      -2.840  10.119  18.974  1.00  0.00     0.014 C 
BRANCH  25  27
HETATM   27  C2  UNL     1      -2.914  12.636  18.525  1.00  0.00    -0.015 C 
HETATM   28  C1  UNL     1      -4.240  12.453  19.271  1.00  0.00     0.010 C 
HETATM   29  C3  UNL     1      -2.236  13.928  18.993  1.00  0.00     0.010 C 
ENDBRANCH  25  27
ENDBRANCH  24  25
ENDBRANCH  21  23
BRANCH  21  30
HETATM   30  O1  UNL     1      -1.390  11.858  13.936  1.00  0.00    -0.386 OA
HETATM   31  H17 UNL     1      -2.322  12.042  14.143  1.00  0.00     0.211 HD
ENDBRANCH  21  30
ENDBRANCH   1  21
BRANCH  18  32
HETATM   32  O4  UNL     1      -4.329  10.279  14.892  1.00  0.00    -0.395 OA
HETATM   33  H43 UNL     1      -5.180  10.601  14.550  1.00  0.00     0.210 HD
ENDBRANCH  18  32
BRANCH   6  34
HETATM   34  O2  UNL     1      -2.588   5.263  11.753  1.00  0.00    -0.395 OA
HETATM   35  H26 UNL     1      -3.364   5.661  11.327  1.00  0.00     0.210 HD
ENDBRANCH   6  34
TORSDOF 7
ENDMDL
MODEL 9
REMARK minimizedAffinity -8.8557024
REMARK  7 active torsions:
REMARK  status: ('A' for Active; 'I' for Inactive)
REMARK    1  A    between atoms: C2_2  and  C4_4 
REMARK    2  A    between atoms: C4_4  and  C6_6 
REMARK    3  A    between atoms: C7_7  and  C8_8 
REMARK    4  A    between atoms: C8_8  and  O1_10 
REMARK    5  A    between atoms: C8_8  and  C10_11 
REMARK    6  A    between atoms: C15_16  and  O2_17 
REMARK    7  A    between atoms: C26_29  and  O4_30 
ROOT
HETATM    1  C10 UNL     1      -0.753  10.213  17.810  1.00  0.00     0.034 C 
HETATM    2  C11 UNL     1      -2.285  10.436  18.015  1.00  0.00     0.009 C 
HETATM    3  C12 UNL     1      -3.004   9.536  17.001  1.00  0.00     0.006 C 
HETATM    4  C13 UNL     1      -1.888   8.692  16.397  1.00  0.00     0.003 C 
HETATM    5  C14 UNL     1      -2.174   7.964  15.072  1.00  0.00     0.024 C 
HETATM    6  C15 UNL     1      -3.441   7.091  15.144  1.00  0.00     0.123 C 
HETATM    7  C16 UNL     1      -3.648   6.265  13.876  1.00  0.00     0.038 C 
HETATM    8  C17 UNL     1      -2.408   5.442  13.492  1.00  0.00     0.003 C 
HETATM    9  C18 UNL     1      -2.698   4.623  12.224  1.00  0.00     0.083 C 
HETATM   10  C19 UNL     1      -1.438   4.012  11.653  1.00  0.00     0.127 C 
HETATM   11  O3  UNL     1      -1.428   3.498  10.536  1.00  0.00    -0.298 OA
HETATM   12  C20 UNL     1      -0.224   3.982  12.545  1.00  0.00     0.079 C 
HETATM   13  C21 UNL     1       0.103   5.353  13.139  1.00  0.00     0.017 C 
HETATM   14  C22 UNL     1      -1.115   6.308  13.360  1.00  0.00    -0.035 C 
HETATM   15  C23 UNL     1      -1.207   7.258  12.135  1.00  0.00     0.016 C 
HETATM   16  C24 UNL     1      -0.913   7.129  14.690  1.00  0.00     0.003 C 
HETATM   17  C25 UNL     1       0.368   8.000  14.705  1.00  0.00     0.038 C 
HETATM   18  C26 UNL     1       0.563   8.796  16.012  1.00  0.00     0.127 C 
HETATM   19  C27 UNL     1      -0.671   9.660  16.346  1.00  0.00    -0.007 C 
HETATM   20  C28 UNL     1      -0.847  10.782  15.291  1.00  0.00     0.019 C 
ENDROOT
BRANCH   1  21
HETATM   21  C8  UNL     1       0.126  11.385  18.356  1.00  0.00     0.076 C 
HETATM   22  C9  UNL     1       1.286  11.815  17.450  1.00  0.00     0.051 C 
BRANCH  21  23
HETATM   23  C7  UNL     1       0.556  11.155  19.796  1.00  0.00     0.007 C 
HETATM   24  C6  UNL     1       1.787  10.815  20.220  1.00  0.00    -0.023 C 
BRANCH  24  25
HETATM   25  C4  UNL     1       2.159  10.619  21.674  1.00  0.00     0.007 C 
HETATM   26  C5  UNL     1       2.927  11.850  22.166  1.00  0.00     0.014 C 
BRANCH  25  27
HETATM   27  C2  UNL     1       2.939   9.302  21.950  1.00  0.00    -0.015 C 
HETATM   28  C1  UNL     1       4.210   9.561  22.766  1.00  0.00     0.010 C 
HETATM   29  C3  UNL     1       2.110   8.205  22.626  1.00  0.00     0.010 C 
ENDBRANCH  25  27
ENDBRANCH  24  25
ENDBRANCH  21  23
BRANCH  21  30
HETATM   30  O1  UNL     1      -0.751  12.531  18.405  1.00  0.00    -0.386 OA
HETATM   31  H17 UNL     1      -1.216  12.511  19.259  1.00  0.00     0.211 HD
ENDBRANCH  21  30
ENDBRANCH   1  21
BRANCH  18  32
HETATM   32  O4  UNL     1       1.717   9.610  15.863  1.00  0.00    -0.395 OA
HETATM   33  H43 UNL     1       2.476   9.032  15.675  1.00  0.00     0.210 HD
ENDBRANCH  18  32
BRANCH   6  34
HETATM   34  O2  UNL     1      -3.423   6.228  16.278  1.00  0.00    -0.395 OA
HETATM   35  H26 UNL     1      -2.651   5.642  16.226  1.00  0.00     0.210 HD
ENDBRANCH   6  34
TORSDOF 7
ENDMDL
