MODEL 1
REMARK minimizedAffinity -6.80603504
REMARK CNNscore 0.853287518
REMARK CNNaffinity 7.46785355
REMARK  7 active torsions:
REMARK  status: ('A' for Active; 'I' for Inactive)
REMARK    1  A    between atoms: C2_2  and  C3_3 
REMARK    2  A    between atoms: C2_2  and  C9_10 
REMARK    3  A    between atoms: C3_3  and  C4_4 
REMARK    4  A    between atoms: C5_5  and  C6_6 
REMARK    5  A    between atoms: C6_6  and  O1_9 
REMARK    6  A    between atoms: C17_18  and  C18_19 
REMARK    7  A    between atoms: C18_19  and  O2_22 
ROOT
HETATM    1  C9  UNL     1      -2.169  51.993 -10.505  1.00  0.00    -0.002 C 
HETATM    2  C10 UNL     1      -2.507  51.710  -9.005  1.00  0.00     0.006 C 
HETATM    3  C11 UNL     1      -1.330  52.237  -8.156  1.00  0.00     0.011 C 
HETATM    4  C12 UNL     1      -0.217  52.513  -9.184  1.00  0.00    -0.032 C 
HETATM    5  C13 UNL     1       0.433  51.118  -9.475  1.00  0.00     0.016 C 
HETATM    6  C14 UNL     1       0.848  53.560  -8.754  1.00  0.00     0.003 C 
HETATM    7  C15 UNL     1       1.533  53.269  -7.406  1.00  0.00     0.009 C 
HETATM    8  C16 UNL     1       2.877  53.964  -7.219  1.00  0.00     0.042 C 
HETATM    9  C17 UNL     1       3.046  55.349  -7.897  1.00  0.00     0.095 C 
HETATM   10  O3  UNL     1       4.457  55.687  -7.836  1.00  0.00    -0.377 OA
HETATM   11  C21 UNL     1       5.278  55.068  -8.812  1.00  0.00     0.169 C 
HETATM   12  C22 UNL     1       4.976  55.618 -10.189  1.00  0.00     0.027 C 
HETATM   13  C23 UNL     1       3.514  55.998 -10.375  1.00  0.00     0.010 C 
HETATM   14  C24 UNL     1       2.517  55.344  -9.394  1.00  0.00     0.032 C 
HETATM   15  C25 UNL     1       1.839  53.990  -9.897  1.00  0.00    -0.033 C 
HETATM   16  C26 UNL     1       2.888  52.914 -10.254  1.00  0.00     0.016 C 
HETATM   17  C27 UNL     1       1.042  54.279 -11.227  1.00  0.00     0.011 C 
HETATM   18  C28 UNL     1      -0.113  53.311 -11.577  1.00  0.00     0.011 C 
HETATM   19  C29 UNL     1      -1.066  53.092 -10.386  1.00  0.00    -0.032 C 
HETATM   20  C30 UNL     1      -1.771  54.459 -10.095  1.00  0.00     0.016 C 
ENDROOT
BRANCH   1  21
HETATM   21  C2  UNL     1      -3.449  52.259 -11.350  1.00  0.00    -0.010 C 
HETATM   22  C1  UNL     1      -4.220  53.497 -10.879  1.00  0.00     0.010 C 
BRANCH  21  23
HETATM   23  C3  UNL     1      -3.147  52.373 -12.870  1.00  0.00     0.031 C 
BRANCH  23  24
HETATM   24  C4  UNL     1      -2.537  51.143 -13.489  1.00  0.00    -0.027 C 
HETATM   25  C5  UNL     1      -1.352  51.143 -14.124  1.00  0.00     0.006 C 
BRANCH  25  26
HETATM   26  C6  UNL     1      -0.664  49.984 -14.801  1.00  0.00     0.068 C 
HETATM   27  C7  UNL     1       0.854  49.925 -14.598  1.00  0.00     0.050 C 
HETATM   28  C8  UNL     1      -1.000  49.981 -16.294  1.00  0.00     0.050 C 
BRANCH  26  29
HETATM   29  O1  UNL     1      -1.234  48.808 -14.218  1.00  0.00    -0.387 OA
HETATM   30  H15 UNL     1      -0.767  48.041 -14.584  1.00  0.00     0.211 HD
ENDBRANCH  26  29
ENDBRANCH  25  26
ENDBRANCH  23  24
ENDBRANCH  21  23
ENDBRANCH   1  21
BRANCH   9  31
HETATM   31  C18 UNL     1       2.330  56.496  -7.032  1.00  0.00     0.082 C 
HETATM   32  C19 UNL     1       0.875  56.741  -7.483  1.00  0.00     0.049 C 
HETATM   33  C20 UNL     1       3.063  57.852  -7.113  1.00  0.00     0.049 C 
BRANCH  31  34
HETATM   34  O2  UNL     1       2.283  56.129  -5.646  1.00  0.00    -0.388 OA
HETATM   35  H35 UNL     1       1.858  56.855  -5.160  1.00  0.00     0.210 HD
ENDBRANCH  31  34
ENDBRANCH   9  31
TORSDOF 7
ENDMDL
MODEL 2
REMARK minimizedAffinity -7.16125345
REMARK CNNscore 0.718140304
REMARK CNNaffinity 7.16517782
REMARK  7 active torsions:
REMARK  status: ('A' for Active; 'I' for Inactive)
REMARK    1  A    between atoms: C2_2  and  C3_3 
REMARK    2  A    between atoms: C2_2  and  C9_10 
REMARK    3  A    between atoms: C3_3  and  C4_4 
REMARK    4  A    between atoms: C5_5  and  C6_6 
REMARK    5  A    between atoms: C6_6  and  O1_9 
REMARK    6  A    between atoms: C17_18  and  C18_19 
REMARK    7  A    between atoms: C18_19  and  O2_22 
ROOT
HETATM    1  C9  UNL     1      -2.865  52.601 -10.474  1.00  0.00    -0.002 C 
HETATM    2  C10 UNL     1      -3.064  54.148 -10.578  1.00  0.00     0.006 C 
HETATM    3  C11 UNL     1      -1.773  54.819 -10.060  1.00  0.00     0.011 C 
HETATM    4  C12 UNL     1      -1.000  53.675  -9.379  1.00  0.00    -0.032 C 
HETATM    5  C13 UNL     1      -1.655  53.517  -7.965  1.00  0.00     0.016 C 
HETATM    6  C14 UNL     1       0.538  53.873  -9.276  1.00  0.00     0.003 C 
HETATM    7  C15 UNL     1       0.977  55.185  -8.603  1.00  0.00     0.009 C 
HETATM    8  C16 UNL     1       2.399  55.166  -8.053  1.00  0.00     0.042 C 
HETATM    9  C17 UNL     1       3.432  54.299  -8.820  1.00  0.00     0.095 C 
HETATM   10  O3  UNL     1       4.613  54.198  -7.983  1.00  0.00    -0.377 OA
HETATM   11  C21 UNL     1       4.540  53.247  -6.933  1.00  0.00     0.169 C 
HETATM   12  C22 UNL     1       4.539  51.839  -7.488  1.00  0.00     0.027 C 
HETATM   13  C23 UNL     1       3.837  51.727  -8.834  1.00  0.00     0.010 C 
HETATM   14  C24 UNL     1       2.852  52.866  -9.179  1.00  0.00     0.032 C 
HETATM   15  C25 UNL     1       1.328  52.604  -8.786  1.00  0.00    -0.033 C 
HETATM   16  C26 UNL     1       1.160  52.307  -7.280  1.00  0.00     0.016 C 
HETATM   17  C27 UNL     1       0.817  51.319  -9.543  1.00  0.00     0.011 C 
HETATM   18  C28 UNL     1      -0.710  51.197  -9.767  1.00  0.00     0.011 C 
HETATM   19  C29 UNL     1      -1.311  52.481 -10.370  1.00  0.00    -0.032 C 
HETATM   20  C30 UNL     1      -0.713  52.647 -11.807  1.00  0.00     0.016 C 
ENDROOT
BRANCH   1  21
HETATM   21  C2  UNL     1      -3.633  51.838 -11.591  1.00  0.00    -0.010 C 
HETATM   22  C1  UNL     1      -2.923  51.906 -12.948  1.00  0.00     0.010 C 
BRANCH  21  23
HETATM   23  C3  UNL     1      -3.913  50.356 -11.217  1.00  0.00     0.031 C 
BRANCH  23  24
HETATM   24  C4  UNL     1      -5.161  50.132 -10.404  1.00  0.00    -0.027 C 
HETATM   25  C5  UNL     1      -6.232  49.459 -10.862  1.00  0.00     0.006 C 
BRANCH  25  26
HETATM   26  C6  UNL     1      -7.536  49.202 -10.149  1.00  0.00     0.068 C 
HETATM   27  C7  UNL     1      -7.449  48.221  -8.975  1.00  0.00     0.050 C 
HETATM   28  C8  UNL     1      -8.593  48.734 -11.153  1.00  0.00     0.050 C 
BRANCH  26  29
HETATM   29  O1  UNL     1      -7.948  50.472  -9.634  1.00  0.00    -0.387 OA
HETATM   30  H15 UNL     1      -8.754  50.331  -9.112  1.00  0.00     0.211 HD
ENDBRANCH  26  29
ENDBRANCH  25  26
ENDBRANCH  23  24
ENDBRANCH  21  23
ENDBRANCH   1  21
BRANCH   9  31
HETATM   31  C18 UNL     1       3.948  55.062 -10.135  1.00  0.00     0.082 C 
HETATM   32  C19 UNL     1       5.488  55.135 -10.198  1.00  0.00     0.049 C 
HETATM   33  C20 UNL     1       3.422  56.509 -10.232  1.00  0.00     0.049 C 
BRANCH  31  34
HETATM   34  O2  UNL     1       3.512  54.379 -11.319  1.00  0.00    -0.388 OA
HETATM   35  H35 UNL     1       3.832  54.881 -12.088  1.00  0.00     0.210 HD
ENDBRANCH  31  34
ENDBRANCH   9  31
TORSDOF 7
ENDMDL
MODEL 3
REMARK minimizedAffinity -9.08566189
REMARK CNNscore 0.4950791
REMARK CNNaffinity 7.13481855
REMARK  7 active torsions:
REMARK  status: ('A' for Active; 'I' for Inactive)
REMARK    1  A    between atoms: C2_2  and  C3_3 
REMARK    2  A    between atoms: C2_2  and  C9_10 
REMARK    3  A    between atoms: C3_3  and  C4_4 
REMARK    4  A    between atoms: C5_5  and  C6_6 
REMARK    5  A    between atoms: C6_6  and  O1_9 
REMARK    6  A    between atoms: C17_18  and  C18_19 
REMARK    7  A    between atoms: C18_19  and  O2_22 
ROOT
HETATM    1  C9  UNL     1      -3.802  50.299 -25.485  1.00  0.00    -0.002 C 
HETATM    2  C10 UNL     1      -3.845  51.842 -25.237  1.00  0.00     0.006 C 
HETATM    3  C11 UNL     1      -3.720  52.072 -23.715  1.00  0.00     0.011 C 
HETATM    4  C12 UNL     1      -3.932  50.675 -23.104  1.00  0.00    -0.032 C 
HETATM    5  C13 UNL     1      -5.484  50.460 -23.088  1.00  0.00     0.016 C 
HETATM    6  C14 UNL     1      -3.312  50.458 -21.695  1.00  0.00     0.003 C 
HETATM    7  C15 UNL     1      -3.740  51.490 -20.636  1.00  0.00     0.009 C 
HETATM    8  C16 UNL     1      -3.563  51.023 -19.195  1.00  0.00     0.042 C 
HETATM    9  C17 UNL     1      -2.380  50.060 -18.913  1.00  0.00     0.095 C 
HETATM   10  O3  UNL     1      -2.569  49.529 -17.576  1.00  0.00    -0.377 OA
HETATM   11  C21 UNL     1      -3.506  48.470 -17.463  1.00  0.00     0.169 C 
HETATM   12  C22 UNL     1      -2.977  47.218 -18.128  1.00  0.00     0.027 C 
HETATM   13  C23 UNL     1      -2.109  47.506 -19.345  1.00  0.00     0.010 C 
HETATM   14  C24 UNL     1      -2.294  48.897 -19.991  1.00  0.00     0.032 C 
HETATM   15  C25 UNL     1      -3.344  48.969 -21.191  1.00  0.00    -0.033 C 
HETATM   16  C26 UNL     1      -4.746  48.483 -20.763  1.00  0.00     0.016 C 
HETATM   17  C27 UNL     1      -2.877  47.995 -22.339  1.00  0.00     0.011 C 
HETATM   18  C28 UNL     1      -3.386  48.301 -23.768  1.00  0.00     0.011 C 
HETATM   19  C29 UNL     1      -3.168  49.775 -24.157  1.00  0.00    -0.032 C 
HETATM   20  C30 UNL     1      -1.623  50.016 -24.229  1.00  0.00     0.016 C 
ENDROOT
BRANCH   1  21
HETATM   21  C2  UNL     1      -3.150  49.947 -26.853  1.00  0.00    -0.010 C 
HETATM   22  C1  UNL     1      -3.970  48.928 -27.654  1.00  0.00     0.010 C 
BRANCH  21  23
HETATM   23  C3  UNL     1      -2.877  51.204 -27.724  1.00  0.00     0.031 C 
BRANCH  23  24
HETATM   24  C4  UNL     1      -1.650  51.989 -27.338  1.00  0.00    -0.027 C 
HETATM   25  C5  UNL     1      -0.401  51.499 -27.423  1.00  0.00     0.006 C 
BRANCH  25  26
HETATM   26  C6  UNL     1       0.888  52.181 -27.040  1.00  0.00     0.068 C 
HETATM   27  C7  UNL     1       2.101  51.801 -27.897  1.00  0.00     0.050 C 
HETATM   28  C8  UNL     1       1.188  51.932 -25.559  1.00  0.00     0.050 C 
BRANCH  26  29
HETATM   29  O1  UNL     1       0.647  53.581 -27.212  1.00  0.00    -0.387 OA
HETATM   30  H15 UNL     1       1.479  54.048 -27.036  1.00  0.00     0.211 HD
ENDBRANCH  26  29
ENDBRANCH  25  26
ENDBRANCH  23  24
ENDBRANCH  21  23
ENDBRANCH   1  21
BRANCH   9  31
HETATM   31  C18 UNL     1      -0.997  50.871 -18.822  1.00  0.00     0.082 C 
HETATM   32  C19 UNL     1      -0.153  50.724 -20.105  1.00  0.00     0.049 C 
HETATM   33  C20 UNL     1      -0.113  50.414 -17.644  1.00  0.00     0.049 C 
BRANCH  31  34
HETATM   34  O2  UNL     1      -1.244  52.272 -18.640  1.00  0.00    -0.388 OA
HETATM   35  H35 UNL     1      -0.384  52.720 -18.576  1.00  0.00     0.210 HD
ENDBRANCH  31  34
ENDBRANCH   9  31
TORSDOF 7
ENDMDL
MODEL 4
REMARK minimizedAffinity -8.6429491
REMARK CNNscore 0.488807887
REMARK CNNaffinity 6.95833969
REMARK  7 active torsions:
REMARK  status: ('A' for Active; 'I' for Inactive)
REMARK    1  A    between atoms: C2_2  and  C3_3 
REMARK    2  A    between atoms: C2_2  and  C9_10 
REMARK    3  A    between atoms: C3_3  and  C4_4 
REMARK    4  A    between atoms: C5_5  and  C6_6 
REMARK    5  A    between atoms: C6_6  and  O1_9 
REMARK    6  A    between atoms: C17_18  and  C18_19 
REMARK    7  A    between atoms: C18_19  and  O2_22 
ROOT
HETATM    1  C9  UNL     1      -1.141  51.477 -22.647  1.00  0.00    -0.002 C 
HETATM    2  C10 UNL     1      -2.466  52.113 -23.181  1.00  0.00     0.006 C 
HETATM    3  C11 UNL     1      -3.630  51.195 -22.746  1.00  0.00     0.011 C 
HETATM    4  C12 UNL     1      -2.936  49.909 -22.261  1.00  0.00    -0.032 C 
HETATM    5  C13 UNL     1      -2.600  49.104 -23.563  1.00  0.00     0.016 C 
HETATM    6  C14 UNL     1      -3.747  49.049 -21.252  1.00  0.00     0.003 C 
HETATM    7  C15 UNL     1      -5.157  48.656 -21.726  1.00  0.00     0.009 C 
HETATM    8  C16 UNL     1      -5.747  47.444 -21.012  1.00  0.00     0.042 C 
HETATM    9  C17 UNL     1      -5.335  47.238 -19.530  1.00  0.00     0.095 C 
HETATM   10  O3  UNL     1      -5.767  45.906 -19.147  1.00  0.00    -0.377 OA
HETATM   11  C21 UNL     1      -4.924  44.845 -19.566  1.00  0.00     0.169 C 
HETATM   12  C22 UNL     1      -3.610  44.879 -18.816  1.00  0.00     0.027 C 
HETATM   13  C23 UNL     1      -3.152  46.290 -18.474  1.00  0.00     0.010 C 
HETATM   14  C24 UNL     1      -3.773  47.424 -19.319  1.00  0.00     0.032 C 
HETATM   15  C25 UNL     1      -2.935  47.868 -20.602  1.00  0.00    -0.033 C 
HETATM   16  C26 UNL     1      -2.675  46.685 -21.561  1.00  0.00     0.016 C 
HETATM   17  C27 UNL     1      -1.516  48.373 -20.139  1.00  0.00     0.011 C 
HETATM   18  C28 UNL     1      -0.773  49.345 -21.087  1.00  0.00     0.011 C 
HETATM   19  C29 UNL     1      -1.669  50.516 -21.534  1.00  0.00    -0.032 C 
HETATM   20  C30 UNL     1      -1.988  51.372 -20.263  1.00  0.00     0.016 C 
ENDROOT
BRANCH   1  21
HETATM   21  C2  UNL     1      -0.075  52.557 -22.303  1.00  0.00    -0.010 C 
HETATM   22  C1  UNL     1       1.045  52.018 -21.406  1.00  0.00     0.010 C 
BRANCH  21  23
HETATM   23  C3  UNL     1       0.537  53.215 -23.572  1.00  0.00     0.031 C 
BRANCH  23  24
HETATM   24  C4  UNL     1       0.378  52.417 -24.839  1.00  0.00    -0.027 C 
HETATM   25  C5  UNL     1      -0.076  52.941 -25.992  1.00  0.00     0.006 C 
BRANCH  25  26
HETATM   26  C6  UNL     1      -0.300  52.234 -27.305  1.00  0.00     0.068 C 
HETATM   27  C7  UNL     1      -1.252  51.035 -27.239  1.00  0.00     0.050 C 
HETATM   28  C8  UNL     1       1.043  51.812 -27.904  1.00  0.00     0.050 C 
BRANCH  26  29
HETATM   29  O1  UNL     1      -0.883  53.213 -28.172  1.00  0.00    -0.387 OA
HETATM   30  H15 UNL     1      -1.101  52.773 -29.009  1.00  0.00     0.211 HD
ENDBRANCH  26  29
ENDBRANCH  25  26
ENDBRANCH  23  24
ENDBRANCH  21  23
ENDBRANCH   1  21
BRANCH   9  31
HETATM   31  C18 UNL     1      -6.172  48.214 -18.568  1.00  0.00     0.082 C 
HETATM   32  C19 UNL     1      -7.000  47.433 -17.527  1.00  0.00     0.049 C 
HETATM   33  C20 UNL     1      -7.154  49.118 -19.342  1.00  0.00     0.049 C 
BRANCH  31  34
HETATM   34  O2  UNL     1      -5.292  49.081 -17.840  1.00  0.00    -0.388 OA
HETATM   35  H35 UNL     1      -5.838  49.662 -17.284  1.00  0.00     0.210 HD
ENDBRANCH  31  34
ENDBRANCH   9  31
TORSDOF 7
ENDMDL
MODEL 5
REMARK minimizedAffinity -7.37373781
REMARK CNNscore 0.484814882
REMARK CNNaffinity 6.12705469
REMARK  7 active torsions:
REMARK  status: ('A' for Active; 'I' for Inactive)
REMARK    1  A    between atoms: C2_2  and  C3_3 
REMARK    2  A    between atoms: C2_2  and  C9_10 
REMARK    3  A    between atoms: C3_3  and  C4_4 
REMARK    4  A    between atoms: C5_5  and  C6_6 
REMARK    5  A    between atoms: C6_6  and  O1_9 
REMARK    6  A    between atoms: C17_18  and  C18_19 
REMARK    7  A    between atoms: C18_19  and  O2_22 
ROOT
HETATM    1  C9  UNL     1     -13.224  45.235 -27.198  1.00  0.00    -0.002 C 
HETATM    2  C10 UNL     1     -12.384  45.004 -25.900  1.00  0.00     0.006 C 
HETATM    3  C11 UNL     1     -10.892  45.065 -26.295  1.00  0.00     0.011 C 
HETATM    4  C12 UNL     1     -10.907  45.007 -27.834  1.00  0.00    -0.032 C 
HETATM    5  C13 UNL     1     -11.085  43.491 -28.189  1.00  0.00     0.016 C 
HETATM    6  C14 UNL     1      -9.663  45.615 -28.540  1.00  0.00     0.003 C 
HETATM    7  C15 UNL     1      -8.312  45.044 -28.074  1.00  0.00     0.009 C 
HETATM    8  C16 UNL     1      -7.169  45.241 -29.064  1.00  0.00     0.042 C 
HETATM    9  C17 UNL     1      -7.215  46.523 -29.937  1.00  0.00     0.095 C 
HETATM   10  O3  UNL     1      -6.218  46.368 -30.980  1.00  0.00    -0.377 OA
HETATM   11  C21 UNL     1      -6.604  45.561 -32.081  1.00  0.00     0.169 C 
HETATM   12  C22 UNL     1      -7.675  46.250 -32.897  1.00  0.00     0.027 C 
HETATM   13  C23 UNL     1      -8.612  47.105 -32.055  1.00  0.00     0.010 C 
HETATM   14  C24 UNL     1      -8.659  46.771 -30.548  1.00  0.00     0.032 C 
HETATM   15  C25 UNL     1      -9.799  45.749 -30.101  1.00  0.00    -0.033 C 
HETATM   16  C26 UNL     1      -9.700  44.404 -30.855  1.00  0.00     0.016 C 
HETATM   17  C27 UNL     1     -11.206  46.354 -30.475  1.00  0.00     0.011 C 
HETATM   18  C28 UNL     1     -12.425  45.845 -29.668  1.00  0.00     0.011 C 
HETATM   19  C29 UNL     1     -12.176  45.896 -28.149  1.00  0.00    -0.032 C 
HETATM   20  C30 UNL     1     -12.039  47.403 -27.748  1.00  0.00     0.016 C 
ENDROOT
BRANCH   1  21
HETATM   21  C2  UNL     1     -14.571  45.956 -26.899  1.00  0.00    -0.010 C 
HETATM   22  C1  UNL     1     -15.755  45.329 -27.643  1.00  0.00     0.010 C 
BRANCH  21  23
HETATM   23  C3  UNL     1     -14.883  46.029 -25.378  1.00  0.00     0.031 C 
BRANCH  23  24
HETATM   24  C4  UNL     1     -16.232  46.603 -25.034  1.00  0.00    -0.027 C 
HETATM   25  C5  UNL     1     -17.271  45.856 -24.620  1.00  0.00     0.006 C 
BRANCH  25  26
HETATM   26  C6  UNL     1     -18.665  46.319 -24.278  1.00  0.00     0.068 C 
HETATM   27  C7  UNL     1     -18.964  46.418 -22.778  1.00  0.00     0.050 C 
HETATM   28  C8  UNL     1     -19.694  45.417 -24.965  1.00  0.00     0.050 C 
BRANCH  26  29
HETATM   29  O1  UNL     1     -18.782  47.630 -24.840  1.00  0.00    -0.387 OA
HETATM   30  H15 UNL     1     -19.647  47.985 -24.582  1.00  0.00     0.211 HD
ENDBRANCH  26  29
ENDBRANCH  25  26
ENDBRANCH  23  24
ENDBRANCH  21  23
ENDBRANCH   1  21
BRANCH   9  31
HETATM   31  C18 UNL     1      -6.712  47.797 -29.099  1.00  0.00     0.082 C 
HETATM   32  C19 UNL     1      -5.449  48.435 -29.714  1.00  0.00     0.049 C 
HETATM   33  C20 UNL     1      -6.378  47.455 -27.633  1.00  0.00     0.049 C 
BRANCH  31  34
HETATM   34  O2  UNL     1      -7.724  48.814 -29.071  1.00  0.00    -0.388 OA
HETATM   35  H35 UNL     1      -7.385  49.557 -28.543  1.00  0.00     0.210 HD
ENDBRANCH  31  34
ENDBRANCH   9  31
TORSDOF 7
ENDMDL
MODEL 6
REMARK minimizedAffinity -7.2798686
REMARK CNNscore 0.412616551
REMARK CNNaffinity 6.69671249
REMARK  7 active torsions:
REMARK  status: ('A' for Active; 'I' for Inactive)
REMARK    1  A    between atoms: C2_2  and  C3_3 
REMARK    2  A    between atoms: C2_2  and  C9_10 
REMARK    3  A    between atoms: C3_3  and  C4_4 
REMARK    4  A    between atoms: C5_5  and  C6_6 
REMARK    5  A    between atoms: C6_6  and  O1_9 
REMARK    6  A    between atoms: C17_18  and  C18_19 
REMARK    7  A    between atoms: C18_19  and  O2_22 
ROOT
HETATM    1  C9  UNL     1      -1.552  50.434 -21.194  1.00  0.00    -0.002 C 
HETATM    2  C10 UNL     1      -2.653  51.492 -21.530  1.00  0.00     0.006 C 
HETATM    3  C11 UNL     1      -4.026  50.821 -21.307  1.00  0.00     0.011 C 
HETATM    4  C12 UNL     1      -3.695  49.324 -21.163  1.00  0.00    -0.032 C 
HETATM    5  C13 UNL     1      -3.517  48.796 -22.628  1.00  0.00     0.016 C 
HETATM    6  C14 UNL     1      -4.737  48.480 -20.377  1.00  0.00     0.003 C 
HETATM    7  C15 UNL     1      -6.180  48.580 -20.902  1.00  0.00     0.009 C 
HETATM    8  C16 UNL     1      -7.082  47.422 -20.492  1.00  0.00     0.042 C 
HETATM    9  C17 UNL     1      -6.797  46.770 -19.113  1.00  0.00     0.095 C 
HETATM   10  O3  UNL     1      -7.563  45.538 -19.055  1.00  0.00    -0.377 OA
HETATM   11  C21 UNL     1      -6.994  44.431 -19.736  1.00  0.00     0.169 C 
HETATM   12  C22 UNL     1      -5.746  43.952 -19.027  1.00  0.00     0.027 C 
HETATM   13  C23 UNL     1      -4.966  45.078 -18.362  1.00  0.00     0.010 C 
HETATM   14  C24 UNL     1      -5.248  46.500 -18.894  1.00  0.00     0.032 C 
HETATM   15  C25 UNL     1      -4.273  47.013 -20.049  1.00  0.00    -0.033 C 
HETATM   16  C26 UNL     1      -4.276  46.068 -21.271  1.00  0.00     0.016 C 
HETATM   17  C27 UNL     1      -2.794  47.018 -19.506  1.00  0.00     0.011 C 
HETATM   18  C28 UNL     1      -1.793  47.969 -20.206  1.00  0.00     0.011 C 
HETATM   19  C29 UNL     1      -2.349  49.399 -20.337  1.00  0.00    -0.032 C 
HETATM   20  C30 UNL     1      -2.497  49.978 -18.890  1.00  0.00     0.016 C 
ENDROOT
BRANCH   1  21
HETATM   21  C2  UNL     1      -0.265  51.096 -20.621  1.00  0.00    -0.010 C 
HETATM   22  C1  UNL     1       0.689  51.580 -21.718  1.00  0.00     0.010 C 
BRANCH  21  23
HETATM   23  C3  UNL     1      -0.579  52.262 -19.643  1.00  0.00     0.031 C 
BRANCH  23  24
HETATM   24  C4  UNL     1       0.503  52.555 -18.638  1.00  0.00    -0.027 C 
HETATM   25  C5  UNL     1       0.596  51.936 -17.447  1.00  0.00     0.006 C 
BRANCH  25  26
HETATM   26  C6  UNL     1       1.615  52.170 -16.360  1.00  0.00     0.068 C 
HETATM   27  C7  UNL     1       3.025  52.510 -16.857  1.00  0.00     0.050 C 
HETATM   28  C8  UNL     1       1.661  50.960 -15.422  1.00  0.00     0.050 C 
BRANCH  26  29
HETATM   29  O1  UNL     1       1.128  53.289 -15.613  1.00  0.00    -0.387 OA
HETATM   30  H15 UNL     1       1.794  53.509 -14.943  1.00  0.00     0.211 HD
ENDBRANCH  26  29
ENDBRANCH  25  26
ENDBRANCH  23  24
ENDBRANCH  21  23
ENDBRANCH   1  21
BRANCH   9  31
HETATM   31  C18 UNL     1      -7.403  47.665 -17.926  1.00  0.00     0.082 C 
HETATM   32  C19 UNL     1      -7.952  46.803 -16.770  1.00  0.00     0.049 C 
HETATM   33  C20 UNL     1      -8.554  48.579 -18.395  1.00  0.00     0.049 C 
BRANCH  31  34
HETATM   34  O2  UNL     1      -6.393  48.519 -17.370  1.00  0.00    -0.388 OA
HETATM   35  H35 UNL     1      -6.805  49.051 -16.669  1.00  0.00     0.210 HD
ENDBRANCH  31  34
ENDBRANCH   9  31
TORSDOF 7
ENDMDL
MODEL 7
REMARK minimizedAffinity -7.31304884
REMARK CNNscore 0.410628587
REMARK CNNaffinity 5.96845579
REMARK  7 active torsions:
REMARK  status: ('A' for Active; 'I' for Inactive)
REMARK    1  A    between atoms: C2_2  and  C3_3 
REMARK    2  A    between atoms: C2_2  and  C9_10 
REMARK    3  A    between atoms: C3_3  and  C4_4 
REMARK    4  A    between atoms: C5_5  and  C6_6 
REMARK    5  A    between atoms: C6_6  and  O1_9 
REMARK    6  A    between atoms: C17_18  and  C18_19 
REMARK    7  A    between atoms: C18_19  and  O2_22 
ROOT
HETATM    1  C9  UNL     1     -13.759  45.778 -26.446  1.00  0.00    -0.002 C 
HETATM    2  C10 UNL     1     -14.622  45.980 -27.735  1.00  0.00     0.006 C 
HETATM    3  C11 UNL     1     -13.664  46.384 -28.877  1.00  0.00     0.011 C 
HETATM    4  C12 UNL     1     -12.342  46.715 -28.161  1.00  0.00    -0.032 C 
HETATM    5  C13 UNL     1     -12.523  48.170 -27.607  1.00  0.00     0.016 C 
HETATM    6  C14 UNL     1     -11.059  46.593 -29.030  1.00  0.00     0.003 C 
HETATM    7  C15 UNL     1     -11.085  47.403 -30.338  1.00  0.00     0.009 C 
HETATM    8  C16 UNL     1      -9.709  47.695 -30.926  1.00  0.00     0.042 C 
HETATM    9  C17 UNL     1      -8.609  46.626 -30.692  1.00  0.00     0.095 C 
HETATM   10  O3  UNL     1      -7.343  47.223 -31.074  1.00  0.00    -0.377 OA
HETATM   11  C21 UNL     1      -6.759  48.088 -30.112  1.00  0.00     0.169 C 
HETATM   12  C22 UNL     1      -6.282  47.303 -28.910  1.00  0.00     0.027 C 
HETATM   13  C23 UNL     1      -7.154  46.094 -28.599  1.00  0.00     0.010 C 
HETATM   14  C24 UNL     1      -8.582  46.124 -29.186  1.00  0.00     0.032 C 
HETATM   15  C25 UNL     1      -9.712  46.714 -28.226  1.00  0.00    -0.033 C 
HETATM   16  C26 UNL     1      -9.387  48.152 -27.764  1.00  0.00     0.016 C 
HETATM   17  C27 UNL     1      -9.779  45.840 -26.916  1.00  0.00     0.011 C 
HETATM   18  C28 UNL     1     -11.112  45.857 -26.129  1.00  0.00     0.011 C 
HETATM   19  C29 UNL     1     -12.326  45.597 -27.041  1.00  0.00    -0.032 C 
HETATM   20  C30 UNL     1     -12.203  44.132 -27.578  1.00  0.00     0.016 C 
ENDROOT
BRANCH   1  21
HETATM   21  C2  UNL     1     -14.358  44.688 -25.510  1.00  0.00    -0.010 C 
HETATM   22  C1  UNL     1     -14.252  45.060 -24.027  1.00  0.00     0.010 C 
BRANCH  21  23
HETATM   23  C3  UNL     1     -15.832  44.343 -25.863  1.00  0.00     0.031 C 
BRANCH  23  24
HETATM   24  C4  UNL     1     -16.860  44.928 -24.931  1.00  0.00    -0.027 C 
HETATM   25  C5  UNL     1     -17.855  45.736 -25.339  1.00  0.00     0.006 C 
BRANCH  25  26
HETATM   26  C6  UNL     1     -18.916  46.396 -24.495  1.00  0.00     0.068 C 
HETATM   27  C7  UNL     1     -18.692  46.298 -22.982  1.00  0.00     0.050 C 
HETATM   28  C8  UNL     1     -20.294  45.841 -24.864  1.00  0.00     0.050 C 
BRANCH  26  29
HETATM   29  O1  UNL     1     -18.887  47.781 -24.857  1.00  0.00    -0.387 OA
HETATM   30  H15 UNL     1     -19.514  48.249 -24.284  1.00  0.00     0.211 HD
ENDBRANCH  26  29
ENDBRANCH  25  26
ENDBRANCH  23  24
ENDBRANCH  21  23
ENDBRANCH   1  21
BRANCH   9  31
HETATM   31  C18 UNL     1      -8.786  45.397 -31.710  1.00  0.00     0.082 C 
HETATM   32  C19 UNL     1      -9.607  45.788 -32.956  1.00  0.00     0.049 C 
HETATM   33  C20 UNL     1      -9.490  44.184 -31.067  1.00  0.00     0.049 C 
BRANCH  31  34
HETATM   34  O2  UNL     1      -7.509  44.939 -32.176  1.00  0.00    -0.388 OA
HETATM   35  H35 UNL     1      -7.661  44.189 -32.774  1.00  0.00     0.210 HD
ENDBRANCH  31  34
ENDBRANCH   9  31
TORSDOF 7
ENDMDL
MODEL 8
REMARK minimizedAffinity -8.69262218
REMARK CNNscore 0.392193735
REMARK CNNaffinity 6.74865389
REMARK  7 active torsions:
REMARK  status: ('A' for Active; 'I' for Inactive)
REMARK    1  A    between atoms: C2_2  and  C3_3 
REMARK    2  A    between atoms: C2_2  and  C9_10 
REMARK    3  A    between atoms: C3_3  and  C4_4 
REMARK    4  A    between atoms: C5_5  and  C6_6 
REMARK    5  A    between atoms: C6_6  and  O1_9 
REMARK    6  A    between atoms: C17_18  and  C18_19 
REMARK    7  A    between atoms: C18_19  and  O2_22 
ROOT
HETATM    1  C9  UNL     1      -0.225  51.775 -21.913  1.00  0.00    -0.002 C 
HETATM    2  C10 UNL     1      -1.305  52.637 -22.645  1.00  0.00     0.006 C 
HETATM    3  C11 UNL     1      -2.609  51.811 -22.687  1.00  0.00     0.011 C 
HETATM    4  C12 UNL     1      -2.171  50.393 -22.276  1.00  0.00    -0.032 C 
HETATM    5  C13 UNL     1      -1.559  49.757 -23.571  1.00  0.00     0.016 C 
HETATM    6  C14 UNL     1      -3.286  49.495 -21.672  1.00  0.00     0.003 C 
HETATM    7  C15 UNL     1      -4.543  49.348 -22.549  1.00  0.00     0.009 C 
HETATM    8  C16 UNL     1      -5.393  48.123 -22.233  1.00  0.00     0.042 C 
HETATM    9  C17 UNL     1      -5.413  47.651 -20.755  1.00  0.00     0.095 C 
HETATM   10  O3  UNL     1      -6.032  46.338 -20.733  1.00  0.00    -0.377 OA
HETATM   11  C21 UNL     1      -5.190  45.258 -21.104  1.00  0.00     0.169 C 
HETATM   12  C22 UNL     1      -4.129  45.022 -20.052  1.00  0.00     0.027 C 
HETATM   13  C23 UNL     1      -3.674  46.302 -19.363  1.00  0.00     0.010 C 
HETATM   14  C24 UNL     1      -3.956  47.615 -20.125  1.00  0.00     0.032 C 
HETATM   15  C25 UNL     1      -2.772  48.142 -21.056  1.00  0.00    -0.033 C 
HETATM   16  C26 UNL     1      -2.354  47.093 -22.110  1.00  0.00     0.016 C 
HETATM   17  C27 UNL     1      -1.497  48.399 -20.167  1.00  0.00     0.011 C 
HETATM   18  C28 UNL     1      -0.454  49.406 -20.710  1.00  0.00     0.011 C 
HETATM   19  C29 UNL     1      -1.105  50.729 -21.157  1.00  0.00    -0.032 C 
HETATM   20  C30 UNL     1      -1.688  51.417 -19.878  1.00  0.00     0.016 C 
ENDROOT
BRANCH   1  21
HETATM   21  C2  UNL     1       0.788  52.657 -21.127  1.00  0.00    -0.010 C 
HETATM   22  C1  UNL     1       1.244  53.885 -21.922  1.00  0.00     0.010 C 
BRANCH  21  23
HETATM   23  C3  UNL     1       0.242  53.099 -19.740  1.00  0.00     0.031 C 
BRANCH  23  24
HETATM   24  C4  UNL     1       1.195  52.900 -18.591  1.00  0.00    -0.027 C 
HETATM   25  C5  UNL     1       0.837  52.343 -17.421  1.00  0.00     0.006 C 
BRANCH  25  26
HETATM   26  C6  UNL     1       1.696  52.122 -16.200  1.00  0.00     0.068 C 
HETATM   27  C7  UNL     1       3.189  52.402 -16.401  1.00  0.00     0.050 C 
HETATM   28  C8  UNL     1       1.489  50.701 -15.670  1.00  0.00     0.050 C 
BRANCH  26  29
HETATM   29  O1  UNL     1       1.203  53.036 -15.215  1.00  0.00    -0.387 OA
HETATM   30  H15 UNL     1       1.777  52.967 -14.436  1.00  0.00     0.211 HD
ENDBRANCH  26  29
ENDBRANCH  25  26
ENDBRANCH  23  24
ENDBRANCH  21  23
ENDBRANCH   1  21
BRANCH   9  31
HETATM   31  C18 UNL     1      -6.401  48.565 -19.880  1.00  0.00     0.082 C 
HETATM   32  C19 UNL     1      -7.847  48.027 -19.886  1.00  0.00     0.049 C 
HETATM   33  C20 UNL     1      -6.460  50.025 -20.375  1.00  0.00     0.049 C 
BRANCH  31  34
HETATM   34  O2  UNL     1      -5.974  48.605 -18.511  1.00  0.00    -0.388 OA
HETATM   35  H35 UNL     1      -6.589  49.179 -18.024  1.00  0.00     0.210 HD
ENDBRANCH  31  34
ENDBRANCH   9  31
TORSDOF 7
ENDMDL
MODEL 9
REMARK minimizedAffinity -8.0097723
REMARK CNNscore 0.361388862
REMARK CNNaffinity 6.62781906
REMARK  7 active torsions:
REMARK  status: ('A' for Active; 'I' for Inactive)
REMARK    1  A    between atoms: C2_2  and  C3_3 
REMARK    2  A    between atoms: C2_2  and  C9_10 
REMARK    3  A    between atoms: C3_3  and  C4_4 
REMARK    4  A    between atoms: C5_5  and  C6_6 
REMARK    5  A    between atoms: C6_6  and  O1_9 
REMARK    6  A    between atoms: C17_18  and  C18_19 
REMARK    7  A    between atoms: C18_19  and  O2_22 
ROOT
HETATM    1  C9  UNL     1      -1.960  50.235 -21.362  1.00  0.00    -0.002 C 
HETATM    2  C10 UNL     1      -1.191  48.885 -21.546  1.00  0.00     0.006 C 
HETATM    3  C11 UNL     1      -2.167  47.742 -21.191  1.00  0.00     0.011 C 
HETATM    4  C12 UNL     1      -3.351  48.454 -20.512  1.00  0.00    -0.032 C 
HETATM    5  C13 UNL     1      -2.890  48.710 -19.036  1.00  0.00     0.016 C 
HETATM    6  C14 UNL     1      -4.707  47.696 -20.562  1.00  0.00     0.003 C 
HETATM    7  C15 UNL     1      -4.665  46.258 -20.015  1.00  0.00     0.009 C 
HETATM    8  C16 UNL     1      -6.021  45.702 -19.597  1.00  0.00     0.042 C 
HETATM    9  C17 UNL     1      -7.255  46.196 -20.398  1.00  0.00     0.095 C 
HETATM   10  O3  UNL     1      -8.437  45.779 -19.666  1.00  0.00    -0.377 OA
HETATM   11  C21 UNL     1      -8.788  46.589 -18.556  1.00  0.00     0.169 C 
HETATM   12  C22 UNL     1      -9.279  47.943 -19.018  1.00  0.00     0.027 C 
HETATM   13  C23 UNL     1      -8.589  48.429 -20.286  1.00  0.00     0.010 C 
HETATM   14  C24 UNL     1      -7.231  47.769 -20.611  1.00  0.00     0.032 C 
HETATM   15  C25 UNL     1      -5.942  48.535 -20.066  1.00  0.00    -0.033 C 
HETATM   16  C26 UNL     1      -5.990  48.732 -18.534  1.00  0.00     0.016 C 
HETATM   17  C27 UNL     1      -5.903  49.982 -20.690  1.00  0.00     0.011 C 
HETATM   18  C28 UNL     1      -4.522  50.676 -20.766  1.00  0.00     0.011 C 
HETATM   19  C29 UNL     1      -3.450  49.765 -21.392  1.00  0.00    -0.032 C 
HETATM   20  C30 UNL     1      -3.854  49.525 -22.885  1.00  0.00     0.016 C 
ENDROOT
BRANCH   1  21
HETATM   21  C2  UNL     1      -1.466  51.326 -22.355  1.00  0.00    -0.010 C 
HETATM   22  C1  UNL     1      -0.232  52.077 -21.842  1.00  0.00     0.010 C 
BRANCH  21  23
HETATM   23  C3  UNL     1      -1.186  50.758 -23.774  1.00  0.00     0.031 C 
BRANCH  23  24
HETATM   24  C4  UNL     1      -0.304  51.620 -24.639  1.00  0.00    -0.027 C 
HETATM   25  C5  UNL     1       0.173  51.227 -25.833  1.00  0.00     0.006 C 
BRANCH  25  26
HETATM   26  C6  UNL     1       1.081  51.991 -26.764  1.00  0.00     0.068 C 
HETATM   27  C7  UNL     1       0.645  51.995 -28.234  1.00  0.00     0.050 C 
HETATM   28  C8  UNL     1       2.514  51.468 -26.638  1.00  0.00     0.050 C 
BRANCH  26  29
HETATM   29  O1  UNL     1       1.061  53.343 -26.294  1.00  0.00    -0.387 OA
HETATM   30  H15 UNL     1       1.585  53.878 -26.911  1.00  0.00     0.211 HD
ENDBRANCH  26  29
ENDBRANCH  25  26
ENDBRANCH  23  24
ENDBRANCH  21  23
ENDBRANCH   1  21
BRANCH   9  31
HETATM   31  C18 UNL     1      -7.368  45.423 -21.800  1.00  0.00     0.082 C 
HETATM   32  C19 UNL     1      -8.831  45.110 -22.175  1.00  0.00     0.049 C 
HETATM   33  C20 UNL     1      -6.603  44.083 -21.807  1.00  0.00     0.049 C 
BRANCH  31  34
HETATM   34  O2  UNL     1      -6.823  46.219 -22.862  1.00  0.00    -0.388 OA
HETATM   35  H35 UNL     1      -6.898  45.709 -23.686  1.00  0.00     0.210 HD
ENDBRANCH  31  34
ENDBRANCH   9  31
TORSDOF 7
ENDMDL
