MODEL 1
REMARK minimizedAffinity -7.24717999
REMARK CNNscore 0.503225267
REMARK CNNaffinity 6.46797895
REMARK  5 active torsions:
REMARK  status: ('A' for Active; 'I' for Inactive)
REMARK    1  A    between atoms: C2_2  and  C3_3 
REMARK    2  A    between atoms: C6_6  and  C7_7 
REMARK    3  A    between atoms: C7_7  and  O1_8 
REMARK    4  A    between atoms: C7_7  and  C8_9 
REMARK    5  A    between atoms: C26_32  and  O6_33 
ROOT
HETATM    1  C3  UNL     1       6.761  55.933  -5.548  1.00  0.00     0.008 C 
HETATM    2  C4  UNL     1       6.238  54.542  -5.234  1.00  0.00    -0.023 C 
HETATM    3  C5  UNL     1       5.923  53.585  -6.126  1.00  0.00     0.005 C 
HETATM    4  C6  UNL     1       6.147  53.645  -7.620  1.00  0.00     0.187 C 
HETATM    5  O2  UNL     1       4.879  53.970  -8.221  1.00  0.00    -0.308 OA
HETATM    6  C12 UNL     1       4.990  54.708  -9.369  1.00  0.00     0.276 C 
HETATM    7  O3  UNL     1       6.064  54.963  -9.915  1.00  0.00    -0.264 OA
HETATM    8  C13 UNL     1       3.604  55.065  -9.975  1.00  0.00     0.095 C 
HETATM    9  C14 UNL     1       3.753  56.315 -10.873  1.00  0.00     0.036 C 
HETATM   10  C15 UNL     1       3.371  53.894 -10.910  1.00  0.00     0.003 C 
HETATM   11  C16 UNL     1       2.271  53.222 -11.250  1.00  0.00     0.072 C 
HETATM   12  C17 UNL     1       0.888  53.430 -10.826  1.00  0.00     0.245 C 
HETATM   13  O4  UNL     1      -0.007  52.845 -11.436  1.00  0.00    -0.268 OA
HETATM   14  N1  UNL     1       0.578  54.202  -9.770  1.00  0.00    -0.320 N 
HETATM   15  C18 UNL     1       1.262  54.987  -8.874  1.00  0.00     0.098 A 
HETATM   16  C19 UNL     1       2.549  55.365  -8.902  1.00  0.00     0.045 A 
HETATM   17  C20 UNL     1       3.055  56.273  -7.798  1.00  0.00     0.194 A 
HETATM   18  O5  UNL     1       4.200  56.697  -7.846  1.00  0.00    -0.287 OA
HETATM   19  C21 UNL     1       2.186  56.665  -6.669  1.00  0.00     0.046 A 
HETATM   20  C22 UNL     1       0.850  56.293  -6.705  1.00  0.00     0.032 A 
HETATM   21  C23 UNL     1      -0.043  56.671  -5.683  1.00  0.00     0.026 A 
HETATM   22  C24 UNL     1       0.390  57.424  -4.587  1.00  0.00    -0.027 A 
HETATM   23  C25 UNL     1      -0.593  57.800  -3.516  1.00  0.00     0.051 C 
HETATM   24  C26 UNL     1       1.738  57.791  -4.538  1.00  0.00     0.086 A 
HETATM   25  C27 UNL     1       2.637  57.406  -5.558  1.00  0.00     0.059 A 
HETATM   26  C28 UNL     1       4.052  57.807  -5.374  1.00  0.00     0.163 C 
HETATM   27  O7  UNL     1       4.500  58.753  -6.013  1.00  0.00    -0.292 OA
HETATM   28  C29 UNL     1       4.808  57.082  -4.273  1.00  0.00     0.084 C 
HETATM   29  C30 UNL     1       6.320  56.971  -4.492  1.00  0.00     0.016 C 
HETATM   30  C31 UNL     1       0.334  55.473  -7.801  1.00  0.00     0.210 A 
HETATM   31  O8  UNL     1      -0.857  55.170  -7.840  1.00  0.00    -0.285 OA
HETATM   32  H24 UNL     1      -0.426  54.143  -9.575  1.00  0.00     0.169 HD
ENDROOT
BRANCH   4  33
HETATM   33  C7  UNL     1       6.683  52.296  -8.207  1.00  0.00     0.174 C 
BRANCH  33  34
HETATM   34  O1  UNL     1       7.313  51.499  -7.195  1.00  0.00    -0.389 OA
HETATM   35  H11 UNL     1       6.763  51.568  -6.388  1.00  0.00     0.210 HD
ENDBRANCH  33  34
BRANCH  33  36
HETATM   36  C8  UNL     1       5.609  51.443  -8.837  1.00  0.00     0.009 C 
HETATM   37  C9  UNL     1       5.773  50.539  -9.827  1.00  0.00    -0.089 C 
HETATM   38  C10 UNL     1       4.607  49.740 -10.349  1.00  0.00     0.042 C 
HETATM   39  C11 UNL     1       7.093  50.216 -10.475  1.00  0.00     0.042 C 
ENDBRANCH  33  36
ENDBRANCH   4  33
BRANCH   1  40
HETATM   40  C2  UNL     1       8.297  55.945  -5.722  1.00  0.00     0.004 C 
HETATM   41  C1  UNL     1       9.016  57.164  -5.160  1.00  0.00     0.006 C 
ENDBRANCH   1  40
BRANCH  24  42
HETATM   42  O6  UNL     1       2.214  58.525  -3.486  1.00  0.00    -0.359 OA
HETATM   43  H29 UNL     1       1.490  59.005  -3.050  1.00  0.00     0.217 HD
ENDBRANCH  24  42
TORSDOF 5
ENDMDL
MODEL 2
REMARK minimizedAffinity -7.52221823
REMARK CNNscore 0.417457938
REMARK CNNaffinity 5.32903862
REMARK  5 active torsions:
REMARK  status: ('A' for Active; 'I' for Inactive)
REMARK    1  A    between atoms: C2_2  and  C3_3 
REMARK    2  A    between atoms: C6_6  and  C7_7 
REMARK    3  A    between atoms: C7_7  and  O1_8 
REMARK    4  A    between atoms: C7_7  and  C8_9 
REMARK    5  A    between atoms: C26_32  and  O6_33 
ROOT
HETATM    1  C3  UNL     1     -12.905  46.366 -21.771  1.00  0.00     0.008 C 
HETATM    2  C4  UNL     1     -12.639  44.910 -22.112  1.00  0.00    -0.023 C 
HETATM    3  C5  UNL     1     -11.764  44.449 -23.025  1.00  0.00     0.005 C 
HETATM    4  C6  UNL     1     -10.770  45.274 -23.809  1.00  0.00     0.187 C 
HETATM    5  O2  UNL     1     -11.328  45.466 -25.124  1.00  0.00    -0.308 OA
HETATM    6  C12 UNL     1     -10.977  46.657 -25.700  1.00  0.00     0.276 C 
HETATM    7  O3  UNL     1     -10.162  47.439 -25.209  1.00  0.00    -0.264 OA
HETATM    8  C13 UNL     1     -11.619  46.843 -27.103  1.00  0.00     0.095 C 
HETATM    9  C14 UNL     1     -11.676  48.352 -27.436  1.00  0.00     0.036 C 
HETATM   10  C15 UNL     1     -10.554  46.248 -28.004  1.00  0.00     0.003 C 
HETATM   11  C16 UNL     1     -10.625  45.535 -29.129  1.00  0.00     0.072 C 
HETATM   12  C17 UNL     1     -11.801  45.108 -29.883  1.00  0.00     0.245 C 
HETATM   13  O4  UNL     1     -11.638  44.654 -31.015  1.00  0.00    -0.268 OA
HETATM   14  N1  UNL     1     -13.038  45.156 -29.358  1.00  0.00    -0.320 N 
HETATM   15  C18 UNL     1     -13.605  45.579 -28.180  1.00  0.00     0.098 A 
HETATM   16  C19 UNL     1     -13.043  46.278 -27.182  1.00  0.00     0.045 A 
HETATM   17  C20 UNL     1     -13.906  46.652 -25.993  1.00  0.00     0.194 A 
HETATM   18  O5  UNL     1     -13.440  47.357 -25.111  1.00  0.00    -0.287 OA
HETATM   19  C21 UNL     1     -15.306  46.190 -25.885  1.00  0.00     0.046 A 
HETATM   20  C22 UNL     1     -15.861  45.512 -26.961  1.00  0.00     0.032 A 
HETATM   21  C23 UNL     1     -17.202  45.083 -26.941  1.00  0.00     0.026 A 
HETATM   22  C24 UNL     1     -18.019  45.312 -25.830  1.00  0.00    -0.027 A 
HETATM   23  C25 UNL     1     -19.441  44.830 -25.847  1.00  0.00     0.051 C 
HETATM   24  C26 UNL     1     -17.461  45.981 -24.737  1.00  0.00     0.086 A 
HETATM   25  C27 UNL     1     -16.114  46.406 -24.751  1.00  0.00     0.059 A 
HETATM   26  C28 UNL     1     -15.617  47.060 -23.516  1.00  0.00     0.163 C 
HETATM   27  O7  UNL     1     -15.489  48.279 -23.488  1.00  0.00    -0.292 OA
HETATM   28  C29 UNL     1     -15.439  46.151 -22.311  1.00  0.00     0.084 C 
HETATM   29  C30 UNL     1     -14.364  46.598 -21.317  1.00  0.00     0.016 C 
HETATM   30  C31 UNL     1     -15.057  45.205 -28.144  1.00  0.00     0.210 A 
HETATM   31  O8  UNL     1     -15.563  44.628 -29.104  1.00  0.00    -0.285 OA
HETATM   32  H24 UNL     1     -13.709  44.725 -30.001  1.00  0.00     0.169 HD
ENDROOT
BRANCH   4  33
HETATM   33  C7  UNL     1      -9.368  44.588 -23.921  1.00  0.00     0.174 C 
BRANCH  33  34
HETATM   34  O1  UNL     1      -8.898  44.575 -25.276  1.00  0.00    -0.389 OA
HETATM   35  H11 UNL     1      -9.117  45.446 -25.666  1.00  0.00     0.210 HD
ENDBRANCH  33  34
BRANCH  33  36
HETATM   36  C8  UNL     1      -8.301  45.257 -23.090  1.00  0.00     0.009 C 
HETATM   37  C9  UNL     1      -7.237  44.661 -22.508  1.00  0.00    -0.089 C 
HETATM   38  C10 UNL     1      -6.235  45.461 -21.717  1.00  0.00     0.042 C 
HETATM   39  C11 UNL     1      -6.927  43.191 -22.607  1.00  0.00     0.042 C 
ENDBRANCH  33  36
ENDBRANCH   4  33
BRANCH   1  40
HETATM   40  C2  UNL     1     -11.910  46.901 -20.716  1.00  0.00     0.004 C 
HETATM   41  C1  UNL     1     -12.478  47.905 -19.722  1.00  0.00     0.006 C 
ENDBRANCH   1  40
BRANCH  24  42
HETATM   42  O6  UNL     1     -18.215  46.227 -23.622  1.00  0.00    -0.359 OA
HETATM   43  H29 UNL     1     -19.162  46.210 -23.841  1.00  0.00     0.217 HD
ENDBRANCH  24  42
TORSDOF 5
ENDMDL
MODEL 3
REMARK minimizedAffinity -8.00863457
REMARK CNNscore 0.369856507
REMARK CNNaffinity 6.1660676
REMARK  5 active torsions:
REMARK  status: ('A' for Active; 'I' for Inactive)
REMARK    1  A    between atoms: C2_2  and  C3_3 
REMARK    2  A    between atoms: C6_6  and  C7_7 
REMARK    3  A    between atoms: C7_7  and  O1_8 
REMARK    4  A    between atoms: C7_7  and  C8_9 
REMARK    5  A    between atoms: C26_32  and  O6_33 
ROOT
HETATM    1  C3  UNL     1      -5.968  48.314 -24.452  1.00  0.00     0.008 C 
HETATM    2  C4  UNL     1      -6.554  49.629 -23.967  1.00  0.00    -0.023 C 
HETATM    3  C5  UNL     1      -6.577  50.075 -22.698  1.00  0.00     0.005 C 
HETATM    4  C6  UNL     1      -5.909  49.424 -21.508  1.00  0.00     0.187 C 
HETATM    5  O2  UNL     1      -6.936  48.716 -20.786  1.00  0.00    -0.308 OA
HETATM    6  C12 UNL     1      -6.484  47.587 -20.158  1.00  0.00     0.276 C 
HETATM    7  O3  UNL     1      -5.296  47.267 -20.099  1.00  0.00    -0.264 OA
HETATM    8  C13 UNL     1      -7.622  46.834 -19.414  1.00  0.00     0.095 C 
HETATM    9  C14 UNL     1      -7.214  45.353 -19.234  1.00  0.00     0.036 C 
HETATM   10  C15 UNL     1      -7.553  47.465 -18.037  1.00  0.00     0.003 C 
HETATM   11  C16 UNL     1      -8.493  47.785 -17.147  1.00  0.00     0.072 C 
HETATM   12  C17 UNL     1      -9.940  47.597 -17.219  1.00  0.00     0.245 C 
HETATM   13  O4  UNL     1     -10.604  47.753 -16.195  1.00  0.00    -0.268 OA
HETATM   14  N1  UNL     1     -10.562  47.306 -18.376  1.00  0.00    -0.320 N 
HETATM   15  C18 UNL     1     -10.187  47.064 -19.675  1.00  0.00     0.098 A 
HETATM   16  C19 UNL     1      -8.955  46.878 -20.172  1.00  0.00     0.045 A 
HETATM   17  C20 UNL     1      -8.814  46.590 -21.654  1.00  0.00     0.194 A 
HETATM   18  O5  UNL     1      -7.712  46.335 -22.115  1.00  0.00    -0.287 OA
HETATM   19  C21 UNL     1      -9.988  46.598 -22.552  1.00  0.00     0.046 A 
HETATM   20  C22 UNL     1     -11.248  46.746 -21.989  1.00  0.00     0.032 A 
HETATM   21  C23 UNL     1     -12.411  46.719 -22.783  1.00  0.00     0.026 A 
HETATM   22  C24 UNL     1     -12.337  46.556 -24.169  1.00  0.00    -0.027 A 
HETATM   23  C25 UNL     1     -13.601  46.541 -24.979  1.00  0.00     0.051 C 
HETATM   24  C26 UNL     1     -11.070  46.421 -24.744  1.00  0.00     0.086 A 
HETATM   25  C27 UNL     1      -9.901  46.455 -23.951  1.00  0.00     0.059 A 
HETATM   26  C28 UNL     1      -8.611  46.354 -24.676  1.00  0.00     0.163 C 
HETATM   27  O7  UNL     1      -7.996  45.294 -24.667  1.00  0.00    -0.292 OA
HETATM   28  C29 UNL     1      -8.222  47.564 -25.508  1.00  0.00     0.084 C 
HETATM   29  C30 UNL     1      -6.716  47.767 -25.689  1.00  0.00     0.016 C 
HETATM   30  C31 UNL     1     -11.401  46.957 -20.550  1.00  0.00     0.210 A 
HETATM   31  O8  UNL     1     -12.522  47.060 -20.055  1.00  0.00    -0.285 OA
HETATM   32  H24 UNL     1     -11.577  47.311 -18.239  1.00  0.00     0.169 HD
ENDROOT
BRANCH   4  33
HETATM   33  C7  UNL     1      -5.212  50.460 -20.563  1.00  0.00     0.174 C 
BRANCH  33  34
HETATM   34  O1  UNL     1      -4.460  49.805 -19.533  1.00  0.00    -0.389 OA
HETATM   35  H11 UNL     1      -4.004  49.043 -19.947  1.00  0.00     0.210 HD
ENDBRANCH  33  34
BRANCH  33  36
HETATM   36  C8  UNL     1      -4.262  51.387 -21.281  1.00  0.00     0.009 C 
HETATM   37  C9  UNL     1      -3.105  51.046 -21.889  1.00  0.00    -0.089 C 
HETATM   38  C10 UNL     1      -2.261  52.080 -22.588  1.00  0.00     0.042 C 
HETATM   39  C11 UNL     1      -2.563  49.644 -21.961  1.00  0.00     0.042 C 
ENDBRANCH  33  36
ENDBRANCH   4  33
BRANCH   1  40
HETATM   40  C2  UNL     1      -4.452  48.428 -24.733  1.00  0.00     0.004 C 
HETATM   41  C1  UNL     1      -4.051  48.436 -26.202  1.00  0.00     0.006 C 
ENDBRANCH   1  40
BRANCH  24  42
HETATM   42  O6  UNL     1     -10.941  46.263 -26.097  1.00  0.00    -0.359 OA
HETATM   43  H29 UNL     1     -11.766  45.921 -26.480  1.00  0.00     0.217 HD
ENDBRANCH  24  42
TORSDOF 5
ENDMDL
MODEL 4
REMARK minimizedAffinity -7.76267576
REMARK CNNscore 0.352538675
REMARK CNNaffinity 6.99146795
REMARK  5 active torsions:
REMARK  status: ('A' for Active; 'I' for Inactive)
REMARK    1  A    between atoms: C2_2  and  C3_3 
REMARK    2  A    between atoms: C6_6  and  C7_7 
REMARK    3  A    between atoms: C7_7  and  O1_8 
REMARK    4  A    between atoms: C7_7  and  C8_9 
REMARK    5  A    between atoms: C26_32  and  O6_33 
ROOT
HETATM    1  C3  UNL     1      -1.499  52.595 -11.372  1.00  0.00     0.008 C 
HETATM    2  C4  UNL     1      -0.508  53.139 -12.385  1.00  0.00    -0.023 C 
HETATM    3  C5  UNL     1       0.609  52.527 -12.821  1.00  0.00     0.005 C 
HETATM    4  C6  UNL     1       1.042  51.116 -12.495  1.00  0.00     0.187 C 
HETATM    5  O2  UNL     1       2.053  51.214 -11.473  1.00  0.00    -0.308 OA
HETATM    6  C12 UNL     1       2.063  50.153 -10.609  1.00  0.00     0.276 C 
HETATM    7  O3  UNL     1       1.368  49.146 -10.755  1.00  0.00    -0.264 OA
HETATM    8  C13 UNL     1       3.146  50.304  -9.504  1.00  0.00     0.095 C 
HETATM    9  C14 UNL     1       2.750  49.437  -8.286  1.00  0.00     0.036 C 
HETATM   10  C15 UNL     1       4.334  49.617 -10.149  1.00  0.00     0.003 C 
HETATM   11  C16 UNL     1       5.643  49.868 -10.116  1.00  0.00     0.072 C 
HETATM   12  C17 UNL     1       6.369  50.916  -9.402  1.00  0.00     0.245 C 
HETATM   13  O4  UNL     1       7.594  50.832  -9.324  1.00  0.00    -0.268 OA
HETATM   14  N1  UNL     1       5.741  51.981  -8.873  1.00  0.00    -0.320 N 
HETATM   15  C18 UNL     1       4.443  52.416  -8.756  1.00  0.00     0.098 A 
HETATM   16  C19 UNL     1       3.308  51.754  -9.030  1.00  0.00     0.045 A 
HETATM   17  C20 UNL     1       1.989  52.457  -8.780  1.00  0.00     0.194 A 
HETATM   18  O5  UNL     1       0.943  51.848  -8.943  1.00  0.00    -0.287 OA
HETATM   19  C21 UNL     1       1.942  53.864  -8.328  1.00  0.00     0.046 A 
HETATM   20  C22 UNL     1       3.137  54.494  -8.011  1.00  0.00     0.032 A 
HETATM   21  C23 UNL     1       3.160  55.819  -7.533  1.00  0.00     0.026 A 
HETATM   22  C24 UNL     1       1.981  56.553  -7.377  1.00  0.00    -0.027 A 
HETATM   23  C25 UNL     1       2.051  57.965  -6.873  1.00  0.00     0.051 C 
HETATM   24  C26 UNL     1       0.775  55.928  -7.709  1.00  0.00     0.086 A 
HETATM   25  C27 UNL     1       0.749  54.602  -8.195  1.00  0.00     0.059 A 
HETATM   26  C28 UNL     1      -0.582  54.061  -8.564  1.00  0.00     0.163 C 
HETATM   27  O7  UNL     1      -1.144  53.276  -7.810  1.00  0.00    -0.292 OA
HETATM   28  C29 UNL     1      -1.215  54.655  -9.812  1.00  0.00     0.084 C 
HETATM   29  C30 UNL     1      -2.173  53.721 -10.556  1.00  0.00     0.016 C 
HETATM   30  C31 UNL     1       4.414  53.802  -8.184  1.00  0.00     0.210 A 
HETATM   31  O8  UNL     1       5.466  54.357  -7.875  1.00  0.00    -0.285 OA
HETATM   32  H24 UNL     1       6.427  52.645  -8.503  1.00  0.00     0.169 HD
ENDROOT
BRANCH   4  33
HETATM   33  C7  UNL     1       1.613  50.355 -13.738  1.00  0.00     0.174 C 
BRANCH  33  34
HETATM   34  O1  UNL     1       0.627  50.225 -14.771  1.00  0.00    -0.389 OA
HETATM   35  H11 UNL     1       0.146  51.076 -14.820  1.00  0.00     0.210 HD
ENDBRANCH  33  34
BRANCH  33  36
HETATM   36  C8  UNL     1       2.814  51.026 -14.356  1.00  0.00     0.009 C 
HETATM   37  C9  UNL     1       2.826  51.807 -15.459  1.00  0.00    -0.089 C 
HETATM   38  C10 UNL     1       4.104  52.430 -15.955  1.00  0.00     0.042 C 
HETATM   39  C11 UNL     1       1.604  52.153 -16.268  1.00  0.00     0.042 C 
ENDBRANCH  33  36
ENDBRANCH   4  33
BRANCH   1  40
HETATM   40  C2  UNL     1      -2.561  51.687 -12.035  1.00  0.00     0.004 C 
HETATM   41  C1  UNL     1      -3.067  52.148 -13.396  1.00  0.00     0.006 C 
ENDBRANCH   1  40
BRANCH  24  42
HETATM   42  O6  UNL     1      -0.409  56.602  -7.578  1.00  0.00    -0.359 OA
HETATM   43  H29 UNL     1      -0.316  57.333  -6.944  1.00  0.00     0.217 HD
ENDBRANCH  24  42
TORSDOF 5
ENDMDL
MODEL 5
REMARK minimizedAffinity -8.24564266
REMARK CNNscore 0.259416282
REMARK CNNaffinity 6.43619108
REMARK  5 active torsions:
REMARK  status: ('A' for Active; 'I' for Inactive)
REMARK    1  A    between atoms: C2_2  and  C3_3 
REMARK    2  A    between atoms: C6_6  and  C7_7 
REMARK    3  A    between atoms: C7_7  and  O1_8 
REMARK    4  A    between atoms: C7_7  and  C8_9 
REMARK    5  A    between atoms: C26_32  and  O6_33 
ROOT
HETATM    1  C3  UNL     1      -8.878  45.243 -21.745  1.00  0.00     0.008 C 
HETATM    2  C4  UNL     1      -7.678  44.366 -22.060  1.00  0.00    -0.023 C 
HETATM    3  C5  UNL     1      -6.383  44.713 -21.951  1.00  0.00     0.005 C 
HETATM    4  C6  UNL     1      -5.846  46.001 -21.371  1.00  0.00     0.187 C 
HETATM    5  O2  UNL     1      -5.499  46.850 -22.483  1.00  0.00    -0.308 OA
HETATM    6  C12 UNL     1      -5.660  48.185 -22.224  1.00  0.00     0.276 C 
HETATM    7  O3  UNL     1      -5.947  48.636 -21.114  1.00  0.00    -0.264 OA
HETATM    8  C13 UNL     1      -5.304  49.068 -23.452  1.00  0.00     0.095 C 
HETATM    9  C14 UNL     1      -6.022  50.431 -23.318  1.00  0.00     0.036 C 
HETATM   10  C15 UNL     1      -3.830  49.337 -23.215  1.00  0.00     0.003 C 
HETATM   11  C16 UNL     1      -2.794  49.453 -24.046  1.00  0.00     0.072 C 
HETATM   12  C17 UNL     1      -2.761  49.374 -25.505  1.00  0.00     0.245 C 
HETATM   13  O4  UNL     1      -1.740  49.736 -26.089  1.00  0.00    -0.268 OA
HETATM   14  N1  UNL     1      -3.792  48.879 -26.213  1.00  0.00    -0.320 N 
HETATM   15  C18 UNL     1      -5.048  48.395 -25.939  1.00  0.00     0.098 A 
HETATM   16  C19 UNL     1      -5.726  48.430 -24.782  1.00  0.00     0.045 A 
HETATM   17  C20 UNL     1      -7.127  47.850 -24.753  1.00  0.00     0.194 A 
HETATM   18  O5  UNL     1      -7.795  47.943 -23.735  1.00  0.00    -0.287 OA
HETATM   19  C21 UNL     1      -7.706  47.183 -25.939  1.00  0.00     0.046 A 
HETATM   20  C22 UNL     1      -6.990  47.213 -27.127  1.00  0.00     0.032 A 
HETATM   21  C23 UNL     1      -7.503  46.635 -28.304  1.00  0.00     0.026 A 
HETATM   22  C24 UNL     1      -8.747  45.997 -28.315  1.00  0.00    -0.027 A 
HETATM   23  C25 UNL     1      -9.254  45.387 -29.589  1.00  0.00     0.051 C 
HETATM   24  C26 UNL     1      -9.467  45.951 -27.117  1.00  0.00     0.086 A 
HETATM   25  C27 UNL     1      -8.951  46.524 -25.933  1.00  0.00     0.059 A 
HETATM   26  C28 UNL     1      -9.779  46.369 -24.712  1.00  0.00     0.163 C 
HETATM   27  O7  UNL     1     -10.435  47.320 -24.303  1.00  0.00    -0.292 OA
HETATM   28  C29 UNL     1      -9.856  44.964 -24.138  1.00  0.00     0.084 C 
HETATM   29  C30 UNL     1     -10.098  44.895 -22.628  1.00  0.00     0.016 C 
HETATM   30  C31 UNL     1      -5.665  47.830 -27.184  1.00  0.00     0.210 A 
HETATM   31  O8  UNL     1      -5.048  47.877 -28.246  1.00  0.00    -0.285 OA
HETATM   32  H24 UNL     1      -3.539  48.817 -27.203  1.00  0.00     0.169 HD
ENDROOT
BRANCH   4  33
HETATM   33  C7  UNL     1      -4.593  45.780 -20.459  1.00  0.00     0.174 C 
BRANCH  33  34
HETATM   34  O1  UNL     1      -4.388  44.389 -20.179  1.00  0.00    -0.389 OA
HETATM   35  H11 UNL     1      -4.559  43.899 -21.009  1.00  0.00     0.210 HD
ENDBRANCH  33  34
BRANCH  33  36
HETATM   36  C8  UNL     1      -3.311  46.303 -21.059  1.00  0.00     0.009 C 
HETATM   37  C9  UNL     1      -2.469  47.205 -20.508  1.00  0.00    -0.089 C 
HETATM   38  C10 UNL     1      -1.208  47.624 -21.216  1.00  0.00     0.042 C 
HETATM   39  C11 UNL     1      -2.674  47.846 -19.161  1.00  0.00     0.042 C 
ENDBRANCH  33  36
ENDBRANCH   4  33
BRANCH   1  40
HETATM   40  C2  UNL     1      -9.252  45.192 -20.246  1.00  0.00     0.004 C 
HETATM   41  C1  UNL     1      -9.029  46.480 -19.465  1.00  0.00     0.006 C 
ENDBRANCH   1  40
BRANCH  24  42
HETATM   42  O6  UNL     1     -10.688  45.336 -27.070  1.00  0.00    -0.359 OA
HETATM   43  H29 UNL     1     -11.081  45.291 -27.959  1.00  0.00     0.217 HD
ENDBRANCH  24  42
TORSDOF 5
ENDMDL
MODEL 6
REMARK minimizedAffinity -7.99976158
REMARK CNNscore 0.202789992
REMARK CNNaffinity 5.69247103
REMARK  5 active torsions:
REMARK  status: ('A' for Active; 'I' for Inactive)
REMARK    1  A    between atoms: C2_2  and  C3_3 
REMARK    2  A    between atoms: C6_6  and  C7_7 
REMARK    3  A    between atoms: C7_7  and  O1_8 
REMARK    4  A    between atoms: C7_7  and  C8_9 
REMARK    5  A    between atoms: C26_32  and  O6_33 
ROOT
HETATM    1  C3  UNL     1     -19.752  42.088 -24.576  1.00  0.00     0.008 C 
HETATM    2  C4  UNL     1     -18.526  41.437 -23.961  1.00  0.00    -0.023 C 
HETATM    3  C5  UNL     1     -18.032  41.664 -22.730  1.00  0.00     0.005 C 
HETATM    4  C6  UNL     1     -18.666  42.514 -21.653  1.00  0.00     0.187 C 
HETATM    5  O2  UNL     1     -17.976  43.778 -21.656  1.00  0.00    -0.308 OA
HETATM    6  C12 UNL     1     -18.769  44.836 -21.302  1.00  0.00     0.276 C 
HETATM    7  O3  UNL     1     -19.925  44.717 -20.894  1.00  0.00    -0.264 OA
HETATM    8  C13 UNL     1     -18.001  46.187 -21.344  1.00  0.00     0.095 C 
HETATM    9  C14 UNL     1     -19.017  47.341 -21.508  1.00  0.00     0.036 C 
HETATM   10  C15 UNL     1     -17.476  46.280 -19.924  1.00  0.00     0.003 C 
HETATM   11  C16 UNL     1     -16.336  46.751 -19.418  1.00  0.00     0.072 C 
HETATM   12  C17 UNL     1     -15.203  47.369 -20.102  1.00  0.00     0.245 C 
HETATM   13  O4  UNL     1     -14.350  47.941 -19.424  1.00  0.00    -0.268 OA
HETATM   14  N1  UNL     1     -15.048  47.289 -21.436  1.00  0.00    -0.320 N 
HETATM   15  C18 UNL     1     -15.752  46.761 -22.490  1.00  0.00     0.098 A 
HETATM   16  C19 UNL     1     -16.997  46.261 -22.501  1.00  0.00     0.045 A 
HETATM   17  C20 UNL     1     -17.561  45.766 -23.819  1.00  0.00     0.194 A 
HETATM   18  O5  UNL     1     -18.719  45.383 -23.871  1.00  0.00    -0.287 OA
HETATM   19  C21 UNL     1     -16.738  45.751 -25.047  1.00  0.00     0.046 A 
HETATM   20  C22 UNL     1     -15.475  46.322 -25.002  1.00  0.00     0.032 A 
HETATM   21  C23 UNL     1     -14.656  46.379 -26.148  1.00  0.00     0.026 A 
HETATM   22  C24 UNL     1     -15.083  45.849 -27.369  1.00  0.00    -0.027 A 
HETATM   23  C25 UNL     1     -14.177  45.924 -28.563  1.00  0.00     0.051 C 
HETATM   24  C26 UNL     1     -16.350  45.259 -27.417  1.00  0.00     0.086 A 
HETATM   25  C27 UNL     1     -17.170  45.194 -26.268  1.00  0.00     0.059 A 
HETATM   26  C28 UNL     1     -18.470  44.500 -26.426  1.00  0.00     0.163 C 
HETATM   27  O7  UNL     1     -19.499  45.160 -26.521  1.00  0.00    -0.292 OA
HETATM   28  C29 UNL     1     -18.399  42.992 -26.604  1.00  0.00     0.084 C 
HETATM   29  C30 UNL     1     -19.629  42.224 -26.111  1.00  0.00     0.016 C 
HETATM   30  C31 UNL     1     -14.946  46.864 -23.751  1.00  0.00     0.210 A 
HETATM   31  O8  UNL     1     -13.836  47.393 -23.725  1.00  0.00    -0.285 OA
HETATM   32  H24 UNL     1     -14.150  47.697 -21.709  1.00  0.00     0.169 HD
ENDROOT
BRANCH   4  33
HETATM   33  C7  UNL     1     -18.575  41.861 -20.233  1.00  0.00     0.174 C 
BRANCH  33  34
HETATM   34  O1  UNL     1     -18.422  42.853 -19.210  1.00  0.00    -0.389 OA
HETATM   35  H11 UNL     1     -19.017  43.597 -19.436  1.00  0.00     0.210 HD
ENDBRANCH  33  34
BRANCH  33  36
HETATM   36  C8  UNL     1     -19.785  41.035 -19.870  1.00  0.00     0.009 C 
HETATM   37  C9  UNL     1     -20.827  41.423 -19.103  1.00  0.00    -0.089 C 
HETATM   38  C10 UNL     1     -21.983  40.495 -18.838  1.00  0.00     0.042 C 
HETATM   39  C11 UNL     1     -20.961  42.785 -18.475  1.00  0.00     0.042 C 
ENDBRANCH  33  36
ENDBRANCH   4  33
BRANCH   1  40
HETATM   40  C2  UNL     1     -21.052  41.344 -24.194  1.00  0.00     0.004 C 
HETATM   41  C1  UNL     1     -21.769  41.861 -22.954  1.00  0.00     0.006 C 
ENDBRANCH   1  40
BRANCH  24  42
HETATM   42  O6  UNL     1     -16.815  44.722 -28.586  1.00  0.00    -0.359 OA
HETATM   43  H29 UNL     1     -16.351  45.110 -29.348  1.00  0.00     0.217 HD
ENDBRANCH  24  42
TORSDOF 5
ENDMDL
MODEL 7
REMARK minimizedAffinity -8.27515888
REMARK CNNscore 0.183050498
REMARK CNNaffinity 5.41155672
REMARK  5 active torsions:
REMARK  status: ('A' for Active; 'I' for Inactive)
REMARK    1  A    between atoms: C2_2  and  C3_3 
REMARK    2  A    between atoms: C6_6  and  C7_7 
REMARK    3  A    between atoms: C7_7  and  O1_8 
REMARK    4  A    between atoms: C7_7  and  C8_9 
REMARK    5  A    between atoms: C26_32  and  O6_33 
ROOT
HETATM    1  C3  UNL     1     -14.282  45.266 -25.874  1.00  0.00     0.008 C 
HETATM    2  C4  UNL     1     -14.146  43.923 -25.177  1.00  0.00    -0.023 C 
HETATM    3  C5  UNL     1     -15.094  42.973 -25.079  1.00  0.00     0.005 C 
HETATM    4  C6  UNL     1     -16.447  42.984 -25.754  1.00  0.00     0.187 C 
HETATM    5  O2  UNL     1     -17.407  43.388 -24.759  1.00  0.00    -0.308 OA
HETATM    6  C12 UNL     1     -18.464  44.090 -25.272  1.00  0.00     0.276 C 
HETATM    7  O3  UNL     1     -18.654  44.256 -26.478  1.00  0.00    -0.264 OA
HETATM    8  C13 UNL     1     -19.466  44.534 -24.169  1.00  0.00     0.095 C 
HETATM    9  C14 UNL     1     -20.273  45.751 -24.680  1.00  0.00     0.036 C 
HETATM   10  C15 UNL     1     -20.429  43.363 -24.146  1.00  0.00     0.003 C 
HETATM   11  C16 UNL     1     -21.093  42.765 -23.156  1.00  0.00     0.072 C 
HETATM   12  C17 UNL     1     -21.113  43.082 -21.730  1.00  0.00     0.245 C 
HETATM   13  O4  UNL     1     -21.969  42.550 -21.023  1.00  0.00    -0.268 OA
HETATM   14  N1  UNL     1     -20.201  43.897 -21.170  1.00  0.00    -0.320 N 
HETATM   15  C18 UNL     1     -19.137  44.649 -21.604  1.00  0.00     0.098 A 
HETATM   16  C19 UNL     1     -18.768  44.932 -22.862  1.00  0.00     0.045 A 
HETATM   17  C20 UNL     1     -17.560  45.824 -23.073  1.00  0.00     0.194 A 
HETATM   18  O5  UNL     1     -17.254  46.163 -24.205  1.00  0.00    -0.287 OA
HETATM   19  C21 UNL     1     -16.752  46.303 -21.931  1.00  0.00     0.046 A 
HETATM   20  C22 UNL     1     -17.197  46.027 -20.646  1.00  0.00     0.032 A 
HETATM   21  C23 UNL     1     -16.497  46.491 -19.515  1.00  0.00     0.026 A 
HETATM   22  C24 UNL     1     -15.321  47.234 -19.646  1.00  0.00    -0.027 A 
HETATM   23  C25 UNL     1     -14.602  47.702 -18.414  1.00  0.00     0.051 C 
HETATM   24  C26 UNL     1     -14.859  47.503 -20.938  1.00  0.00     0.086 A 
HETATM   25  C27 UNL     1     -15.555  47.033 -22.075  1.00  0.00     0.059 A 
HETATM   26  C28 UNL     1     -14.944  47.334 -23.392  1.00  0.00     0.163 C 
HETATM   27  O7  UNL     1     -15.413  48.231 -24.083  1.00  0.00    -0.292 OA
HETATM   28  C29 UNL     1     -13.665  46.580 -23.717  1.00  0.00     0.084 C 
HETATM   29  C30 UNL     1     -13.410  46.355 -25.210  1.00  0.00     0.016 C 
HETATM   30  C31 UNL     1     -18.400  45.224 -20.431  1.00  0.00     0.210 A 
HETATM   31  O8  UNL     1     -18.803  45.006 -19.290  1.00  0.00    -0.285 OA
HETATM   32  H24 UNL     1     -20.325  43.914 -20.153  1.00  0.00     0.169 HD
ENDROOT
BRANCH   4  33
HETATM   33  C7  UNL     1     -16.843  41.588 -26.341  1.00  0.00     0.174 C 
BRANCH  33  34
HETATM   34  O1  UNL     1     -17.970  41.031 -25.652  1.00  0.00    -0.389 OA
HETATM   35  H11 UNL     1     -18.602  41.761 -25.494  1.00  0.00     0.210 HD
ENDBRANCH  33  34
BRANCH  33  36
HETATM   36  C8  UNL     1     -17.198  41.630 -27.807  1.00  0.00     0.009 C 
HETATM   37  C9  UNL     1     -18.423  41.447 -28.347  1.00  0.00    -0.089 C 
HETATM   38  C10 UNL     1     -18.636  41.536 -29.836  1.00  0.00     0.042 C 
HETATM   39  C11 UNL     1     -19.672  41.175 -27.551  1.00  0.00     0.042 C 
ENDBRANCH  33  36
ENDBRANCH   4  33
BRANCH   1  40
HETATM   40  C2  UNL     1     -13.976  45.163 -27.386  1.00  0.00     0.004 C 
HETATM   41  C1  UNL     1     -15.190  45.111 -28.304  1.00  0.00     0.006 C 
ENDBRANCH   1  40
BRANCH  24  42
HETATM   42  O6  UNL     1     -13.710  48.223 -21.123  1.00  0.00    -0.359 OA
HETATM   43  H29 UNL     1     -13.517  48.763 -20.339  1.00  0.00     0.217 HD
ENDBRANCH  24  42
TORSDOF 5
ENDMDL
MODEL 8
REMARK minimizedAffinity -7.70548058
REMARK CNNscore 0.179005653
REMARK CNNaffinity 5.54598475
REMARK  5 active torsions:
REMARK  status: ('A' for Active; 'I' for Inactive)
REMARK    1  A    between atoms: C2_2  and  C3_3 
REMARK    2  A    between atoms: C6_6  and  C7_7 
REMARK    3  A    between atoms: C7_7  and  O1_8 
REMARK    4  A    between atoms: C7_7  and  C8_9 
REMARK    5  A    between atoms: C26_32  and  O6_33 
ROOT
HETATM    1  C3  UNL     1      -6.420  48.122 -24.407  1.00  0.00     0.008 C 
HETATM    2  C4  UNL     1      -7.080  49.433 -24.014  1.00  0.00    -0.023 C 
HETATM    3  C5  UNL     1      -7.489  49.784 -22.781  1.00  0.00     0.005 C 
HETATM    4  C6  UNL     1      -7.261  49.006 -21.506  1.00  0.00     0.187 C 
HETATM    5  O2  UNL     1      -8.491  48.315 -21.211  1.00  0.00    -0.308 OA
HETATM    6  C12 UNL     1      -8.307  47.115 -20.578  1.00  0.00     0.276 C 
HETATM    7  O3  UNL     1      -7.213  46.715 -20.177  1.00  0.00    -0.264 OA
HETATM    8  C13 UNL     1      -9.651  46.385 -20.301  1.00  0.00     0.095 C 
HETATM    9  C14 UNL     1      -9.378  44.872 -20.137  1.00  0.00     0.036 C 
HETATM   10  C15 UNL     1     -10.001  46.907 -18.921  1.00  0.00     0.003 C 
HETATM   11  C16 UNL     1     -11.163  47.221 -18.347  1.00  0.00     0.072 C 
HETATM   12  C17 UNL     1     -12.517  47.134 -18.888  1.00  0.00     0.245 C 
HETATM   13  O4  UNL     1     -13.466  47.256 -18.114  1.00  0.00    -0.268 OA
HETATM   14  N1  UNL     1     -12.748  46.970 -20.203  1.00  0.00    -0.320 N 
HETATM   15  C18 UNL     1     -11.988  46.800 -21.334  1.00  0.00     0.098 A 
HETATM   16  C19 UNL     1     -10.669  46.572 -21.433  1.00  0.00     0.045 A 
HETATM   17  C20 UNL     1     -10.074  46.385 -22.815  1.00  0.00     0.194 A 
HETATM   18  O5  UNL     1      -8.893  46.094 -22.926  1.00  0.00    -0.287 OA
HETATM   19  C21 UNL     1     -10.900  46.536 -24.032  1.00  0.00     0.046 A 
HETATM   20  C22 UNL     1     -12.266  46.724 -23.883  1.00  0.00     0.032 A 
HETATM   21  C23 UNL     1     -13.116  46.831 -25.002  1.00  0.00     0.026 A 
HETATM   22  C24 UNL     1     -12.610  46.767 -26.303  1.00  0.00    -0.027 A 
HETATM   23  C25 UNL     1     -13.549  46.894 -27.467  1.00  0.00     0.051 C 
HETATM   24  C26 UNL     1     -11.231  46.592 -26.460  1.00  0.00     0.086 A 
HETATM   25  C27 UNL     1     -10.376  46.491 -25.340  1.00  0.00     0.059 A 
HETATM   26  C28 UNL     1      -8.927  46.360 -25.627  1.00  0.00     0.163 C 
HETATM   27  O7  UNL     1      -8.388  45.264 -25.522  1.00  0.00    -0.292 OA
HETATM   28  C29 UNL     1      -8.247  47.601 -26.182  1.00  0.00     0.084 C 
HETATM   29  C30 UNL     1      -6.755  47.718 -25.861  1.00  0.00     0.016 C 
HETATM   30  C31 UNL     1     -12.863  46.837 -22.552  1.00  0.00     0.210 A 
HETATM   31  O8  UNL     1     -14.078  46.977 -22.428  1.00  0.00    -0.285 OA
HETATM   32  H24 UNL     1     -13.752  47.031 -20.392  1.00  0.00     0.169 HD
ENDROOT
BRANCH   4  33
HETATM   33  C7  UNL     1      -6.863  49.921 -20.300  1.00  0.00     0.174 C 
BRANCH  33  34
HETATM   34  O1  UNL     1      -7.643  49.622 -19.135  1.00  0.00    -0.389 OA
HETATM   35  H11 UNL     1      -7.724  48.647 -19.084  1.00  0.00     0.210 HD
ENDBRANCH  33  34
BRANCH  33  36
HETATM   36  C8  UNL     1      -5.412  49.798 -19.903  1.00  0.00     0.009 C 
HETATM   37  C9  UNL     1      -4.366  50.457 -20.448  1.00  0.00    -0.089 C 
HETATM   38  C10 UNL     1      -2.965  50.248 -19.937  1.00  0.00     0.042 C 
HETATM   39  C11 UNL     1      -4.482  51.459 -21.566  1.00  0.00     0.042 C 
ENDBRANCH  33  36
ENDBRANCH   4  33
BRANCH   1  40
HETATM   40  C2  UNL     1      -4.891  48.158 -24.185  1.00  0.00     0.004 C 
HETATM   41  C1  UNL     1      -4.054  48.514 -25.407  1.00  0.00     0.006 C 
ENDBRANCH   1  40
BRANCH  24  42
HETATM   42  O6  UNL     1     -10.683  46.526 -27.712  1.00  0.00    -0.359 OA
HETATM   43  H29 UNL     1     -11.356  46.268 -28.365  1.00  0.00     0.217 HD
ENDBRANCH  24  42
TORSDOF 5
ENDMDL
MODEL 9
REMARK minimizedAffinity -8.62573814
REMARK CNNscore 0.170820355
REMARK CNNaffinity 5.27345514
REMARK  5 active torsions:
REMARK  status: ('A' for Active; 'I' for Inactive)
REMARK    1  A    between atoms: C2_2  and  C3_3 
REMARK    2  A    between atoms: C6_6  and  C7_7 
REMARK    3  A    between atoms: C7_7  and  O1_8 
REMARK    4  A    between atoms: C7_7  and  C8_9 
REMARK    5  A    between atoms: C26_32  and  O6_33 
ROOT
HETATM    1  C3  UNL     1     -12.169  46.355 -28.270  1.00  0.00     0.008 C 
HETATM    2  C4  UNL     1     -12.224  47.818 -27.865  1.00  0.00    -0.023 C 
HETATM    3  C5  UNL     1     -11.519  48.402 -26.879  1.00  0.00     0.005 C 
HETATM    4  C6  UNL     1     -10.428  47.757 -26.055  1.00  0.00     0.187 C 
HETATM    5  O2  UNL     1     -11.017  47.399 -24.789  1.00  0.00    -0.308 OA
HETATM    6  C12 UNL     1     -10.468  46.277 -24.228  1.00  0.00     0.276 C 
HETATM    7  O3  UNL     1      -9.483  45.696 -24.686  1.00  0.00    -0.264 OA
HETATM    8  C13 UNL     1     -11.144  45.904 -22.879  1.00  0.00     0.095 C 
HETATM    9  C14 UNL     1     -10.916  44.400 -22.600  1.00  0.00     0.036 C 
HETATM   10  C15 UNL     1     -10.279  46.658 -21.888  1.00  0.00     0.003 C 
HETATM   11  C16 UNL     1     -10.562  47.290 -20.749  1.00  0.00     0.072 C 
HETATM   12  C17 UNL     1     -11.844  47.440 -20.065  1.00  0.00     0.245 C 
HETATM   13  O4  UNL     1     -11.847  47.865 -18.910  1.00  0.00    -0.268 OA
HETATM   14  N1  UNL     1     -13.011  47.169 -20.676  1.00  0.00    -0.320 N 
HETATM   15  C18 UNL     1     -13.407  46.696 -21.903  1.00  0.00     0.098 A 
HETATM   16  C19 UNL     1     -12.655  46.169 -22.882  1.00  0.00     0.045 A 
HETATM   17  C20 UNL     1     -13.350  45.685 -24.140  1.00  0.00     0.194 A 
HETATM   18  O5  UNL     1     -12.698  45.127 -25.009  1.00  0.00    -0.287 OA
HETATM   19  C21 UNL     1     -14.805  45.862 -24.329  1.00  0.00     0.046 A 
HETATM   20  C22 UNL     1     -15.551  46.366 -23.273  1.00  0.00     0.032 A 
HETATM   21  C23 UNL     1     -16.947  46.520 -23.373  1.00  0.00     0.026 A 
HETATM   22  C24 UNL     1     -17.631  46.184 -24.545  1.00  0.00    -0.027 A 
HETATM   23  C25 UNL     1     -19.119  46.370 -24.611  1.00  0.00     0.051 C 
HETATM   24  C26 UNL     1     -16.883  45.689 -25.617  1.00  0.00     0.086 A 
HETATM   25  C27 UNL     1     -15.481  45.541 -25.523  1.00  0.00     0.059 A 
HETATM   26  C28 UNL     1     -14.787  45.056 -26.741  1.00  0.00     0.163 C 
HETATM   27  O7  UNL     1     -14.414  43.890 -26.799  1.00  0.00    -0.292 OA
HETATM   28  C29 UNL     1     -14.723  46.036 -27.901  1.00  0.00     0.084 C 
HETATM   29  C30 UNL     1     -13.520  45.857 -28.831  1.00  0.00     0.016 C 
HETATM   30  C31 UNL     1     -14.900  46.774 -22.029  1.00  0.00     0.210 A 
HETATM   31  O8  UNL     1     -15.570  47.195 -21.088  1.00  0.00    -0.285 OA
HETATM   32  H24 UNL     1     -13.794  47.428 -20.068  1.00  0.00     0.169 HD
ENDROOT
BRANCH   4  33
HETATM   33  C7  UNL     1      -9.203  48.704 -25.824  1.00  0.00     0.174 C 
BRANCH  33  34
HETATM   34  O1  UNL     1      -9.517  50.060 -26.167  1.00  0.00    -0.389 OA
HETATM   35  H11 UNL     1     -10.421  50.240 -25.839  1.00  0.00     0.210 HD
ENDBRANCH  33  34
BRANCH  33  36
HETATM   36  C8  UNL     1      -8.709  48.713 -24.398  1.00  0.00     0.009 C 
HETATM   37  C9  UNL     1      -7.454  48.444 -23.975  1.00  0.00    -0.089 C 
HETATM   38  C10 UNL     1      -7.096  48.510 -22.514  1.00  0.00     0.042 C 
HETATM   39  C11 UNL     1      -6.308  48.093 -24.886  1.00  0.00     0.042 C 
ENDBRANCH  33  36
ENDBRANCH   4  33
BRANCH   1  40
HETATM   40  C2  UNL     1     -11.024  46.077 -29.270  1.00  0.00     0.004 C 
HETATM   41  C1  UNL     1     -10.903  47.060 -30.427  1.00  0.00     0.006 C 
ENDBRANCH   1  40
BRANCH  24  42
HETATM   42  O6  UNL     1     -17.501  45.348 -26.789  1.00  0.00    -0.359 OA
HETATM   43  H29 UNL     1     -18.444  45.166 -26.636  1.00  0.00     0.217 HD
ENDBRANCH  24  42
TORSDOF 5
ENDMDL
