MODEL 1
REMARK minimizedAffinity -8.04047489
REMARK CNNscore 0.83280021
REMARK CNNaffinity 7.06540442
REMARK  5 active torsions:
REMARK  status: ('A' for Active; 'I' for Inactive)
REMARK    1  A    between atoms: C2_2  and  C3_3 
REMARK    2  A    between atoms: C4_5  and  C5_6 
REMARK    3  A    between atoms: C5_6  and  C6_7 
REMARK    4  A    between atoms: C6_7  and  C7_8 
REMARK    5  A    between atoms: C7_8  and  C9_10 
ROOT
HETATM    1  C9  UNL     1       4.861  56.097  -8.143  1.00  0.00    -0.001 C 
HETATM    2  C10 UNL     1       5.710  55.180  -9.069  1.00  0.00     0.007 C 
HETATM    3  C11 UNL     1       4.732  54.364  -9.933  1.00  0.00     0.015 C 
HETATM    4  C12 UNL     1       3.368  55.059  -9.757  1.00  0.00    -0.004 C 
HETATM    5  C13 UNL     1       3.333  56.261 -10.748  1.00  0.00     0.021 C 
HETATM    6  C14 UNL     1       2.079  54.294 -10.007  1.00  0.00     0.007 C 
HETATM    7  C15 UNL     1       0.907  54.615  -9.403  1.00  0.00     0.007 C 
HETATM    8  C16 UNL     1       0.937  55.741  -8.378  1.00  0.00     0.157 C 
HETATM    9  O2  UNL     1      -0.109  56.182  -7.904  1.00  0.00    -0.293 OA
HETATM   10  C17 UNL     1       2.259  56.351  -7.925  1.00  0.00     0.094 C 
HETATM   11  C18 UNL     1       3.447  55.443  -8.234  1.00  0.00    -0.022 C 
HETATM   12  C19 UNL     1       3.385  54.205  -7.282  1.00  0.00     0.017 C 
HETATM   13  C20 UNL     1      -0.448  53.907  -9.666  1.00  0.00    -0.007 C 
HETATM   14  C21 UNL     1      -0.742  53.052  -8.409  1.00  0.00     0.021 C 
HETATM   15  C22 UNL     1      -1.617  54.927  -9.870  1.00  0.00     0.022 C 
HETATM   16  C23 UNL     1      -2.759  54.470 -10.776  1.00  0.00     0.080 C 
HETATM   17  C24 UNL     1      -2.878  52.968 -10.826  1.00  0.00     0.135 C 
HETATM   18  O3  UNL     1      -3.939  52.408 -10.556  1.00  0.00    -0.297 OA
HETATM   19  C25 UNL     1      -1.641  52.204 -11.311  1.00  0.00     0.018 C 
HETATM   20  C26 UNL     1      -1.637  50.784 -10.712  1.00  0.00     0.023 C 
HETATM   21  C27 UNL     1      -1.786  52.059 -12.841  1.00  0.00     0.023 C 
HETATM   22  C28 UNL     1      -0.362  53.046 -10.977  1.00  0.00     0.021 C 
HETATM   23  C29 UNL     1       0.927  52.227 -11.013  1.00  0.00     0.090 C 
HETATM   24  C30 UNL     1       2.104  53.164 -10.985  1.00  0.00     0.157 C 
HETATM   25  O4  UNL     1       3.064  52.983 -11.728  1.00  0.00    -0.293 OA
ENDROOT
BRANCH   1  26
HETATM   26  C7  UNL     1       5.535  56.301  -6.752  1.00  0.00    -0.014 C 
HETATM   27  C8  UNL     1       5.365  57.738  -6.240  1.00  0.00     0.010 C 
BRANCH  26  28
HETATM   28  C6  UNL     1       7.052  55.961  -6.814  1.00  0.00     0.008 C 
BRANCH  28  29
HETATM   29  C5  UNL     1       7.894  56.614  -5.706  1.00  0.00     0.028 C 
BRANCH  29  30
HETATM   30  C4  UNL     1       9.222  55.959  -5.463  1.00  0.00    -0.017 C 
HETATM   31  C2  UNL     1      10.367  56.564  -5.090  1.00  0.00    -0.028 C 
HETATM   32  C1  UNL     1      10.560  58.016  -4.792  1.00  0.00     0.051 C 
BRANCH  31  33
HETATM   33  C3  UNL     1      11.584  55.712  -4.921  1.00  0.00     0.265 C 
HETATM   34  O1  UNL     1      12.726  56.151  -4.871  1.00  0.00    -0.302 OA
ENDBRANCH  31  33
ENDBRANCH  29  30
ENDBRANCH  28  29
ENDBRANCH  26  28
ENDBRANCH   1  26
TORSDOF 5
ENDMDL
MODEL 2
REMARK minimizedAffinity -7.37680197
REMARK CNNscore 0.815591156
REMARK CNNaffinity 7.12249517
REMARK  5 active torsions:
REMARK  status: ('A' for Active; 'I' for Inactive)
REMARK    1  A    between atoms: C2_2  and  C3_3 
REMARK    2  A    between atoms: C4_5  and  C5_6 
REMARK    3  A    between atoms: C5_6  and  C6_7 
REMARK    4  A    between atoms: C6_7  and  C7_8 
REMARK    5  A    between atoms: C7_8  and  C9_10 
ROOT
HETATM    1  C9  UNL     1       4.474  56.035  -8.060  1.00  0.00    -0.001 C 
HETATM    2  C10 UNL     1       5.365  55.125  -8.953  1.00  0.00     0.007 C 
HETATM    3  C11 UNL     1       4.428  54.290  -9.843  1.00  0.00     0.015 C 
HETATM    4  C12 UNL     1       3.050  54.966  -9.716  1.00  0.00    -0.004 C 
HETATM    5  C13 UNL     1       3.029  56.161 -10.715  1.00  0.00     0.021 C 
HETATM    6  C14 UNL     1       1.780  54.181 -10.003  1.00  0.00     0.007 C 
HETATM    7  C15 UNL     1       0.584  54.488  -9.440  1.00  0.00     0.007 C 
HETATM    8  C16 UNL     1       0.564  55.620  -8.421  1.00  0.00     0.157 C 
HETATM    9  O2  UNL     1      -0.503  56.049  -7.984  1.00  0.00    -0.293 OA
HETATM   10  C17 UNL     1       1.862  56.252  -7.929  1.00  0.00     0.094 C 
HETATM   11  C18 UNL     1       3.073  55.360  -8.194  1.00  0.00    -0.022 C 
HETATM   12  C19 UNL     1       2.997  54.126  -7.236  1.00  0.00     0.017 C 
HETATM   13  C20 UNL     1      -0.751  53.759  -9.742  1.00  0.00    -0.007 C 
HETATM   14  C21 UNL     1      -1.074  52.906  -8.490  1.00  0.00     0.021 C 
HETATM   15  C22 UNL     1      -1.927  54.760  -9.991  1.00  0.00     0.022 C 
HETATM   16  C23 UNL     1      -3.032  54.282 -10.931  1.00  0.00     0.080 C 
HETATM   17  C24 UNL     1      -3.128  52.778 -10.976  1.00  0.00     0.135 C 
HETATM   18  O3  UNL     1      -4.188  52.204 -10.737  1.00  0.00    -0.297 OA
HETATM   19  C25 UNL     1      -1.864  52.029 -11.415  1.00  0.00     0.018 C 
HETATM   20  C26 UNL     1      -1.859  50.613 -10.808  1.00  0.00     0.023 C 
HETATM   21  C27 UNL     1      -1.957  51.874 -12.948  1.00  0.00     0.023 C 
HETATM   22  C28 UNL     1      -0.609  52.891 -11.045  1.00  0.00     0.021 C 
HETATM   23  C29 UNL     1       0.691  52.091 -11.034  1.00  0.00     0.090 C 
HETATM   24  C30 UNL     1       1.854  53.046 -10.973  1.00  0.00     0.157 C 
HETATM   25  O4  UNL     1       2.840  52.875 -11.683  1.00  0.00    -0.293 OA
ENDROOT
BRANCH   1  26
HETATM   26  C7  UNL     1       5.099  56.257  -6.649  1.00  0.00    -0.014 C 
HETATM   27  C8  UNL     1       4.026  56.543  -5.589  1.00  0.00     0.010 C 
BRANCH  26  28
HETATM   28  C6  UNL     1       6.117  57.432  -6.670  1.00  0.00     0.008 C 
BRANCH  28  29
HETATM   29  C5  UNL     1       7.007  57.522  -5.421  1.00  0.00     0.028 C 
BRANCH  29  30
HETATM   30  C4  UNL     1       6.933  58.833  -4.694  1.00  0.00    -0.017 C 
HETATM   31  C2  UNL     1       7.931  59.723  -4.525  1.00  0.00    -0.028 C 
HETATM   32  C1  UNL     1       9.323  59.624  -5.061  1.00  0.00     0.051 C 
BRANCH  31  33
HETATM   33  C3  UNL     1       7.634  60.965  -3.747  1.00  0.00     0.265 C 
HETATM   34  O1  UNL     1       7.011  61.920  -4.193  1.00  0.00    -0.302 OA
ENDBRANCH  31  33
ENDBRANCH  29  30
ENDBRANCH  28  29
ENDBRANCH  26  28
ENDBRANCH   1  26
TORSDOF 5
ENDMDL
MODEL 3
REMARK minimizedAffinity -7.18460655
REMARK CNNscore 0.694194615
REMARK CNNaffinity 6.89080763
REMARK  5 active torsions:
REMARK  status: ('A' for Active; 'I' for Inactive)
REMARK    1  A    between atoms: C2_2  and  C3_3 
REMARK    2  A    between atoms: C4_5  and  C5_6 
REMARK    3  A    between atoms: C5_6  and  C6_7 
REMARK    4  A    between atoms: C6_7  and  C7_8 
REMARK    5  A    between atoms: C7_8  and  C9_10 
ROOT
HETATM    1  C9  UNL     1       5.135  56.221  -8.387  1.00  0.00    -0.001 C 
HETATM    2  C10 UNL     1       5.925  55.243  -9.303  1.00  0.00     0.007 C 
HETATM    3  C11 UNL     1       4.895  54.403 -10.079  1.00  0.00     0.015 C 
HETATM    4  C12 UNL     1       3.553  55.131  -9.877  1.00  0.00    -0.004 C 
HETATM    5  C13 UNL     1       3.490  56.281 -10.925  1.00  0.00     0.021 C 
HETATM    6  C14 UNL     1       2.241  54.378 -10.028  1.00  0.00     0.007 C 
HETATM    7  C15 UNL     1       1.104  54.750  -9.389  1.00  0.00     0.007 C 
HETATM    8  C16 UNL     1       1.199  55.925  -8.425  1.00  0.00     0.157 C 
HETATM    9  O2  UNL     1       0.183  56.409  -7.927  1.00  0.00    -0.293 OA
HETATM   10  C17 UNL     1       2.550  56.533  -8.065  1.00  0.00     0.094 C 
HETATM   11  C18 UNL     1       3.708  55.589  -8.381  1.00  0.00    -0.022 C 
HETATM   12  C19 UNL     1       3.670  54.401  -7.364  1.00  0.00     0.017 C 
HETATM   13  C20 UNL     1      -0.274  54.055  -9.553  1.00  0.00    -0.007 C 
HETATM   14  C21 UNL     1      -0.522  53.269  -8.243  1.00  0.00     0.021 C 
HETATM   15  C22 UNL     1      -1.434  55.084  -9.756  1.00  0.00     0.022 C 
HETATM   16  C23 UNL     1      -2.623  54.604 -10.585  1.00  0.00     0.080 C 
HETATM   17  C24 UNL     1      -2.769  53.103 -10.553  1.00  0.00     0.135 C 
HETATM   18  O3  UNL     1      -3.825  52.576 -10.206  1.00  0.00    -0.297 OA
HETATM   19  C25 UNL     1      -1.568  52.293 -11.054  1.00  0.00     0.018 C 
HETATM   20  C26 UNL     1      -1.559  50.905 -10.384  1.00  0.00     0.023 C 
HETATM   21  C27 UNL     1      -1.786  52.074 -12.566  1.00  0.00     0.023 C 
HETATM   22  C28 UNL     1      -0.261  53.127 -10.822  1.00  0.00     0.021 C 
HETATM   23  C29 UNL     1       1.011  52.284 -10.875  1.00  0.00     0.090 C 
HETATM   24  C30 UNL     1       2.203  53.199 -10.948  1.00  0.00     0.157 C 
HETATM   25  O4  UNL     1       3.125  52.964 -11.724  1.00  0.00    -0.293 OA
ENDROOT
BRANCH   1  26
HETATM   26  C7  UNL     1       5.876  56.482  -7.040  1.00  0.00    -0.014 C 
HETATM   27  C8  UNL     1       6.125  55.181  -6.266  1.00  0.00     0.010 C 
BRANCH  26  28
HETATM   28  C6  UNL     1       5.067  57.461  -6.141  1.00  0.00     0.008 C 
BRANCH  28  29
HETATM   29  C5  UNL     1       4.628  56.867  -4.794  1.00  0.00     0.028 C 
BRANCH  29  30
HETATM   30  C4  UNL     1       3.181  57.082  -4.459  1.00  0.00    -0.017 C 
HETATM   31  C2  UNL     1       2.620  58.206  -3.972  1.00  0.00    -0.028 C 
HETATM   32  C1  UNL     1       3.306  59.505  -3.697  1.00  0.00     0.051 C 
BRANCH  31  33
HETATM   33  C3  UNL     1       1.151  58.189  -3.695  1.00  0.00     0.265 C 
HETATM   34  O1  UNL     1       0.541  57.208  -3.288  1.00  0.00    -0.302 OA
ENDBRANCH  31  33
ENDBRANCH  29  30
ENDBRANCH  28  29
ENDBRANCH  26  28
ENDBRANCH   1  26
TORSDOF 5
ENDMDL
MODEL 4
REMARK minimizedAffinity -8.16288662
REMARK CNNscore 0.379686624
REMARK CNNaffinity 6.60524893
REMARK  5 active torsions:
REMARK  status: ('A' for Active; 'I' for Inactive)
REMARK    1  A    between atoms: C2_2  and  C3_3 
REMARK    2  A    between atoms: C4_5  and  C5_6 
REMARK    3  A    between atoms: C5_6  and  C6_7 
REMARK    4  A    between atoms: C6_7  and  C7_8 
REMARK    5  A    between atoms: C7_8  and  C9_10 
ROOT
HETATM    1  C9  UNL     1      -3.058  49.840 -21.707  1.00  0.00    -0.001 C 
HETATM    2  C10 UNL     1      -1.938  49.740 -22.782  1.00  0.00     0.007 C 
HETATM    3  C11 UNL     1      -2.610  49.380 -24.119  1.00  0.00     0.015 C 
HETATM    4  C12 UNL     1      -4.114  49.621 -23.887  1.00  0.00    -0.004 C 
HETATM    5  C13 UNL     1      -4.374  51.142 -24.099  1.00  0.00     0.021 C 
HETATM    6  C14 UNL     1      -5.147  48.913 -24.748  1.00  0.00     0.007 C 
HETATM    7  C15 UNL     1      -6.405  48.646 -24.315  1.00  0.00     0.007 C 
HETATM    8  C16 UNL     1      -6.737  49.012 -22.875  1.00  0.00     0.157 C 
HETATM    9  O2  UNL     1      -7.894  48.936 -22.462  1.00  0.00    -0.293 OA
HETATM   10  C17 UNL     1      -5.650  49.486 -21.918  1.00  0.00     0.094 C 
HETATM   11  C18 UNL     1      -4.251  49.114 -22.405  1.00  0.00    -0.022 C 
HETATM   12  C19 UNL     1      -4.074  47.567 -22.263  1.00  0.00     0.017 C 
HETATM   13  C20 UNL     1      -7.515  47.981 -25.171  1.00  0.00    -0.007 C 
HETATM   14  C21 UNL     1      -7.680  46.541 -24.625  1.00  0.00     0.021 C 
HETATM   15  C22 UNL     1      -8.882  48.730 -25.050  1.00  0.00     0.022 C 
HETATM   16  C23 UNL     1      -9.800  48.660 -26.269  1.00  0.00     0.080 C 
HETATM   17  C24 UNL     1      -9.534  47.437 -27.109  1.00  0.00     0.135 C 
HETATM   18  O3  UNL     1     -10.437  46.650 -27.387  1.00  0.00    -0.297 OA
HETATM   19  C25 UNL     1      -8.111  47.286 -27.659  1.00  0.00     0.018 C 
HETATM   20  C26 UNL     1      -7.796  45.796 -27.893  1.00  0.00     0.023 C 
HETATM   21  C27 UNL     1      -8.097  47.982 -29.037  1.00  0.00     0.023 C 
HETATM   22  C28 UNL     1      -7.114  48.009 -26.690  1.00  0.00     0.021 C 
HETATM   23  C29 UNL     1      -5.662  47.577 -26.885  1.00  0.00     0.090 C 
HETATM   24  C30 UNL     1      -4.763  48.528 -26.141  1.00  0.00     0.157 C 
HETATM   25  O4  UNL     1      -3.734  48.950 -26.661  1.00  0.00    -0.293 OA
ENDROOT
BRANCH   1  26
HETATM   26  C7  UNL     1      -2.566  49.357 -20.308  1.00  0.00    -0.014 C 
HETATM   27  C8  UNL     1      -3.727  49.210 -19.316  1.00  0.00     0.010 C 
BRANCH  26  28
HETATM   28  C6  UNL     1      -1.516  50.343 -19.719  1.00  0.00     0.008 C 
BRANCH  28  29
HETATM   29  C5  UNL     1      -0.272  50.543 -20.598  1.00  0.00     0.028 C 
BRANCH  29  30
HETATM   30  C4  UNL     1       0.269  51.943 -20.606  1.00  0.00    -0.017 C 
HETATM   31  C2  UNL     1       0.654  52.655 -21.682  1.00  0.00    -0.028 C 
HETATM   32  C1  UNL     1       0.590  52.227 -23.113  1.00  0.00     0.051 C 
BRANCH  31  33
HETATM   33  C3  UNL     1       1.180  54.036 -21.453  1.00  0.00     0.265 C 
HETATM   34  O1  UNL     1       1.777  54.383 -20.441  1.00  0.00    -0.302 OA
ENDBRANCH  31  33
ENDBRANCH  29  30
ENDBRANCH  28  29
ENDBRANCH  26  28
ENDBRANCH   1  26
TORSDOF 5
ENDMDL
MODEL 5
REMARK minimizedAffinity -8.87330341
REMARK CNNscore 0.350240558
REMARK CNNaffinity 6.7976346
REMARK  5 active torsions:
REMARK  status: ('A' for Active; 'I' for Inactive)
REMARK    1  A    between atoms: C2_2  and  C3_3 
REMARK    2  A    between atoms: C4_5  and  C5_6 
REMARK    3  A    between atoms: C5_6  and  C6_7 
REMARK    4  A    between atoms: C6_7  and  C7_8 
REMARK    5  A    between atoms: C7_8  and  C9_10 
ROOT
HETATM    1  C9  UNL     1      -2.803  50.368 -21.774  1.00  0.00    -0.001 C 
HETATM    2  C10 UNL     1      -2.080  51.667 -22.230  1.00  0.00     0.007 C 
HETATM    3  C11 UNL     1      -1.059  52.036 -21.140  1.00  0.00     0.015 C 
HETATM    4  C12 UNL     1      -0.951  50.780 -20.253  1.00  0.00    -0.004 C 
HETATM    5  C13 UNL     1       0.053  49.812 -20.948  1.00  0.00     0.021 C 
HETATM    6  C14 UNL     1      -0.470  50.894 -18.816  1.00  0.00     0.007 C 
HETATM    7  C15 UNL     1      -0.827  50.009 -17.851  1.00  0.00     0.007 C 
HETATM    8  C16 UNL     1      -1.814  48.916 -18.239  1.00  0.00     0.157 C 
HETATM    9  O2  UNL     1      -2.065  47.997 -17.461  1.00  0.00    -0.293 OA
HETATM   10  C17 UNL     1      -2.503  48.932 -19.598  1.00  0.00     0.094 C 
HETATM   11  C18 UNL     1      -2.451  50.310 -20.254  1.00  0.00    -0.022 C 
HETATM   12  C19 UNL     1      -3.399  51.270 -19.464  1.00  0.00     0.017 C 
HETATM   13  C20 UNL     1      -0.319  50.044 -16.385  1.00  0.00    -0.007 C 
HETATM   14  C21 UNL     1      -1.513  50.527 -15.524  1.00  0.00     0.021 C 
HETATM   15  C22 UNL     1       0.131  48.633 -15.883  1.00  0.00     0.022 C 
HETATM   16  C23 UNL     1       1.232  48.614 -14.825  1.00  0.00     0.080 C 
HETATM   17  C24 UNL     1       1.273  49.891 -14.025  1.00  0.00     0.135 C 
HETATM   18  O3  UNL     1       1.203  49.871 -12.797  1.00  0.00    -0.297 OA
HETATM   19  C25 UNL     1       1.490  51.184 -14.819  1.00  0.00     0.018 C 
HETATM   20  C26 UNL     1       0.873  52.373 -14.059  1.00  0.00     0.023 C 
HETATM   21  C27 UNL     1       3.016  51.414 -14.874  1.00  0.00     0.023 C 
HETATM   22  C28 UNL     1       0.931  50.988 -16.270  1.00  0.00     0.021 C 
HETATM   23  C29 UNL     1       0.698  52.303 -17.010  1.00  0.00     0.090 C 
HETATM   24  C30 UNL     1       0.460  52.011 -18.467  1.00  0.00     0.157 C 
HETATM   25  O4  UNL     1       0.997  52.691 -19.336  1.00  0.00    -0.293 OA
ENDROOT
BRANCH   1  26
HETATM   26  C7  UNL     1      -4.295  50.343 -22.228  1.00  0.00    -0.014 C 
HETATM   27  C8  UNL     1      -5.095  49.257 -21.496  1.00  0.00     0.010 C 
BRANCH  26  28
HETATM   28  C6  UNL     1      -4.405  50.107 -23.762  1.00  0.00     0.008 C 
BRANCH  28  29
HETATM   29  C5  UNL     1      -4.537  48.632 -24.168  1.00  0.00     0.028 C 
BRANCH  29  30
HETATM   30  C4  UNL     1      -4.917  48.410 -25.603  1.00  0.00    -0.017 C 
HETATM   31  C2  UNL     1      -4.097  48.432 -26.671  1.00  0.00    -0.028 C 
HETATM   32  C1  UNL     1      -2.616  48.638 -26.662  1.00  0.00     0.051 C 
BRANCH  31  33
HETATM   33  C3  UNL     1      -4.700  48.200 -28.020  1.00  0.00     0.265 C 
HETATM   34  O1  UNL     1      -4.442  48.873 -29.010  1.00  0.00    -0.302 OA
ENDBRANCH  31  33
ENDBRANCH  29  30
ENDBRANCH  28  29
ENDBRANCH  26  28
ENDBRANCH   1  26
TORSDOF 5
ENDMDL
MODEL 6
REMARK minimizedAffinity -8.29806232
REMARK CNNscore 0.327334851
REMARK CNNaffinity 6.60207415
REMARK  5 active torsions:
REMARK  status: ('A' for Active; 'I' for Inactive)
REMARK    1  A    between atoms: C2_2  and  C3_3 
REMARK    2  A    between atoms: C4_5  and  C5_6 
REMARK    3  A    between atoms: C5_6  and  C6_7 
REMARK    4  A    between atoms: C6_7  and  C7_8 
REMARK    5  A    between atoms: C7_8  and  C9_10 
ROOT
HETATM    1  C9  UNL     1      -3.136  49.972 -23.029  1.00  0.00    -0.001 C 
HETATM    2  C10 UNL     1      -3.422  48.456 -23.232  1.00  0.00     0.007 C 
HETATM    3  C11 UNL     1      -3.457  47.802 -21.839  1.00  0.00     0.015 C 
HETATM    4  C12 UNL     1      -3.545  48.977 -20.848  1.00  0.00    -0.004 C 
HETATM    5  C13 UNL     1      -5.045  49.389 -20.755  1.00  0.00     0.021 C 
HETATM    6  C14 UNL     1      -3.087  48.805 -19.409  1.00  0.00     0.007 C 
HETATM    7  C15 UNL     1      -2.642  49.839 -18.652  1.00  0.00     0.007 C 
HETATM    8  C16 UNL     1      -2.534  51.200 -19.326  1.00  0.00     0.157 C 
HETATM    9  O2  UNL     1      -2.281  52.206 -18.665  1.00  0.00    -0.293 OA
HETATM   10  C17 UNL     1      -2.744  51.346 -20.829  1.00  0.00     0.094 C 
HETATM   11  C18 UNL     1      -2.604  50.014 -21.562  1.00  0.00    -0.022 C 
HETATM   12  C19 UNL     1      -1.097  49.595 -21.543  1.00  0.00     0.017 C 
HETATM   13  C20 UNL     1      -2.220  49.729 -17.163  1.00  0.00    -0.007 C 
HETATM   14  C21 UNL     1      -0.676  49.850 -17.140  1.00  0.00     0.021 C 
HETATM   15  C22 UNL     1      -2.831  50.874 -16.290  1.00  0.00     0.022 C 
HETATM   16  C23 UNL     1      -3.094  50.536 -14.824  1.00  0.00     0.080 C 
HETATM   17  C24 UNL     1      -2.200  49.428 -14.327  1.00  0.00     0.135 C 
HETATM   18  O3  UNL     1      -1.494  49.581 -13.332  1.00  0.00    -0.297 OA
HETATM   19  C25 UNL     1      -2.291  48.094 -15.077  1.00  0.00     0.018 C 
HETATM   20  C26 UNL     1      -0.960  47.329 -14.945  1.00  0.00     0.023 C 
HETATM   21  C27 UNL     1      -3.374  47.261 -14.359  1.00  0.00     0.023 C 
HETATM   22  C28 UNL     1      -2.729  48.372 -16.556  1.00  0.00     0.021 C 
HETATM   23  C29 UNL     1      -2.445  47.206 -17.499  1.00  0.00     0.090 C 
HETATM   24  C30 UNL     1      -3.165  47.441 -18.800  1.00  0.00     0.157 C 
HETATM   25  O4  UNL     1      -3.773  46.528 -19.351  1.00  0.00    -0.293 OA
ENDROOT
BRANCH   1  26
HETATM   26  C7  UNL     1      -2.273  50.560 -24.187  1.00  0.00    -0.014 C 
HETATM   27  C8  UNL     1      -2.577  52.045 -24.426  1.00  0.00     0.010 C 
BRANCH  26  28
HETATM   28  C6  UNL     1      -2.507  49.774 -25.509  1.00  0.00     0.008 C 
BRANCH  28  29
HETATM   29  C5  UNL     1      -1.567  50.173 -26.657  1.00  0.00     0.028 C 
BRANCH  29  30
HETATM   30  C4  UNL     1      -0.194  50.594 -26.223  1.00  0.00    -0.017 C 
HETATM   31  C2  UNL     1       0.666  51.378 -26.903  1.00  0.00    -0.028 C 
HETATM   32  C1  UNL     1       0.427  52.040 -28.222  1.00  0.00     0.051 C 
BRANCH  31  33
HETATM   33  C3  UNL     1       1.997  51.656 -26.282  1.00  0.00     0.265 C 
HETATM   34  O1  UNL     1       2.937  50.871 -26.296  1.00  0.00    -0.302 OA
ENDBRANCH  31  33
ENDBRANCH  29  30
ENDBRANCH  28  29
ENDBRANCH  26  28
ENDBRANCH   1  26
TORSDOF 5
ENDMDL
MODEL 7
REMARK minimizedAffinity -8.34478569
REMARK CNNscore 0.317022383
REMARK CNNaffinity 6.64935732
REMARK  5 active torsions:
REMARK  status: ('A' for Active; 'I' for Inactive)
REMARK    1  A    between atoms: C2_2  and  C3_3 
REMARK    2  A    between atoms: C4_5  and  C5_6 
REMARK    3  A    between atoms: C5_6  and  C6_7 
REMARK    4  A    between atoms: C6_7  and  C7_8 
REMARK    5  A    between atoms: C7_8  and  C9_10 
ROOT
HETATM    1  C9  UNL     1      -1.374  50.165 -22.872  1.00  0.00    -0.001 C 
HETATM    2  C10 UNL     1      -0.743  50.674 -21.544  1.00  0.00     0.007 C 
HETATM    3  C11 UNL     1      -1.609  50.146 -20.388  1.00  0.00     0.015 C 
HETATM    4  C12 UNL     1      -2.505  49.065 -21.022  1.00  0.00    -0.004 C 
HETATM    5  C13 UNL     1      -1.671  47.749 -21.075  1.00  0.00     0.021 C 
HETATM    6  C14 UNL     1      -3.822  48.678 -20.369  1.00  0.00     0.007 C 
HETATM    7  C15 UNL     1      -4.868  48.173 -21.070  1.00  0.00     0.007 C 
HETATM    8  C16 UNL     1      -4.712  48.078 -22.582  1.00  0.00     0.157 C 
HETATM    9  O2  UNL     1      -5.556  47.496 -23.262  1.00  0.00    -0.293 OA
HETATM   10  C17 UNL     1      -3.506  48.691 -23.283  1.00  0.00     0.094 C 
HETATM   11  C18 UNL     1      -2.802  49.731 -22.414  1.00  0.00    -0.022 C 
HETATM   12  C19 UNL     1      -3.720  50.993 -22.311  1.00  0.00     0.017 C 
HETATM   13  C20 UNL     1      -6.211  47.708 -20.447  1.00  0.00    -0.007 C 
HETATM   14  C21 UNL     1      -7.262  48.779 -20.832  1.00  0.00     0.021 C 
HETATM   15  C22 UNL     1      -6.672  46.322 -21.005  1.00  0.00     0.022 C 
HETATM   16  C23 UNL     1      -7.505  45.458 -20.060  1.00  0.00     0.080 C 
HETATM   17  C24 UNL     1      -8.236  46.285 -19.033  1.00  0.00     0.135 C 
HETATM   18  O3  UNL     1      -9.455  46.193 -18.897  1.00  0.00    -0.297 OA
HETATM   19  C25 UNL     1      -7.369  47.165 -18.125  1.00  0.00     0.018 C 
HETATM   20  C26 UNL     1      -8.187  48.374 -17.634  1.00  0.00     0.023 C 
HETATM   21  C27 UNL     1      -7.021  46.310 -16.887  1.00  0.00     0.023 C 
HETATM   22  C28 UNL     1      -6.056  47.545 -18.892  1.00  0.00     0.021 C 
HETATM   23  C29 UNL     1      -5.325  48.739 -18.283  1.00  0.00     0.090 C 
HETATM   24  C30 UNL     1      -3.950  48.833 -18.887  1.00  0.00     0.157 C 
HETATM   25  O4  UNL     1      -2.972  49.057 -18.181  1.00  0.00    -0.293 OA
ENDROOT
BRANCH   1  26
HETATM   26  C7  UNL     1      -1.208  51.198 -24.028  1.00  0.00    -0.014 C 
HETATM   27  C8  UNL     1      -1.168  50.514 -25.402  1.00  0.00     0.010 C 
BRANCH  26  28
HETATM   28  C6  UNL     1       0.089  52.037 -23.841  1.00  0.00     0.008 C 
BRANCH  28  29
HETATM   29  C5  UNL     1       0.867  52.298 -25.140  1.00  0.00     0.028 C 
BRANCH  29  30
HETATM   30  C4  UNL     1       0.209  53.266 -26.079  1.00  0.00    -0.017 C 
HETATM   31  C2  UNL     1       0.110  53.156 -27.418  1.00  0.00    -0.028 C 
HETATM   32  C1  UNL     1       0.595  52.023 -28.264  1.00  0.00     0.051 C 
BRANCH  31  33
HETATM   33  C3  UNL     1      -0.579  54.256 -28.160  1.00  0.00     0.265 C 
HETATM   34  O1  UNL     1      -1.791  54.432 -28.154  1.00  0.00    -0.302 OA
ENDBRANCH  31  33
ENDBRANCH  29  30
ENDBRANCH  28  29
ENDBRANCH  26  28
ENDBRANCH   1  26
TORSDOF 5
ENDMDL
MODEL 8
REMARK minimizedAffinity -7.30347013
REMARK CNNscore 0.309740841
REMARK CNNaffinity 5.7003727
REMARK  5 active torsions:
REMARK  status: ('A' for Active; 'I' for Inactive)
REMARK    1  A    between atoms: C2_2  and  C3_3 
REMARK    2  A    between atoms: C4_5  and  C5_6 
REMARK    3  A    between atoms: C5_6  and  C6_7 
REMARK    4  A    between atoms: C6_7  and  C7_8 
REMARK    5  A    between atoms: C7_8  and  C9_10 
ROOT
HETATM    1  C9  UNL     1     -13.471  45.927 -26.153  1.00  0.00    -0.001 C 
HETATM    2  C10 UNL     1     -14.240  45.177 -27.277  1.00  0.00     0.007 C 
HETATM    3  C11 UNL     1     -13.305  45.087 -28.497  1.00  0.00     0.015 C 
HETATM    4  C12 UNL     1     -11.911  45.460 -27.959  1.00  0.00    -0.004 C 
HETATM    5  C13 UNL     1     -11.303  44.173 -27.325  1.00  0.00     0.021 C 
HETATM    6  C14 UNL     1     -10.841  45.988 -28.900  1.00  0.00     0.007 C 
HETATM    7  C15 UNL     1      -9.835  46.799 -28.486  1.00  0.00     0.007 C 
HETATM    8  C16 UNL     1      -9.855  47.246 -27.031  1.00  0.00     0.157 C 
HETATM    9  O2  UNL     1      -8.900  47.857 -26.552  1.00  0.00    -0.293 OA
HETATM   10  C17 UNL     1     -11.049  46.939 -26.135  1.00  0.00     0.094 C 
HETATM   11  C18 UNL     1     -12.300  46.593 -26.941  1.00  0.00    -0.022 C 
HETATM   12  C19 UNL     1     -12.815  47.896 -27.636  1.00  0.00     0.017 C 
HETATM   13  C20 UNL     1      -8.686  47.318 -29.390  1.00  0.00    -0.007 C 
HETATM   14  C21 UNL     1      -8.972  48.820 -29.638  1.00  0.00     0.021 C 
HETATM   15  C22 UNL     1      -7.286  47.174 -28.707  1.00  0.00     0.022 C 
HETATM   16  C23 UNL     1      -6.097  46.972 -29.643  1.00  0.00     0.080 C 
HETATM   17  C24 UNL     1      -6.355  47.534 -31.018  1.00  0.00     0.135 C 
HETATM   18  O3  UNL     1      -5.586  48.350 -31.524  1.00  0.00    -0.297 OA
HETATM   19  C25 UNL     1      -7.566  46.967 -31.768  1.00  0.00     0.018 C 
HETATM   20  C26 UNL     1      -8.094  48.010 -32.772  1.00  0.00     0.023 C 
HETATM   21  C27 UNL     1      -7.053  45.761 -32.583  1.00  0.00     0.023 C 
HETATM   22  C28 UNL     1      -8.630  46.486 -30.722  1.00  0.00     0.021 C 
HETATM   23  C29 UNL     1     -10.024  46.306 -31.318  1.00  0.00     0.090 C 
HETATM   24  C30 UNL     1     -10.886  45.563 -30.333  1.00  0.00     0.157 C 
HETATM   25  O4  UNL     1     -11.622  44.655 -30.708  1.00  0.00    -0.293 OA
ENDROOT
BRANCH   1  26
HETATM   26  C7  UNL     1     -14.422  46.805 -25.284  1.00  0.00    -0.014 C 
HETATM   27  C8  UNL     1     -13.986  46.834 -23.813  1.00  0.00     0.010 C 
BRANCH  26  28
HETATM   28  C6  UNL     1     -15.887  46.289 -25.370  1.00  0.00     0.008 C 
BRANCH  28  29
HETATM   29  C5  UNL     1     -16.878  47.044 -24.470  1.00  0.00     0.028 C 
BRANCH  29  30
HETATM   30  C4  UNL     1     -17.694  46.167 -23.566  1.00  0.00    -0.017 C 
HETATM   31  C2  UNL     1     -18.978  45.796 -23.740  1.00  0.00    -0.028 C 
HETATM   32  C1  UNL     1     -19.863  46.138 -24.895  1.00  0.00     0.051 C 
BRANCH  31  33
HETATM   33  C3  UNL     1     -19.600  44.924 -22.697  1.00  0.00     0.265 C 
HETATM   34  O1  UNL     1     -20.567  44.200 -22.897  1.00  0.00    -0.302 OA
ENDBRANCH  31  33
ENDBRANCH  29  30
ENDBRANCH  28  29
ENDBRANCH  26  28
ENDBRANCH   1  26
TORSDOF 5
ENDMDL
MODEL 9
REMARK minimizedAffinity -9.01922607
REMARK CNNscore 0.304770857
REMARK CNNaffinity 6.61698294
REMARK  5 active torsions:
REMARK  status: ('A' for Active; 'I' for Inactive)
REMARK    1  A    between atoms: C2_2  and  C3_3 
REMARK    2  A    between atoms: C4_5  and  C5_6 
REMARK    3  A    between atoms: C5_6  and  C6_7 
REMARK    4  A    between atoms: C6_7  and  C7_8 
REMARK    5  A    between atoms: C7_8  and  C9_10 
ROOT
HETATM    1  C9  UNL     1      -0.083  50.844 -21.229  1.00  0.00    -0.001 C 
HETATM    2  C10 UNL     1      -0.061  50.909 -19.675  1.00  0.00     0.007 C 
HETATM    3  C11 UNL     1      -1.340  50.221 -19.166  1.00  0.00     0.015 C 
HETATM    4  C12 UNL     1      -1.901  49.467 -20.386  1.00  0.00    -0.004 C 
HETATM    5  C13 UNL     1      -1.140  48.111 -20.479  1.00  0.00     0.021 C 
HETATM    6  C14 UNL     1      -3.376  49.105 -20.455  1.00  0.00     0.007 C 
HETATM    7  C15 UNL     1      -4.037  48.940 -21.628  1.00  0.00     0.007 C 
HETATM    8  C16 UNL     1      -3.262  49.215 -22.909  1.00  0.00     0.157 C 
HETATM    9  O2  UNL     1      -3.750  48.944 -24.005  1.00  0.00    -0.293 OA
HETATM   10  C17 UNL     1      -1.864  49.822 -22.862  1.00  0.00     0.094 C 
HETATM   11  C18 UNL     1      -1.577  50.502 -21.525  1.00  0.00    -0.022 C 
HETATM   12  C19 UNL     1      -2.436  51.805 -21.438  1.00  0.00     0.017 C 
HETATM   13  C20 UNL     1      -5.524  48.514 -21.755  1.00  0.00    -0.007 C 
HETATM   14  C21 UNL     1      -6.301  49.777 -22.200  1.00  0.00     0.021 C 
HETATM   15  C22 UNL     1      -5.726  47.390 -22.823  1.00  0.00     0.022 C 
HETATM   16  C23 UNL     1      -6.891  46.432 -22.581  1.00  0.00     0.080 C 
HETATM   17  C24 UNL     1      -7.975  47.057 -21.741  1.00  0.00     0.135 C 
HETATM   18  O3  UNL     1      -9.139  47.096 -22.135  1.00  0.00    -0.297 OA
HETATM   19  C25 UNL     1      -7.557  47.552 -20.351  1.00  0.00     0.018 C 
HETATM   20  C26 UNL     1      -8.489  48.693 -19.902  1.00  0.00     0.023 C 
HETATM   21  C27 UNL     1      -7.773  46.371 -19.381  1.00  0.00     0.023 C 
HETATM   22  C28 UNL     1      -6.039  47.939 -20.386  1.00  0.00     0.021 C 
HETATM   23  C29 UNL     1      -5.615  48.829 -19.220  1.00  0.00     0.090 C 
HETATM   24  C30 UNL     1      -4.112  48.891 -19.171  1.00  0.00     0.157 C 
HETATM   25  O4  UNL     1      -3.518  48.794 -18.101  1.00  0.00    -0.293 OA
ENDROOT
BRANCH   1  26
HETATM   26  C7  UNL     1       0.567  52.108 -21.872  1.00  0.00    -0.014 C 
HETATM   27  C8  UNL     1       0.684  53.262 -20.867  1.00  0.00     0.010 C 
BRANCH  26  28
HETATM   28  C6  UNL     1      -0.251  52.588 -23.104  1.00  0.00     0.008 C 
BRANCH  28  29
HETATM   29  C5  UNL     1       0.447  52.363 -24.455  1.00  0.00     0.028 C 
BRANCH  29  30
HETATM   30  C4  UNL     1      -0.028  53.261 -25.560  1.00  0.00    -0.017 C 
HETATM   31  C2  UNL     1       0.097  53.050 -26.885  1.00  0.00    -0.028 C 
HETATM   32  C1  UNL     1       0.698  51.854 -27.551  1.00  0.00     0.051 C 
BRANCH  31  33
HETATM   33  C3  UNL     1      -0.439  54.094 -27.812  1.00  0.00     0.265 C 
HETATM   34  O1  UNL     1      -1.614  54.174 -28.146  1.00  0.00    -0.302 OA
ENDBRANCH  31  33
ENDBRANCH  29  30
ENDBRANCH  28  29
ENDBRANCH  26  28
ENDBRANCH   1  26
TORSDOF 5
ENDMDL
