MODEL 1
REMARK minimizedAffinity -9.338727
REMARK CNNscore 0.455091566
REMARK CNNaffinity 6.83422422
REMARK  10 active torsions:
REMARK  status: ('A' for Active; 'I' for Inactive)
REMARK    1  A    between atoms: O1_2  and  C2_3 
REMARK    2  A    between atoms: C4_5  and  O2_6 
REMARK    3  A    between atoms: O2_6  and  C5_7 
REMARK    4  A    between atoms: C8_10  and  C9_11 
REMARK    5  A    between atoms: N1_12  and  C10_14 
REMARK    6  A    between atoms: C10_14  and  C11_15 
REMARK    7  A    between atoms: C21_27  and  C22_28 
REMARK    8  A    between atoms: C28_36  and  O5_37 
REMARK    9  A    between atoms: C32_41  and  O6_42 
REMARK   10  A    between atoms: C36_47  and  O8_48 
ROOT
HETATM    1  C5  UNL     1      -0.179   6.990  12.969  1.00  0.00     0.127 C 
HETATM    2  C6  UNL     1      -1.625   7.419  12.738  1.00  0.00     0.033 C 
HETATM    3  C7  UNL     1      -2.041   8.561  13.662  1.00  0.00     0.021 C 
HETATM    4  C8  UNL     1      -1.843   8.233  15.176  1.00  0.00     0.026 C 
HETATM    5  C16 UNL     1      -2.220   9.516  16.013  1.00  0.00     0.009 C 
HETATM    6  C17 UNL     1      -2.656   9.255  17.486  1.00  0.00     0.007 C 
HETATM    7  C18 UNL     1      -3.050  10.541  18.260  1.00  0.00     0.013 C 
HETATM    8  C19 UNL     1      -1.933  11.597  18.214  1.00  0.00    -0.005 C 
HETATM    9  C20 UNL     1      -0.778  11.081  19.122  1.00  0.00     0.019 C 
HETATM   10  C21 UNL     1      -2.234  13.046  18.741  1.00  0.00     0.028 C 
HETATM   11  C26 UNL     1      -1.394  13.981  17.814  1.00  0.00     0.013 C 
HETATM   12  C27 UNL     1      -0.661  13.075  16.806  1.00  0.00     0.040 C 
HETATM   13  C28 UNL     1      -1.568  11.856  16.725  1.00  0.00     0.070 C 
HETATM   14  C29 UNL     1      -1.120  10.625  15.920  1.00  0.00     0.026 C 
HETATM   15  C30 UNL     1       0.289  10.101  16.202  1.00  0.00     0.011 C 
HETATM   16  C31 UNL     1       0.635   8.922  15.299  1.00  0.00     0.039 C 
HETATM   17  C32 UNL     1      -0.372   7.754  15.416  1.00  0.00     0.073 C 
HETATM   18  C33 UNL     1       0.053   6.632  14.438  1.00  0.00     0.071 C 
ENDROOT
BRANCH   1  19
HETATM   19  O2  UNL     1       0.058   5.849  12.137  1.00  0.00    -0.356 OA
BRANCH  19  20
HETATM   20  C4  UNL     1       0.920   6.127  11.030  1.00  0.00     0.263 C 
HETATM   21  C3  UNL     1       2.241   6.636  11.589  1.00  0.00     0.095 C 
HETATM   22  C2  UNL     1       3.205   6.902  10.437  1.00  0.00     0.156 C 
HETATM   23  C36 UNL     1       2.563   7.894   9.445  1.00  0.00     0.175 C 
HETATM   24  C34 UNL     1       1.163   7.399   9.033  1.00  0.00     0.151 C 
HETATM   25  O7  UNL     1       0.347   7.106  10.174  1.00  0.00    -0.354 OA
HETATM   26  C35 UNL     1       0.430   8.444   8.198  1.00  0.00     0.042 C 
BRANCH  22  27
HETATM   27  O1  UNL     1       4.459   7.462  10.855  1.00  0.00    -0.388 OA
HETATM   28  C1  UNL     1       5.439   6.494  11.203  1.00  0.00     0.202 C 
ENDBRANCH  22  27
BRANCH  23  29
HETATM   29  O8  UNL     1       3.400   8.054   8.292  1.00  0.00    -0.390 OA
HETATM   30  H50 UNL     1       4.249   7.609   8.500  1.00  0.00     0.210 HD
ENDBRANCH  23  29
ENDBRANCH  19  20
ENDBRANCH   1  19
BRANCH  17  31
HETATM   31  O6  UNL     1      -0.226   7.248  16.752  1.00  0.00    -0.389 OA
HETATM   32  H42 UNL     1      -0.898   6.538  16.842  1.00  0.00     0.210 HD
ENDBRANCH  17  31
BRANCH   4  33
HETATM   33  C9  UNL     1      -2.891   7.152  15.496  1.00  0.00     0.069 C 
HETATM   34  N1  UNL     1      -4.097   7.201  15.032  1.00  0.00    -0.397 N 
ATOM     35  H1  UNL     1      -4.421   7.938  14.404  1.00  0.00     0.159 HD
BRANCH  34  36
HETATM   36  C10 UNL     1      -4.964   6.096  15.488  1.00  0.00     0.158 C 
BRANCH  36  37
HETATM   37  C11 UNL     1      -6.423   6.458  15.597  1.00  0.00    -0.025 A 
HETATM   38  C12 UNL     1      -6.874   7.777  15.490  1.00  0.00     0.011 A 
HETATM   39  C13 UNL     1      -8.230   8.063  15.599  1.00  0.00     0.018 A 
HETATM   40  C14 UNL     1      -9.100   7.006  15.796  1.00  0.00     0.087 A 
HETATM   41  N2  UNL     1      -8.714   5.715  15.870  1.00  0.00    -0.375 N 
HETATM   42  C15 UNL     1      -7.390   5.471  15.764  1.00  0.00     0.096 A 
ATOM     43  H2  UNL     1      -9.389   4.961  16.000  1.00  0.00     0.164 HD
ENDBRANCH  36  37
ENDBRANCH  34  36
ENDBRANCH   4  33
BRANCH  13  44
HETATM   44  O5  UNL     1      -2.758  12.308  16.030  1.00  0.00    -0.389 OA
HETATM   45  H36 UNL     1      -2.497  12.649  15.158  1.00  0.00     0.210 HD
ENDBRANCH  13  44
BRANCH  10  46
HETATM   46  C22 UNL     1      -3.659  13.491  18.909  1.00  0.00    -0.045 A 
HETATM   47  C23 UNL     1      -4.623  13.015  19.694  1.00  0.00     0.087 A 
HETATM   48  C24 UNL     1      -5.821  13.812  19.448  1.00  0.00     0.283 A 
HETATM   49  O3  UNL     1      -6.890  13.649  20.001  1.00  0.00    -0.260 OA
HETATM   50  O4  UNL     1      -5.545  14.755  18.507  1.00  0.00    -0.314 OA
HETATM   51  C25 UNL     1      -4.187  14.616  18.098  1.00  0.00     0.213 A 
ENDBRANCH  10  46
TORSDOF 10
ENDMDL
MODEL 2
REMARK minimizedAffinity -8.87147045
REMARK CNNscore 0.431691021
REMARK CNNaffinity 7.00183487
REMARK  10 active torsions:
REMARK  status: ('A' for Active; 'I' for Inactive)
REMARK    1  A    between atoms: O1_2  and  C2_3 
REMARK    2  A    between atoms: C4_5  and  O2_6 
REMARK    3  A    between atoms: O2_6  and  C5_7 
REMARK    4  A    between atoms: C8_10  and  C9_11 
REMARK    5  A    between atoms: N1_12  and  C10_14 
REMARK    6  A    between atoms: C10_14  and  C11_15 
REMARK    7  A    between atoms: C21_27  and  C22_28 
REMARK    8  A    between atoms: C28_36  and  O5_37 
REMARK    9  A    between atoms: C32_41  and  O6_42 
REMARK   10  A    between atoms: C36_47  and  O8_48 
ROOT
HETATM    1  C5  UNL     1      -0.876   7.831  12.814  1.00  0.00     0.127 C 
HETATM    2  C6  UNL     1      -2.354   8.205  12.768  1.00  0.00     0.033 C 
HETATM    3  C7  UNL     1      -2.712   9.265  13.807  1.00  0.00     0.021 C 
HETATM    4  C8  UNL     1      -2.337   8.850  15.265  1.00  0.00     0.026 C 
HETATM    5  C16 UNL     1      -2.671  10.057  16.224  1.00  0.00     0.009 C 
HETATM    6  C17 UNL     1      -2.933   9.682  17.713  1.00  0.00     0.007 C 
HETATM    7  C18 UNL     1      -3.291  10.896  18.612  1.00  0.00     0.013 C 
HETATM    8  C19 UNL     1      -2.228  12.004  18.521  1.00  0.00    -0.005 C 
HETATM    9  C20 UNL     1      -0.962  11.485  19.263  1.00  0.00     0.019 C 
HETATM   10  C21 UNL     1      -2.527  13.401  19.175  1.00  0.00     0.028 C 
HETATM   11  C26 UNL     1      -1.831  14.431  18.231  1.00  0.00     0.013 C 
HETATM   12  C27 UNL     1      -1.177  13.627  17.091  1.00  0.00     0.040 C 
HETATM   13  C28 UNL     1      -2.038  12.375  17.022  1.00  0.00     0.070 C 
HETATM   14  C29 UNL     1      -1.632  11.221  16.092  1.00  0.00     0.026 C 
HETATM   15  C30 UNL     1      -0.181  10.746  16.186  1.00  0.00     0.011 C 
HETATM   16  C31 UNL     1       0.110   9.644  15.172  1.00  0.00     0.039 C 
HETATM   17  C32 UNL     1      -0.831   8.426  15.314  1.00  0.00     0.073 C 
HETATM   18  C33 UNL     1      -0.471   7.390  14.222  1.00  0.00     0.071 C 
ENDROOT
BRANCH   1  19
HETATM   19  O2  UNL     1      -0.686   6.757  11.885  1.00  0.00    -0.356 OA
BRANCH  19  20
HETATM   20  C4  UNL     1       0.625   6.731  11.313  1.00  0.00     0.263 C 
HETATM   21  C3  UNL     1       0.587   7.548  10.030  1.00  0.00     0.095 C 
HETATM   22  C2  UNL     1       1.983   7.581   9.413  1.00  0.00     0.156 C 
HETATM   23  C36 UNL     1       2.477   6.138   9.180  1.00  0.00     0.175 C 
HETATM   24  C34 UNL     1       2.349   5.318  10.478  1.00  0.00     0.151 C 
HETATM   25  O7  UNL     1       1.027   5.398  11.027  1.00  0.00    -0.354 OA
HETATM   26  C35 UNL     1       2.658   3.843  10.235  1.00  0.00     0.042 C 
BRANCH  22  27
HETATM   27  O1  UNL     1       2.037   8.264   8.152  1.00  0.00    -0.388 OA
HETATM   28  C1  UNL     1       1.798   7.427   7.029  1.00  0.00     0.202 C 
ENDBRANCH  22  27
BRANCH  23  29
HETATM   29  O8  UNL     1       3.836   6.148   8.723  1.00  0.00    -0.390 OA
HETATM   30  H50 UNL     1       4.056   7.083   8.523  1.00  0.00     0.210 HD
ENDBRANCH  23  29
ENDBRANCH  19  20
ENDBRANCH   1  19
BRANCH  17  31
HETATM   31  O6  UNL     1      -0.520   7.843  16.589  1.00  0.00    -0.389 OA
HETATM   32  H42 UNL     1      -1.150   7.098  16.701  1.00  0.00     0.210 HD
ENDBRANCH  17  31
BRANCH   4  33
HETATM   33  C9  UNL     1      -3.301   7.703  15.620  1.00  0.00     0.069 C 
HETATM   34  N1  UNL     1      -4.361   7.453  14.923  1.00  0.00    -0.397 N 
ATOM     35  H1  UNL     1      -4.610   7.977  14.084  1.00  0.00     0.159 HD
BRANCH  34  36
HETATM   36  C10 UNL     1      -5.179   6.341  15.449  1.00  0.00     0.158 C 
BRANCH  36  37
HETATM   37  C11 UNL     1      -6.308   5.920  14.543  1.00  0.00    -0.025 A 
HETATM   38  C12 UNL     1      -6.174   4.880  13.619  1.00  0.00     0.011 A 
HETATM   39  C13 UNL     1      -7.243   4.529  12.804  1.00  0.00     0.018 A 
HETATM   40  C14 UNL     1      -8.428   5.225  12.954  1.00  0.00     0.087 A 
HETATM   41  N2  UNL     1      -8.614   6.211  13.856  1.00  0.00    -0.375 N 
HETATM   42  C15 UNL     1      -7.555   6.532  14.631  1.00  0.00     0.096 A 
ATOM     43  H2  UNL     1      -9.510   6.691  13.948  1.00  0.00     0.164 HD
ENDBRANCH  36  37
ENDBRANCH  34  36
ENDBRANCH   4  33
BRANCH  13  44
HETATM   44  O5  UNL     1      -3.314  12.815  16.490  1.00  0.00    -0.389 OA
HETATM   45  H36 UNL     1      -3.163  13.223  15.622  1.00  0.00     0.210 HD
ENDBRANCH  13  44
BRANCH  10  46
HETATM   46  C22 UNL     1      -3.942  13.766  19.524  1.00  0.00    -0.045 A 
HETATM   47  C23 UNL     1      -5.038  13.014  19.574  1.00  0.00     0.087 A 
HETATM   48  C24 UNL     1      -6.148  13.883  19.955  1.00  0.00     0.283 A 
HETATM   49  O3  UNL     1      -7.299  13.520  20.096  1.00  0.00    -0.260 OA
HETATM   50  O4  UNL     1      -5.686  15.152  20.121  1.00  0.00    -0.314 OA
HETATM   51  C25 UNL     1      -4.286  15.171  19.856  1.00  0.00     0.213 A 
ENDBRANCH  10  46
TORSDOF 10
ENDMDL
MODEL 3
REMARK minimizedAffinity -8.77118587
REMARK CNNscore 0.420404792
REMARK CNNaffinity 7.03981066
REMARK  10 active torsions:
REMARK  status: ('A' for Active; 'I' for Inactive)
REMARK    1  A    between atoms: O1_2  and  C2_3 
REMARK    2  A    between atoms: C4_5  and  O2_6 
REMARK    3  A    between atoms: O2_6  and  C5_7 
REMARK    4  A    between atoms: C8_10  and  C9_11 
REMARK    5  A    between atoms: N1_12  and  C10_14 
REMARK    6  A    between atoms: C10_14  and  C11_15 
REMARK    7  A    between atoms: C21_27  and  C22_28 
REMARK    8  A    between atoms: C28_36  and  O5_37 
REMARK    9  A    between atoms: C32_41  and  O6_42 
REMARK   10  A    between atoms: C36_47  and  O8_48 
ROOT
HETATM    1  C5  UNL     1      -3.779   6.894  13.638  1.00  0.00     0.127 C 
HETATM    2  C6  UNL     1      -2.743   6.330  14.606  1.00  0.00     0.033 C 
HETATM    3  C7  UNL     1      -2.259   7.378  15.606  1.00  0.00     0.021 C 
HETATM    4  C8  UNL     1      -1.677   8.657  14.925  1.00  0.00     0.026 C 
HETATM    5  C16 UNL     1      -1.300   9.691  16.055  1.00  0.00     0.009 C 
HETATM    6  C17 UNL     1      -0.207  10.735  15.676  1.00  0.00     0.007 C 
HETATM    7  C18 UNL     1       0.155  11.709  16.829  1.00  0.00     0.013 C 
HETATM    8  C19 UNL     1      -1.090  12.419  17.385  1.00  0.00    -0.005 C 
HETATM    9  C20 UNL     1      -1.554  13.441  16.307  1.00  0.00     0.019 C 
HETATM   10  C21 UNL     1      -0.958  13.266  18.703  1.00  0.00     0.028 C 
HETATM   11  C26 UNL     1      -2.324  13.069  19.432  1.00  0.00     0.013 C 
HETATM   12  C27 UNL     1      -3.177  12.139  18.548  1.00  0.00     0.040 C 
HETATM   13  C28 UNL     1      -2.129  11.336  17.792  1.00  0.00     0.070 C 
HETATM   14  C29 UNL     1      -2.565  10.373  16.676  1.00  0.00     0.026 C 
HETATM   15  C30 UNL     1      -3.523  10.935  15.625  1.00  0.00     0.011 C 
HETATM   16  C31 UNL     1      -3.928   9.868  14.613  1.00  0.00     0.039 C 
HETATM   17  C32 UNL     1      -2.719   9.220  13.900  1.00  0.00     0.073 C 
HETATM   18  C33 UNL     1      -3.239   8.135  12.927  1.00  0.00     0.071 C 
ENDROOT
BRANCH   1  19
HETATM   19  O2  UNL     1      -4.068   5.863  12.686  1.00  0.00    -0.356 OA
BRANCH  19  20
HETATM   20  C4  UNL     1      -3.057   4.852  12.625  1.00  0.00     0.263 C 
HETATM   21  C3  UNL     1      -1.969   5.344  11.682  1.00  0.00     0.095 C 
HETATM   22  C2  UNL     1      -0.848   4.309  11.625  1.00  0.00     0.156 C 
HETATM   23  C36 UNL     1      -1.428   2.945  11.197  1.00  0.00     0.175 C 
HETATM   24  C34 UNL     1      -2.624   2.572  12.093  1.00  0.00     0.151 C 
HETATM   25  O7  UNL     1      -3.595   3.626  12.146  1.00  0.00    -0.354 OA
HETATM   26  C35 UNL     1      -3.331   1.321  11.582  1.00  0.00     0.042 C 
BRANCH  22  27
HETATM   27  O1  UNL     1       0.196   4.644  10.699  1.00  0.00    -0.388 OA
HETATM   28  C1  UNL     1       1.493   4.684  11.278  1.00  0.00     0.202 C 
ENDBRANCH  22  27
BRANCH  23  29
HETATM   29  O8  UNL     1      -0.414   1.933  11.264  1.00  0.00    -0.390 OA
HETATM   30  H50 UNL     1       0.435   2.399  11.416  1.00  0.00     0.210 HD
ENDBRANCH  23  29
ENDBRANCH  19  20
ENDBRANCH   1  19
BRANCH  17  31
HETATM   31  O6  UNL     1      -2.126  10.266  13.114  1.00  0.00    -0.389 OA
HETATM   32  H42 UNL     1      -1.331   9.867  12.698  1.00  0.00     0.210 HD
ENDBRANCH  17  31
BRANCH   4  33
HETATM   33  C9  UNL     1      -0.363   8.202  14.263  1.00  0.00     0.069 C 
HETATM   34  N1  UNL     1       0.120   8.785  13.215  1.00  0.00    -0.397 N 
ATOM     35  H1  UNL     1      -0.320   9.596  12.779  1.00  0.00     0.159 HD
BRANCH  34  36
HETATM   36  C10 UNL     1       1.364   8.175  12.705  1.00  0.00     0.158 C 
BRANCH  36  37
HETATM   37  C11 UNL     1       1.480   8.169  11.203  1.00  0.00    -0.025 A 
HETATM   38  C12 UNL     1       2.703   7.987  10.550  1.00  0.00     0.011 A 
HETATM   39  C13 UNL     1       2.761   7.991   9.161  1.00  0.00     0.018 A 
HETATM   40  C14 UNL     1       1.578   8.159   8.465  1.00  0.00     0.087 A 
HETATM   41  N2  UNL     1       0.371   8.302   9.051  1.00  0.00    -0.375 N 
HETATM   42  C15 UNL     1       0.349   8.298  10.402  1.00  0.00     0.096 A 
ATOM     43  H2  UNL     1      -0.482   8.407   8.502  1.00  0.00     0.164 HD
ENDBRANCH  36  37
ENDBRANCH  34  36
ENDBRANCH   4  33
BRANCH  13  44
HETATM   44  O5  UNL     1      -1.524  10.465  18.782  1.00  0.00    -0.389 OA
HETATM   45  H36 UNL     1      -2.220   9.912  19.174  1.00  0.00     0.210 HD
ENDBRANCH  13  44
BRANCH  10  46
HETATM   46  C22 UNL     1       0.234  13.063  19.595  1.00  0.00    -0.045 A 
HETATM   47  C23 UNL     1       0.683  11.963  20.195  1.00  0.00     0.087 A 
HETATM   48  C24 UNL     1       1.872  12.336  20.957  1.00  0.00     0.283 A 
HETATM   49  O3  UNL     1       2.537  11.570  21.626  1.00  0.00    -0.260 OA
HETATM   50  O4  UNL     1       2.107  13.666  20.798  1.00  0.00    -0.314 OA
HETATM   51  C25 UNL     1       1.101  14.214  19.949  1.00  0.00     0.213 A 
ENDBRANCH  10  46
TORSDOF 10
ENDMDL
MODEL 4
REMARK minimizedAffinity -7.53931475
REMARK CNNscore 0.278639078
REMARK CNNaffinity 6.00162172
REMARK  10 active torsions:
REMARK  status: ('A' for Active; 'I' for Inactive)
REMARK    1  A    between atoms: O1_2  and  C2_3 
REMARK    2  A    between atoms: C4_5  and  O2_6 
REMARK    3  A    between atoms: O2_6  and  C5_7 
REMARK    4  A    between atoms: C8_10  and  C9_11 
REMARK    5  A    between atoms: N1_12  and  C10_14 
REMARK    6  A    between atoms: C10_14  and  C11_15 
REMARK    7  A    between atoms: C21_27  and  C22_28 
REMARK    8  A    between atoms: C28_36  and  O5_37 
REMARK    9  A    between atoms: C32_41  and  O6_42 
REMARK   10  A    between atoms: C36_47  and  O8_48 
ROOT
HETATM    1  C5  UNL     1      -0.418  10.520  16.195  1.00  0.00     0.127 C 
HETATM    2  C6  UNL     1       1.005  10.613  15.653  1.00  0.00     0.033 C 
HETATM    3  C7  UNL     1       2.037  10.757  16.769  1.00  0.00     0.021 C 
HETATM    4  C8  UNL     1       1.768  11.977  17.705  1.00  0.00     0.026 C 
HETATM    5  C16 UNL     1       2.842  11.962  18.860  1.00  0.00     0.009 C 
HETATM    6  C17 UNL     1       3.132  13.338  19.530  1.00  0.00     0.007 C 
HETATM    7  C18 UNL     1       4.219  13.280  20.636  1.00  0.00     0.013 C 
HETATM    8  C19 UNL     1       3.886  12.227  21.706  1.00  0.00    -0.005 C 
HETATM    9  C20 UNL     1       2.689  12.779  22.535  1.00  0.00     0.019 C 
HETATM   10  C21 UNL     1       4.975  11.861  22.778  1.00  0.00     0.028 C 
HETATM   11  C26 UNL     1       4.758  10.339  23.051  1.00  0.00     0.013 C 
HETATM   12  C27 UNL     1       3.592   9.882  22.153  1.00  0.00     0.040 C 
HETATM   13  C28 UNL     1       3.653  10.864  20.993  1.00  0.00     0.070 C 
HETATM   14  C29 UNL     1       2.551  10.848  19.921  1.00  0.00     0.026 C 
HETATM   15  C30 UNL     1       1.107  10.861  20.427  1.00  0.00     0.011 C 
HETATM   16  C31 UNL     1       0.113  10.780  19.273  1.00  0.00     0.039 C 
HETATM   17  C32 UNL     1       0.296  11.911  18.235  1.00  0.00     0.073 C 
HETATM   18  C33 UNL     1      -0.735  11.713  17.098  1.00  0.00     0.071 C 
ENDROOT
BRANCH   1  19
HETATM   19  O2  UNL     1      -1.297  10.505  15.064  1.00  0.00    -0.356 OA
BRANCH  19  20
HETATM   20  C4  UNL     1      -1.502   9.196  14.525  1.00  0.00     0.263 C 
HETATM   21  C3  UNL     1      -2.425   8.445  15.474  1.00  0.00     0.095 C 
HETATM   22  C2  UNL     1      -2.704   7.055  14.907  1.00  0.00     0.156 C 
HETATM   23  C36 UNL     1      -1.370   6.317  14.675  1.00  0.00     0.175 C 
HETATM   24  C34 UNL     1      -0.419   7.192  13.835  1.00  0.00     0.151 C 
HETATM   25  O7  UNL     1      -0.269   8.501  14.399  1.00  0.00    -0.354 OA
HETATM   26  C35 UNL     1       0.970   6.568  13.741  1.00  0.00     0.042 C 
BRANCH  22  27
HETATM   27  O1  UNL     1      -3.506   6.235  15.770  1.00  0.00    -0.388 OA
HETATM   28  C1  UNL     1      -4.905   6.374  15.566  1.00  0.00     0.202 C 
ENDBRANCH  22  27
BRANCH  23  29
HETATM   29  O8  UNL     1      -1.606   5.062  14.022  1.00  0.00    -0.390 OA
HETATM   30  H50 UNL     1      -2.576   4.920  14.032  1.00  0.00     0.210 HD
ENDBRANCH  23  29
ENDBRANCH  19  20
ENDBRANCH   1  19
BRANCH  17  31
HETATM   31  O6  UNL     1      -0.039  13.126  18.923  1.00  0.00    -0.389 OA
HETATM   32  H42 UNL     1       0.122  13.849  18.279  1.00  0.00     0.210 HD
ENDBRANCH  17  31
BRANCH   4  33
HETATM   33  C9  UNL     1       2.044  13.220  16.839  1.00  0.00     0.069 C 
HETATM   34  N1  UNL     1       2.880  13.202  15.853  1.00  0.00    -0.397 N 
ATOM     35  H1  UNL     1       3.385  12.362  15.570  1.00  0.00     0.159 HD
BRANCH  34  36
HETATM   36  C10 UNL     1       3.038  14.503  15.174  1.00  0.00     0.158 C 
BRANCH  36  37
HETATM   37  C11 UNL     1       3.967  14.473  13.987  1.00  0.00    -0.025 A 
HETATM   38  C12 UNL     1       4.945  13.487  13.830  1.00  0.00     0.011 A 
HETATM   39  C13 UNL     1       5.780  13.501  12.719  1.00  0.00     0.018 A 
HETATM   40  C14 UNL     1       5.595  14.502  11.783  1.00  0.00     0.087 A 
HETATM   41  N2  UNL     1       4.641  15.452  11.874  1.00  0.00    -0.375 N 
HETATM   42  C15 UNL     1       3.849  15.413  12.968  1.00  0.00     0.096 A 
ATOM     43  H2  UNL     1       4.525  16.165  11.154  1.00  0.00     0.164 HD
ENDBRANCH  36  37
ENDBRANCH  34  36
ENDBRANCH   4  33
BRANCH  13  44
HETATM   44  O5  UNL     1       4.854  10.517  20.258  1.00  0.00    -0.389 OA
HETATM   45  H36 UNL     1       4.785   9.591  19.971  1.00  0.00     0.210 HD
ENDBRANCH  13  44
BRANCH  10  46
HETATM   46  C22 UNL     1       6.410  12.227  22.528  1.00  0.00    -0.045 A 
HETATM   47  C23 UNL     1       6.950  13.012  21.598  1.00  0.00     0.087 A 
HETATM   48  C24 UNL     1       8.395  13.006  21.806  1.00  0.00     0.283 A 
HETATM   49  O3  UNL     1       9.197  13.622  21.132  1.00  0.00    -0.260 OA
HETATM   50  O4  UNL     1       8.692  12.204  22.864  1.00  0.00    -0.314 OA
HETATM   51  C25 UNL     1       7.482  11.656  23.381  1.00  0.00     0.213 A 
ENDBRANCH  10  46
TORSDOF 10
ENDMDL
MODEL 5
REMARK minimizedAffinity -8.43714142
REMARK CNNscore 0.276786268
REMARK CNNaffinity 6.09902716
REMARK  10 active torsions:
REMARK  status: ('A' for Active; 'I' for Inactive)
REMARK    1  A    between atoms: O1_2  and  C2_3 
REMARK    2  A    between atoms: C4_5  and  O2_6 
REMARK    3  A    between atoms: O2_6  and  C5_7 
REMARK    4  A    between atoms: C8_10  and  C9_11 
REMARK    5  A    between atoms: N1_12  and  C10_14 
REMARK    6  A    between atoms: C10_14  and  C11_15 
REMARK    7  A    between atoms: C21_27  and  C22_28 
REMARK    8  A    between atoms: C28_36  and  O5_37 
REMARK    9  A    between atoms: C32_41  and  O6_42 
REMARK   10  A    between atoms: C36_47  and  O8_48 
ROOT
HETATM    1  C5  UNL     1       0.227   9.924  15.643  1.00  0.00     0.127 C 
HETATM    2  C6  UNL     1       1.723   9.672  15.480  1.00  0.00     0.033 C 
HETATM    3  C7  UNL     1       2.498   9.962  16.764  1.00  0.00     0.021 C 
HETATM    4  C8  UNL     1       2.281  11.412  17.302  1.00  0.00     0.026 C 
HETATM    5  C16 UNL     1       3.056  11.553  18.668  1.00  0.00     0.009 C 
HETATM    6  C17 UNL     1       3.462  13.003  19.066  1.00  0.00     0.007 C 
HETATM    7  C18 UNL     1       4.252  13.091  20.399  1.00  0.00     0.013 C 
HETATM    8  C19 UNL     1       3.493  12.415  21.554  1.00  0.00    -0.005 C 
HETATM    9  C20 UNL     1       2.280  13.327  21.900  1.00  0.00     0.019 C 
HETATM   10  C21 UNL     1       4.230  12.198  22.924  1.00  0.00     0.028 C 
HETATM   11  C26 UNL     1       3.661  10.848  23.464  1.00  0.00     0.013 C 
HETATM   12  C27 UNL     1       2.649  10.336  22.421  1.00  0.00     0.040 C 
HETATM   13  C28 UNL     1       3.153  10.958  21.127  1.00  0.00     0.070 C 
HETATM   14  C29 UNL     1       2.327  10.812  19.839  1.00  0.00     0.026 C 
HETATM   15  C30 UNL     1       0.841  11.158  19.938  1.00  0.00     0.011 C 
HETATM   16  C31 UNL     1       0.123  10.913  18.615  1.00  0.00     0.039 C 
HETATM   17  C32 UNL     1       0.746  11.693  17.434  1.00  0.00     0.073 C 
HETATM   18  C33 UNL     1      -0.034  11.346  16.143  1.00  0.00     0.071 C 
ENDROOT
BRANCH   1  19
HETATM   19  O2  UNL     1      -0.373   9.734  14.356  1.00  0.00    -0.356 OA
BRANCH  19  20
HETATM   20  C4  UNL     1      -0.200   8.409  13.844  1.00  0.00     0.263 C 
HETATM   21  C3  UNL     1      -0.119   8.507  12.327  1.00  0.00     0.095 C 
HETATM   22  C2  UNL     1       0.111   7.114  11.746  1.00  0.00     0.156 C 
HETATM   23  C36 UNL     1      -1.012   6.167  12.217  1.00  0.00     0.175 C 
HETATM   24  C34 UNL     1      -1.147   6.227  13.750  1.00  0.00     0.151 C 
HETATM   25  O7  UNL     1      -1.289   7.575  14.218  1.00  0.00    -0.354 OA
HETATM   26  C35 UNL     1      -2.365   5.443  14.231  1.00  0.00     0.042 C 
BRANCH  22  27
HETATM   27  O1  UNL     1       0.124   7.087  10.311  1.00  0.00    -0.388 OA
HETATM   28  C1  UNL     1       1.292   7.651   9.731  1.00  0.00     0.202 C 
ENDBRANCH  22  27
BRANCH  23  29
HETATM   29  O8  UNL     1      -0.742   4.826  11.787  1.00  0.00    -0.390 OA
HETATM   30  H50 UNL     1       0.014   4.880  11.165  1.00  0.00     0.210 HD
ENDBRANCH  23  29
ENDBRANCH  19  20
ENDBRANCH   1  19
BRANCH  17  31
HETATM   31  O6  UNL     1       0.519  13.081  17.723  1.00  0.00    -0.389 OA
HETATM   32  H42 UNL     1       0.956  13.578  16.998  1.00  0.00     0.210 HD
ENDBRANCH  17  31
BRANCH   4  33
HETATM   33  C9  UNL     1       2.978  12.330  16.282  1.00  0.00     0.069 C 
HETATM   34  N1  UNL     1       2.528  13.507  15.992  1.00  0.00    -0.397 N 
ATOM     35  H1  UNL     1       1.703  13.911  16.437  1.00  0.00     0.159 HD
BRANCH  34  36
HETATM   36  C10 UNL     1       3.311  14.215  14.959  1.00  0.00     0.158 C 
BRANCH  36  37
HETATM   37  C11 UNL     1       2.496  14.698  13.786  1.00  0.00    -0.025 A 
HETATM   38  C12 UNL     1       3.083  15.071  12.574  1.00  0.00     0.011 A 
HETATM   39  C13 UNL     1       2.291  15.512  11.521  1.00  0.00     0.018 A 
HETATM   40  C14 UNL     1       0.922  15.547  11.712  1.00  0.00     0.087 A 
HETATM   41  N2  UNL     1       0.309  15.161  12.851  1.00  0.00    -0.375 N 
HETATM   42  C15 UNL     1       1.107  14.742  13.857  1.00  0.00     0.096 A 
ATOM     43  H2  UNL     1      -0.706  15.186  12.947  1.00  0.00     0.164 HD
ENDBRANCH  36  37
ENDBRANCH  34  36
ENDBRANCH   4  33
BRANCH  13  44
HETATM   44  O5  UNL     1       4.391  10.265  20.824  1.00  0.00    -0.389 OA
HETATM   45  H36 UNL     1       4.202   9.315  20.744  1.00  0.00     0.210 HD
ENDBRANCH  13  44
BRANCH  10  46
HETATM   46  C22 UNL     1       5.729  12.282  22.979  1.00  0.00    -0.045 A 
HETATM   47  C23 UNL     1       6.641  11.321  23.105  1.00  0.00     0.087 A 
HETATM   48  C24 UNL     1       7.953  11.962  23.116  1.00  0.00     0.283 A 
HETATM   49  O3  UNL     1       9.013  11.376  23.216  1.00  0.00    -0.260 OA
HETATM   50  O4  UNL     1       7.794  13.309  22.999  1.00  0.00    -0.314 OA
HETATM   51  C25 UNL     1       6.402  13.603  22.916  1.00  0.00     0.213 A 
ENDBRANCH  10  46
TORSDOF 10
ENDMDL
MODEL 6
REMARK minimizedAffinity -9.92891788
REMARK CNNscore 0.274040222
REMARK CNNaffinity 7.22192574
REMARK  10 active torsions:
REMARK  status: ('A' for Active; 'I' for Inactive)
REMARK    1  A    between atoms: O1_2  and  C2_3 
REMARK    2  A    between atoms: C4_5  and  O2_6 
REMARK    3  A    between atoms: O2_6  and  C5_7 
REMARK    4  A    between atoms: C8_10  and  C9_11 
REMARK    5  A    between atoms: N1_12  and  C10_14 
REMARK    6  A    between atoms: C10_14  and  C11_15 
REMARK    7  A    between atoms: C21_27  and  C22_28 
REMARK    8  A    between atoms: C28_36  and  O5_37 
REMARK    9  A    between atoms: C32_41  and  O6_42 
REMARK   10  A    between atoms: C36_47  and  O8_48 
ROOT
HETATM    1  C5  UNL     1      -4.212   7.580  13.431  1.00  0.00     0.127 C 
HETATM    2  C6  UNL     1      -3.444   8.891  13.576  1.00  0.00     0.033 C 
HETATM    3  C7  UNL     1      -2.069   8.828  12.914  1.00  0.00     0.021 C 
HETATM    4  C8  UNL     1      -1.183   7.656  13.442  1.00  0.00     0.026 C 
HETATM    5  C16 UNL     1       0.164   7.646  12.621  1.00  0.00     0.009 C 
HETATM    6  C17 UNL     1       1.383   6.988  13.334  1.00  0.00     0.007 C 
HETATM    7  C18 UNL     1       2.693   7.031  12.503  1.00  0.00     0.013 C 
HETATM    8  C19 UNL     1       2.500   6.419  11.105  1.00  0.00    -0.005 C 
HETATM    9  C20 UNL     1       2.353   4.881  11.294  1.00  0.00     0.019 C 
HETATM   10  C21 UNL     1       3.643   6.580  10.040  1.00  0.00     0.028 C 
HETATM   11  C26 UNL     1       2.893   6.714   8.677  1.00  0.00     0.013 C 
HETATM   12  C27 UNL     1       1.385   6.637   8.985  1.00  0.00     0.040 C 
HETATM   13  C28 UNL     1       1.305   7.141  10.418  1.00  0.00     0.070 C 
HETATM   14  C29 UNL     1      -0.033   7.087  11.172  1.00  0.00     0.026 C 
HETATM   15  C30 UNL     1      -0.783   5.755  11.137  1.00  0.00     0.011 C 
HETATM   16  C31 UNL     1      -2.120   5.850  11.865  1.00  0.00     0.039 C 
HETATM   17  C32 UNL     1      -1.978   6.312  13.334  1.00  0.00     0.073 C 
HETATM   18  C33 UNL     1      -3.389   6.406  13.964  1.00  0.00     0.071 C 
ENDROOT
BRANCH   1  19
HETATM   19  O2  UNL     1      -5.423   7.719  14.183  1.00  0.00    -0.356 OA
BRANCH  19  20
HETATM   20  C4  UNL     1      -6.235   6.542  14.167  1.00  0.00     0.263 C 
HETATM   21  C3  UNL     1      -5.544   5.515  13.281  1.00  0.00     0.095 C 
HETATM   22  C2  UNL     1      -6.360   4.226  13.275  1.00  0.00     0.156 C 
HETATM   23  C36 UNL     1      -7.801   4.530  12.813  1.00  0.00     0.175 C 
HETATM   24  C34 UNL     1      -8.393   5.681  13.649  1.00  0.00     0.151 C 
HETATM   25  O7  UNL     1      -7.532   6.826  13.659  1.00  0.00    -0.354 OA
HETATM   26  C35 UNL     1      -9.745   6.126  13.100  1.00  0.00     0.042 C 
BRANCH  22  27
HETATM   27  O1  UNL     1      -5.832   3.216  12.402  1.00  0.00    -0.388 OA
HETATM   28  C1  UNL     1      -5.114   3.731  11.290  1.00  0.00     0.202 C 
ENDBRANCH  22  27
BRANCH  23  29
HETATM   29  O8  UNL     1      -8.615   3.355  12.927  1.00  0.00    -0.390 OA
HETATM   30  H50 UNL     1      -8.007   2.611  13.121  1.00  0.00     0.210 HD
ENDBRANCH  23  29
ENDBRANCH  19  20
ENDBRANCH   1  19
BRANCH  17  31
HETATM   31  O6  UNL     1      -1.269   5.259  14.005  1.00  0.00    -0.389 OA
HETATM   32  H42 UNL     1      -1.137   5.574  14.926  1.00  0.00     0.210 HD
ENDBRANCH  17  31
BRANCH   4  33
HETATM   33  C9  UNL     1      -0.832   8.037  14.892  1.00  0.00     0.069 C 
HETATM   34  N1  UNL     1      -0.550   9.250  15.238  1.00  0.00    -0.397 N 
ATOM     35  H1  UNL     1      -0.569  10.032  14.584  1.00  0.00     0.159 HD
BRANCH  34  36
HETATM   36  C10 UNL     1      -0.198   9.404  16.664  1.00  0.00     0.158 C 
BRANCH  36  37
HETATM   37  C11 UNL     1      -1.134  10.295  17.440  1.00  0.00    -0.025 A 
HETATM   38  C12 UNL     1      -2.438   9.906  17.761  1.00  0.00     0.011 A 
HETATM   39  C13 UNL     1      -3.265  10.763  18.478  1.00  0.00     0.018 A 
HETATM   40  C14 UNL     1      -2.749  11.984  18.869  1.00  0.00     0.087 A 
HETATM   41  N2  UNL     1      -1.486  12.386  18.614  1.00  0.00    -0.375 N 
HETATM   42  C15 UNL     1      -0.709  11.533  17.912  1.00  0.00     0.096 A 
ATOM     43  H2  UNL     1      -1.137  13.289  18.935  1.00  0.00     0.164 HD
ENDBRANCH  36  37
ENDBRANCH  34  36
ENDBRANCH   4  33
BRANCH  13  44
HETATM   44  O5  UNL     1       1.603   8.558  10.344  1.00  0.00    -0.389 OA
HETATM   45  H36 UNL     1       0.956   8.980   9.754  1.00  0.00     0.210 HD
ENDBRANCH  13  44
BRANCH  10  46
HETATM   46  C22 UNL     1       4.704   7.624  10.245  1.00  0.00    -0.045 A 
HETATM   47  C23 UNL     1       4.709   8.919   9.938  1.00  0.00     0.087 A 
HETATM   48  C24 UNL     1       6.002   9.460  10.347  1.00  0.00     0.283 A 
HETATM   49  O3  UNL     1       6.344  10.619  10.214  1.00  0.00    -0.260 OA
HETATM   50  O4  UNL     1       6.752   8.464  10.891  1.00  0.00    -0.314 OA
HETATM   51  C25 UNL     1       6.004   7.252  10.858  1.00  0.00     0.213 A 
ENDBRANCH  10  46
TORSDOF 10
ENDMDL
MODEL 7
REMARK minimizedAffinity -7.97643614
REMARK CNNscore 0.272823185
REMARK CNNaffinity 6.10639811
REMARK  10 active torsions:
REMARK  status: ('A' for Active; 'I' for Inactive)
REMARK    1  A    between atoms: O1_2  and  C2_3 
REMARK    2  A    between atoms: C4_5  and  O2_6 
REMARK    3  A    between atoms: O2_6  and  C5_7 
REMARK    4  A    between atoms: C8_10  and  C9_11 
REMARK    5  A    between atoms: N1_12  and  C10_14 
REMARK    6  A    between atoms: C10_14  and  C11_15 
REMARK    7  A    between atoms: C21_27  and  C22_28 
REMARK    8  A    between atoms: C28_36  and  O5_37 
REMARK    9  A    between atoms: C32_41  and  O6_42 
REMARK   10  A    between atoms: C36_47  and  O8_48 
ROOT
HETATM    1  C5  UNL     1      -0.049  10.320  15.822  1.00  0.00     0.127 C 
HETATM    2  C6  UNL     1       1.443  10.145  15.555  1.00  0.00     0.033 C 
HETATM    3  C7  UNL     1       2.282  10.372  16.811  1.00  0.00     0.021 C 
HETATM    4  C8  UNL     1       2.042  11.767  17.470  1.00  0.00     0.026 C 
HETATM    5  C16 UNL     1       2.892  11.840  18.797  1.00  0.00     0.009 C 
HETATM    6  C17 UNL     1       3.265  13.273  19.280  1.00  0.00     0.007 C 
HETATM    7  C18 UNL     1       4.130  13.295  20.569  1.00  0.00     0.013 C 
HETATM    8  C19 UNL     1       3.469  12.504  21.709  1.00  0.00    -0.005 C 
HETATM    9  C20 UNL     1       2.245  13.334  22.194  1.00  0.00     0.019 C 
HETATM   10  C21 UNL     1       4.296  12.218  23.015  1.00  0.00     0.028 C 
HETATM   11  C26 UNL     1       3.813  10.808  23.482  1.00  0.00     0.013 C 
HETATM   12  C27 UNL     1       2.761  10.332  22.462  1.00  0.00     0.040 C 
HETATM   13  C28 UNL     1       3.161  11.069  21.193  1.00  0.00     0.070 C 
HETATM   14  C29 UNL     1       2.265  10.984  19.947  1.00  0.00     0.026 C 
HETATM   15  C30 UNL     1       0.775  11.257  20.157  1.00  0.00     0.011 C 
HETATM   16  C31 UNL     1      -0.011  11.080  18.862  1.00  0.00     0.039 C 
HETATM   17  C32 UNL     1       0.508  11.972  17.711  1.00  0.00     0.073 C 
HETATM   18  C33 UNL     1      -0.334  11.688  16.444  1.00  0.00     0.071 C 
ENDROOT
BRANCH   1  19
HETATM   19  O2  UNL     1      -0.718  10.199  14.561  1.00  0.00    -0.356 OA
BRANCH  19  20
HETATM   20  C4  UNL     1      -1.438   8.972  14.419  1.00  0.00     0.263 C 
HETATM   21  C3  UNL     1      -0.670   8.095  13.441  1.00  0.00     0.095 C 
HETATM   22  C2  UNL     1      -1.386   6.755  13.298  1.00  0.00     0.156 C 
HETATM   23  C36 UNL     1      -2.844   6.994  12.856  1.00  0.00     0.175 C 
HETATM   24  C34 UNL     1      -3.524   8.007  13.797  1.00  0.00     0.151 C 
HETATM   25  O7  UNL     1      -2.751   9.208  13.930  1.00  0.00    -0.354 OA
HETATM   26  C35 UNL     1      -4.904   8.403  13.283  1.00  0.00     0.042 C 
BRANCH  22  27
HETATM   27  O1  UNL     1      -0.781   5.881  12.333  1.00  0.00    -0.388 OA
HETATM   28  C1  UNL     1      -0.051   4.805  12.904  1.00  0.00     0.202 C 
ENDBRANCH  22  27
BRANCH  23  29
HETATM   29  O8  UNL     1      -3.567   5.756  12.843  1.00  0.00    -0.390 OA
HETATM   30  H50 UNL     1      -2.904   5.044  12.968  1.00  0.00     0.210 HD
ENDBRANCH  23  29
ENDBRANCH  19  20
ENDBRANCH   1  19
BRANCH  17  31
HETATM   31  O6  UNL     1       0.246  13.323  18.118  1.00  0.00    -0.389 OA
HETATM   32  H42 UNL     1       0.619  13.891  17.409  1.00  0.00     0.210 HD
ENDBRANCH  17  31
BRANCH   4  33
HETATM   33  C9  UNL     1       2.641  12.788  16.485  1.00  0.00     0.069 C 
HETATM   34  N1  UNL     1       1.937  13.741  15.966  1.00  0.00    -0.397 N 
ATOM     35  H1  UNL     1       0.955  13.894  16.196  1.00  0.00     0.159 HD
BRANCH  34  36
HETATM   36  C10 UNL     1       2.680  14.589  15.013  1.00  0.00     0.158 C 
BRANCH  36  37
HETATM   37  C11 UNL     1       1.820  15.231  13.955  1.00  0.00    -0.025 A 
HETATM   38  C12 UNL     1       0.487  14.862  13.751  1.00  0.00     0.011 A 
HETATM   39  C13 UNL     1      -0.266  15.482  12.762  1.00  0.00     0.018 A 
HETATM   40  C14 UNL     1       0.340  16.475  12.014  1.00  0.00     0.087 A 
HETATM   41  N2  UNL     1       1.611  16.889  12.198  1.00  0.00    -0.375 N 
HETATM   42  C15 UNL     1       2.318  16.263  13.165  1.00  0.00     0.096 A 
ATOM     43  H2  UNL     1       2.017  17.637  11.636  1.00  0.00     0.164 HD
ENDBRANCH  36  37
ENDBRANCH  34  36
ENDBRANCH   4  33
BRANCH  13  44
HETATM   44  O5  UNL     1       4.404  10.455  20.767  1.00  0.00    -0.389 OA
HETATM   45  H36 UNL     1       4.248   9.507  20.625  1.00  0.00     0.210 HD
ENDBRANCH  13  44
BRANCH  10  46
HETATM   46  C22 UNL     1       5.791  12.362  22.990  1.00  0.00    -0.045 A 
HETATM   47  C23 UNL     1       6.746  11.436  23.014  1.00  0.00     0.087 A 
HETATM   48  C24 UNL     1       8.030  12.130  22.985  1.00  0.00     0.283 A 
HETATM   49  O3  UNL     1       9.116  11.585  22.995  1.00  0.00    -0.260 OA
HETATM   50  O4  UNL     1       7.811  13.473  22.949  1.00  0.00    -0.314 OA
HETATM   51  C25 UNL     1       6.406  13.712  22.959  1.00  0.00     0.213 A 
ENDBRANCH  10  46
TORSDOF 10
ENDMDL
MODEL 8
REMARK minimizedAffinity -8.11200523
REMARK CNNscore 0.269495338
REMARK CNNaffinity 6.01524591
REMARK  10 active torsions:
REMARK  status: ('A' for Active; 'I' for Inactive)
REMARK    1  A    between atoms: O1_2  and  C2_3 
REMARK    2  A    between atoms: C4_5  and  O2_6 
REMARK    3  A    between atoms: O2_6  and  C5_7 
REMARK    4  A    between atoms: C8_10  and  C9_11 
REMARK    5  A    between atoms: N1_12  and  C10_14 
REMARK    6  A    between atoms: C10_14  and  C11_15 
REMARK    7  A    between atoms: C21_27  and  C22_28 
REMARK    8  A    between atoms: C28_36  and  O5_37 
REMARK    9  A    between atoms: C32_41  and  O6_42 
REMARK   10  A    between atoms: C36_47  and  O8_48 
ROOT
HETATM    1  C5  UNL     1       0.892   9.782  14.933  1.00  0.00     0.127 C 
HETATM    2  C6  UNL     1       2.409   9.624  14.914  1.00  0.00     0.033 C 
HETATM    3  C7  UNL     1       3.035   9.907  16.278  1.00  0.00     0.021 C 
HETATM    4  C8  UNL     1       2.676  11.319  16.840  1.00  0.00     0.026 C 
HETATM    5  C16 UNL     1       3.303  11.452  18.281  1.00  0.00     0.009 C 
HETATM    6  C17 UNL     1       3.577  12.906  18.766  1.00  0.00     0.007 C 
HETATM    7  C18 UNL     1       4.225  12.986  20.175  1.00  0.00     0.013 C 
HETATM    8  C19 UNL     1       3.399  12.222  21.223  1.00  0.00    -0.005 C 
HETATM    9  C20 UNL     1       2.104  13.047  21.477  1.00  0.00     0.019 C 
HETATM   10  C21 UNL     1       4.010  11.994  22.653  1.00  0.00     0.028 C 
HETATM   11  C26 UNL     1       3.475  10.593  23.088  1.00  0.00     0.013 C 
HETATM   12  C27 UNL     1       2.605  10.065  21.931  1.00  0.00     0.040 C 
HETATM   13  C28 UNL     1       3.194  10.766  20.716  1.00  0.00     0.070 C 
HETATM   14  C29 UNL     1       2.510  10.623  19.347  1.00  0.00     0.026 C 
HETATM   15  C30 UNL     1       1.002  10.878  19.308  1.00  0.00     0.011 C 
HETATM   16  C31 UNL     1       0.435  10.644  17.911  1.00  0.00     0.039 C 
HETATM   17  C32 UNL     1       1.122  11.506  16.826  1.00  0.00     0.073 C 
HETATM   18  C33 UNL     1       0.496  11.165  15.452  1.00  0.00     0.071 C 
ENDROOT
BRANCH   1  19
HETATM   19  O2  UNL     1       0.435   9.608  13.587  1.00  0.00    -0.356 OA
BRANCH  19  20
HETATM   20  C4  UNL     1       0.511   8.252  13.136  1.00  0.00     0.263 C 
HETATM   21  C3  UNL     1       1.067   8.267  11.719  1.00  0.00     0.095 C 
HETATM   22  C2  UNL     1       1.205   6.831  11.219  1.00  0.00     0.156 C 
HETATM   23  C36 UNL     1      -0.161   6.120  11.310  1.00  0.00     0.175 C 
HETATM   24  C34 UNL     1      -0.743   6.271  12.729  1.00  0.00     0.151 C 
HETATM   25  O7  UNL     1      -0.772   7.641  13.147  1.00  0.00    -0.354 OA
HETATM   26  C35 UNL     1      -2.171   5.737  12.802  1.00  0.00     0.042 C 
BRANCH  22  27
HETATM   27  O1  UNL     1       1.650   6.738   9.858  1.00  0.00    -0.388 OA
HETATM   28  C1  UNL     1       2.448   7.834   9.433  1.00  0.00     0.202 C 
ENDBRANCH  22  27
BRANCH  23  29
HETATM   29  O8  UNL     1      -0.021   4.735  10.968  1.00  0.00    -0.390 OA
HETATM   30  H50 UNL     1       0.884   4.626  10.609  1.00  0.00     0.210 HD
ENDBRANCH  23  29
ENDBRANCH  19  20
ENDBRANCH   1  19
BRANCH  17  31
HETATM   31  O6  UNL     1       0.782  12.865  17.138  1.00  0.00    -0.389 OA
HETATM   32  H42 UNL     1       1.257  13.416  16.477  1.00  0.00     0.210 HD
ENDBRANCH  17  31
BRANCH   4  33
HETATM   33  C9  UNL     1       3.413  12.317  15.927  1.00  0.00     0.069 C 
HETATM   34  N1  UNL     1       4.611  12.100  15.493  1.00  0.00    -0.397 N 
ATOM     35  H1  UNL     1       5.131  11.247  15.702  1.00  0.00     0.159 HD
BRANCH  34  36
HETATM   36  C10 UNL     1       5.161  13.193  14.667  1.00  0.00     0.158 C 
BRANCH  36  37
HETATM   37  C11 UNL     1       6.616  13.029  14.310  1.00  0.00    -0.025 A 
HETATM   38  C12 UNL     1       7.487  14.117  14.210  1.00  0.00     0.011 A 
HETATM   39  C13 UNL     1       8.821  13.916  13.876  1.00  0.00     0.018 A 
HETATM   40  C14 UNL     1       9.247  12.617  13.668  1.00  0.00     0.087 A 
HETATM   41  N2  UNL     1       8.451  11.533  13.789  1.00  0.00    -0.375 N 
HETATM   42  C15 UNL     1       7.160  11.763  14.110  1.00  0.00     0.096 A 
ATOM     43  H2  UNL     1       8.808  10.589  13.643  1.00  0.00     0.164 HD
ENDBRANCH  36  37
ENDBRANCH  34  36
ENDBRANCH   4  33
BRANCH  13  44
HETATM   44  O5  UNL     1       4.496  10.159  20.516  1.00  0.00    -0.389 OA
HETATM   45  H36 UNL     1       4.375   9.204  20.385  1.00  0.00     0.210 HD
ENDBRANCH  13  44
BRANCH  10  46
HETATM   46  C22 UNL     1       5.488  12.163  22.861  1.00  0.00    -0.045 A 
HETATM   47  C23 UNL     1       6.452  11.252  22.968  1.00  0.00     0.087 A 
HETATM   48  C24 UNL     1       7.708  11.967  23.177  1.00  0.00     0.283 A 
HETATM   49  O3  UNL     1       8.794  11.440  23.313  1.00  0.00    -0.260 OA
HETATM   50  O4  UNL     1       7.463  13.306  23.195  1.00  0.00    -0.314 OA
HETATM   51  C25 UNL     1       6.067  13.522  23.010  1.00  0.00     0.213 A 
ENDBRANCH  10  46
TORSDOF 10
ENDMDL
MODEL 9
REMARK minimizedAffinity -9.75246334
REMARK CNNscore 0.255511731
REMARK CNNaffinity 7.06372499
REMARK  10 active torsions:
REMARK  status: ('A' for Active; 'I' for Inactive)
REMARK    1  A    between atoms: O1_2  and  C2_3 
REMARK    2  A    between atoms: C4_5  and  O2_6 
REMARK    3  A    between atoms: O2_6  and  C5_7 
REMARK    4  A    between atoms: C8_10  and  C9_11 
REMARK    5  A    between atoms: N1_12  and  C10_14 
REMARK    6  A    between atoms: C10_14  and  C11_15 
REMARK    7  A    between atoms: C21_27  and  C22_28 
REMARK    8  A    between atoms: C28_36  and  O5_37 
REMARK    9  A    between atoms: C32_41  and  O6_42 
REMARK   10  A    between atoms: C36_47  and  O8_48 
ROOT
HETATM    1  C5  UNL     1      -0.349   7.351  12.718  1.00  0.00     0.127 C 
HETATM    2  C6  UNL     1      -1.793   7.807  12.539  1.00  0.00     0.033 C 
HETATM    3  C7  UNL     1      -2.184   8.887  13.547  1.00  0.00     0.021 C 
HETATM    4  C8  UNL     1      -1.966   8.453  15.031  1.00  0.00     0.026 C 
HETATM    5  C16 UNL     1      -2.318   9.678  15.961  1.00  0.00     0.009 C 
HETATM    6  C17 UNL     1      -2.734   9.319  17.419  1.00  0.00     0.007 C 
HETATM    7  C18 UNL     1      -3.103  10.552  18.286  1.00  0.00     0.013 C 
HETATM    8  C19 UNL     1      -1.976  11.598  18.296  1.00  0.00    -0.005 C 
HETATM    9  C20 UNL     1      -0.813  11.011  19.147  1.00  0.00     0.019 C 
HETATM   10  C21 UNL     1      -2.254  13.011  18.926  1.00  0.00     0.028 C 
HETATM   11  C26 UNL     1      -1.420  14.000  18.053  1.00  0.00     0.013 C 
HETATM   12  C27 UNL     1      -0.711  13.159  16.973  1.00  0.00     0.040 C 
HETATM   13  C28 UNL     1      -1.631  11.957  16.822  1.00  0.00     0.070 C 
HETATM   14  C29 UNL     1      -1.208  10.781  15.927  1.00  0.00     0.026 C 
HETATM   15  C30 UNL     1       0.200  10.226  16.150  1.00  0.00     0.011 C 
HETATM   16  C31 UNL     1       0.520   9.109  15.162  1.00  0.00     0.039 C 
HETATM   17  C32 UNL     1      -0.496   7.945  15.214  1.00  0.00     0.073 C 
HETATM   18  C33 UNL     1      -0.098   6.890  14.154  1.00  0.00     0.071 C 
ENDROOT
BRANCH   1  19
HETATM   19  O2  UNL     1      -0.136   6.268  11.804  1.00  0.00    -0.356 OA
BRANCH  19  20
HETATM   20  C4  UNL     1      -0.898   5.101  12.125  1.00  0.00     0.263 C 
HETATM   21  C3  UNL     1      -0.651   4.072  11.031  1.00  0.00     0.095 C 
HETATM   22  C2  UNL     1      -1.415   2.793  11.363  1.00  0.00     0.156 C 
HETATM   23  C36 UNL     1      -2.912   3.118  11.540  1.00  0.00     0.175 C 
HETATM   24  C34 UNL     1      -3.089   4.271  12.546  1.00  0.00     0.151 C 
HETATM   25  O7  UNL     1      -2.285   5.405  12.199  1.00  0.00    -0.354 OA
HETATM   26  C35 UNL     1      -4.541   4.737  12.606  1.00  0.00     0.042 C 
BRANCH  22  27
HETATM   27  O1  UNL     1      -1.310   1.782  10.349  1.00  0.00    -0.388 OA
HETATM   28  C1  UNL     1      -0.557   0.644  10.742  1.00  0.00     0.202 C 
ENDBRANCH  22  27
BRANCH  23  29
HETATM   29  O8  UNL     1      -3.623   1.953  11.979  1.00  0.00    -0.390 OA
HETATM   30  H50 UNL     1      -3.000   1.200  11.904  1.00  0.00     0.210 HD
ENDBRANCH  23  29
ENDBRANCH  19  20
ENDBRANCH   1  19
BRANCH  17  31
HETATM   31  O6  UNL     1      -0.335   7.347  16.509  1.00  0.00    -0.389 OA
HETATM   32  H42 UNL     1      -1.013   6.639  16.561  1.00  0.00     0.210 HD
ENDBRANCH  17  31
BRANCH   4  33
HETATM   33  C9  UNL     1      -3.020   7.361  15.292  1.00  0.00     0.069 C 
HETATM   34  N1  UNL     1      -4.280   7.552  15.072  1.00  0.00    -0.397 N 
ATOM     35  H1  UNL     1      -4.650   8.421  14.687  1.00  0.00     0.159 HD
BRANCH  34  36
HETATM   36  C10 UNL     1      -5.135   6.402  15.427  1.00  0.00     0.158 C 
BRANCH  36  37
HETATM   37  C11 UNL     1      -6.607   6.718  15.483  1.00  0.00    -0.025 A 
HETATM   38  C12 UNL     1      -7.107   7.993  15.203  1.00  0.00     0.011 A 
HETATM   39  C13 UNL     1      -8.474   8.237  15.270  1.00  0.00     0.018 A 
HETATM   40  C14 UNL     1      -9.305   7.182  15.599  1.00  0.00     0.087 A 
HETATM   41  N2  UNL     1      -8.871   5.928  15.842  1.00  0.00    -0.375 N 
HETATM   42  C15 UNL     1      -7.537   5.724  15.773  1.00  0.00     0.096 A 
ATOM     43  H2  UNL     1      -9.517   5.171  16.066  1.00  0.00     0.164 HD
ENDBRANCH  36  37
ENDBRANCH  34  36
ENDBRANCH   4  33
BRANCH  13  44
HETATM   44  O5  UNL     1      -2.827  12.467  16.179  1.00  0.00    -0.389 OA
HETATM   45  H36 UNL     1      -2.576  12.865  15.329  1.00  0.00     0.210 HD
ENDBRANCH  13  44
BRANCH  10  46
HETATM   46  C22 UNL     1      -3.672  13.455  19.147  1.00  0.00    -0.045 A 
HETATM   47  C23 UNL     1      -4.641  12.911  19.879  1.00  0.00     0.087 A 
HETATM   48  C24 UNL     1      -5.828  13.748  19.726  1.00  0.00     0.283 A 
HETATM   49  O3  UNL     1      -6.898  13.541  20.262  1.00  0.00    -0.260 OA
HETATM   50  O4  UNL     1      -5.540  14.784  18.892  1.00  0.00    -0.314 OA
HETATM   51  C25 UNL     1      -4.185  14.670  18.466  1.00  0.00     0.213 A 
ENDBRANCH  10  46
TORSDOF 10
ENDMDL
