MODEL 1
REMARK minimizedAffinity -8.74270248
REMARK CNNscore 0.779939651
REMARK CNNaffinity 7.41008902
REMARK  11 active torsions:
REMARK  status: ('A' for Active; 'I' for Inactive)
REMARK    1  A    between atoms: C4_4  and  C5_5 
REMARK    2  A    between atoms: C5_5  and  C6_6 
REMARK    3  A    between atoms: C7_7  and  O1_8 
REMARK    4  A    between atoms: C12_13  and  C14_15 
REMARK    5  A    between atoms: C14_15  and  C15_16 
REMARK    6  A    between atoms: C15_16  and  C16_17 
REMARK    7  A    between atoms: C16_17  and  C17_18 
REMARK    8  A    between atoms: C17_18  and  O2_21 
REMARK    9  A    between atoms: C23_26  and  C24_27 
REMARK   10  A    between atoms: C26_29  and  O4_30 
REMARK   11  A    between atoms: C28_32  and  O5_33 
ROOT
HETATM    1  C6  UNL     1      -1.156  48.995 -18.828  1.00  0.00    -0.006 A 
HETATM    2  C7  UNL     1      -0.701  49.140 -17.499  1.00  0.00     0.107 A 
HETATM    3  C8  UNL     1       0.052  50.240 -17.071  1.00  0.00     0.117 A 
HETATM    4  C9  UNL     1       0.391  51.253 -17.960  1.00  0.00     0.035 A 
HETATM    5  C10 UNL     1       1.189  52.386 -17.550  1.00  0.00     0.016 C 
HETATM    6  C11 UNL     1       1.505  52.461 -16.254  1.00  0.00     0.012 C 
HETATM    7  C12 UNL     1       1.068  51.440 -15.219  1.00  0.00     0.082 C 
HETATM    8  C13 UNL     1       2.311  50.937 -14.469  1.00  0.00     0.051 C 
HETATM    9  O3  UNL     1       0.447  50.241 -15.758  1.00  0.00    -0.333 OA
HETATM   10  C20 UNL     1      -0.056  51.116 -19.274  1.00  0.00     0.100 A 
HETATM   11  C21 UNL     1      -0.806  50.035 -19.727  1.00  0.00     0.011 A 
HETATM   12  C22 UNL     1      -1.042  50.293 -21.109  1.00  0.00     0.053 A 
HETATM   13  C23 UNL     1      -0.435  51.495 -21.414  1.00  0.00     0.087 A 
HETATM   14  O6  UNL     1       0.164  51.996 -20.294  1.00  0.00    -0.308 OA
ENDROOT
BRANCH  13  15
HETATM   15  C24 UNL     1      -0.307  52.294 -22.631  1.00  0.00     0.003 A 
HETATM   16  C25 UNL     1      -1.181  52.118 -23.714  1.00  0.00     0.051 A 
HETATM   17  C26 UNL     1      -1.042  52.887 -24.868  1.00  0.00     0.069 A 
HETATM   18  C27 UNL     1      -0.041  53.845 -24.977  1.00  0.00     0.073 A 
HETATM   19  C28 UNL     1       0.826  54.022 -23.905  1.00  0.00     0.069 A 
HETATM   20  C29 UNL     1       0.703  53.261 -22.743  1.00  0.00     0.051 A 
BRANCH  17  21
HETATM   21  O4  UNL     1      -1.922  52.661 -25.887  1.00  0.00    -0.361 OA
HETATM   22  H31 UNL     1      -1.718  53.262 -26.623  1.00  0.00     0.217 HD
ENDBRANCH  17  21
BRANCH  19  23
HETATM   23  O5  UNL     1       1.830  54.946 -23.945  1.00  0.00    -0.361 OA
HETATM   24  H33 UNL     1       1.815  55.394 -24.808  1.00  0.00     0.217 HD
ENDBRANCH  19  23
ENDBRANCH  13  15
BRANCH   1  25
HETATM   25  C5  UNL     1      -1.990  47.804 -19.241  1.00  0.00     0.070 C 
BRANCH  25  26
HETATM   26  C4  UNL     1      -3.452  48.148 -19.353  1.00  0.00    -0.020 C 
HETATM   27  C2  UNL     1      -4.224  48.166 -20.458  1.00  0.00    -0.091 C 
HETATM   28  C1  UNL     1      -3.764  47.811 -21.845  1.00  0.00     0.042 C 
HETATM   29  C3  UNL     1      -5.680  48.545 -20.369  1.00  0.00     0.042 C 
ENDBRANCH  25  26
ENDBRANCH   1  25
BRANCH   2  30
HETATM   30  O1  UNL     1      -0.999  48.160 -16.582  1.00  0.00    -0.357 OA
HETATM   31  H10 UNL     1      -0.610  48.468 -15.740  1.00  0.00     0.217 HD
ENDBRANCH   2  30
BRANCH   7  32
HETATM   32  C14 UNL     1       0.027  52.037 -14.236  1.00  0.00     0.042 C 
BRANCH  32  33
HETATM   33  C15 UNL     1      -0.435  51.113 -13.103  1.00  0.00     0.006 C 
BRANCH  33  34
HETATM   34  C16 UNL     1      -1.272  51.810 -12.015  1.00  0.00     0.037 C 
BRANCH  34  35
HETATM   35  C17 UNL     1      -2.805  51.823 -12.196  1.00  0.00     0.051 C 
HETATM   36  C18 UNL     1      -3.479  52.123 -10.851  1.00  0.00     0.045 C 
HETATM   37  C19 UNL     1      -3.345  50.508 -12.758  1.00  0.00     0.045 C 
BRANCH  35  38
HETATM   38  O2  UNL     1      -3.179  52.863 -13.102  1.00  0.00    -0.391 OA
HETATM   39  H28 UNL     1      -2.869  53.710 -12.735  1.00  0.00     0.210 HD
ENDBRANCH  35  38
ENDBRANCH  34  35
ENDBRANCH  33  34
ENDBRANCH  32  33
ENDBRANCH   7  32
TORSDOF 11
ENDMDL
MODEL 2
REMARK minimizedAffinity -8.92175484
REMARK CNNscore 0.681854486
REMARK CNNaffinity 7.12335968
REMARK  11 active torsions:
REMARK  status: ('A' for Active; 'I' for Inactive)
REMARK    1  A    between atoms: C4_4  and  C5_5 
REMARK    2  A    between atoms: C5_5  and  C6_6 
REMARK    3  A    between atoms: C7_7  and  O1_8 
REMARK    4  A    between atoms: C12_13  and  C14_15 
REMARK    5  A    between atoms: C14_15  and  C15_16 
REMARK    6  A    between atoms: C15_16  and  C16_17 
REMARK    7  A    between atoms: C16_17  and  C17_18 
REMARK    8  A    between atoms: C17_18  and  O2_21 
REMARK    9  A    between atoms: C23_26  and  C24_27 
REMARK   10  A    between atoms: C26_29  and  O4_30 
REMARK   11  A    between atoms: C28_32  and  O5_33 
ROOT
HETATM    1  C6  UNL     1      -1.810  48.200 -19.608  1.00  0.00    -0.006 A 
HETATM    2  C7  UNL     1      -1.806  48.066 -18.203  1.00  0.00     0.107 A 
HETATM    3  C8  UNL     1      -1.263  49.034 -17.350  1.00  0.00     0.117 A 
HETATM    4  C9  UNL     1      -0.691  50.190 -17.869  1.00  0.00     0.035 A 
HETATM    5  C10 UNL     1      -0.101  51.194 -17.012  1.00  0.00     0.016 C 
HETATM    6  C11 UNL     1      -0.215  51.003 -15.695  1.00  0.00     0.012 C 
HETATM    7  C12 UNL     1      -0.926  49.814 -15.074  1.00  0.00     0.082 C 
HETATM    8  C13 UNL     1       0.029  49.132 -14.082  1.00  0.00     0.051 C 
HETATM    9  O3  UNL     1      -1.305  48.765 -16.007  1.00  0.00    -0.333 OA
HETATM   10  C20 UNL     1      -0.692  50.329 -19.256  1.00  0.00     0.100 A 
HETATM   11  C21 UNL     1      -1.225  49.383 -20.127  1.00  0.00     0.011 A 
HETATM   12  C22 UNL     1      -1.017  49.915 -21.433  1.00  0.00     0.053 A 
HETATM   13  C23 UNL     1      -0.382  51.133 -21.288  1.00  0.00     0.087 A 
HETATM   14  O6  UNL     1      -0.187  51.384 -19.959  1.00  0.00    -0.308 OA
ENDROOT
BRANCH  13  15
HETATM   15  C24 UNL     1       0.100  52.150 -22.218  1.00  0.00     0.003 A 
HETATM   16  C25 UNL     1      -0.195  52.084 -23.588  1.00  0.00     0.051 A 
HETATM   17  C26 UNL     1       0.276  53.062 -24.463  1.00  0.00     0.069 A 
HETATM   18  C27 UNL     1       1.047  54.124 -24.004  1.00  0.00     0.073 A 
HETATM   19  C28 UNL     1       1.341  54.193 -22.647  1.00  0.00     0.069 A 
HETATM   20  C29 UNL     1       0.878  53.222 -21.758  1.00  0.00     0.051 A 
BRANCH  17  21
HETATM   21  O4  UNL     1      -0.043  52.934 -25.784  1.00  0.00    -0.361 OA
HETATM   22  H31 UNL     1       0.341  53.679 -26.277  1.00  0.00     0.217 HD
ENDBRANCH  17  21
BRANCH  19  23
HETATM   23  O5  UNL     1       2.091  55.209 -22.131  1.00  0.00    -0.361 OA
HETATM   24  H33 UNL     1       2.359  55.803 -22.852  1.00  0.00     0.217 HD
ENDBRANCH  19  23
ENDBRANCH  13  15
BRANCH   1  25
HETATM   25  C5  UNL     1      -2.432  47.141 -20.490  1.00  0.00     0.070 C 
BRANCH  25  26
HETATM   26  C4  UNL     1      -2.659  47.636 -21.895  1.00  0.00    -0.020 C 
HETATM   27  C2  UNL     1      -3.817  48.014 -22.471  1.00  0.00    -0.091 C 
HETATM   28  C1  UNL     1      -5.158  48.038 -21.790  1.00  0.00     0.042 C 
HETATM   29  C3  UNL     1      -3.844  48.478 -23.904  1.00  0.00     0.042 C 
ENDBRANCH  25  26
ENDBRANCH   1  25
BRANCH   2  30
HETATM   30  O1  UNL     1      -2.349  46.936 -17.639  1.00  0.00    -0.357 OA
HETATM   31  H10 UNL     1      -2.258  47.059 -16.674  1.00  0.00     0.217 HD
ENDBRANCH   2  30
BRANCH   7  32
HETATM   32  C14 UNL     1      -2.244  50.241 -14.375  1.00  0.00     0.042 C 
BRANCH  32  33
HETATM   33  C15 UNL     1      -2.124  50.641 -12.900  1.00  0.00     0.006 C 
BRANCH  33  34
HETATM   34  C16 UNL     1      -2.137  52.159 -12.650  1.00  0.00     0.037 C 
BRANCH  34  35
HETATM   35  C17 UNL     1      -3.324  52.739 -11.851  1.00  0.00     0.051 C 
HETATM   36  C18 UNL     1      -2.797  53.659 -10.742  1.00  0.00     0.045 C 
HETATM   37  C19 UNL     1      -4.209  51.654 -11.238  1.00  0.00     0.045 C 
BRANCH  35  38
HETATM   38  O2  UNL     1      -4.147  53.531 -12.708  1.00  0.00    -0.391 OA
HETATM   39  H28 UNL     1      -3.598  54.247 -13.077  1.00  0.00     0.210 HD
ENDBRANCH  35  38
ENDBRANCH  34  35
ENDBRANCH  33  34
ENDBRANCH  32  33
ENDBRANCH   7  32
TORSDOF 11
ENDMDL
MODEL 3
REMARK minimizedAffinity -7.57335234
REMARK CNNscore 0.566056252
REMARK CNNaffinity 6.72758484
REMARK  11 active torsions:
REMARK  status: ('A' for Active; 'I' for Inactive)
REMARK    1  A    between atoms: C4_4  and  C5_5 
REMARK    2  A    between atoms: C5_5  and  C6_6 
REMARK    3  A    between atoms: C7_7  and  O1_8 
REMARK    4  A    between atoms: C12_13  and  C14_15 
REMARK    5  A    between atoms: C14_15  and  C15_16 
REMARK    6  A    between atoms: C15_16  and  C16_17 
REMARK    7  A    between atoms: C16_17  and  C17_18 
REMARK    8  A    between atoms: C17_18  and  O2_21 
REMARK    9  A    between atoms: C23_26  and  C24_27 
REMARK   10  A    between atoms: C26_29  and  O4_30 
REMARK   11  A    between atoms: C28_32  and  O5_33 
ROOT
HETATM    1  C6  UNL     1      -0.179  50.441 -15.565  1.00  0.00    -0.006 A 
HETATM    2  C7  UNL     1      -0.954  49.347 -15.128  1.00  0.00     0.107 A 
HETATM    3  C8  UNL     1      -1.705  48.552 -16.002  1.00  0.00     0.117 A 
HETATM    4  C9  UNL     1      -1.718  48.821 -17.366  1.00  0.00     0.035 A 
HETATM    5  C10 UNL     1      -2.505  48.032 -18.286  1.00  0.00     0.016 C 
HETATM    6  C11 UNL     1      -3.144  46.975 -17.778  1.00  0.00     0.012 C 
HETATM    7  C12 UNL     1      -3.076  46.570 -16.317  1.00  0.00     0.082 C 
HETATM    8  C13 UNL     1      -4.508  46.442 -15.774  1.00  0.00     0.051 C 
HETATM    9  O3  UNL     1      -2.431  47.534 -15.439  1.00  0.00    -0.333 OA
HETATM   10  C20 UNL     1      -0.954  49.901 -17.804  1.00  0.00     0.100 A 
HETATM   11  C21 UNL     1      -0.197  50.707 -16.958  1.00  0.00     0.011 A 
HETATM   12  C22 UNL     1       0.413  51.676 -17.807  1.00  0.00     0.053 A 
HETATM   13  C23 UNL     1       0.003  51.410 -19.099  1.00  0.00     0.087 A 
HETATM   14  O6  UNL     1      -0.829  50.326 -19.095  1.00  0.00    -0.308 OA
ENDROOT
BRANCH  13  15
HETATM   15  C24 UNL     1       0.262  52.024 -20.398  1.00  0.00     0.003 A 
HETATM   16  C25 UNL     1       1.011  53.205 -20.511  1.00  0.00     0.051 A 
HETATM   17  C26 UNL     1       1.246  53.779 -21.760  1.00  0.00     0.069 A 
HETATM   18  C27 UNL     1       0.749  53.200 -22.921  1.00  0.00     0.073 A 
HETATM   19  C28 UNL     1       0.007  52.029 -22.813  1.00  0.00     0.069 A 
HETATM   20  C29 UNL     1      -0.239  51.442 -21.572  1.00  0.00     0.051 A 
BRANCH  17  21
HETATM   21  O4  UNL     1       1.978  54.931 -21.797  1.00  0.00    -0.361 OA
HETATM   22  H31 UNL     1       2.070  55.219 -22.721  1.00  0.00     0.217 HD
ENDBRANCH  17  21
BRANCH  19  23
HETATM   23  O5  UNL     1      -0.509  51.409 -23.914  1.00  0.00    -0.361 OA
HETATM   24  H33 UNL     1      -0.280  51.924 -24.706  1.00  0.00     0.217 HD
ENDBRANCH  19  23
ENDBRANCH  13  15
BRANCH   1  25
HETATM   25  C5  UNL     1       0.640  51.256 -14.589  1.00  0.00     0.070 C 
BRANCH  25  26
HETATM   26  C4  UNL     1       1.917  50.560 -14.201  1.00  0.00    -0.020 C 
HETATM   27  C2  UNL     1       3.183  50.891 -14.529  1.00  0.00    -0.091 C 
HETATM   28  C1  UNL     1       3.582  52.079 -15.360  1.00  0.00     0.042 C 
HETATM   29  C3  UNL     1       4.342  50.059 -14.044  1.00  0.00     0.042 C 
ENDBRANCH  25  26
ENDBRANCH   1  25
BRANCH   2  30
HETATM   30  O1  UNL     1      -0.985  49.044 -13.787  1.00  0.00    -0.357 OA
HETATM   31  H10 UNL     1      -1.556  48.254 -13.713  1.00  0.00     0.217 HD
ENDBRANCH   2  30
BRANCH   7  32
HETATM   32  C14 UNL     1      -2.287  45.248 -16.128  1.00  0.00     0.042 C 
BRANCH  32  33
HETATM   33  C15 UNL     1      -3.100  43.955 -16.259  1.00  0.00     0.006 C 
BRANCH  33  34
HETATM   34  C16 UNL     1      -2.442  42.876 -17.136  1.00  0.00     0.037 C 
BRANCH  34  35
HETATM   35  C17 UNL     1      -3.358  42.074 -18.085  1.00  0.00     0.051 C 
HETATM   36  C18 UNL     1      -4.483  42.980 -18.601  1.00  0.00     0.045 C 
HETATM   37  C19 UNL     1      -3.961  40.837 -17.419  1.00  0.00     0.045 C 
BRANCH  35  38
HETATM   38  O2  UNL     1      -2.613  41.630 -19.220  1.00  0.00    -0.391 OA
HETATM   39  H28 UNL     1      -2.253  42.414 -19.672  1.00  0.00     0.210 HD
ENDBRANCH  35  38
ENDBRANCH  34  35
ENDBRANCH  33  34
ENDBRANCH  32  33
ENDBRANCH   7  32
TORSDOF 11
ENDMDL
MODEL 4
REMARK minimizedAffinity -10.0367212
REMARK CNNscore 0.561474621
REMARK CNNaffinity 7.56003714
REMARK  11 active torsions:
REMARK  status: ('A' for Active; 'I' for Inactive)
REMARK    1  A    between atoms: C4_4  and  C5_5 
REMARK    2  A    between atoms: C5_5  and  C6_6 
REMARK    3  A    between atoms: C7_7  and  O1_8 
REMARK    4  A    between atoms: C12_13  and  C14_15 
REMARK    5  A    between atoms: C14_15  and  C15_16 
REMARK    6  A    between atoms: C15_16  and  C16_17 
REMARK    7  A    between atoms: C16_17  and  C17_18 
REMARK    8  A    between atoms: C17_18  and  O2_21 
REMARK    9  A    between atoms: C23_26  and  C24_27 
REMARK   10  A    between atoms: C26_29  and  O4_30 
REMARK   11  A    between atoms: C28_32  and  O5_33 
ROOT
HETATM    1  C6  UNL     1      -0.406  51.674 -23.296  1.00  0.00    -0.006 A 
HETATM    2  C7  UNL     1      -0.252  51.742 -21.895  1.00  0.00     0.107 A 
HETATM    3  C8  UNL     1      -1.095  51.063 -21.006  1.00  0.00     0.117 A 
HETATM    4  C9  UNL     1      -2.140  50.281 -21.482  1.00  0.00     0.035 A 
HETATM    5  C10 UNL     1      -3.040  49.590 -20.586  1.00  0.00     0.016 C 
HETATM    6  C11 UNL     1      -2.762  49.662 -19.281  1.00  0.00     0.012 C 
HETATM    7  C12 UNL     1      -1.569  50.411 -18.714  1.00  0.00     0.082 C 
HETATM    8  C13 UNL     1      -2.070  51.394 -17.645  1.00  0.00     0.051 C 
HETATM    9  O3  UNL     1      -0.846  51.236 -19.668  1.00  0.00    -0.333 OA
HETATM   10  C20 UNL     1      -2.296  50.209 -22.866  1.00  0.00     0.100 A 
HETATM   11  C21 UNL     1      -1.474  50.873 -23.772  1.00  0.00     0.011 A 
HETATM   12  C22 UNL     1      -1.981  50.531 -25.060  1.00  0.00     0.053 A 
HETATM   13  C23 UNL     1      -3.063  49.693 -24.870  1.00  0.00     0.087 A 
HETATM   14  O6  UNL     1      -3.252  49.497 -23.532  1.00  0.00    -0.308 OA
ENDROOT
BRANCH  13  15
HETATM   15  C24 UNL     1      -3.997  49.016 -25.764  1.00  0.00     0.003 A 
HETATM   16  C25 UNL     1      -3.737  48.894 -27.137  1.00  0.00     0.051 A 
HETATM   17  C26 UNL     1      -4.642  48.247 -27.976  1.00  0.00     0.069 A 
HETATM   18  C27 UNL     1      -5.821  47.704 -27.478  1.00  0.00     0.073 A 
HETATM   19  C28 UNL     1      -6.082  47.822 -26.118  1.00  0.00     0.069 A 
HETATM   20  C29 UNL     1      -5.188  48.467 -25.264  1.00  0.00     0.051 A 
BRANCH  17  21
HETATM   21  O4  UNL     1      -4.329  48.170 -29.303  1.00  0.00    -0.361 OA
HETATM   22  H31 UNL     1      -5.036  47.693 -29.769  1.00  0.00     0.217 HD
ENDBRANCH  17  21
BRANCH  19  23
HETATM   23  O5  UNL     1      -7.220  47.310 -25.564  1.00  0.00    -0.361 OA
HETATM   24  H33 UNL     1      -7.758  46.903 -26.264  1.00  0.00     0.217 HD
ENDBRANCH  19  23
ENDBRANCH  13  15
BRANCH   1  25
HETATM   25  C5  UNL     1       0.544  52.402 -24.220  1.00  0.00     0.070 C 
BRANCH  25  26
HETATM   26  C4  UNL     1       0.208  52.176 -25.671  1.00  0.00    -0.020 C 
HETATM   27  C2  UNL     1       1.014  51.732 -26.656  1.00  0.00    -0.091 C 
HETATM   28  C1  UNL     1       2.456  51.339 -26.488  1.00  0.00     0.042 C 
HETATM   29  C3  UNL     1       0.491  51.576 -28.060  1.00  0.00     0.042 C 
ENDBRANCH  25  26
ENDBRANCH   1  25
BRANCH   2  30
HETATM   30  O1  UNL     1       0.759  52.510 -21.370  1.00  0.00    -0.357 OA
HETATM   31  H10 UNL     1       0.693  52.400 -20.401  1.00  0.00     0.217 HD
ENDBRANCH   2  30
BRANCH   7  32
HETATM   32  C14 UNL     1      -0.514  49.438 -18.126  1.00  0.00     0.042 C 
BRANCH  32  33
HETATM   33  C15 UNL     1       0.205  49.911 -16.858  1.00  0.00     0.006 C 
BRANCH  33  34
HETATM   34  C16 UNL     1       0.867  51.295 -16.981  1.00  0.00     0.037 C 
BRANCH  34  35
HETATM   35  C17 UNL     1       1.718  51.785 -15.789  1.00  0.00     0.051 C 
HETATM   36  C18 UNL     1       3.093  52.244 -16.293  1.00  0.00     0.045 C 
HETATM   37  C19 UNL     1       1.898  50.716 -14.712  1.00  0.00     0.045 C 
BRANCH  35  38
HETATM   38  O2  UNL     1       1.091  52.912 -15.175  1.00  0.00    -0.391 OA
HETATM   39  H28 UNL     1       1.003  53.613 -15.846  1.00  0.00     0.210 HD
ENDBRANCH  35  38
ENDBRANCH  34  35
ENDBRANCH  33  34
ENDBRANCH  32  33
ENDBRANCH   7  32
TORSDOF 11
ENDMDL
MODEL 5
REMARK minimizedAffinity -7.51877737
REMARK CNNscore 0.561030984
REMARK CNNaffinity 6.1262455
REMARK  11 active torsions:
REMARK  status: ('A' for Active; 'I' for Inactive)
REMARK    1  A    between atoms: C4_4  and  C5_5 
REMARK    2  A    between atoms: C5_5  and  C6_6 
REMARK    3  A    between atoms: C7_7  and  O1_8 
REMARK    4  A    between atoms: C12_13  and  C14_15 
REMARK    5  A    between atoms: C14_15  and  C15_16 
REMARK    6  A    between atoms: C15_16  and  C16_17 
REMARK    7  A    between atoms: C16_17  and  C17_18 
REMARK    8  A    between atoms: C17_18  and  O2_21 
REMARK    9  A    between atoms: C23_26  and  C24_27 
REMARK   10  A    between atoms: C26_29  and  O4_30 
REMARK   11  A    between atoms: C28_32  and  O5_33 
ROOT
HETATM    1  C6  UNL     1       4.776  57.534  -5.566  1.00  0.00    -0.006 A 
HETATM    2  C7  UNL     1       3.978  57.431  -6.724  1.00  0.00     0.107 A 
HETATM    3  C8  UNL     1       4.371  56.702  -7.854  1.00  0.00     0.117 A 
HETATM    4  C9  UNL     1       5.593  56.040  -7.877  1.00  0.00     0.035 A 
HETATM    5  C10 UNL     1       6.033  55.302  -9.039  1.00  0.00     0.016 C 
HETATM    6  C11 UNL     1       5.170  55.207 -10.054  1.00  0.00     0.012 C 
HETATM    7  C12 UNL     1       3.780  55.818 -10.038  1.00  0.00     0.082 C 
HETATM    8  C13 UNL     1       3.615  56.698 -11.287  1.00  0.00     0.051 C 
HETATM    9  O3  UNL     1       3.507  56.705  -8.919  1.00  0.00    -0.333 OA
HETATM   10  C20 UNL     1       6.386  56.137  -6.734  1.00  0.00     0.100 A 
HETATM   11  C21 UNL     1       6.021  56.854  -5.598  1.00  0.00     0.011 A 
HETATM   12  C22 UNL     1       7.104  56.692  -4.686  1.00  0.00     0.053 A 
HETATM   13  C23 UNL     1       8.051  55.900  -5.306  1.00  0.00     0.087 A 
HETATM   14  O6  UNL     1       7.610  55.561  -6.554  1.00  0.00    -0.308 OA
ENDROOT
BRANCH  13  15
HETATM   15  C24 UNL     1       9.361  55.383  -4.918  1.00  0.00     0.003 A 
HETATM   16  C25 UNL     1       9.491  54.173  -4.222  1.00  0.00     0.051 A 
HETATM   17  C26 UNL     1      10.749  53.696  -3.857  1.00  0.00     0.069 A 
HETATM   18  C27 UNL     1      11.903  54.402  -4.172  1.00  0.00     0.073 A 
HETATM   19  C28 UNL     1      11.778  55.602  -4.864  1.00  0.00     0.069 A 
HETATM   20  C29 UNL     1      10.528  56.094  -5.235  1.00  0.00     0.051 A 
BRANCH  17  21
HETATM   21  O4  UNL     1      10.803  52.514  -3.175  1.00  0.00    -0.361 OA
HETATM   22  H31 UNL     1      11.732  52.297  -2.989  1.00  0.00     0.217 HD
ENDBRANCH  17  21
BRANCH  19  23
HETATM   23  O5  UNL     1      12.872  56.344  -5.206  1.00  0.00    -0.361 OA
HETATM   24  H33 UNL     1      13.672  55.901  -4.878  1.00  0.00     0.217 HD
ENDBRANCH  19  23
ENDBRANCH  13  15
BRANCH   1  25
HETATM   25  C5  UNL     1       4.301  58.309  -4.358  1.00  0.00     0.070 C 
BRANCH  25  26
HETATM   26  C4  UNL     1       5.010  59.630  -4.217  1.00  0.00    -0.020 C 
HETATM   27  C2  UNL     1       4.589  60.741  -3.581  1.00  0.00    -0.091 C 
HETATM   28  C1  UNL     1       3.286  60.877  -2.841  1.00  0.00     0.042 C 
HETATM   29  C3  UNL     1       5.446  61.980  -3.553  1.00  0.00     0.042 C 
ENDBRANCH  25  26
ENDBRANCH   1  25
BRANCH   2  30
HETATM   30  O1  UNL     1       2.765  58.076  -6.759  1.00  0.00    -0.357 OA
HETATM   31  H10 UNL     1       2.380  57.858  -7.630  1.00  0.00     0.217 HD
ENDBRANCH   2  30
BRANCH   7  32
HETATM   32  C14 UNL     1       2.680  54.726  -9.977  1.00  0.00     0.042 C 
BRANCH  32  33
HETATM   33  C15 UNL     1       1.284  55.150 -10.446  1.00  0.00     0.006 C 
BRANCH  33  34
HETATM   34  C16 UNL     1       0.448  54.014 -11.063  1.00  0.00     0.037 C 
BRANCH  34  35
HETATM   35  C17 UNL     1      -1.028  53.899 -10.625  1.00  0.00     0.051 C 
HETATM   36  C18 UNL     1      -1.557  55.284 -10.228  1.00  0.00     0.045 C 
HETATM   37  C19 UNL     1      -1.227  52.924  -9.465  1.00  0.00     0.045 C 
BRANCH  35  38
HETATM   38  O2  UNL     1      -1.824  53.436 -11.717  1.00  0.00    -0.391 OA
HETATM   39  H28 UNL     1      -1.731  54.071 -12.451  1.00  0.00     0.210 HD
ENDBRANCH  35  38
ENDBRANCH  34  35
ENDBRANCH  33  34
ENDBRANCH  32  33
ENDBRANCH   7  32
TORSDOF 11
ENDMDL
MODEL 6
REMARK minimizedAffinity -7.6533308
REMARK CNNscore 0.42323193
REMARK CNNaffinity 6.64150095
REMARK  11 active torsions:
REMARK  status: ('A' for Active; 'I' for Inactive)
REMARK    1  A    between atoms: C4_4  and  C5_5 
REMARK    2  A    between atoms: C5_5  and  C6_6 
REMARK    3  A    between atoms: C7_7  and  O1_8 
REMARK    4  A    between atoms: C12_13  and  C14_15 
REMARK    5  A    between atoms: C14_15  and  C15_16 
REMARK    6  A    between atoms: C15_16  and  C16_17 
REMARK    7  A    between atoms: C16_17  and  C17_18 
REMARK    8  A    between atoms: C17_18  and  O2_21 
REMARK    9  A    between atoms: C23_26  and  C24_27 
REMARK   10  A    between atoms: C26_29  and  O4_30 
REMARK   11  A    between atoms: C28_32  and  O5_33 
ROOT
HETATM    1  C6  UNL     1      -2.243  49.272 -18.030  1.00  0.00    -0.006 A 
HETATM    2  C7  UNL     1      -3.584  48.853 -17.897  1.00  0.00     0.107 A 
HETATM    3  C8  UNL     1      -4.587  49.218 -18.803  1.00  0.00     0.117 A 
HETATM    4  C9  UNL     1      -4.292  50.030 -19.892  1.00  0.00     0.035 A 
HETATM    5  C10 UNL     1      -5.313  50.443 -20.828  1.00  0.00     0.016 C 
HETATM    6  C11 UNL     1      -6.534  49.930 -20.651  1.00  0.00     0.012 C 
HETATM    7  C12 UNL     1      -6.886  48.953 -19.544  1.00  0.00     0.082 C 
HETATM    8  C13 UNL     1      -8.091  49.505 -18.765  1.00  0.00     0.051 C 
HETATM    9  O3  UNL     1      -5.852  48.759 -18.540  1.00  0.00    -0.333 OA
HETATM   10  C20 UNL     1      -2.969  50.447 -20.031  1.00  0.00     0.100 A 
HETATM   11  C21 UNL     1      -1.952  50.099 -19.145  1.00  0.00     0.011 A 
HETATM   12  C22 UNL     1      -0.779  50.731 -19.652  1.00  0.00     0.053 A 
HETATM   13  C23 UNL     1      -1.140  51.415 -20.797  1.00  0.00     0.087 A 
HETATM   14  O6  UNL     1      -2.475  51.239 -21.026  1.00  0.00    -0.308 OA
ENDROOT
BRANCH  13  15
HETATM   15  C24 UNL     1      -0.420  52.247 -21.757  1.00  0.00     0.003 A 
HETATM   16  C25 UNL     1      -0.638  52.125 -23.137  1.00  0.00     0.051 A 
HETATM   17  C26 UNL     1       0.060  52.925 -24.039  1.00  0.00     0.069 A 
HETATM   18  C27 UNL     1       0.985  53.864 -23.598  1.00  0.00     0.073 A 
HETATM   19  C28 UNL     1       1.203  53.989 -22.231  1.00  0.00     0.069 A 
HETATM   20  C29 UNL     1       0.514  53.195 -21.315  1.00  0.00     0.051 A 
BRANCH  17  21
HETATM   21  O4  UNL     1      -0.196  52.750 -25.368  1.00  0.00    -0.361 OA
HETATM   22  H31 UNL     1       0.350  53.369 -25.881  1.00  0.00     0.217 HD
ENDBRANCH  17  21
BRANCH  19  23
HETATM   23  O5  UNL     1       2.097  54.892 -21.732  1.00  0.00    -0.361 OA
HETATM   24  H33 UNL     1       2.515  55.367 -22.470  1.00  0.00     0.217 HD
ENDBRANCH  19  23
ENDBRANCH  13  15
BRANCH   1  25
HETATM   25  C5  UNL     1      -1.187  48.831 -17.043  1.00  0.00     0.070 C 
BRANCH  25  26
HETATM   26  C4  UNL     1      -1.090  49.762 -15.863  1.00  0.00    -0.020 C 
HETATM   27  C2  UNL     1      -0.166  50.715 -15.624  1.00  0.00    -0.091 C 
HETATM   28  C1  UNL     1       0.980  51.061 -16.534  1.00  0.00     0.042 C 
HETATM   29  C3  UNL     1      -0.233  51.549 -14.371  1.00  0.00     0.042 C 
ENDBRANCH  25  26
ENDBRANCH   1  25
BRANCH   2  30
HETATM   30  O1  UNL     1      -3.932  48.058 -16.831  1.00  0.00    -0.357 OA
HETATM   31  H10 UNL     1      -4.886  47.876 -16.944  1.00  0.00     0.217 HD
ENDBRANCH   2  30
BRANCH   7  32
HETATM   32  C14 UNL     1      -7.185  47.539 -20.106  1.00  0.00     0.042 C 
BRANCH  32  33
HETATM   33  C15 UNL     1      -8.094  47.484 -21.340  1.00  0.00     0.006 C 
BRANCH  33  34
HETATM   34  C16 UNL     1      -7.470  46.783 -22.559  1.00  0.00     0.037 C 
BRANCH  34  35
HETATM   35  C17 UNL     1      -7.124  47.658 -23.783  1.00  0.00     0.051 C 
HETATM   36  C18 UNL     1      -5.637  48.037 -23.741  1.00  0.00     0.045 C 
HETATM   37  C19 UNL     1      -7.973  48.926 -23.861  1.00  0.00     0.045 C 
BRANCH  35  38
HETATM   38  O2  UNL     1      -7.342  46.920 -24.986  1.00  0.00    -0.391 OA
HETATM   39  H28 UNL     1      -6.778  46.126 -24.961  1.00  0.00     0.210 HD
ENDBRANCH  35  38
ENDBRANCH  34  35
ENDBRANCH  33  34
ENDBRANCH  32  33
ENDBRANCH   7  32
TORSDOF 11
ENDMDL
MODEL 7
REMARK minimizedAffinity -8.3702383
REMARK CNNscore 0.42241016
REMARK CNNaffinity 6.99606848
REMARK  11 active torsions:
REMARK  status: ('A' for Active; 'I' for Inactive)
REMARK    1  A    between atoms: C4_4  and  C5_5 
REMARK    2  A    between atoms: C5_5  and  C6_6 
REMARK    3  A    between atoms: C7_7  and  O1_8 
REMARK    4  A    between atoms: C12_13  and  C14_15 
REMARK    5  A    between atoms: C14_15  and  C15_16 
REMARK    6  A    between atoms: C15_16  and  C16_17 
REMARK    7  A    between atoms: C16_17  and  C17_18 
REMARK    8  A    between atoms: C17_18  and  O2_21 
REMARK    9  A    between atoms: C23_26  and  C24_27 
REMARK   10  A    between atoms: C26_29  and  O4_30 
REMARK   11  A    between atoms: C28_32  and  O5_33 
ROOT
HETATM    1  C6  UNL     1      -3.092  49.904 -18.575  1.00  0.00    -0.006 A 
HETATM    2  C7  UNL     1      -2.677  49.849 -17.227  1.00  0.00     0.107 A 
HETATM    3  C8  UNL     1      -1.457  50.376 -16.787  1.00  0.00     0.117 A 
HETATM    4  C9  UNL     1      -0.586  50.984 -17.683  1.00  0.00     0.035 A 
HETATM    5  C10 UNL     1       0.690  51.513 -17.259  1.00  0.00     0.016 C 
HETATM    6  C11 UNL     1       0.952  51.475 -15.950  1.00  0.00     0.012 C 
HETATM    7  C12 UNL     1      -0.009  50.922 -14.914  1.00  0.00     0.082 C 
HETATM    8  C13 UNL     1       0.725  49.861 -14.078  1.00  0.00     0.051 C 
HETATM    9  O3  UNL     1      -1.170  50.233 -15.453  1.00  0.00    -0.333 OA
HETATM   10  C20 UNL     1      -0.991  51.043 -19.016  1.00  0.00     0.100 A 
HETATM   11  C21 UNL     1      -2.197  50.528 -19.482  1.00  0.00     0.011 A 
HETATM   12  C22 UNL     1      -2.206  50.795 -20.882  1.00  0.00     0.053 A 
HETATM   13  C23 UNL     1      -1.026  51.447 -21.185  1.00  0.00     0.087 A 
HETATM   14  O6  UNL     1      -0.288  51.598 -20.046  1.00  0.00    -0.308 OA
ENDROOT
BRANCH  13  15
HETATM   15  C24 UNL     1      -0.439  51.974 -22.414  1.00  0.00     0.003 A 
HETATM   16  C25 UNL     1       0.344  53.138 -22.408  1.00  0.00     0.051 A 
HETATM   17  C26 UNL     1       0.894  53.629 -23.591  1.00  0.00     0.069 A 
HETATM   18  C27 UNL     1       0.684  52.981 -24.803  1.00  0.00     0.073 A 
HETATM   19  C28 UNL     1      -0.091  51.827 -24.813  1.00  0.00     0.069 A 
HETATM   20  C29 UNL     1      -0.650  51.323 -23.638  1.00  0.00     0.051 A 
BRANCH  17  21
HETATM   21  O4  UNL     1       1.641  54.769 -23.515  1.00  0.00    -0.361 OA
HETATM   22  H31 UNL     1       1.965  54.996 -24.403  1.00  0.00     0.217 HD
ENDBRANCH  17  21
BRANCH  19  23
HETATM   23  O5  UNL     1      -0.336  51.143 -25.968  1.00  0.00    -0.361 OA
HETATM   24  H33 UNL     1       0.095  51.604 -26.708  1.00  0.00     0.217 HD
ENDBRANCH  19  23
ENDBRANCH  13  15
BRANCH   1  25
HETATM   25  C5  UNL     1      -4.431  49.347 -19.002  1.00  0.00     0.070 C 
BRANCH  25  26
HETATM   26  C4  UNL     1      -4.287  48.087 -19.815  1.00  0.00    -0.020 C 
HETATM   27  C2  UNL     1      -4.403  46.808 -19.403  1.00  0.00    -0.091 C 
HETATM   28  C1  UNL     1      -4.733  46.374 -18.002  1.00  0.00     0.042 C 
HETATM   29  C3  UNL     1      -4.217  45.671 -20.374  1.00  0.00     0.042 C 
ENDBRANCH  25  26
ENDBRANCH   1  25
BRANCH   2  30
HETATM   30  O1  UNL     1      -3.496  49.248 -16.301  1.00  0.00    -0.357 OA
HETATM   31  H10 UNL     1      -3.030  49.337 -15.447  1.00  0.00     0.217 HD
ENDBRANCH   2  30
BRANCH   7  32
HETATM   32  C14 UNL     1      -0.580  52.046 -14.010  1.00  0.00     0.042 C 
BRANCH  32  33
HETATM   33  C15 UNL     1      -1.854  51.701 -13.230  1.00  0.00     0.006 C 
BRANCH  33  34
HETATM   34  C16 UNL     1      -2.043  52.507 -11.933  1.00  0.00     0.037 C 
BRANCH  34  35
HETATM   35  C17 UNL     1      -3.475  52.966 -11.583  1.00  0.00     0.051 C 
HETATM   36  C18 UNL     1      -3.415  54.088 -10.538  1.00  0.00     0.045 C 
HETATM   37  C19 UNL     1      -4.349  51.826 -11.060  1.00  0.00     0.045 C 
BRANCH  35  38
HETATM   38  O2  UNL     1      -4.113  53.498 -12.745  1.00  0.00    -0.391 OA
HETATM   39  H28 UNL     1      -3.581  54.248 -13.066  1.00  0.00     0.210 HD
ENDBRANCH  35  38
ENDBRANCH  34  35
ENDBRANCH  33  34
ENDBRANCH  32  33
ENDBRANCH   7  32
TORSDOF 11
ENDMDL
MODEL 8
REMARK minimizedAffinity -7.53376341
REMARK CNNscore 0.399056196
REMARK CNNaffinity 6.70892572
REMARK  11 active torsions:
REMARK  status: ('A' for Active; 'I' for Inactive)
REMARK    1  A    between atoms: C4_4  and  C5_5 
REMARK    2  A    between atoms: C5_5  and  C6_6 
REMARK    3  A    between atoms: C7_7  and  O1_8 
REMARK    4  A    between atoms: C12_13  and  C14_15 
REMARK    5  A    between atoms: C14_15  and  C15_16 
REMARK    6  A    between atoms: C15_16  and  C16_17 
REMARK    7  A    between atoms: C16_17  and  C17_18 
REMARK    8  A    between atoms: C17_18  and  O2_21 
REMARK    9  A    between atoms: C23_26  and  C24_27 
REMARK   10  A    between atoms: C26_29  and  O4_30 
REMARK   11  A    between atoms: C28_32  and  O5_33 
ROOT
HETATM    1  C6  UNL     1      -2.181  49.327 -17.897  1.00  0.00    -0.006 A 
HETATM    2  C7  UNL     1      -3.512  48.886 -17.743  1.00  0.00     0.107 A 
HETATM    3  C8  UNL     1      -4.523  49.192 -18.663  1.00  0.00     0.117 A 
HETATM    4  C9  UNL     1      -4.247  49.963 -19.785  1.00  0.00     0.035 A 
HETATM    5  C10 UNL     1      -5.277  50.314 -20.736  1.00  0.00     0.016 C 
HETATM    6  C11 UNL     1      -6.487  49.785 -20.535  1.00  0.00     0.012 C 
HETATM    7  C12 UNL     1      -6.817  48.848 -19.387  1.00  0.00     0.082 C 
HETATM    8  C13 UNL     1      -8.032  49.406 -18.630  1.00  0.00     0.051 C 
HETATM    9  O3  UNL     1      -5.778  48.717 -18.377  1.00  0.00    -0.333 OA
HETATM   10  C20 UNL     1      -2.932  50.401 -19.943  1.00  0.00     0.100 A 
HETATM   11  C21 UNL     1      -1.908  50.112 -19.046  1.00  0.00     0.011 A 
HETATM   12  C22 UNL     1      -0.749  50.746 -19.581  1.00  0.00     0.053 A 
HETATM   13  C23 UNL     1      -1.125  51.374 -20.753  1.00  0.00     0.087 A 
HETATM   14  O6  UNL     1      -2.457  51.161 -20.972  1.00  0.00    -0.308 OA
ENDROOT
BRANCH  13  15
HETATM   15  C24 UNL     1      -0.424  52.180 -21.748  1.00  0.00     0.003 A 
HETATM   16  C25 UNL     1       0.498  53.167 -21.370  1.00  0.00     0.051 A 
HETATM   17  C26 UNL     1       1.155  53.930 -22.334  1.00  0.00     0.069 A 
HETATM   18  C27 UNL     1       0.918  53.733 -23.690  1.00  0.00     0.073 A 
HETATM   19  C28 UNL     1       0.006  52.755 -24.068  1.00  0.00     0.069 A 
HETATM   20  C29 UNL     1      -0.662  51.984 -23.117  1.00  0.00     0.051 A 
BRANCH  17  21
HETATM   21  O4  UNL     1       2.035  54.878 -21.897  1.00  0.00    -0.361 OA
HETATM   22  H31 UNL     1       2.423  55.329 -22.666  1.00  0.00     0.217 HD
ENDBRANCH  17  21
BRANCH  19  23
HETATM   23  O5  UNL     1      -0.272  52.510 -25.382  1.00  0.00    -0.361 OA
HETATM   24  H33 UNL     1       0.244  53.120 -25.935  1.00  0.00     0.217 HD
ENDBRANCH  19  23
ENDBRANCH  13  15
BRANCH   1  25
HETATM   25  C5  UNL     1      -1.114  48.949 -16.894  1.00  0.00     0.070 C 
BRANCH  25  26
HETATM   26  C4  UNL     1      -0.206  50.106 -16.571  1.00  0.00    -0.020 C 
HETATM   27  C2  UNL     1       0.792  50.158 -15.665  1.00  0.00    -0.091 C 
HETATM   28  C1  UNL     1       1.223  49.019 -14.782  1.00  0.00     0.042 C 
HETATM   29  C3  UNL     1       1.593  51.420 -15.480  1.00  0.00     0.042 C 
ENDBRANCH  25  26
ENDBRANCH   1  25
BRANCH   2  30
HETATM   30  O1  UNL     1      -3.842  48.129 -16.644  1.00  0.00    -0.357 OA
HETATM   31  H10 UNL     1      -4.792  47.922 -16.748  1.00  0.00     0.217 HD
ENDBRANCH   2  30
BRANCH   7  32
HETATM   32  C14 UNL     1      -7.087  47.406 -19.889  1.00  0.00     0.042 C 
BRANCH  32  33
HETATM   33  C15 UNL     1      -8.311  47.227 -20.795  1.00  0.00     0.006 C 
BRANCH  33  34
HETATM   34  C16 UNL     1      -8.579  45.773 -21.222  1.00  0.00     0.037 C 
BRANCH  34  35
HETATM   35  C17 UNL     1      -7.901  45.275 -22.517  1.00  0.00     0.051 C 
HETATM   36  C18 UNL     1      -6.661  44.444 -22.162  1.00  0.00     0.045 C 
HETATM   37  C19 UNL     1      -7.502  46.417 -23.452  1.00  0.00     0.045 C 
BRANCH  35  38
HETATM   38  O2  UNL     1      -8.794  44.423 -23.236  1.00  0.00    -0.391 OA
HETATM   39  H28 UNL     1      -9.027  43.672 -22.660  1.00  0.00     0.210 HD
ENDBRANCH  35  38
ENDBRANCH  34  35
ENDBRANCH  33  34
ENDBRANCH  32  33
ENDBRANCH   7  32
TORSDOF 11
ENDMDL
MODEL 9
REMARK minimizedAffinity -8.97542095
REMARK CNNscore 0.397947758
REMARK CNNaffinity 6.2809124
REMARK  11 active torsions:
REMARK  status: ('A' for Active; 'I' for Inactive)
REMARK    1  A    between atoms: C4_4  and  C5_5 
REMARK    2  A    between atoms: C5_5  and  C6_6 
REMARK    3  A    between atoms: C7_7  and  O1_8 
REMARK    4  A    between atoms: C12_13  and  C14_15 
REMARK    5  A    between atoms: C14_15  and  C15_16 
REMARK    6  A    between atoms: C15_16  and  C16_17 
REMARK    7  A    between atoms: C16_17  and  C17_18 
REMARK    8  A    between atoms: C17_18  and  O2_21 
REMARK    9  A    between atoms: C23_26  and  C24_27 
REMARK   10  A    between atoms: C26_29  and  O4_30 
REMARK   11  A    between atoms: C28_32  and  O5_33 
ROOT
HETATM    1  C6  UNL     1      -5.182  48.427 -24.979  1.00  0.00    -0.006 A 
HETATM    2  C7  UNL     1      -6.170  47.748 -25.723  1.00  0.00     0.107 A 
HETATM    3  C8  UNL     1      -6.129  47.642 -27.119  1.00  0.00     0.117 A 
HETATM    4  C9  UNL     1      -5.091  48.218 -27.840  1.00  0.00     0.035 A 
HETATM    5  C10 UNL     1      -5.038  48.145 -29.283  1.00  0.00     0.016 C 
HETATM    6  C11 UNL     1      -5.984  47.417 -29.883  1.00  0.00     0.012 C 
HETATM    7  C12 UNL     1      -7.078  46.676 -29.136  1.00  0.00     0.082 C 
HETATM    8  C13 UNL     1      -8.439  47.097 -29.712  1.00  0.00     0.051 C 
HETATM    9  O3  UNL     1      -7.167  46.974 -27.715  1.00  0.00    -0.333 OA
HETATM   10  C20 UNL     1      -4.110  48.890 -27.111  1.00  0.00     0.100 A 
HETATM   11  C21 UNL     1      -4.125  49.011 -25.724  1.00  0.00     0.011 A 
HETATM   12  C22 UNL     1      -2.959  49.762 -25.399  1.00  0.00     0.053 A 
HETATM   13  C23 UNL     1      -2.309  50.051 -26.584  1.00  0.00     0.087 A 
HETATM   14  O6  UNL     1      -3.013  49.517 -27.626  1.00  0.00    -0.308 OA
ENDROOT
BRANCH  13  15
HETATM   15  C24 UNL     1      -1.091  50.778 -26.928  1.00  0.00     0.003 A 
HETATM   16  C25 UNL     1      -1.115  51.866 -27.813  1.00  0.00     0.051 A 
HETATM   17  C26 UNL     1       0.059  52.546 -28.133  1.00  0.00     0.069 A 
HETATM   18  C27 UNL     1       1.280  52.168 -27.585  1.00  0.00     0.073 A 
HETATM   19  C28 UNL     1       1.307  51.091 -26.707  1.00  0.00     0.069 A 
HETATM   20  C29 UNL     1       0.142  50.399 -26.377  1.00  0.00     0.051 A 
BRANCH  17  21
HETATM   21  O4  UNL     1      -0.034  53.592 -29.006  1.00  0.00    -0.361 OA
HETATM   22  H31 UNL     1       0.849  53.976 -29.136  1.00  0.00     0.217 HD
ENDBRANCH  17  21
BRANCH  19  23
HETATM   23  O5  UNL     1       2.472  50.669 -26.133  1.00  0.00    -0.361 OA
HETATM   24  H33 UNL     1       3.203  51.222 -26.455  1.00  0.00     0.217 HD
ENDBRANCH  19  23
ENDBRANCH  13  15
BRANCH   1  25
HETATM   25  C5  UNL     1      -5.250  48.494 -23.470  1.00  0.00     0.070 C 
BRANCH  25  26
HETATM   26  C4  UNL     1      -3.912  48.237 -22.830  1.00  0.00    -0.020 C 
HETATM   27  C2  UNL     1      -3.631  47.467 -21.759  1.00  0.00    -0.091 C 
HETATM   28  C1  UNL     1      -4.636  46.666 -20.979  1.00  0.00     0.042 C 
HETATM   29  C3  UNL     1      -2.216  47.338 -21.258  1.00  0.00     0.042 C 
ENDBRANCH  25  26
ENDBRANCH   1  25
BRANCH   2  30
HETATM   30  O1  UNL     1      -7.225  47.170 -25.059  1.00  0.00    -0.357 OA
HETATM   31  H10 UNL     1      -7.768  46.747 -25.753  1.00  0.00     0.217 HD
ENDBRANCH   2  30
BRANCH   7  32
HETATM   32  C14 UNL     1      -6.886  45.139 -29.224  1.00  0.00     0.042 C 
BRANCH  32  33
HETATM   33  C15 UNL     1      -7.498  44.454 -30.451  1.00  0.00     0.006 C 
BRANCH  33  34
HETATM   34  C16 UNL     1      -6.613  43.361 -31.076  1.00  0.00     0.037 C 
BRANCH  34  35
HETATM   35  C17 UNL     1      -6.102  43.595 -32.514  1.00  0.00     0.051 C 
HETATM   36  C18 UNL     1      -6.936  42.764 -33.498  1.00  0.00     0.045 C 
HETATM   37  C19 UNL     1      -4.622  43.251 -32.679  1.00  0.00     0.045 C 
BRANCH  35  38
HETATM   38  O2  UNL     1      -6.266  44.969 -32.870  1.00  0.00    -0.391 OA
HETATM   39  H28 UNL     1      -7.212  45.189 -32.802  1.00  0.00     0.210 HD
ENDBRANCH  35  38
ENDBRANCH  34  35
ENDBRANCH  33  34
ENDBRANCH  32  33
ENDBRANCH   7  32
TORSDOF 11
ENDMDL
