MODEL 1
REMARK minimizedAffinity -9.73741245
REMARK CNNscore 0.36803472
REMARK CNNaffinity 7.70048666
REMARK  10 active torsions:
REMARK  status: ('A' for Active; 'I' for Inactive)
REMARK    1  A    between atoms: N1_2  and  C2_3 
REMARK    2  A    between atoms: C2_3  and  O1_4 
REMARK    3  A    between atoms: O1_4  and  C3_5 
REMARK    4  A    between atoms: C8_10  and  C9_11 
REMARK    5  A    between atoms: C9_11  and  C10_12 
REMARK    6  A    between atoms: C20_24  and  O2_25 
REMARK    7  A    between atoms: C26_32  and  C27_33 
REMARK    8  A    between atoms: C27_33  and  O4_34 
REMARK    9  A    between atoms: C36_44  and  O6_45 
REMARK   10  A    between atoms: C43_53  and  N3_54 
ROOT
HETATM    1  C3  UNL     1      -1.333  49.626 -15.291  1.00  0.00     0.139 C 
HETATM    2  C4  UNL     1      -2.368  49.731 -16.452  1.00  0.00     0.086 C 
HETATM    3  C5  UNL     1      -1.953  50.529 -17.657  1.00  0.00    -0.014 C 
HETATM    4  C6  UNL     1      -2.719  50.522 -18.852  1.00  0.00    -0.034 C 
HETATM    5  C7  UNL     1      -4.055  49.802 -18.925  1.00  0.00     0.050 C 
HETATM    6  C8  UNL     1      -4.275  49.116 -20.284  1.00  0.00     0.028 C 
HETATM    7  C18 UNL     1      -4.130  50.160 -21.374  1.00  0.00    -0.040 A 
HETATM    8  C19 UNL     1      -4.972  50.100 -22.499  1.00  0.00     0.044 A 
HETATM    9  C20 UNL     1      -4.904  51.083 -23.472  1.00  0.00     0.066 A 
HETATM   10  C21 UNL     1      -4.013  52.137 -23.342  1.00  0.00     0.037 A 
HETATM   11  C22 UNL     1      -3.171  52.196 -22.224  1.00  0.00     0.015 A 
HETATM   12  C23 UNL     1      -3.181  51.204 -21.226  1.00  0.00    -0.016 A 
HETATM   13  C24 UNL     1      -2.296  51.231 -20.015  1.00  0.00     0.016 C 
HETATM   14  C25 UNL     1      -1.049  51.890 -19.949  1.00  0.00     0.090 C 
HETATM   15  O3  UNL     1      -0.561  52.461 -21.100  1.00  0.00    -0.342 OA
HETATM   16  C26 UNL     1       0.837  52.774 -21.115  1.00  0.00     0.152 C 
HETATM   17  C28 UNL     1       1.190  53.606 -19.894  1.00  0.00     0.039 C 
HETATM   18  C29 UNL     1       0.951  52.760 -18.653  1.00  0.00     0.047 C 
HETATM   19  C30 UNL     1      -0.338  51.980 -18.740  1.00  0.00     0.010 C 
HETATM   20  C31 UNL     1      -0.810  51.312 -17.601  1.00  0.00     0.086 C 
HETATM   21  O5  UNL     1      -0.064  51.458 -16.474  1.00  0.00    -0.337 OA
HETATM   22  C32 UNL     1      -0.629  51.037 -15.215  1.00  0.00     0.200 C 
HETATM   23  C33 UNL     1       0.555  51.124 -14.250  1.00  0.00    -0.023 C 
HETATM   24  C34 UNL     1       0.386  51.654 -12.965  1.00  0.00     0.049 C 
HETATM   25  C35 UNL     1       1.398  51.492 -12.021  1.00  0.00     0.102 C 
HETATM   26  C36 UNL     1       2.653  51.019 -12.407  1.00  0.00     0.099 C 
HETATM   27  C37 UNL     1       2.881  50.593 -13.702  1.00  0.00     0.040 C 
HETATM   28  C38 UNL     1       1.820  50.609 -14.607  1.00  0.00     0.013 C 
HETATM   29  O7  UNL     1       1.209  51.689 -10.676  1.00  0.00    -0.347 OA
HETATM   30  C39 UNL     1       0.028  51.040 -10.146  1.00  0.00     0.188 C 
HETATM   31  C40 UNL     1      -0.073  49.517 -10.406  1.00  0.00     0.120 C 
HETATM   32  C41 UNL     1      -0.789  49.233 -11.666  1.00  0.00    -0.102 C 
HETATM   33  C42 UNL     1      -1.366  49.173 -12.722  1.00  0.00    -0.068 C 
HETATM   34  C43 UNL     1      -2.171  49.288 -13.959  1.00  0.00     0.336 C 
ENDROOT
BRANCH   6  35
HETATM   35  C9  UNL     1      -3.326  47.912 -20.471  1.00  0.00     0.048 C 
BRANCH  35  36
HETATM   36  C10 UNL     1      -4.041  46.579 -20.463  1.00  0.00    -0.057 A 
HETATM   37  C11 UNL     1      -5.010  46.296 -21.362  1.00  0.00     0.020 A 
HETATM   38  C12 UNL     1      -5.643  45.022 -21.308  1.00  0.00    -0.011 A 
HETATM   39  C13 UNL     1      -6.586  44.421 -22.026  1.00  0.00     0.006 A 
HETATM   40  C15 UNL     1      -5.307  44.016 -20.292  1.00  0.00     0.038 A 
HETATM   41  C14 UNL     1      -6.865  43.058 -21.486  1.00  0.00     0.148 A 
HETATM   42  N2  UNL     1      -5.962  42.893 -20.320  1.00  0.00    -0.386 N 
ATOM     43  H2  UNL     1      -5.876  42.093 -19.693  1.00  0.00     0.160 HD
HETATM   44  C16 UNL     1      -4.252  44.393 -19.330  1.00  0.00     0.030 A 
HETATM   45  C17 UNL     1      -3.671  45.600 -19.440  1.00  0.00     0.009 A 
ENDBRANCH  35  36
ENDBRANCH   6  35
BRANCH   9  46
HETATM   46  O2  UNL     1      -5.746  50.991 -24.540  1.00  0.00    -0.361 OA
HETATM   47  H21 UNL     1      -5.563  51.731 -25.139  1.00  0.00     0.217 HD
ENDBRANCH   9  46
BRANCH   1  48
HETATM   48  O1  UNL     1      -0.299  48.684 -15.664  1.00  0.00    -0.345 OA
BRANCH  48  49
HETATM   49  C2  UNL     1      -0.001  47.577 -14.842  1.00  0.00     0.438 C 
BRANCH  49  50
HETATM   50  N1  UNL     1       1.287  47.046 -15.228  1.00  0.00     0.102 N 
HETATM   51  C1  UNL     1       1.720  45.986 -14.333  1.00  0.00     0.309 C 
HETATM   52  H4  UNL     1       1.198  46.690 -16.177  1.00  0.00     0.318 HD
ENDBRANCH  49  50
ENDBRANCH  48  49
ENDBRANCH   1  48
BRANCH  34  53
HETATM   53  N3  UNL     1      -3.105  48.135 -14.075  1.00  0.00     0.098 N 
HETATM   54  C44 UNL     1      -3.277  47.660 -15.441  1.00  0.00     0.308 C 
HETATM   55  H42 UNL     1      -2.782  47.361 -13.506  1.00  0.00     0.317 HD
ENDBRANCH  34  53
BRANCH  16  56
HETATM   56  C27 UNL     1       1.133  53.556 -22.402  1.00  0.00     0.196 C 
BRANCH  56  57
HETATM   57  O4  UNL     1       1.749  54.816 -22.125  1.00  0.00    -0.398 OA
HETATM   58  H27 UNL     1       1.158  55.314 -21.539  1.00  0.00     0.209 HD
ENDBRANCH  56  57
ENDBRANCH  16  56
BRANCH  26  59
HETATM   59  O6  UNL     1       3.669  50.906 -11.500  1.00  0.00    -0.358 OA
HETATM   60  H34 UNL     1       3.308  51.283 -10.673  1.00  0.00     0.217 HD
ENDBRANCH  26  59
TORSDOF 10
ENDMDL
MODEL 2
REMARK minimizedAffinity -11.3112564
REMARK CNNscore 0.314318776
REMARK CNNaffinity 7.65795279
REMARK  10 active torsions:
REMARK  status: ('A' for Active; 'I' for Inactive)
REMARK    1  A    between atoms: N1_2  and  C2_3 
REMARK    2  A    between atoms: C2_3  and  O1_4 
REMARK    3  A    between atoms: O1_4  and  C3_5 
REMARK    4  A    between atoms: C8_10  and  C9_11 
REMARK    5  A    between atoms: C9_11  and  C10_12 
REMARK    6  A    between atoms: C20_24  and  O2_25 
REMARK    7  A    between atoms: C26_32  and  C27_33 
REMARK    8  A    between atoms: C27_33  and  O4_34 
REMARK    9  A    between atoms: C36_44  and  O6_45 
REMARK   10  A    between atoms: C43_53  and  N3_54 
ROOT
HETATM    1  C3  UNL     1      -6.110  48.820 -20.449  1.00  0.00     0.139 C 
HETATM    2  C4  UNL     1      -5.134  49.936 -20.930  1.00  0.00     0.086 C 
HETATM    3  C5  UNL     1      -3.929  50.197 -20.069  1.00  0.00    -0.014 C 
HETATM    4  C6  UNL     1      -2.870  51.034 -20.508  1.00  0.00    -0.034 C 
HETATM    5  C7  UNL     1      -2.963  51.798 -21.818  1.00  0.00     0.050 C 
HETATM    6  C8  UNL     1      -1.616  51.853 -22.558  1.00  0.00     0.028 C 
HETATM    7  C18 UNL     1      -0.582  52.449 -21.624  1.00  0.00    -0.040 A 
HETATM    8  C19 UNL     1       0.400  53.311 -22.145  1.00  0.00     0.044 A 
HETATM    9  C20 UNL     1       1.311  53.921 -21.298  1.00  0.00     0.066 A 
HETATM   10  C21 UNL     1       1.257  53.695 -19.932  1.00  0.00     0.037 A 
HETATM   11  C22 UNL     1       0.283  52.833 -19.411  1.00  0.00     0.015 A 
HETATM   12  C23 UNL     1      -0.642  52.165 -20.235  1.00  0.00    -0.016 A 
HETATM   13  C24 UNL     1      -1.701  51.236 -19.717  1.00  0.00     0.016 C 
HETATM   14  C25 UNL     1      -1.611  50.516 -18.505  1.00  0.00     0.090 C 
HETATM   15  O3  UNL     1      -0.435  50.591 -17.798  1.00  0.00    -0.342 OA
HETATM   16  C26 UNL     1      -0.220  49.579 -16.806  1.00  0.00     0.152 C 
HETATM   17  C28 UNL     1      -1.420  49.511 -15.876  1.00  0.00     0.039 C 
HETATM   18  C29 UNL     1      -2.629  49.071 -16.686  1.00  0.00     0.047 C 
HETATM   19  C30 UNL     1      -2.697  49.766 -18.023  1.00  0.00     0.010 C 
HETATM   20  C31 UNL     1      -3.853  49.631 -18.806  1.00  0.00     0.086 C 
HETATM   21  O5  UNL     1      -4.857  48.893 -18.261  1.00  0.00    -0.337 OA
HETATM   22  C32 UNL     1      -6.161  48.944 -18.876  1.00  0.00     0.200 C 
HETATM   23  C33 UNL     1      -6.933  47.835 -18.160  1.00  0.00    -0.023 C 
HETATM   24  C34 UNL     1      -8.258  48.039 -17.756  1.00  0.00     0.049 C 
HETATM   25  C35 UNL     1      -9.021  46.949 -17.341  1.00  0.00     0.102 C 
HETATM   26  C36 UNL     1      -8.416  45.713 -17.107  1.00  0.00     0.099 C 
HETATM   27  C37 UNL     1      -7.078  45.515 -17.391  1.00  0.00     0.040 C 
HETATM   28  C38 UNL     1      -6.352  46.564 -17.954  1.00  0.00     0.013 C 
HETATM   29  O7  UNL     1     -10.389  46.988 -17.232  1.00  0.00    -0.347 OA
HETATM   30  C39 UNL     1     -11.056  47.559 -18.383  1.00  0.00     0.188 C 
HETATM   31  C40 UNL     1     -10.724  46.901 -19.744  1.00  0.00     0.120 C 
HETATM   32  C41 UNL     1      -9.576  47.564 -20.395  1.00  0.00    -0.102 C 
HETATM   33  C42 UNL     1      -8.621  48.192 -20.778  1.00  0.00    -0.068 C 
HETATM   34  C43 UNL     1      -7.534  49.132 -21.133  1.00  0.00     0.336 C 
ENDROOT
BRANCH   6  35
HETATM   35  C9  UNL     1      -1.211  50.465 -23.101  1.00  0.00     0.048 C 
BRANCH  35  36
HETATM   36  C10 UNL     1      -1.899  50.105 -24.399  1.00  0.00    -0.057 A 
HETATM   37  C11 UNL     1      -2.957  49.264 -24.425  1.00  0.00     0.020 A 
HETATM   38  C12 UNL     1      -3.566  48.967 -25.676  1.00  0.00    -0.011 A 
HETATM   39  C13 UNL     1      -4.602  48.225 -26.054  1.00  0.00     0.006 A 
HETATM   40  C15 UNL     1      -3.066  49.512 -26.946  1.00  0.00     0.038 A 
HETATM   41  C14 UNL     1      -4.770  48.278 -27.536  1.00  0.00     0.148 A 
HETATM   42  N2  UNL     1      -3.683  49.158 -28.035  1.00  0.00    -0.386 N 
ATOM     43  H2  UNL     1      -3.472  49.421 -28.997  1.00  0.00     0.160 HD
HETATM   44  C16 UNL     1      -1.898  50.410 -26.851  1.00  0.00     0.030 A 
HETATM   45  C17 UNL     1      -1.376  50.675 -25.641  1.00  0.00     0.009 A 
ENDBRANCH  35  36
ENDBRANCH   6  35
BRANCH   9  46
HETATM   46  O2  UNL     1       2.237  54.757 -21.845  1.00  0.00    -0.361 OA
HETATM   47  H21 UNL     1       2.812  55.084 -21.136  1.00  0.00     0.217 HD
ENDBRANCH   9  46
BRANCH   1  48
HETATM   48  O1  UNL     1      -5.525  47.527 -20.729  1.00  0.00    -0.345 OA
BRANCH  48  49
HETATM   49  C2  UNL     1      -4.494  47.393 -21.684  1.00  0.00     0.438 C 
BRANCH  49  50
HETATM   50  N1  UNL     1      -3.392  46.680 -21.078  1.00  0.00     0.102 N 
HETATM   51  C1  UNL     1      -2.110  47.246 -21.467  1.00  0.00     0.309 C 
HETATM   52  H4  UNL     1      -3.508  46.738 -20.069  1.00  0.00     0.318 HD
ENDBRANCH  49  50
ENDBRANCH  48  49
ENDBRANCH   1  48
BRANCH  34  53
HETATM   53  N3  UNL     1      -7.496  49.341 -22.606  1.00  0.00     0.098 N 
HETATM   54  C44 UNL     1      -6.540  50.358 -23.025  1.00  0.00     0.308 C 
HETATM   55  H42 UNL     1      -7.267  48.474 -23.080  1.00  0.00     0.317 HD
ENDBRANCH  34  53
BRANCH  16  56
HETATM   56  C27 UNL     1       1.048  49.945 -16.023  1.00  0.00     0.196 C 
BRANCH  56  57
HETATM   57  O4  UNL     1       1.451  51.294 -16.272  1.00  0.00    -0.398 OA
HETATM   58  H27 UNL     1       1.588  51.393 -17.227  1.00  0.00     0.209 HD
ENDBRANCH  56  57
ENDBRANCH  16  56
BRANCH  26  59
HETATM   59  O6  UNL     1      -9.145  44.651 -16.650  1.00  0.00    -0.358 OA
HETATM   60  H34 UNL     1     -10.040  45.013 -16.489  1.00  0.00     0.217 HD
ENDBRANCH  26  59
TORSDOF 10
ENDMDL
MODEL 3
REMARK minimizedAffinity -8.08895111
REMARK CNNscore 0.311289072
REMARK CNNaffinity 7.50431204
REMARK  10 active torsions:
REMARK  status: ('A' for Active; 'I' for Inactive)
REMARK    1  A    between atoms: N1_2  and  C2_3 
REMARK    2  A    between atoms: C2_3  and  O1_4 
REMARK    3  A    between atoms: O1_4  and  C3_5 
REMARK    4  A    between atoms: C8_10  and  C9_11 
REMARK    5  A    between atoms: C9_11  and  C10_12 
REMARK    6  A    between atoms: C20_24  and  O2_25 
REMARK    7  A    between atoms: C26_32  and  C27_33 
REMARK    8  A    between atoms: C27_33  and  O4_34 
REMARK    9  A    between atoms: C36_44  and  O6_45 
REMARK   10  A    between atoms: C43_53  and  N3_54 
ROOT
HETATM    1  C3  UNL     1       1.676  54.409  -8.980  1.00  0.00     0.139 C 
HETATM    2  C4  UNL     1       2.687  55.498  -8.509  1.00  0.00     0.086 C 
HETATM    3  C5  UNL     1       2.355  56.221  -7.232  1.00  0.00    -0.014 C 
HETATM    4  C6  UNL     1       3.294  57.076  -6.598  1.00  0.00    -0.034 C 
HETATM    5  C7  UNL     1       4.632  57.392  -7.245  1.00  0.00     0.050 C 
HETATM    6  C8  UNL     1       5.771  57.480  -6.216  1.00  0.00     0.028 C 
HETATM    7  C18 UNL     1       5.389  58.506  -5.167  1.00  0.00    -0.040 A 
HETATM    8  C19 UNL     1       6.383  59.346  -4.634  1.00  0.00     0.044 A 
HETATM    9  C20 UNL     1       6.044  60.337  -3.727  1.00  0.00     0.066 A 
HETATM   10  C21 UNL     1       4.723  60.514  -3.345  1.00  0.00     0.037 A 
HETATM   11  C22 UNL     1       3.732  59.675  -3.872  1.00  0.00     0.015 A 
HETATM   12  C23 UNL     1       4.033  58.635  -4.771  1.00  0.00    -0.016 A 
HETATM   13  C24 UNL     1       3.002  57.717  -5.358  1.00  0.00     0.016 C 
HETATM   14  C25 UNL     1       1.763  57.413  -4.752  1.00  0.00     0.090 C 
HETATM   15  O3  UNL     1       1.522  57.910  -3.494  1.00  0.00    -0.342 OA
HETATM   16  C26 UNL     1       0.462  57.291  -2.754  1.00  0.00     0.152 C 
HETATM   17  C28 UNL     1      -0.805  57.274  -3.592  1.00  0.00     0.039 C 
HETATM   18  C29 UNL     1      -0.562  56.398  -4.811  1.00  0.00     0.047 C 
HETATM   19  C30 UNL     1       0.795  56.646  -5.424  1.00  0.00     0.010 C 
HETATM   20  C31 UNL     1       1.098  56.074  -6.667  1.00  0.00     0.086 C 
HETATM   21  O5  UNL     1       0.102  55.353  -7.248  1.00  0.00    -0.337 OA
HETATM   22  C32 UNL     1       0.243  54.976  -8.634  1.00  0.00     0.200 C 
HETATM   23  C33 UNL     1      -0.914  54.000  -8.854  1.00  0.00    -0.023 C 
HETATM   24  C34 UNL     1      -1.681  54.061 -10.025  1.00  0.00     0.049 C 
HETATM   25  C35 UNL     1      -2.554  53.017 -10.324  1.00  0.00     0.102 C 
HETATM   26  C36 UNL     1      -2.839  52.040  -9.368  1.00  0.00     0.099 C 
HETATM   27  C37 UNL     1      -2.176  52.023  -8.155  1.00  0.00     0.040 C 
HETATM   28  C38 UNL     1      -1.188  52.978  -7.920  1.00  0.00     0.013 C 
HETATM   29  O7  UNL     1      -3.101  52.829 -11.568  1.00  0.00    -0.347 OA
HETATM   30  C39 UNL     1      -2.142  52.902 -12.651  1.00  0.00     0.188 C 
HETATM   31  C40 UNL     1      -0.928  51.950 -12.535  1.00  0.00     0.120 C 
HETATM   32  C41 UNL     1       0.197  52.596 -11.829  1.00  0.00    -0.102 C 
HETATM   33  C42 UNL     1       1.003  53.253 -11.220  1.00  0.00    -0.068 C 
HETATM   34  C43 UNL     1       1.897  54.234 -10.565  1.00  0.00     0.336 C 
ENDROOT
BRANCH   6  35
HETATM   35  C9  UNL     1       6.099  56.096  -5.615  1.00  0.00     0.048 C 
BRANCH  35  36
HETATM   36  C10 UNL     1       6.318  55.025  -6.660  1.00  0.00    -0.057 A 
HETATM   37  C11 UNL     1       6.394  53.717  -6.323  1.00  0.00     0.020 A 
HETATM   38  C12 UNL     1       6.596  52.756  -7.352  1.00  0.00    -0.011 A 
HETATM   39  C13 UNL     1       6.694  51.430  -7.380  1.00  0.00     0.006 A 
HETATM   40  C15 UNL     1       6.759  53.131  -8.763  1.00  0.00     0.038 A 
HETATM   41  C14 UNL     1       6.923  50.953  -8.775  1.00  0.00     0.148 A 
HETATM   42  N2  UNL     1       6.960  52.173  -9.619  1.00  0.00    -0.386 N 
ATOM     43  H2  UNL     1       7.108  52.244 -10.626  1.00  0.00     0.160 HD
HETATM   44  C16 UNL     1       6.681  54.574  -9.063  1.00  0.00     0.030 A 
HETATM   45  C17 UNL     1       6.466  55.439  -8.056  1.00  0.00     0.009 A 
ENDBRANCH  35  36
ENDBRANCH   6  35
BRANCH   9  46
HETATM   46  O2  UNL     1       7.037  61.135  -3.245  1.00  0.00    -0.361 OA
HETATM   47  H21 UNL     1       6.649  61.757  -2.609  1.00  0.00     0.217 HD
ENDBRANCH   9  46
BRANCH   1  48
HETATM   48  O1  UNL     1       1.844  53.225  -8.166  1.00  0.00    -0.345 OA
BRANCH  48  49
HETATM   49  C2  UNL     1       3.131  52.779  -7.797  1.00  0.00     0.438 C 
BRANCH  49  50
HETATM   50  N1  UNL     1       3.159  51.336  -7.869  1.00  0.00     0.102 N 
HETATM   51  C1  UNL     1       3.261  50.869  -9.242  1.00  0.00     0.309 C 
HETATM   52  H4  UNL     1       3.962  51.019  -7.331  1.00  0.00     0.318 HD
ENDBRANCH  49  50
ENDBRANCH  48  49
ENDBRANCH   1  48
BRANCH  34  53
HETATM   53  N3  UNL     1       3.306  54.007 -10.985  1.00  0.00     0.098 N 
HETATM   54  C44 UNL     1       4.027  55.234 -11.298  1.00  0.00     0.308 C 
HETATM   55  H42 UNL     1       3.816  53.515 -10.260  1.00  0.00     0.317 HD
ENDBRANCH  34  53
BRANCH  16  56
HETATM   56  C27 UNL     1       0.246  58.102  -1.469  1.00  0.00     0.196 C 
BRANCH  56  57
HETATM   57  O4  UNL     1      -1.143  58.314  -1.206  1.00  0.00    -0.398 OA
HETATM   58  H27 UNL     1      -1.526  58.765  -1.974  1.00  0.00     0.209 HD
ENDBRANCH  56  57
ENDBRANCH  16  56
BRANCH  26  59
HETATM   59  O6  UNL     1      -3.733  51.041  -9.631  1.00  0.00    -0.358 OA
HETATM   60  H34 UNL     1      -4.099  51.260 -10.512  1.00  0.00     0.217 HD
ENDBRANCH  26  59
TORSDOF 10
ENDMDL
MODEL 4
REMARK minimizedAffinity -10.1215515
REMARK CNNscore 0.298933655
REMARK CNNaffinity 7.82946253
REMARK  10 active torsions:
REMARK  status: ('A' for Active; 'I' for Inactive)
REMARK    1  A    between atoms: N1_2  and  C2_3 
REMARK    2  A    between atoms: C2_3  and  O1_4 
REMARK    3  A    between atoms: O1_4  and  C3_5 
REMARK    4  A    between atoms: C8_10  and  C9_11 
REMARK    5  A    between atoms: C9_11  and  C10_12 
REMARK    6  A    between atoms: C20_24  and  O2_25 
REMARK    7  A    between atoms: C26_32  and  C27_33 
REMARK    8  A    between atoms: C27_33  and  O4_34 
REMARK    9  A    between atoms: C36_44  and  O6_45 
REMARK   10  A    between atoms: C43_53  and  N3_54 
ROOT
HETATM    1  C3  UNL     1      -6.399  48.502 -20.077  1.00  0.00     0.139 C 
HETATM    2  C4  UNL     1      -5.418  49.663 -20.421  1.00  0.00     0.086 C 
HETATM    3  C5  UNL     1      -4.189  49.786 -19.564  1.00  0.00    -0.014 C 
HETATM    4  C6  UNL     1      -3.128  50.665 -19.908  1.00  0.00    -0.034 C 
HETATM    5  C7  UNL     1      -3.242  51.607 -21.095  1.00  0.00     0.050 C 
HETATM    6  C8  UNL     1      -1.914  51.751 -21.856  1.00  0.00     0.028 C 
HETATM    7  C18 UNL     1      -0.848  52.196 -20.874  1.00  0.00    -0.040 A 
HETATM    8  C19 UNL     1       0.134  53.112 -21.294  1.00  0.00     0.044 A 
HETATM    9  C20 UNL     1       1.075  53.586 -20.395  1.00  0.00     0.066 A 
HETATM   10  C21 UNL     1       1.051  53.170 -19.073  1.00  0.00     0.037 A 
HETATM   11  C22 UNL     1       0.077  52.254 -18.654  1.00  0.00     0.015 A 
HETATM   12  C23 UNL     1      -0.878  51.720 -19.538  1.00  0.00    -0.016 A 
HETATM   13  C24 UNL     1      -1.937  50.740 -19.128  1.00  0.00     0.016 C 
HETATM   14  C25 UNL     1      -1.828  49.855 -18.033  1.00  0.00     0.090 C 
HETATM   15  O3  UNL     1      -0.634  49.815 -17.354  1.00  0.00    -0.342 OA
HETATM   16  C26 UNL     1      -0.410  48.670 -16.521  1.00  0.00     0.152 C 
HETATM   17  C28 UNL     1      -1.588  48.486 -15.578  1.00  0.00     0.039 C 
HETATM   18  C29 UNL     1      -2.823  48.178 -16.409  1.00  0.00     0.047 C 
HETATM   19  C30 UNL     1      -2.914  49.056 -17.633  1.00  0.00     0.010 C 
HETATM   20  C31 UNL     1      -4.090  49.047 -18.396  1.00  0.00     0.086 C 
HETATM   21  O5  UNL     1      -5.092  48.251 -17.934  1.00  0.00    -0.337 OA
HETATM   22  C32 UNL     1      -6.409  48.403 -18.501  1.00  0.00     0.200 C 
HETATM   23  C33 UNL     1      -7.180  47.213 -17.928  1.00  0.00    -0.023 C 
HETATM   24  C34 UNL     1      -8.492  47.373 -17.464  1.00  0.00     0.049 C 
HETATM   25  C35 UNL     1      -9.261  46.244 -17.187  1.00  0.00     0.102 C 
HETATM   26  C36 UNL     1      -8.669  44.981 -17.145  1.00  0.00     0.099 C 
HETATM   27  C37 UNL     1      -7.342  44.810 -17.490  1.00  0.00     0.040 C 
HETATM   28  C38 UNL     1      -6.614  45.919 -17.919  1.00  0.00     0.013 C 
HETATM   29  O7  UNL     1     -10.625  46.283 -17.037  1.00  0.00    -0.347 OA
HETATM   30  C39 UNL     1     -11.311  47.019 -18.078  1.00  0.00     0.188 C 
HETATM   31  C40 UNL     1     -11.023  46.556 -19.526  1.00  0.00     0.120 C 
HETATM   32  C41 UNL     1      -9.881  47.290 -20.108  1.00  0.00    -0.102 C 
HETATM   33  C42 UNL     1      -8.927  47.956 -20.423  1.00  0.00    -0.068 C 
HETATM   34  C43 UNL     1      -7.835  48.924 -20.671  1.00  0.00     0.336 C 
ENDROOT
BRANCH   6  35
HETATM   35  C9  UNL     1      -1.543  50.448 -22.599  1.00  0.00     0.048 C 
BRANCH  35  36
HETATM   36  C10 UNL     1      -1.325  50.646 -24.082  1.00  0.00    -0.057 A 
HETATM   37  C11 UNL     1      -0.299  51.393 -24.550  1.00  0.00     0.020 A 
HETATM   38  C12 UNL     1      -0.143  51.538 -25.957  1.00  0.00    -0.011 A 
HETATM   39  C13 UNL     1       0.736  52.160 -26.736  1.00  0.00     0.006 A 
HETATM   40  C15 UNL     1      -1.075  50.937 -26.921  1.00  0.00     0.038 A 
HETATM   41  C14 UNL     1       0.382  51.975 -28.174  1.00  0.00     0.148 A 
HETATM   42  N2  UNL     1      -0.852  51.151 -28.184  1.00  0.00    -0.386 N 
ATOM     43  H2  UNL     1      -1.394  50.830 -28.986  1.00  0.00     0.160 HD
HETATM   44  C16 UNL     1      -2.183  50.148 -26.346  1.00  0.00     0.030 A 
HETATM   45  C17 UNL     1      -2.270  50.024 -25.011  1.00  0.00     0.009 A 
ENDBRANCH  35  36
ENDBRANCH   6  35
BRANCH   9  46
HETATM   46  O2  UNL     1       2.000  54.480 -20.843  1.00  0.00    -0.361 OA
HETATM   47  H21 UNL     1       2.597  54.697 -20.110  1.00  0.00     0.217 HD
ENDBRANCH   9  46
BRANCH   1  48
HETATM   48  O1  UNL     1      -5.841  47.255 -20.551  1.00  0.00    -0.345 OA
BRANCH  48  49
HETATM   49  C2  UNL     1      -5.250  47.169 -21.830  1.00  0.00     0.438 C 
BRANCH  49  50
HETATM   50  N1  UNL     1      -6.165  46.486 -22.717  1.00  0.00     0.102 N 
HETATM   51  C1  UNL     1      -6.820  45.369 -22.055  1.00  0.00     0.309 C 
HETATM   52  H4  UNL     1      -6.857  47.165 -23.024  1.00  0.00     0.318 HD
ENDBRANCH  49  50
ENDBRANCH  48  49
ENDBRANCH   1  48
BRANCH  34  53
HETATM   53  N3  UNL     1      -7.830  49.339 -22.100  1.00  0.00     0.098 N 
HETATM   54  C44 UNL     1      -6.908  50.429 -22.387  1.00  0.00     0.308 C 
HETATM   55  H42 UNL     1      -7.589  48.553 -22.695  1.00  0.00     0.317 HD
ENDBRANCH  34  53
BRANCH  16  56
HETATM   56  C27 UNL     1       0.882  48.908 -15.728  1.00  0.00     0.196 C 
BRANCH  56  57
HETATM   57  O4  UNL     1       1.149  50.302 -15.558  1.00  0.00    -0.398 OA
HETATM   58  H27 UNL     1       1.198  50.705 -16.439  1.00  0.00     0.209 HD
ENDBRANCH  56  57
ENDBRANCH  16  56
BRANCH  26  59
HETATM   59  O6  UNL     1      -9.402  43.873 -16.823  1.00  0.00    -0.358 OA
HETATM   60  H34 UNL     1     -10.287  44.219 -16.590  1.00  0.00     0.217 HD
ENDBRANCH  26  59
TORSDOF 10
ENDMDL
MODEL 5
REMARK minimizedAffinity -8.01978779
REMARK CNNscore 0.285922348
REMARK CNNaffinity 6.51952505
REMARK  10 active torsions:
REMARK  status: ('A' for Active; 'I' for Inactive)
REMARK    1  A    between atoms: N1_2  and  C2_3 
REMARK    2  A    between atoms: C2_3  and  O1_4 
REMARK    3  A    between atoms: O1_4  and  C3_5 
REMARK    4  A    between atoms: C8_10  and  C9_11 
REMARK    5  A    between atoms: C9_11  and  C10_12 
REMARK    6  A    between atoms: C20_24  and  O2_25 
REMARK    7  A    between atoms: C26_32  and  C27_33 
REMARK    8  A    between atoms: C27_33  and  O4_34 
REMARK    9  A    between atoms: C36_44  and  O6_45 
REMARK   10  A    between atoms: C43_53  and  N3_54 
ROOT
HETATM    1  C3  UNL     1      -0.734  52.609  -9.669  1.00  0.00     0.139 C 
HETATM    2  C4  UNL     1       0.084  53.811  -9.108  1.00  0.00     0.086 C 
HETATM    3  C5  UNL     1       1.240  53.478  -8.205  1.00  0.00    -0.014 C 
HETATM    4  C6  UNL     1       2.178  54.466  -7.805  1.00  0.00    -0.034 C 
HETATM    5  C7  UNL     1       1.987  55.927  -8.175  1.00  0.00     0.050 C 
HETATM    6  C8  UNL     1       3.316  56.622  -8.514  1.00  0.00     0.028 C 
HETATM    7  C18 UNL     1       4.258  56.450  -7.339  1.00  0.00    -0.040 A 
HETATM    8  C19 UNL     1       5.115  57.508  -6.985  1.00  0.00     0.044 A 
HETATM    9  C20 UNL     1       5.933  57.398  -5.873  1.00  0.00     0.066 A 
HETATM   10  C21 UNL     1       5.906  56.252  -5.094  1.00  0.00     0.037 A 
HETATM   11  C22 UNL     1       5.056  55.196  -5.446  1.00  0.00     0.015 A 
HETATM   12  C23 UNL     1       4.232  55.248  -6.586  1.00  0.00    -0.016 A 
HETATM   13  C24 UNL     1       3.307  54.140  -6.996  1.00  0.00     0.016 C 
HETATM   14  C25 UNL     1       3.489  52.780  -6.663  1.00  0.00     0.090 C 
HETATM   15  O3  UNL     1       4.642  52.428  -6.004  1.00  0.00    -0.342 OA
HETATM   16  C26 UNL     1       4.988  51.037  -6.019  1.00  0.00     0.152 C 
HETATM   17  C28 UNL     1       3.806  50.210  -5.543  1.00  0.00     0.039 C 
HETATM   18  C29 UNL     1       2.670  50.382  -6.538  1.00  0.00     0.047 C 
HETATM   19  C30 UNL     1       2.512  51.819  -6.974  1.00  0.00     0.010 C 
HETATM   20  C31 UNL     1       1.388  52.185  -7.727  1.00  0.00     0.086 C 
HETATM   21  O5  UNL     1       0.491  51.194  -7.977  1.00  0.00    -0.337 OA
HETATM   22  C32 UNL     1      -0.806  51.554  -8.497  1.00  0.00     0.200 C 
HETATM   23  C33 UNL     1      -1.423  50.206  -8.870  1.00  0.00    -0.023 C 
HETATM   24  C34 UNL     1      -2.766  49.934  -8.577  1.00  0.00     0.049 C 
HETATM   25  C35 UNL     1      -3.376  48.817  -9.145  1.00  0.00     0.102 C 
HETATM   26  C36 UNL     1      -2.610  47.854  -9.806  1.00  0.00     0.099 C 
HETATM   27  C37 UNL     1      -1.257  48.046 -10.011  1.00  0.00     0.040 C 
HETATM   28  C38 UNL     1      -0.677  49.238  -9.579  1.00  0.00     0.013 C 
HETATM   29  O7  UNL     1      -4.737  48.640  -9.177  1.00  0.00    -0.347 OA
HETATM   30  C39 UNL     1      -5.471  49.802  -9.633  1.00  0.00     0.188 C 
HETATM   31  C40 UNL     1      -5.049  50.362 -11.012  1.00  0.00     0.120 C 
HETATM   32  C41 UNL     1      -3.998  51.392 -10.875  1.00  0.00    -0.102 C 
HETATM   33  C42 UNL     1      -3.136  52.186 -10.596  1.00  0.00    -0.068 C 
HETATM   34  C43 UNL     1      -2.185  53.186 -10.062  1.00  0.00     0.336 C 
ENDROOT
BRANCH   6  35
HETATM   35  C9  UNL     1       3.907  56.098  -9.842  1.00  0.00     0.048 C 
BRANCH  35  36
HETATM   36  C10 UNL     1       4.795  54.887  -9.665  1.00  0.00    -0.057 A 
HETATM   37  C11 UNL     1       4.339  53.637  -9.908  1.00  0.00     0.020 A 
HETATM   38  C12 UNL     1       5.225  52.538  -9.729  1.00  0.00    -0.011 A 
HETATM   39  C13 UNL     1       5.120  51.223  -9.892  1.00  0.00     0.006 A 
HETATM   40  C15 UNL     1       6.606  52.706  -9.257  1.00  0.00     0.038 A 
HETATM   41  C14 UNL     1       6.400  50.548  -9.528  1.00  0.00     0.148 A 
HETATM   42  N2  UNL     1       7.323  51.631  -9.107  1.00  0.00    -0.386 N 
ATOM     43  H2  UNL     1       8.286  51.552  -8.779  1.00  0.00     0.160 HD
HETATM   44  C16 UNL     1       7.038  54.093  -8.995  1.00  0.00     0.030 A 
HETATM   45  C17 UNL     1       6.168  55.096  -9.202  1.00  0.00     0.009 A 
ENDBRANCH  35  36
ENDBRANCH   6  35
BRANCH   9  46
HETATM   46  O2  UNL     1       6.740  58.451  -5.561  1.00  0.00    -0.361 OA
HETATM   47  H21 UNL     1       7.263  58.216  -4.779  1.00  0.00     0.217 HD
ENDBRANCH   9  46
BRANCH   1  48
HETATM   48  O1  UNL     1       0.022  51.977 -10.729  1.00  0.00    -0.345 OA
BRANCH  48  49
HETATM   49  C2  UNL     1       0.608  52.747 -11.756  1.00  0.00     0.438 C 
BRANCH  49  50
HETATM   50  N1  UNL     1      -0.145  52.545 -12.973  1.00  0.00     0.102 N 
HETATM   51  C1  UNL     1       0.707  52.097 -14.063  1.00  0.00     0.309 C 
HETATM   52  H4  UNL     1      -0.860  51.849 -12.778  1.00  0.00     0.318 HD
ENDBRANCH  49  50
ENDBRANCH  48  49
ENDBRANCH   1  48
BRANCH  34  53
HETATM   53  N3  UNL     1      -2.171  54.396 -10.928  1.00  0.00     0.098 N 
HETATM   54  C44 UNL     1      -1.586  55.566 -10.286  1.00  0.00     0.308 C 
HETATM   55  H42 UNL     1      -1.657  54.212 -11.783  1.00  0.00     0.317 HD
ENDBRANCH  34  53
BRANCH  16  56
HETATM   56  C27 UNL     1       6.192  50.839  -5.088  1.00  0.00     0.196 C 
BRANCH  56  57
HETATM   57  O4  UNL     1       7.411  50.703  -5.824  1.00  0.00    -0.398 OA
HETATM   58  H27 UNL     1       7.310  49.954  -6.432  1.00  0.00     0.209 HD
ENDBRANCH  56  57
ENDBRANCH  16  56
BRANCH  26  59
HETATM   59  O6  UNL     1      -3.190  46.729 -10.321  1.00  0.00    -0.358 OA
HETATM   60  H34 UNL     1      -4.126  46.781 -10.040  1.00  0.00     0.217 HD
ENDBRANCH  26  59
TORSDOF 10
ENDMDL
MODEL 6
REMARK minimizedAffinity -7.96442461
REMARK CNNscore 0.254085809
REMARK CNNaffinity 6.7397995
REMARK  10 active torsions:
REMARK  status: ('A' for Active; 'I' for Inactive)
REMARK    1  A    between atoms: N1_2  and  C2_3 
REMARK    2  A    between atoms: C2_3  and  O1_4 
REMARK    3  A    between atoms: O1_4  and  C3_5 
REMARK    4  A    between atoms: C8_10  and  C9_11 
REMARK    5  A    between atoms: C9_11  and  C10_12 
REMARK    6  A    between atoms: C20_24  and  O2_25 
REMARK    7  A    between atoms: C26_32  and  C27_33 
REMARK    8  A    between atoms: C27_33  and  O4_34 
REMARK    9  A    between atoms: C36_44  and  O6_45 
REMARK   10  A    between atoms: C43_53  and  N3_54 
ROOT
HETATM    1  C3  UNL     1       1.514  53.810  -8.788  1.00  0.00     0.139 C 
HETATM    2  C4  UNL     1       2.565  53.724  -7.640  1.00  0.00     0.086 C 
HETATM    3  C5  UNL     1       3.702  52.760  -7.836  1.00  0.00    -0.014 C 
HETATM    4  C6  UNL     1       4.823  52.746  -6.965  1.00  0.00    -0.034 C 
HETATM    5  C7  UNL     1       4.864  53.623  -5.725  1.00  0.00     0.050 C 
HETATM    6  C8  UNL     1       6.269  54.190  -5.459  1.00  0.00     0.028 C 
HETATM    7  C18 UNL     1       7.243  53.031  -5.370  1.00  0.00    -0.040 A 
HETATM    8  C19 UNL     1       8.293  53.086  -4.437  1.00  0.00     0.044 A 
HETATM    9  C20 UNL     1       9.152  52.009  -4.291  1.00  0.00     0.066 A 
HETATM   10  C21 UNL     1       8.977  50.866  -5.055  1.00  0.00     0.037 A 
HETATM   11  C22 UNL     1       7.934  50.811  -5.989  1.00  0.00     0.015 A 
HETATM   12  C23 UNL     1       7.057  51.893  -6.196  1.00  0.00    -0.016 A 
HETATM   13  C24 UNL     1       5.928  51.873  -7.184  1.00  0.00     0.016 C 
HETATM   14  C25 UNL     1       5.893  51.066  -8.343  1.00  0.00     0.090 C 
HETATM   15  O3  UNL     1       7.008  50.323  -8.644  1.00  0.00    -0.342 OA
HETATM   16  C26 UNL     1       7.105  49.830  -9.986  1.00  0.00     0.152 C 
HETATM   17  C28 UNL     1       5.830  49.087 -10.352  1.00  0.00     0.039 C 
HETATM   18  C29 UNL     1       4.678  50.078 -10.339  1.00  0.00     0.047 C 
HETATM   19  C30 UNL     1       4.744  51.008  -9.152  1.00  0.00     0.010 C 
HETATM   20  C31 UNL     1       3.654  51.844  -8.876  1.00  0.00     0.086 C 
HETATM   21  O5  UNL     1       2.583  51.717  -9.705  1.00  0.00    -0.337 OA
HETATM   22  C32 UNL     1       1.337  52.334  -9.320  1.00  0.00     0.200 C 
HETATM   23  C33 UNL     1       0.471  52.192 -10.571  1.00  0.00    -0.023 C 
HETATM   24  C34 UNL     1      -0.876  51.821 -10.465  1.00  0.00     0.049 C 
HETATM   25  C35 UNL     1      -1.708  51.945 -11.576  1.00  0.00     0.102 C 
HETATM   26  C36 UNL     1      -1.168  52.208 -12.836  1.00  0.00     0.099 C 
HETATM   27  C37 UNL     1       0.182  52.467 -12.987  1.00  0.00     0.040 C 
HETATM   28  C38 UNL     1       0.988  52.498 -11.850  1.00  0.00     0.013 C 
HETATM   29  O7  UNL     1      -3.078  51.912 -11.495  1.00  0.00    -0.347 OA
HETATM   30  C39 UNL     1      -3.627  52.761 -10.459  1.00  0.00     0.188 C 
HETATM   31  C40 UNL     1      -3.206  54.249 -10.519  1.00  0.00     0.120 C 
HETATM   32  C41 UNL     1      -1.986  54.495  -9.724  1.00  0.00    -0.102 C 
HETATM   33  C42 UNL     1      -0.982  54.523  -9.058  1.00  0.00    -0.068 C 
HETATM   34  C43 UNL     1       0.163  54.388  -8.129  1.00  0.00     0.336 C 
ENDROOT
BRANCH   6  35
HETATM   35  C9  UNL     1       6.669  55.235  -6.524  1.00  0.00     0.048 C 
BRANCH  35  36
HETATM   36  C10 UNL     1       7.390  56.433  -5.947  1.00  0.00    -0.057 A 
HETATM   37  C11 UNL     1       8.713  56.394  -5.674  1.00  0.00     0.020 A 
HETATM   38  C12 UNL     1       9.336  57.555  -5.137  1.00  0.00    -0.011 A 
HETATM   39  C13 UNL     1      10.579  57.865  -4.783  1.00  0.00     0.006 A 
HETATM   40  C15 UNL     1       8.589  58.784  -4.836  1.00  0.00     0.038 A 
HETATM   41  C14 UNL     1      10.641  59.260  -4.257  1.00  0.00     0.148 A 
HETATM   42  N2  UNL     1       9.253  59.780  -4.326  1.00  0.00    -0.386 N 
ATOM     43  H2  UNL     1       8.904  60.695  -4.042  1.00  0.00     0.160 HD
HETATM   44  C16 UNL     1       7.145  58.757  -5.142  1.00  0.00     0.030 A 
HETATM   45  C17 UNL     1       6.612  57.641  -5.669  1.00  0.00     0.009 A 
ENDBRANCH  35  36
ENDBRANCH   6  35
BRANCH   9  46
HETATM   46  O2  UNL     1      10.149  52.101  -3.367  1.00  0.00    -0.361 OA
HETATM   47  H21 UNL     1      10.674  51.287  -3.400  1.00  0.00     0.217 HD
ENDBRANCH   9  46
BRANCH   1  48
HETATM   48  O1  UNL     1       2.075  54.566  -9.886  1.00  0.00    -0.345 OA
BRANCH  48  49
HETATM   49  C2  UNL     1       2.621  55.850  -9.675  1.00  0.00     0.438 C 
BRANCH  49  50
HETATM   50  N1  UNL     1       3.175  56.328 -10.921  1.00  0.00     0.102 N 
HETATM   51  C1  UNL     1       4.404  55.630 -11.265  1.00  0.00     0.309 C 
HETATM   52  H4  UNL     1       2.475  56.180 -11.644  1.00  0.00     0.318 HD
ENDBRANCH  49  50
ENDBRANCH  48  49
ENDBRANCH   1  48
BRANCH  34  53
HETATM   53  N3  UNL     1       0.330  55.635  -7.335  1.00  0.00     0.098 N 
HETATM   54  C44 UNL     1      -0.120  55.513  -5.955  1.00  0.00     0.308 C 
HETATM   55  H42 UNL     1       1.303  55.922  -7.329  1.00  0.00     0.317 HD
ENDBRANCH  34  53
BRANCH  16  56
HETATM   56  C27 UNL     1       8.315  48.889 -10.059  1.00  0.00     0.196 C 
BRANCH  56  57
HETATM   57  O4  UNL     1       8.727  48.663 -11.409  1.00  0.00    -0.398 OA
HETATM   58  H27 UNL     1       7.970  48.300 -11.895  1.00  0.00     0.209 HD
ENDBRANCH  56  57
ENDBRANCH  16  56
BRANCH  26  59
HETATM   59  O6  UNL     1      -1.968  52.279 -13.941  1.00  0.00    -0.358 OA
HETATM   60  H34 UNL     1      -2.860  52.038 -13.619  1.00  0.00     0.217 HD
ENDBRANCH  26  59
TORSDOF 10
ENDMDL
MODEL 7
REMARK minimizedAffinity -7.97060776
REMARK CNNscore 0.249904409
REMARK CNNaffinity 6.4186554
REMARK  10 active torsions:
REMARK  status: ('A' for Active; 'I' for Inactive)
REMARK    1  A    between atoms: N1_2  and  C2_3 
REMARK    2  A    between atoms: C2_3  and  O1_4 
REMARK    3  A    between atoms: O1_4  and  C3_5 
REMARK    4  A    between atoms: C8_10  and  C9_11 
REMARK    5  A    between atoms: C9_11  and  C10_12 
REMARK    6  A    between atoms: C20_24  and  O2_25 
REMARK    7  A    between atoms: C26_32  and  C27_33 
REMARK    8  A    between atoms: C27_33  and  O4_34 
REMARK    9  A    between atoms: C36_44  and  O6_45 
REMARK   10  A    between atoms: C43_53  and  N3_54 
ROOT
HETATM    1  C3  UNL     1      -5.008  48.636 -20.715  1.00  0.00     0.139 C 
HETATM    2  C4  UNL     1      -5.743  47.937 -21.899  1.00  0.00     0.086 C 
HETATM    3  C5  UNL     1      -5.990  46.460 -21.764  1.00  0.00    -0.014 C 
HETATM    4  C6  UNL     1      -6.828  45.761 -22.672  1.00  0.00    -0.034 C 
HETATM    5  C7  UNL     1      -7.416  46.453 -23.890  1.00  0.00     0.050 C 
HETATM    6  C8  UNL     1      -8.852  45.988 -24.188  1.00  0.00     0.028 C 
HETATM    7  C18 UNL     1      -8.844  44.480 -24.337  1.00  0.00    -0.040 A 
HETATM    8  C19 UNL     1      -9.673  43.881 -25.303  1.00  0.00     0.044 A 
HETATM    9  C20 UNL     1      -9.630  42.511 -25.504  1.00  0.00     0.066 A 
HETATM   10  C21 UNL     1      -8.765  41.721 -24.763  1.00  0.00     0.037 A 
HETATM   11  C22 UNL     1      -7.942  42.315 -23.797  1.00  0.00     0.015 A 
HETATM   12  C23 UNL     1      -7.974  43.698 -23.535  1.00  0.00    -0.016 A 
HETATM   13  C24 UNL     1      -7.109  44.372 -22.511  1.00  0.00     0.016 C 
HETATM   14  C25 UNL     1      -6.570  43.734 -21.372  1.00  0.00     0.090 C 
HETATM   15  O3  UNL     1      -6.942  42.434 -21.127  1.00  0.00    -0.342 OA
HETATM   16  C26 UNL     1      -6.709  41.941 -19.801  1.00  0.00     0.152 C 
HETATM   17  C28 UNL     1      -5.260  42.183 -19.413  1.00  0.00     0.039 C 
HETATM   18  C29 UNL     1      -5.022  43.684 -19.363  1.00  0.00     0.047 C 
HETATM   19  C30 UNL     1      -5.663  44.397 -20.528  1.00  0.00     0.010 C 
HETATM   20  C31 UNL     1      -5.370  45.751 -20.747  1.00  0.00     0.086 C 
HETATM   21  O5  UNL     1      -4.478  46.312 -19.887  1.00  0.00    -0.337 OA
HETATM   22  C32 UNL     1      -3.923  47.602 -20.215  1.00  0.00     0.200 C 
HETATM   23  C33 UNL     1      -3.181  48.003 -18.939  1.00  0.00    -0.023 C 
HETATM   24  C34 UNL     1      -1.914  48.595 -19.011  1.00  0.00     0.049 C 
HETATM   25  C35 UNL     1      -1.368  49.181 -17.871  1.00  0.00     0.102 C 
HETATM   26  C36 UNL     1      -1.962  48.982 -16.623  1.00  0.00     0.099 C 
HETATM   27  C37 UNL     1      -3.160  48.302 -16.510  1.00  0.00     0.040 C 
HETATM   28  C38 UNL     1      -3.785  47.851 -17.672  1.00  0.00     0.013 C 
HETATM   29  O7  UNL     1      -0.302  50.044 -17.907  1.00  0.00    -0.347 OA
HETATM   30  C39 UNL     1      -0.422  51.088 -18.904  1.00  0.00     0.188 C 
HETATM   31  C40 UNL     1      -1.706  51.948 -18.820  1.00  0.00     0.120 C 
HETATM   32  C41 UNL     1      -2.789  51.380 -19.648  1.00  0.00    -0.102 C 
HETATM   33  C42 UNL     1      -3.567  50.779 -20.345  1.00  0.00    -0.068 C 
HETATM   34  C43 UNL     1      -4.345  49.975 -21.314  1.00  0.00     0.336 C 
ENDROOT
BRANCH   6  35
HETATM   35  C9  UNL     1      -9.842  46.483 -23.110  1.00  0.00     0.048 C 
BRANCH  35  36
HETATM   36  C10 UNL     1     -11.258  46.627 -23.619  1.00  0.00    -0.057 A 
HETATM   37  C11 UNL     1     -12.318  46.566 -22.780  1.00  0.00     0.020 A 
HETATM   38  C12 UNL     1     -13.627  46.714 -23.318  1.00  0.00    -0.011 A 
HETATM   39  C13 UNL     1     -14.850  46.728 -22.797  1.00  0.00     0.006 A 
HETATM   40  C15 UNL     1     -13.874  46.895 -24.755  1.00  0.00     0.038 A 
HETATM   41  C14 UNL     1     -15.872  46.908 -23.870  1.00  0.00     0.148 A 
HETATM   42  N2  UNL     1     -15.111  46.998 -25.142  1.00  0.00    -0.386 N 
ATOM     43  H2  UNL     1     -15.472  47.112 -26.089  1.00  0.00     0.160 HD
HETATM   44  C16 UNL     1     -12.678  46.937 -25.618  1.00  0.00     0.030 A 
HETATM   45  C17 UNL     1     -11.463  46.815 -25.056  1.00  0.00     0.009 A 
ENDBRANCH  35  36
ENDBRANCH   6  35
BRANCH   9  46
HETATM   46  O2  UNL     1     -10.442  41.975 -26.457  1.00  0.00    -0.361 OA
HETATM   47  H21 UNL     1     -10.316  41.013 -26.462  1.00  0.00     0.217 HD
ENDBRANCH   9  46
BRANCH   1  48
HETATM   48  O1  UNL     1      -5.934  48.804 -19.617  1.00  0.00    -0.345 OA
BRANCH  48  49
HETATM   49  C2  UNL     1      -7.246  49.270 -19.844  1.00  0.00     0.438 C 
BRANCH  49  50
HETATM   50  N1  UNL     1      -8.170  48.428 -19.118  1.00  0.00     0.102 N 
HETATM   51  C1  UNL     1      -8.756  49.127 -17.986  1.00  0.00     0.309 C 
HETATM   52  H4  UNL     1      -8.898  48.142 -19.768  1.00  0.00     0.318 HD
ENDBRANCH  49  50
ENDBRANCH  48  49
ENDBRANCH   1  48
BRANCH  34  53
HETATM   53  N3  UNL     1      -5.273  50.850 -22.082  1.00  0.00     0.098 N 
HETATM   54  C44 UNL     1      -4.592  51.837 -22.909  1.00  0.00     0.308 C 
HETATM   55  H42 UNL     1      -5.871  50.291 -22.680  1.00  0.00     0.317 HD
ENDBRANCH  34  53
BRANCH  16  56
HETATM   56  C27 UNL     1      -7.025  40.440 -19.791  1.00  0.00     0.196 C 
BRANCH  56  57
HETATM   57  O4  UNL     1      -7.245  39.938 -21.112  1.00  0.00    -0.398 OA
HETATM   58  H27 UNL     1      -7.970  40.447 -21.507  1.00  0.00     0.209 HD
ENDBRANCH  56  57
ENDBRANCH  16  56
BRANCH  26  59
HETATM   59  O6  UNL     1      -1.407  49.508 -15.490  1.00  0.00    -0.358 OA
HETATM   60  H34 UNL     1      -0.568  49.914 -15.789  1.00  0.00     0.217 HD
ENDBRANCH  26  59
TORSDOF 10
ENDMDL
MODEL 8
REMARK minimizedAffinity -10.5198545
REMARK CNNscore 0.188109383
REMARK CNNaffinity 7.62120676
REMARK  10 active torsions:
REMARK  status: ('A' for Active; 'I' for Inactive)
REMARK    1  A    between atoms: N1_2  and  C2_3 
REMARK    2  A    between atoms: C2_3  and  O1_4 
REMARK    3  A    between atoms: O1_4  and  C3_5 
REMARK    4  A    between atoms: C8_10  and  C9_11 
REMARK    5  A    between atoms: C9_11  and  C10_12 
REMARK    6  A    between atoms: C20_24  and  O2_25 
REMARK    7  A    between atoms: C26_32  and  C27_33 
REMARK    8  A    between atoms: C27_33  and  O4_34 
REMARK    9  A    between atoms: C36_44  and  O6_45 
REMARK   10  A    between atoms: C43_53  and  N3_54 
ROOT
HETATM    1  C3  UNL     1      -5.546  48.744 -19.332  1.00  0.00     0.139 C 
HETATM    2  C4  UNL     1      -4.455  49.817 -19.035  1.00  0.00     0.086 C 
HETATM    3  C5  UNL     1      -3.379  49.434 -18.057  1.00  0.00    -0.014 C 
HETATM    4  C6  UNL     1      -2.226  50.240 -17.868  1.00  0.00    -0.034 C 
HETATM    5  C7  UNL     1      -2.087  51.586 -18.559  1.00  0.00     0.050 C 
HETATM    6  C8  UNL     1      -0.644  51.861 -19.016  1.00  0.00     0.028 C 
HETATM    7  C18 UNL     1       0.269  51.741 -17.812  1.00  0.00    -0.040 A 
HETATM    8  C19 UNL     1       1.359  52.621 -17.685  1.00  0.00     0.044 A 
HETATM    9  C20 UNL     1       2.164  52.575 -16.559  1.00  0.00     0.066 A 
HETATM   10  C21 UNL     1       1.898  51.669 -15.545  1.00  0.00     0.037 A 
HETATM   11  C22 UNL     1       0.816  50.788 -15.671  1.00  0.00     0.015 A 
HETATM   12  C23 UNL     1      -0.010  50.775 -16.811  1.00  0.00    -0.016 A 
HETATM   13  C24 UNL     1      -1.178  49.849 -16.983  1.00  0.00     0.016 C 
HETATM   14  C25 UNL     1      -1.304  48.593 -16.351  1.00  0.00     0.090 C 
HETATM   15  O3  UNL     1      -0.243  48.138 -15.606  1.00  0.00    -0.342 OA
HETATM   16  C26 UNL     1      -0.228  46.738 -15.303  1.00  0.00     0.152 C 
HETATM   17  C28 UNL     1      -1.554  46.334 -14.680  1.00  0.00     0.039 C 
HETATM   18  C29 UNL     1      -2.650  46.540 -15.712  1.00  0.00     0.047 C 
HETATM   19  C30 UNL     1      -2.486  47.840 -16.460  1.00  0.00     0.010 C 
HETATM   20  C31 UNL     1      -3.518  48.281 -17.300  1.00  0.00     0.086 C 
HETATM   21  O5  UNL     1      -4.627  47.495 -17.342  1.00  0.00    -0.337 OA
HETATM   22  C32 UNL     1      -5.822  48.021 -17.955  1.00  0.00     0.200 C 
HETATM   23  C33 UNL     1      -6.746  46.805 -18.032  1.00  0.00    -0.023 C 
HETATM   24  C34 UNL     1      -8.104  46.924 -17.713  1.00  0.00     0.049 C 
HETATM   25  C35 UNL     1      -8.974  45.882 -18.031  1.00  0.00     0.102 C 
HETATM   26  C36 UNL     1      -8.472  44.646 -18.444  1.00  0.00     0.099 C 
HETATM   27  C37 UNL     1      -7.118  44.468 -18.658  1.00  0.00     0.040 C 
HETATM   28  C38 UNL     1      -6.266  45.558 -18.491  1.00  0.00     0.013 C 
HETATM   29  O7  UNL     1     -10.339  46.023 -18.052  1.00  0.00    -0.347 OA
HETATM   30  C39 UNL     1     -10.799  47.192 -18.770  1.00  0.00     0.188 C 
HETATM   31  C40 UNL     1     -10.303  47.319 -20.231  1.00  0.00     0.120 C 
HETATM   32  C41 UNL     1      -9.039  48.081 -20.305  1.00  0.00    -0.102 C 
HETATM   33  C42 UNL     1      -8.009  48.695 -20.191  1.00  0.00    -0.068 C 
HETATM   34  C43 UNL     1      -6.836  49.540 -19.874  1.00  0.00     0.336 C 
ENDROOT
BRANCH   6  35
HETATM   35  C9  UNL     1      -0.233  50.933 -20.180  1.00  0.00     0.048 C 
BRANCH  35  36
HETATM   36  C10 UNL     1       0.013  51.671 -21.477  1.00  0.00    -0.057 A 
HETATM   37  C11 UNL     1      -0.504  51.231 -22.647  1.00  0.00     0.020 A 
HETATM   38  C12 UNL     1      -0.242  51.971 -23.833  1.00  0.00    -0.011 A 
HETATM   39  C13 UNL     1      -0.597  51.843 -25.107  1.00  0.00     0.006 A 
HETATM   40  C15 UNL     1       0.597  53.178 -23.842  1.00  0.00     0.038 A 
HETATM   41  C14 UNL     1       0.001  52.936 -25.929  1.00  0.00     0.148 A 
HETATM   42  N2  UNL     1       0.790  53.766 -24.985  1.00  0.00    -0.386 N 
ATOM     43  H2  UNL     1       1.348  54.596 -25.185  1.00  0.00     0.160 HD
HETATM   44  C16 UNL     1       1.144  53.597 -22.536  1.00  0.00     0.030 A 
HETATM   45  C17 UNL     1       0.847  52.874 -21.443  1.00  0.00     0.009 A 
ENDBRANCH  35  36
ENDBRANCH   6  35
BRANCH   9  46
HETATM   46  O2  UNL     1       3.201  53.454 -16.473  1.00  0.00    -0.361 OA
HETATM   47  H21 UNL     1       3.681  53.283 -15.648  1.00  0.00     0.217 HD
ENDBRANCH   9  46
BRANCH   1  48
HETATM   48  O1  UNL     1      -4.990  47.735 -20.208  1.00  0.00    -0.345 OA
BRANCH  48  49
HETATM   49  C2  UNL     1      -3.915  48.039 -21.069  1.00  0.00     0.438 C 
BRANCH  49  50
HETATM   50  N1  UNL     1      -2.827  47.129 -20.792  1.00  0.00     0.102 N 
HETATM   51  C1  UNL     1      -1.638  47.466 -21.558  1.00  0.00     0.309 C 
HETATM   52  H4  UNL     1      -2.629  47.184 -19.796  1.00  0.00     0.318 HD
ENDBRANCH  49  50
ENDBRANCH  48  49
ENDBRANCH   1  48
BRANCH  34  53
HETATM   53  N3  UNL     1      -6.570  50.491 -20.988  1.00  0.00     0.098 N 
HETATM   54  C44 UNL     1      -6.865  49.943 -22.305  1.00  0.00     0.308 C 
HETATM   55  H42 UNL     1      -7.114  51.338 -20.866  1.00  0.00     0.317 HD
ENDBRANCH  34  53
BRANCH  16  56
HETATM   56  C27 UNL     1       0.927  46.477 -14.326  1.00  0.00     0.196 C 
BRANCH  56  57
HETATM   57  O4  UNL     1       2.071  45.938 -14.993  1.00  0.00    -0.398 OA
HETATM   58  H27 UNL     1       1.798  45.122 -15.441  1.00  0.00     0.209 HD
ENDBRANCH  56  57
ENDBRANCH  16  56
BRANCH  26  59
HETATM   59  O6  UNL     1      -9.312  43.601 -18.707  1.00  0.00    -0.358 OA
HETATM   60  H34 UNL     1     -10.202  43.929 -18.465  1.00  0.00     0.217 HD
ENDBRANCH  26  59
TORSDOF 10
ENDMDL
MODEL 9
REMARK minimizedAffinity -8.73429966
REMARK CNNscore 0.184942067
REMARK CNNaffinity 6.14705467
REMARK  10 active torsions:
REMARK  status: ('A' for Active; 'I' for Inactive)
REMARK    1  A    between atoms: N1_2  and  C2_3 
REMARK    2  A    between atoms: C2_3  and  O1_4 
REMARK    3  A    between atoms: O1_4  and  C3_5 
REMARK    4  A    between atoms: C8_10  and  C9_11 
REMARK    5  A    between atoms: C9_11  and  C10_12 
REMARK    6  A    between atoms: C20_24  and  O2_25 
REMARK    7  A    between atoms: C26_32  and  C27_33 
REMARK    8  A    between atoms: C27_33  and  O4_34 
REMARK    9  A    between atoms: C36_44  and  O6_45 
REMARK   10  A    between atoms: C43_53  and  N3_54 
ROOT
HETATM    1  C3  UNL     1       0.725  54.560  -8.784  1.00  0.00     0.139 C 
HETATM    2  C4  UNL     1       1.380  55.820  -8.140  1.00  0.00     0.086 C 
HETATM    3  C5  UNL     1       0.996  56.130  -6.720  1.00  0.00    -0.014 C 
HETATM    4  C6  UNL     1       1.680  57.119  -5.965  1.00  0.00    -0.034 C 
HETATM    5  C7  UNL     1       2.751  57.990  -6.599  1.00  0.00     0.050 C 
HETATM    6  C8  UNL     1       3.921  58.267  -5.639  1.00  0.00     0.028 C 
HETATM    7  C18 UNL     1       3.362  58.882  -4.371  1.00  0.00    -0.040 A 
HETATM    8  C19 UNL     1       4.090  59.895  -3.720  1.00  0.00     0.044 A 
HETATM    9  C20 UNL     1       3.565  60.519  -2.600  1.00  0.00     0.066 A 
HETATM   10  C21 UNL     1       2.317  60.158  -2.118  1.00  0.00     0.037 A 
HETATM   11  C22 UNL     1       1.593  59.146  -2.761  1.00  0.00     0.015 A 
HETATM   12  C23 UNL     1       2.099  58.461  -3.882  1.00  0.00    -0.016 A 
HETATM   13  C24 UNL     1       1.355  57.374  -4.600  1.00  0.00     0.016 C 
HETATM   14  C25 UNL     1       0.366  56.555  -4.010  1.00  0.00     0.090 C 
HETATM   15  O3  UNL     1       0.139  56.693  -2.662  1.00  0.00    -0.342 OA
HETATM   16  C26 UNL     1      -0.563  55.620  -2.019  1.00  0.00     0.152 C 
HETATM   17  C28 UNL     1      -1.851  55.329  -2.770  1.00  0.00     0.039 C 
HETATM   18  C29 UNL     1      -1.493  54.836  -4.163  1.00  0.00     0.047 C 
HETATM   19  C30 UNL     1      -0.378  55.645  -4.780  1.00  0.00     0.010 C 
HETATM   20  C31 UNL     1      -0.065  55.457  -6.133  1.00  0.00     0.086 C 
HETATM   21  O5  UNL     1      -0.839  54.563  -6.804  1.00  0.00    -0.337 OA
HETATM   22  C32 UNL     1      -0.758  54.526  -8.244  1.00  0.00     0.200 C 
HETATM   23  C33 UNL     1      -1.556  53.273  -8.610  1.00  0.00    -0.023 C 
HETATM   24  C34 UNL     1      -2.442  53.288  -9.695  1.00  0.00     0.049 C 
HETATM   25  C35 UNL     1      -2.961  52.084 -10.169  1.00  0.00     0.102 C 
HETATM   26  C36 UNL     1      -2.792  50.907  -9.437  1.00  0.00     0.099 C 
HETATM   27  C37 UNL     1      -2.013  50.889  -8.296  1.00  0.00     0.040 C 
HETATM   28  C38 UNL     1      -1.365  52.062  -7.910  1.00  0.00     0.013 C 
HETATM   29  O7  UNL     1      -3.570  51.959 -11.392  1.00  0.00    -0.347 OA
HETATM   30  C39 UNL     1      -2.830  52.560 -12.483  1.00  0.00     0.188 C 
HETATM   31  C40 UNL     1      -1.369  52.077 -12.646  1.00  0.00     0.120 C 
HETATM   32  C41 UNL     1      -0.434  52.924 -11.877  1.00  0.00    -0.102 C 
HETATM   33  C42 UNL     1       0.187  53.689 -11.183  1.00  0.00    -0.068 C 
HETATM   34  C43 UNL     1       0.790  54.775 -10.378  1.00  0.00     0.336 C 
ENDROOT
BRANCH   6  35
HETATM   35  C9  UNL     1       4.751  56.991  -5.376  1.00  0.00     0.048 C 
BRANCH  35  36
HETATM   36  C10 UNL     1       6.237  57.255  -5.270  1.00  0.00    -0.057 A 
HETATM   37  C11 UNL     1       7.133  56.242  -5.258  1.00  0.00     0.020 A 
HETATM   38  C12 UNL     1       8.517  56.553  -5.161  1.00  0.00    -0.011 A 
HETATM   39  C13 UNL     1       9.634  55.833  -5.145  1.00  0.00     0.006 A 
HETATM   40  C15 UNL     1       9.010  57.932  -5.038  1.00  0.00     0.038 A 
HETATM   41  C14 UNL     1      10.827  56.719  -5.008  1.00  0.00     0.148 A 
HETATM   42  N2  UNL     1      10.295  58.103  -4.934  1.00  0.00    -0.386 N 
ATOM     43  H2  UNL     1      10.812  58.976  -4.826  1.00  0.00     0.160 HD
HETATM   44  C16 UNL     1       7.981  58.991  -5.041  1.00  0.00     0.030 A 
HETATM   45  C17 UNL     1       6.688  58.643  -5.158  1.00  0.00     0.009 A 
ENDBRANCH  35  36
ENDBRANCH   6  35
BRANCH   9  46
HETATM   46  O2  UNL     1       4.299  61.502  -2.009  1.00  0.00    -0.361 OA
HETATM   47  H21 UNL     1       3.815  61.822  -1.232  1.00  0.00     0.217 HD
ENDBRANCH   9  46
BRANCH   1  48
HETATM   48  O1  UNL     1       1.367  53.374  -8.261  1.00  0.00    -0.345 OA
BRANCH  48  49
HETATM   49  C2  UNL     1       2.180  52.570  -9.088  1.00  0.00     0.438 C 
BRANCH  49  50
HETATM   50  N1  UNL     1       3.505  52.506  -8.514  1.00  0.00     0.102 N 
HETATM   51  C1  UNL     1       4.534  52.472  -9.541  1.00  0.00     0.309 C 
HETATM   52  H4  UNL     1       3.624  53.328  -7.927  1.00  0.00     0.318 HD
ENDBRANCH  49  50
ENDBRANCH  48  49
ENDBRANCH   1  48
BRANCH  34  53
HETATM   53  N3  UNL     1       2.133  55.128 -10.914  1.00  0.00     0.098 N 
HETATM   54  C44 UNL     1       2.876  56.048 -10.064  1.00  0.00     0.308 C 
HETATM   55  H42 UNL     1       2.692  54.292 -11.044  1.00  0.00     0.317 HD
ENDBRANCH  34  53
BRANCH  16  56
HETATM   56  C27 UNL     1      -0.866  56.049  -0.578  1.00  0.00     0.196 C 
BRANCH  56  57
HETATM   57  O4  UNL     1      -2.232  55.808  -0.231  1.00  0.00    -0.398 OA
HETATM   58  H27 UNL     1      -2.790  56.286  -0.864  1.00  0.00     0.209 HD
ENDBRANCH  56  57
ENDBRANCH  16  56
BRANCH  26  59
HETATM   59  O6  UNL     1      -3.342  49.731  -9.865  1.00  0.00    -0.358 OA
HETATM   60  H34 UNL     1      -3.866  49.974 -10.655  1.00  0.00     0.217 HD
ENDBRANCH  26  59
TORSDOF 10
ENDMDL
