MODEL 1
REMARK minimizedAffinity -6.02888775
REMARK CNNscore 0.462775052
REMARK CNNaffinity 4.93563318
REMARK  8 active torsions:
REMARK  status: ('A' for Active; 'I' for Inactive)
REMARK    1  A    between atoms: C4_4  and  C5_5 
REMARK    2  A    between atoms: C5_5  and  C6_6 
REMARK    3  A    between atoms: C6_6  and  C7_7 
REMARK    4  A    between atoms: C7_7  and  C9_9 
REMARK    5  A    between atoms: C21_21  and  C22_22 
REMARK    6  A    between atoms: C22_22  and  C23_23 
REMARK    7  A    between atoms: C23_23  and  C24_24 
REMARK    8  A    between atoms: C24_24  and  O1_25 
ROOT
HETATM    1  C9  UNL     1      -6.445  -9.832   9.797  1.00  0.00    -0.002 C 
HETATM    2  C10 UNL     1      -7.275  -9.222   8.621  1.00  0.00     0.006 C 
HETATM    3  C11 UNL     1      -8.717  -9.021   9.142  1.00  0.00     0.011 C 
HETATM    4  C12 UNL     1      -8.769  -9.837  10.448  1.00  0.00    -0.032 C 
HETATM    5  C13 UNL     1      -8.969 -11.323   9.995  1.00  0.00     0.016 C 
HETATM    6  C14 UNL     1      -9.853  -9.401  11.472  1.00  0.00     0.003 C 
HETATM    7  C15 UNL     1     -11.306  -9.423  10.945  1.00  0.00     0.010 C 
HETATM    8  C16 UNL     1     -12.346  -9.202  12.048  1.00  0.00     0.035 C 
HETATM    9  C17 UNL     1     -11.765  -8.427  13.210  1.00  0.00    -0.073 C 
HETATM   10  C18 UNL     1     -12.201  -7.186  13.552  1.00  0.00    -0.085 C 
HETATM   11  C19 UNL     1     -11.641  -6.353  14.679  1.00  0.00     0.043 C 
HETATM   12  C20 UNL     1     -13.323  -6.494  12.813  1.00  0.00     0.043 C 
HETATM   13  C21 UNL     1     -10.587  -9.150  13.905  1.00  0.00     0.023 C 
HETATM   14  C25 UNL     1      -9.724 -10.066  12.904  1.00  0.00    -0.032 C 
HETATM   15  C26 UNL     1     -10.217 -11.537  12.912  1.00  0.00     0.016 C 
HETATM   16  C27 UNL     1      -8.222 -10.090  13.375  1.00  0.00     0.011 C 
HETATM   17  C28 UNL     1      -7.149 -10.387  12.301  1.00  0.00     0.011 C 
HETATM   18  C29 UNL     1      -7.334  -9.524  11.042  1.00  0.00    -0.032 C 
HETATM   19  C30 UNL     1      -7.116  -8.039  11.466  1.00  0.00     0.016 C 
ENDROOT
BRANCH   1  20
HETATM   20  C7  UNL     1      -4.919  -9.510   9.725  1.00  0.00    -0.014 C 
HETATM   21  C8  UNL     1      -4.136  -9.600  11.039  1.00  0.00     0.010 C 
BRANCH  20  22
HETATM   22  C6  UNL     1      -4.233 -10.315   8.592  1.00  0.00     0.008 C 
BRANCH  22  23
HETATM   23  C5  UNL     1      -3.879  -9.507   7.331  1.00  0.00     0.028 C 
BRANCH  23  24
HETATM   24  C4  UNL     1      -4.621  -9.948   6.100  1.00  0.00    -0.025 C 
HETATM   25  C2  UNL     1      -4.142 -10.082   4.847  1.00  0.00    -0.091 C 
HETATM   26  C1  UNL     1      -5.030 -10.579   3.737  1.00  0.00     0.042 C 
HETATM   27  C3  UNL     1      -2.732  -9.780   4.425  1.00  0.00     0.042 C 
ENDBRANCH  23  24
ENDBRANCH  22  23
ENDBRANCH  20  22
ENDBRANCH   1  20
BRANCH  13  28
HETATM   28  C22 UNL     1     -11.130  -9.809  15.202  1.00  0.00     0.012 C 
BRANCH  28  29
HETATM   29  C23 UNL     1     -10.138  -9.841  16.369  1.00  0.00     0.027 C 
BRANCH  29  30
HETATM   30  C24 UNL     1     -10.475  -8.820  17.455  1.00  0.00     0.164 C 
BRANCH  30  31
HETATM   31  O1  UNL     1      -9.376  -7.953  17.701  1.00  0.00    -0.401 OA
HETATM   32  H42 UNL     1      -9.323  -7.327  16.959  1.00  0.00     0.209 HD
ENDBRANCH  30  31
ENDBRANCH  29  30
ENDBRANCH  28  29
ENDBRANCH  13  28
TORSDOF 8
ENDMDL
MODEL 2
REMARK minimizedAffinity -7.62066317
REMARK CNNscore 0.445441425
REMARK CNNaffinity 7.1217494
REMARK  8 active torsions:
REMARK  status: ('A' for Active; 'I' for Inactive)
REMARK    1  A    between atoms: C4_4  and  C5_5 
REMARK    2  A    between atoms: C5_5  and  C6_6 
REMARK    3  A    between atoms: C6_6  and  C7_7 
REMARK    4  A    between atoms: C7_7  and  C9_9 
REMARK    5  A    between atoms: C21_21  and  C22_22 
REMARK    6  A    between atoms: C22_22  and  C23_23 
REMARK    7  A    between atoms: C23_23  and  C24_24 
REMARK    8  A    between atoms: C24_24  and  O1_25 
ROOT
HETATM    1  C9  UNL     1      -5.767   6.735  14.707  1.00  0.00    -0.002 C 
HETATM    2  C10 UNL     1      -6.166   7.819  13.654  1.00  0.00     0.006 C 
HETATM    3  C11 UNL     1      -4.852   8.393  13.076  1.00  0.00     0.011 C 
HETATM    4  C12 UNL     1      -3.760   7.902  14.047  1.00  0.00    -0.032 C 
HETATM    5  C13 UNL     1      -3.835   8.875  15.272  1.00  0.00     0.016 C 
HETATM    6  C14 UNL     1      -2.322   7.827  13.463  1.00  0.00     0.003 C 
HETATM    7  C15 UNL     1      -1.769   9.156  12.901  1.00  0.00     0.010 C 
HETATM    8  C16 UNL     1      -0.280   9.081  12.544  1.00  0.00     0.035 C 
HETATM    9  C17 UNL     1       0.143   7.663  12.231  1.00  0.00    -0.073 C 
HETATM   10  C18 UNL     1       0.572   7.283  10.998  1.00  0.00    -0.085 C 
HETATM   11  C19 UNL     1       0.977   5.880  10.619  1.00  0.00     0.043 C 
HETATM   12  C20 UNL     1       0.684   8.258   9.848  1.00  0.00     0.043 C 
HETATM   13  C21 UNL     1      -0.036   6.689  13.420  1.00  0.00     0.023 C 
HETATM   14  C25 UNL     1      -1.269   7.077  14.378  1.00  0.00    -0.032 C 
HETATM   15  C26 UNL     1      -0.806   7.951  15.574  1.00  0.00     0.016 C 
HETATM   16  C27 UNL     1      -1.892   5.768  14.989  1.00  0.00     0.011 C 
HETATM   17  C28 UNL     1      -3.373   5.830  15.432  1.00  0.00     0.011 C 
HETATM   18  C29 UNL     1      -4.279   6.435  14.347  1.00  0.00    -0.032 C 
HETATM   19  C30 UNL     1      -4.238   5.469  13.123  1.00  0.00     0.016 C 
ENDROOT
BRANCH   1  20
HETATM   20  C7  UNL     1      -6.847   5.626  14.910  1.00  0.00    -0.014 C 
HETATM   21  C8  UNL     1      -7.891   5.875  16.003  1.00  0.00     0.010 C 
BRANCH  20  22
HETATM   22  C6  UNL     1      -7.509   5.240  13.563  1.00  0.00     0.008 C 
BRANCH  22  23
HETATM   23  C5  UNL     1      -8.543   6.246  13.026  1.00  0.00     0.028 C 
BRANCH  23  24
HETATM   24  C4  UNL     1      -9.827   6.272  13.807  1.00  0.00    -0.025 C 
HETATM   25  C2  UNL     1     -10.974   6.907  13.494  1.00  0.00    -0.091 C 
HETATM   26  C1  UNL     1     -12.183   6.787  14.385  1.00  0.00     0.042 C 
HETATM   27  C3  UNL     1     -11.184   7.761  12.275  1.00  0.00     0.042 C 
ENDBRANCH  23  24
ENDBRANCH  22  23
ENDBRANCH  20  22
ENDBRANCH   1  20
BRANCH  13  28
HETATM   28  C22 UNL     1       1.353   6.480  14.079  1.00  0.00     0.012 C 
BRANCH  28  29
HETATM   29  C23 UNL     1       2.182   7.759  14.247  1.00  0.00     0.027 C 
BRANCH  29  30
HETATM   30  C24 UNL     1       3.128   7.692  15.445  1.00  0.00     0.164 C 
BRANCH  30  31
HETATM   31  O1  UNL     1       3.276   8.969  16.051  1.00  0.00    -0.401 OA
HETATM   32  H42 UNL     1       2.463   9.155  16.550  1.00  0.00     0.209 HD
ENDBRANCH  30  31
ENDBRANCH  29  30
ENDBRANCH  28  29
ENDBRANCH  13  28
TORSDOF 8
ENDMDL
MODEL 3
REMARK minimizedAffinity -5.7022438
REMARK CNNscore 0.407264829
REMARK CNNaffinity 6.16443968
REMARK  8 active torsions:
REMARK  status: ('A' for Active; 'I' for Inactive)
REMARK    1  A    between atoms: C4_4  and  C5_5 
REMARK    2  A    between atoms: C5_5  and  C6_6 
REMARK    3  A    between atoms: C6_6  and  C7_7 
REMARK    4  A    between atoms: C7_7  and  C9_9 
REMARK    5  A    between atoms: C21_21  and  C22_22 
REMARK    6  A    between atoms: C22_22  and  C23_23 
REMARK    7  A    between atoms: C23_23  and  C24_24 
REMARK    8  A    between atoms: C24_24  and  O1_25 
ROOT
HETATM    1  C9  UNL     1     -13.965   2.930  24.830  1.00  0.00    -0.002 C 
HETATM    2  C10 UNL     1     -15.328   2.167  24.863  1.00  0.00     0.006 C 
HETATM    3  C11 UNL     1     -16.346   3.024  24.075  1.00  0.00     0.011 C 
HETATM    4  C12 UNL     1     -15.658   4.395  23.927  1.00  0.00    -0.032 C 
HETATM    5  C13 UNL     1     -15.875   5.113  25.302  1.00  0.00     0.016 C 
HETATM    6  C14 UNL     1     -16.148   5.271  22.741  1.00  0.00     0.003 C 
HETATM    7  C15 UNL     1     -17.659   5.597  22.742  1.00  0.00     0.010 C 
HETATM    8  C16 UNL     1     -18.047   6.638  21.687  1.00  0.00     0.035 C 
HETATM    9  C17 UNL     1     -17.071   6.646  20.532  1.00  0.00    -0.073 C 
HETATM   10  C18 UNL     1     -17.429   6.294  19.269  1.00  0.00    -0.085 C 
HETATM   11  C19 UNL     1     -16.493   6.254  18.084  1.00  0.00     0.043 C 
HETATM   12  C20 UNL     1     -18.842   5.891  18.914  1.00  0.00     0.043 C 
HETATM   13  C21 UNL     1     -15.627   7.014  20.948  1.00  0.00     0.023 C 
HETATM   14  C25 UNL     1     -15.259   6.549  22.444  1.00  0.00    -0.032 C 
HETATM   15  C26 UNL     1     -15.507   7.686  23.470  1.00  0.00     0.016 C 
HETATM   16  C27 UNL     1     -13.728   6.194  22.523  1.00  0.00     0.011 C 
HETATM   17  C28 UNL     1     -13.288   5.204  23.627  1.00  0.00     0.011 C 
HETATM   18  C29 UNL     1     -14.164   3.941  23.658  1.00  0.00    -0.032 C 
HETATM   19  C30 UNL     1     -13.945   3.197  22.305  1.00  0.00     0.016 C 
ENDROOT
BRANCH   1  20
HETATM   20  C7  UNL     1     -12.719   2.001  24.966  1.00  0.00    -0.014 C 
HETATM   21  C8  UNL     1     -11.442   2.454  24.249  1.00  0.00     0.010 C 
BRANCH  20  22
HETATM   22  C6  UNL     1     -12.447   1.647  26.450  1.00  0.00     0.008 C 
BRANCH  22  23
HETATM   23  C5  UNL     1     -12.887   2.710  27.472  1.00  0.00     0.028 C 
BRANCH  23  24
HETATM   24  C4  UNL     1     -12.488   2.394  28.887  1.00  0.00    -0.025 C 
HETATM   25  C2  UNL     1     -12.654   3.159  29.985  1.00  0.00    -0.091 C 
HETATM   26  C1  UNL     1     -12.224   2.658  31.338  1.00  0.00     0.042 C 
HETATM   27  C3  UNL     1     -13.268   4.530  29.997  1.00  0.00     0.042 C 
ENDBRANCH  23  24
ENDBRANCH  22  23
ENDBRANCH  20  22
ENDBRANCH   1  20
BRANCH  13  28
HETATM   28  C22 UNL     1     -15.386   8.501  20.575  1.00  0.00     0.012 C 
BRANCH  28  29
HETATM   29  C23 UNL     1     -13.928   8.856  20.262  1.00  0.00     0.027 C 
BRANCH  29  30
HETATM   30  C24 UNL     1     -13.749   9.416  18.852  1.00  0.00     0.164 C 
BRANCH  30  31
HETATM   31  O1  UNL     1     -13.759   8.375  17.884  1.00  0.00    -0.401 OA
HETATM   32  H42 UNL     1     -14.680   8.079  17.780  1.00  0.00     0.209 HD
ENDBRANCH  30  31
ENDBRANCH  29  30
ENDBRANCH  28  29
ENDBRANCH  13  28
TORSDOF 8
ENDMDL
MODEL 4
REMARK minimizedAffinity -7.43477058
REMARK CNNscore 0.387975752
REMARK CNNaffinity 6.7481904
REMARK  8 active torsions:
REMARK  status: ('A' for Active; 'I' for Inactive)
REMARK    1  A    between atoms: C4_4  and  C5_5 
REMARK    2  A    between atoms: C5_5  and  C6_6 
REMARK    3  A    between atoms: C6_6  and  C7_7 
REMARK    4  A    between atoms: C7_7  and  C9_9 
REMARK    5  A    between atoms: C21_21  and  C22_22 
REMARK    6  A    between atoms: C22_22  and  C23_23 
REMARK    7  A    between atoms: C23_23  and  C24_24 
REMARK    8  A    between atoms: C24_24  and  O1_25 
ROOT
HETATM    1  C9  UNL     1      -1.747   6.966  13.808  1.00  0.00    -0.002 C 
HETATM    2  C10 UNL     1      -2.755   7.441  12.712  1.00  0.00     0.006 C 
HETATM    3  C11 UNL     1      -1.922   7.811  11.462  1.00  0.00     0.011 C 
HETATM    4  C12 UNL     1      -0.472   7.887  11.977  1.00  0.00    -0.032 C 
HETATM    5  C13 UNL     1      -0.355   9.289  12.666  1.00  0.00     0.016 C 
HETATM    6  C14 UNL     1       0.635   7.683  10.906  1.00  0.00     0.003 C 
HETATM    7  C15 UNL     1       0.595   8.672   9.719  1.00  0.00     0.010 C 
HETATM    8  C16 UNL     1       1.828   8.572   8.814  1.00  0.00     0.035 C 
HETATM    9  C17 UNL     1       2.461   7.201   8.892  1.00  0.00    -0.073 C 
HETATM   10  C18 UNL     1       2.509   6.356   7.828  1.00  0.00    -0.085 C 
HETATM   11  C19 UNL     1       3.100   4.967   7.854  1.00  0.00     0.043 C 
HETATM   12  C20 UNL     1       1.955   6.733   6.473  1.00  0.00     0.043 C 
HETATM   13  C21 UNL     1       2.969   6.835  10.307  1.00  0.00     0.023 C 
HETATM   14  C25 UNL     1       2.098   7.501  11.485  1.00  0.00    -0.032 C 
HETATM   15  C26 UNL     1       2.713   8.845  11.956  1.00  0.00     0.016 C 
HETATM   16  C27 UNL     1       2.088   6.545  12.736  1.00  0.00     0.011 C 
HETATM   17  C28 UNL     1       0.896   6.673  13.713  1.00  0.00     0.011 C 
HETATM   18  C29 UNL     1      -0.458   6.663  12.983  1.00  0.00    -0.032 C 
HETATM   19  C30 UNL     1      -0.605   5.265  12.307  1.00  0.00     0.016 C 
ENDROOT
BRANCH   1  20
HETATM   20  C7  UNL     1      -2.362   5.973  14.843  1.00  0.00    -0.014 C 
HETATM   21  C8  UNL     1      -3.429   6.539  15.787  1.00  0.00     0.010 C 
BRANCH  20  22
HETATM   22  C6  UNL     1      -2.842   4.672  14.150  1.00  0.00     0.008 C 
BRANCH  22  23
HETATM   23  C5  UNL     1      -4.259   4.730  13.552  1.00  0.00     0.028 C 
BRANCH  23  24
HETATM   24  C4  UNL     1      -4.504   3.710  12.474  1.00  0.00    -0.025 C 
HETATM   25  C2  UNL     1      -5.678   3.156  12.109  1.00  0.00    -0.091 C 
HETATM   26  C1  UNL     1      -5.739   2.173  10.970  1.00  0.00     0.042 C 
HETATM   27  C3  UNL     1      -7.005   3.443  12.753  1.00  0.00     0.042 C 
ENDBRANCH  23  24
ENDBRANCH  22  23
ENDBRANCH  20  22
ENDBRANCH   1  20
BRANCH  13  28
HETATM   28  C22 UNL     1       4.506   7.052  10.334  1.00  0.00     0.012 C 
BRANCH  28  29
HETATM   29  C23 UNL     1       5.198   6.579  11.618  1.00  0.00     0.027 C 
BRANCH  29  30
HETATM   30  C24 UNL     1       6.545   5.912  11.347  1.00  0.00     0.164 C 
BRANCH  30  31
HETATM   31  O1  UNL     1       6.420   4.884  10.374  1.00  0.00    -0.401 OA
HETATM   32  H42 UNL     1       6.321   5.311   9.506  1.00  0.00     0.209 HD
ENDBRANCH  30  31
ENDBRANCH  29  30
ENDBRANCH  28  29
ENDBRANCH  13  28
TORSDOF 8
ENDMDL
MODEL 5
REMARK minimizedAffinity -6.56169224
REMARK CNNscore 0.334910601
REMARK CNNaffinity 6.52101088
REMARK  8 active torsions:
REMARK  status: ('A' for Active; 'I' for Inactive)
REMARK    1  A    between atoms: C4_4  and  C5_5 
REMARK    2  A    between atoms: C5_5  and  C6_6 
REMARK    3  A    between atoms: C6_6  and  C7_7 
REMARK    4  A    between atoms: C7_7  and  C9_9 
REMARK    5  A    between atoms: C21_21  and  C22_22 
REMARK    6  A    between atoms: C22_22  and  C23_23 
REMARK    7  A    between atoms: C23_23  and  C24_24 
REMARK    8  A    between atoms: C24_24  and  O1_25 
ROOT
HETATM    1  C9  UNL     1       0.808   6.951  12.008  1.00  0.00    -0.002 C 
HETATM    2  C10 UNL     1       0.007   7.639  10.856  1.00  0.00     0.006 C 
HETATM    3  C11 UNL     1      -1.053   8.548  11.522  1.00  0.00     0.011 C 
HETATM    4  C12 UNL     1      -1.078   8.091  12.993  1.00  0.00    -0.032 C 
HETATM    5  C13 UNL     1      -1.952   6.791  13.003  1.00  0.00     0.016 C 
HETATM    6  C14 UNL     1      -1.599   9.138  14.015  1.00  0.00     0.003 C 
HETATM    7  C15 UNL     1      -3.029   9.664  13.751  1.00  0.00     0.010 C 
HETATM    8  C16 UNL     1      -3.575  10.517  14.900  1.00  0.00     0.035 C 
HETATM    9  C17 UNL     1      -2.458  11.152  15.697  1.00  0.00    -0.073 C 
HETATM   10  C18 UNL     1      -2.270  12.498  15.749  1.00  0.00    -0.085 C 
HETATM   11  C19 UNL     1      -1.157  13.186  16.502  1.00  0.00     0.043 C 
HETATM   12  C20 UNL     1      -3.183  13.467  15.034  1.00  0.00     0.043 C 
HETATM   13  C21 UNL     1      -1.518  10.123  16.370  1.00  0.00     0.023 C 
HETATM   14  C25 UNL     1      -1.373   8.755  15.536  1.00  0.00    -0.032 C 
HETATM   15  C26 UNL     1      -2.381   7.682  16.025  1.00  0.00     0.016 C 
HETATM   16  C27 UNL     1       0.066   8.157  15.753  1.00  0.00     0.011 C 
HETATM   17  C28 UNL     1       0.619   7.228  14.647  1.00  0.00     0.011 C 
HETATM   18  C29 UNL     1       0.466   7.839  13.244  1.00  0.00    -0.032 C 
HETATM   19  C30 UNL     1       1.348   9.125  13.204  1.00  0.00     0.016 C 
ENDROOT
BRANCH   1  20
HETATM   20  C7  UNL     1       2.262   6.547  11.611  1.00  0.00    -0.014 C 
HETATM   21  C8  UNL     1       2.423   5.236  10.834  1.00  0.00     0.010 C 
BRANCH  20  22
HETATM   22  C6  UNL     1       2.996   7.720  10.912  1.00  0.00     0.008 C 
BRANCH  22  23
HETATM   23  C5  UNL     1       3.605   7.391   9.538  1.00  0.00     0.028 C 
BRANCH  23  24
HETATM   24  C4  UNL     1       2.697   7.705   8.381  1.00  0.00    -0.025 C 
HETATM   25  C2  UNL     1       2.342   6.897   7.363  1.00  0.00    -0.091 C 
HETATM   26  C1  UNL     1       1.383   7.374   6.305  1.00  0.00     0.042 C 
HETATM   27  C3  UNL     1       2.825   5.486   7.171  1.00  0.00     0.042 C 
ENDBRANCH  23  24
ENDBRANCH  22  23
ENDBRANCH  20  22
ENDBRANCH   1  20
BRANCH  13  28
HETATM   28  C22 UNL     1      -1.919  10.019  17.866  1.00  0.00     0.012 C 
BRANCH  28  29
HETATM   29  C23 UNL     1      -3.362  10.434  18.174  1.00  0.00     0.027 C 
BRANCH  29  30
HETATM   30  C24 UNL     1      -3.440  11.680  19.055  1.00  0.00     0.164 C 
BRANCH  30  31
HETATM   31  O1  UNL     1      -4.424  12.585  18.574  1.00  0.00    -0.401 OA
HETATM   32  H42 UNL     1      -5.296  12.221  18.803  1.00  0.00     0.209 HD
ENDBRANCH  30  31
ENDBRANCH  29  30
ENDBRANCH  28  29
ENDBRANCH  13  28
TORSDOF 8
ENDMDL
MODEL 6
REMARK minimizedAffinity -7.19955635
REMARK CNNscore 0.301543891
REMARK CNNaffinity 6.93278122
REMARK  8 active torsions:
REMARK  status: ('A' for Active; 'I' for Inactive)
REMARK    1  A    between atoms: C4_4  and  C5_5 
REMARK    2  A    between atoms: C5_5  and  C6_6 
REMARK    3  A    between atoms: C6_6  and  C7_7 
REMARK    4  A    between atoms: C7_7  and  C9_9 
REMARK    5  A    between atoms: C21_21  and  C22_22 
REMARK    6  A    between atoms: C22_22  and  C23_23 
REMARK    7  A    between atoms: C23_23  and  C24_24 
REMARK    8  A    between atoms: C24_24  and  O1_25 
ROOT
HETATM    1  C9  UNL     1      -0.097   7.223  13.204  1.00  0.00    -0.002 C 
HETATM    2  C10 UNL     1       0.131   5.865  13.944  1.00  0.00     0.006 C 
HETATM    3  C11 UNL     1      -1.209   5.489  14.619  1.00  0.00     0.011 C 
HETATM    4  C12 UNL     1      -2.045   6.782  14.559  1.00  0.00    -0.032 C 
HETATM    5  C13 UNL     1      -1.514   7.666  15.739  1.00  0.00     0.016 C 
HETATM    6  C14 UNL     1      -3.585   6.594  14.633  1.00  0.00     0.003 C 
HETATM    7  C15 UNL     1      -4.100   5.860  15.892  1.00  0.00     0.010 C 
HETATM    8  C16 UNL     1      -5.626   5.898  16.024  1.00  0.00     0.035 C 
HETATM    9  C17 UNL     1      -6.294   6.065  14.677  1.00  0.00    -0.073 C 
HETATM   10  C18 UNL     1      -7.090   5.107  14.131  1.00  0.00    -0.085 C 
HETATM   11  C19 UNL     1      -7.757   5.204  12.781  1.00  0.00     0.043 C 
HETATM   12  C20 UNL     1      -7.390   3.807  14.843  1.00  0.00     0.043 C 
HETATM   13  C21 UNL     1      -5.919   7.385  13.963  1.00  0.00     0.023 C 
HETATM   14  C25 UNL     1      -4.432   7.893  14.307  1.00  0.00    -0.032 C 
HETATM   15  C26 UNL     1      -4.435   8.901  15.487  1.00  0.00     0.016 C 
HETATM   16  C27 UNL     1      -3.834   8.651  13.065  1.00  0.00     0.011 C 
HETATM   17  C28 UNL     1      -2.293   8.700  12.940  1.00  0.00     0.011 C 
HETATM   18  C29 UNL     1      -1.652   7.314  13.119  1.00  0.00    -0.032 C 
HETATM   19  C30 UNL     1      -2.148   6.422  11.940  1.00  0.00     0.016 C 
ENDROOT
BRANCH   1  20
HETATM   20  C7  UNL     1       0.848   7.440  11.981  1.00  0.00    -0.014 C 
HETATM   21  C8  UNL     1       2.154   6.637  11.971  1.00  0.00     0.010 C 
BRANCH  20  22
HETATM   22  C6  UNL     1       0.075   7.292  10.646  1.00  0.00     0.008 C 
BRANCH  22  23
HETATM   23  C5  UNL     1       0.220   8.471   9.667  1.00  0.00     0.028 C 
BRANCH  23  24
HETATM   24  C4  UNL     1       0.513   8.053   8.253  1.00  0.00    -0.025 C 
HETATM   25  C2  UNL     1       1.704   7.722   7.717  1.00  0.00    -0.091 C 
HETATM   26  C1  UNL     1       1.801   7.286   6.278  1.00  0.00     0.042 C 
HETATM   27  C3  UNL     1       3.015   7.734   8.451  1.00  0.00     0.042 C 
ENDBRANCH  23  24
ENDBRANCH  22  23
ENDBRANCH  20  22
ENDBRANCH   1  20
BRANCH  13  28
HETATM   28  C22 UNL     1      -7.089   8.385  14.163  1.00  0.00     0.012 C 
BRANCH  28  29
HETATM   29  C23 UNL     1      -7.857   8.218  15.479  1.00  0.00     0.027 C 
BRANCH  29  30
HETATM   30  C24 UNL     1      -9.355   8.472  15.322  1.00  0.00     0.164 C 
BRANCH  30  31
HETATM   31  O1  UNL     1      -9.688   9.805  15.684  1.00  0.00    -0.401 OA
HETATM   32  H42 UNL     1      -9.390  10.389  14.966  1.00  0.00     0.209 HD
ENDBRANCH  30  31
ENDBRANCH  29  30
ENDBRANCH  28  29
ENDBRANCH  13  28
TORSDOF 8
ENDMDL
MODEL 7
REMARK minimizedAffinity -5.77871656
REMARK CNNscore 0.275658518
REMARK CNNaffinity 6.67414474
REMARK  8 active torsions:
REMARK  status: ('A' for Active; 'I' for Inactive)
REMARK    1  A    between atoms: C4_4  and  C5_5 
REMARK    2  A    between atoms: C5_5  and  C6_6 
REMARK    3  A    between atoms: C6_6  and  C7_7 
REMARK    4  A    between atoms: C7_7  and  C9_9 
REMARK    5  A    between atoms: C21_21  and  C22_22 
REMARK    6  A    between atoms: C22_22  and  C23_23 
REMARK    7  A    between atoms: C23_23  and  C24_24 
REMARK    8  A    between atoms: C24_24  and  O1_25 
ROOT
HETATM    1  C9  UNL     1      -9.785   7.010  14.608  1.00  0.00    -0.002 C 
HETATM    2  C10 UNL     1     -10.390   7.245  13.186  1.00  0.00     0.006 C 
HETATM    3  C11 UNL     1     -11.382   8.426  13.306  1.00  0.00     0.011 C 
HETATM    4  C12 UNL     1     -11.591   8.597  14.823  1.00  0.00    -0.032 C 
HETATM    5  C13 UNL     1     -12.619   7.484  15.222  1.00  0.00     0.016 C 
HETATM    6  C14 UNL     1     -12.063  10.003  15.284  1.00  0.00     0.003 C 
HETATM    7  C15 UNL     1     -13.387  10.494  14.655  1.00  0.00     0.010 C 
HETATM    8  C16 UNL     1     -13.919  11.776  15.304  1.00  0.00     0.035 C 
HETATM    9  C17 UNL     1     -12.804  12.583  15.930  1.00  0.00    -0.073 C 
HETATM   10  C18 UNL     1     -12.454  13.818  15.481  1.00  0.00    -0.085 C 
HETATM   11  C19 UNL     1     -11.333  14.657  16.045  1.00  0.00     0.043 C 
HETATM   12  C20 UNL     1     -13.173  14.493  14.336  1.00  0.00     0.043 C 
HETATM   13  C21 UNL     1     -12.063  11.835  17.063  1.00  0.00     0.023 C 
HETATM   14  C25 UNL     1     -12.019  10.241  16.850  1.00  0.00    -0.032 C 
HETATM   15  C26 UNL     1     -13.192   9.538  17.582  1.00  0.00     0.016 C 
HETATM   16  C27 UNL     1     -10.690   9.664  17.465  1.00  0.00     0.011 C 
HETATM   17  C28 UNL     1     -10.165   8.330  16.886  1.00  0.00     0.011 C 
HETATM   18  C29 UNL     1     -10.118   8.342  15.349  1.00  0.00    -0.032 C 
HETATM   19  C30 UNL     1      -9.082   9.429  14.929  1.00  0.00     0.016 C 
ENDROOT
BRANCH   1  20
HETATM   20  C7  UNL     1      -8.364   6.365  14.589  1.00  0.00    -0.014 C 
HETATM   21  C8  UNL     1      -7.860   5.776  15.911  1.00  0.00     0.010 C 
BRANCH  20  22
HETATM   22  C6  UNL     1      -8.225   5.355  13.422  1.00  0.00     0.008 C 
BRANCH  22  23
HETATM   23  C5  UNL     1      -7.500   4.043  13.770  1.00  0.00     0.028 C 
BRANCH  23  24
HETATM   24  C4  UNL     1      -6.513   3.599  12.726  1.00  0.00    -0.025 C 
HETATM   25  C2  UNL     1      -5.245   4.023  12.551  1.00  0.00    -0.091 C 
HETATM   26  C1  UNL     1      -4.383   3.431  11.467  1.00  0.00     0.042 C 
HETATM   27  C3  UNL     1      -4.564   5.074  13.381  1.00  0.00     0.042 C 
ENDBRANCH  23  24
ENDBRANCH  22  23
ENDBRANCH  20  22
ENDBRANCH   1  20
BRANCH  13  28
HETATM   28  C22 UNL     1     -12.601  12.368  18.418  1.00  0.00     0.012 C 
BRANCH  28  29
HETATM   29  C23 UNL     1     -11.523  12.641  19.474  1.00  0.00     0.027 C 
BRANCH  29  30
HETATM   30  C24 UNL     1     -11.554  11.631  20.620  1.00  0.00     0.164 C 
BRANCH  30  31
HETATM   31  O1  UNL     1     -11.154  12.234  21.843  1.00  0.00    -0.401 OA
HETATM   32  H42 UNL     1     -11.890  12.790  22.152  1.00  0.00     0.209 HD
ENDBRANCH  30  31
ENDBRANCH  29  30
ENDBRANCH  28  29
ENDBRANCH  13  28
TORSDOF 8
ENDMDL
MODEL 8
REMARK minimizedAffinity -6.23650026
REMARK CNNscore 0.263689935
REMARK CNNaffinity 6.29312658
REMARK  8 active torsions:
REMARK  status: ('A' for Active; 'I' for Inactive)
REMARK    1  A    between atoms: C4_4  and  C5_5 
REMARK    2  A    between atoms: C5_5  and  C6_6 
REMARK    3  A    between atoms: C6_6  and  C7_7 
REMARK    4  A    between atoms: C7_7  and  C9_9 
REMARK    5  A    between atoms: C21_21  and  C22_22 
REMARK    6  A    between atoms: C22_22  and  C23_23 
REMARK    7  A    between atoms: C23_23  and  C24_24 
REMARK    8  A    between atoms: C24_24  and  O1_25 
ROOT
HETATM    1  C9  UNL     1       3.055   8.445  13.061  1.00  0.00    -0.002 C 
HETATM    2  C10 UNL     1       2.516   9.894  13.289  1.00  0.00     0.006 C 
HETATM    3  C11 UNL     1       0.972   9.809  13.279  1.00  0.00     0.011 C 
HETATM    4  C12 UNL     1       0.669   8.415  12.694  1.00  0.00    -0.032 C 
HETATM    5  C13 UNL     1       0.831   8.577  11.145  1.00  0.00     0.016 C 
HETATM    6  C14 UNL     1      -0.715   7.814  13.065  1.00  0.00     0.003 C 
HETATM    7  C15 UNL     1      -1.936   8.674  12.664  1.00  0.00     0.010 C 
HETATM    8  C16 UNL     1      -3.269   7.942  12.848  1.00  0.00     0.035 C 
HETATM    9  C17 UNL     1      -3.167   6.864  13.904  1.00  0.00    -0.073 C 
HETATM   10  C18 UNL     1      -3.863   6.915  15.071  1.00  0.00    -0.085 C 
HETATM   11  C19 UNL     1      -3.780   5.886  16.173  1.00  0.00     0.043 C 
HETATM   12  C20 UNL     1      -4.816   8.043  15.392  1.00  0.00     0.043 C 
HETATM   13  C21 UNL     1      -2.144   5.756  13.558  1.00  0.00     0.023 C 
HETATM   14  C25 UNL     1      -0.904   6.289  12.682  1.00  0.00    -0.032 C 
HETATM   15  C26 UNL     1      -1.154   6.093  11.164  1.00  0.00     0.016 C 
HETATM   16  C27 UNL     1       0.386   5.460  13.039  1.00  0.00     0.011 C 
HETATM   17  C28 UNL     1       1.753   6.140  12.793  1.00  0.00     0.011 C 
HETATM   18  C29 UNL     1       1.811   7.559  13.383  1.00  0.00    -0.032 C 
HETATM   19  C30 UNL     1       1.675   7.420  14.930  1.00  0.00     0.016 C 
ENDROOT
BRANCH   1  20
HETATM   20  C7  UNL     1       4.471   8.196  13.667  1.00  0.00    -0.014 C 
HETATM   21  C8  UNL     1       4.545   8.009  15.186  1.00  0.00     0.010 C 
BRANCH  20  22
HETATM   22  C6  UNL     1       5.208   7.060  12.914  1.00  0.00     0.008 C 
BRANCH  22  23
HETATM   23  C5  UNL     1       5.952   7.490  11.637  1.00  0.00     0.028 C 
BRANCH  23  24
HETATM   24  C4  UNL     1       5.048   8.018  10.557  1.00  0.00    -0.025 C 
HETATM   25  C2  UNL     1       4.143   7.335   9.827  1.00  0.00    -0.091 C 
HETATM   26  C1  UNL     1       3.291   8.044   8.808  1.00  0.00     0.042 C 
HETATM   27  C3  UNL     1       3.878   5.860   9.940  1.00  0.00     0.042 C 
ENDBRANCH  23  24
ENDBRANCH  22  23
ENDBRANCH  20  22
ENDBRANCH   1  20
BRANCH  13  28
HETATM   28  C22 UNL     1      -2.931   4.529  13.024  1.00  0.00     0.012 C 
BRANCH  28  29
HETATM   29  C23 UNL     1      -4.380   4.824  12.620  1.00  0.00     0.027 C 
BRANCH  29  30
HETATM   30  C24 UNL     1      -5.168   3.557  12.292  1.00  0.00     0.164 C 
BRANCH  30  31
HETATM   31  O1  UNL     1      -6.500   3.868  11.906  1.00  0.00    -0.401 OA
HETATM   32  H42 UNL     1      -6.468   4.228  11.003  1.00  0.00     0.209 HD
ENDBRANCH  30  31
ENDBRANCH  29  30
ENDBRANCH  28  29
ENDBRANCH  13  28
TORSDOF 8
ENDMDL
MODEL 9
REMARK minimizedAffinity -8.41187668
REMARK CNNscore 0.254406601
REMARK CNNaffinity 6.79299974
REMARK  8 active torsions:
REMARK  status: ('A' for Active; 'I' for Inactive)
REMARK    1  A    between atoms: C4_4  and  C5_5 
REMARK    2  A    between atoms: C5_5  and  C6_6 
REMARK    3  A    between atoms: C6_6  and  C7_7 
REMARK    4  A    between atoms: C7_7  and  C9_9 
REMARK    5  A    between atoms: C21_21  and  C22_22 
REMARK    6  A    between atoms: C22_22  and  C23_23 
REMARK    7  A    between atoms: C23_23  and  C24_24 
REMARK    8  A    between atoms: C24_24  and  O1_25 
ROOT
HETATM    1  C9  UNL     1      -5.566   6.424  14.515  1.00  0.00    -0.002 C 
HETATM    2  C10 UNL     1      -6.018   7.546  13.527  1.00  0.00     0.006 C 
HETATM    3  C11 UNL     1      -4.733   8.192  12.957  1.00  0.00     0.011 C 
HETATM    4  C12 UNL     1      -3.609   7.687  13.882  1.00  0.00    -0.032 C 
HETATM    5  C13 UNL     1      -3.691   8.592  15.158  1.00  0.00     0.016 C 
HETATM    6  C14 UNL     1      -2.181   7.688  13.271  1.00  0.00     0.003 C 
HETATM    7  C15 UNL     1      -1.679   9.061  12.769  1.00  0.00     0.010 C 
HETATM    8  C16 UNL     1      -0.196   9.053  12.384  1.00  0.00     0.035 C 
HETATM    9  C17 UNL     1       0.265   7.667  11.990  1.00  0.00    -0.073 C 
HETATM   10  C18 UNL     1       0.682   7.365  10.732  1.00  0.00    -0.085 C 
HETATM   11  C19 UNL     1       1.125   5.997  10.274  1.00  0.00     0.043 C 
HETATM   12  C20 UNL     1       0.743   8.401   9.633  1.00  0.00     0.043 C 
HETATM   13  C21 UNL     1       0.139   6.628  13.130  1.00  0.00     0.023 C 
HETATM   14  C25 UNL     1      -1.088   6.927  14.128  1.00  0.00    -0.032 C 
HETATM   15  C26 UNL     1      -0.630   7.753  15.359  1.00  0.00     0.016 C 
HETATM   16  C27 UNL     1      -1.658   5.568  14.681  1.00  0.00     0.011 C 
HETATM   17  C28 UNL     1      -3.132   5.560  15.152  1.00  0.00     0.011 C 
HETATM   18  C29 UNL     1      -4.076   6.190  14.114  1.00  0.00    -0.032 C 
HETATM   19  C30 UNL     1      -4.028   5.290  12.842  1.00  0.00     0.016 C 
ENDROOT
BRANCH   1  20
HETATM   20  C7  UNL     1      -6.606   5.271  14.678  1.00  0.00    -0.014 C 
HETATM   21  C8  UNL     1      -7.640   5.433  15.797  1.00  0.00     0.010 C 
BRANCH  20  22
HETATM   22  C6  UNL     1      -7.277   4.930  13.324  1.00  0.00     0.008 C 
BRANCH  22  23
HETATM   23  C5  UNL     1      -8.084   3.620  13.300  1.00  0.00     0.028 C 
BRANCH  23  24
HETATM   24  C4  UNL     1      -7.297   2.430  12.824  1.00  0.00    -0.025 C 
HETATM   25  C2  UNL     1      -6.445   2.365  11.781  1.00  0.00    -0.091 C 
HETATM   26  C1  UNL     1      -5.708   1.088  11.474  1.00  0.00     0.042 C 
HETATM   27  C3  UNL     1      -6.131   3.501  10.849  1.00  0.00     0.042 C 
ENDBRANCH  23  24
ENDBRANCH  22  23
ENDBRANCH  20  22
ENDBRANCH   1  20
BRANCH  13  28
HETATM   28  C22 UNL     1       1.546   6.430  13.754  1.00  0.00     0.012 C 
BRANCH  28  29
HETATM   29  C23 UNL     1       2.412   7.695  13.797  1.00  0.00     0.027 C 
BRANCH  29  30
HETATM   30  C24 UNL     1       3.235   7.799  15.080  1.00  0.00     0.164 C 
BRANCH  30  31
HETATM   31  O1  UNL     1       3.108   6.623  15.866  1.00  0.00    -0.401 OA
HETATM   32  H42 UNL     1       3.635   5.926  15.441  1.00  0.00     0.209 HD
ENDBRANCH  30  31
ENDBRANCH  29  30
ENDBRANCH  28  29
ENDBRANCH  13  28
TORSDOF 8
ENDMDL
