MODEL 1
REMARK minimizedAffinity -8.49303436
REMARK  10 active torsions:
REMARK  status: ('A' for Active; 'I' for Inactive)
REMARK       I    between atoms: N1_2  and  C2_3 
REMARK    1  A    between atoms: C2_3  and  C3_5 
REMARK    2  A    between atoms: C3_5  and  C4_6 
REMARK    3  A    between atoms: C3_5  and  N3_16 
REMARK    4  A    between atoms: C4_6  and  C5_7 
REMARK       I    between atoms: N3_16  and  C13_17 
REMARK    5  A    between atoms: C13_17  and  C14_19 
REMARK    6  A    between atoms: C14_19  and  C15_20 
REMARK    7  A    between atoms: C14_19  and  C17_25 
REMARK    8  A    between atoms: C15_20  and  C16_21 
REMARK       I    between atoms: C16_21  and  N4_23 
REMARK    9  A    between atoms: N4_23  and  O4_24 
REMARK   10  A    between atoms: C17_25  and  C18_26 
ROOT
HETATM    1  C3  UNL     1      -1.206   6.085  12.237  1.00  0.00     0.180 C 
ENDROOT
BRANCH   1   2
HETATM    2  C2  UNL     1      -1.377   6.855  13.565  1.00  0.00     0.240 C 
HETATM    3  N1  UNL     1      -0.271   6.802  14.388  1.00  0.00    -0.364 N 
HETATM    4  C1  UNL     1      -0.267   7.383  15.702  1.00  0.00     0.149 C 
HETATM    5  H4  UNL     1       0.508   6.203  14.110  1.00  0.00     0.161 HD
HETATM    6  O1  UNL     1      -2.397   7.479  13.856  1.00  0.00    -0.271 OA
ENDBRANCH   1   2
BRANCH   1   7
HETATM    7  C4  UNL     1      -0.894   4.605  12.517  1.00  0.00     0.075 C 
BRANCH   7   8
HETATM    8  C5  UNL     1      -1.935   3.678  11.965  1.00  0.00    -0.028 A 
HETATM    9  C6  UNL     1      -1.707   2.583  11.148  1.00  0.00     0.096 A 
HETATM   10  N2  UNL     1      -2.910   1.986  10.887  1.00  0.00    -0.365 N 
HETATM   11  C7  UNL     1      -3.926   2.665  11.523  1.00  0.00     0.042 A 
HETATM   12  H9  UNL     1      -3.039   1.157  10.319  1.00  0.00     0.165 HD
HETATM   13  C8  UNL     1      -5.303   2.410  11.544  1.00  0.00     0.030 A 
HETATM   14  C12 UNL     1      -3.346   3.735  12.203  1.00  0.00    -0.002 A 
HETATM   15  C9  UNL     1      -6.112   3.277  12.287  1.00  0.00     0.002 A 
HETATM   16  C10 UNL     1      -5.564   4.353  12.980  1.00  0.00     0.001 A 
HETATM   17  C11 UNL     1      -4.183   4.593  12.948  1.00  0.00     0.014 A 
ENDBRANCH   7   8
ENDBRANCH   1   7
BRANCH   1  18
HETATM   18  N3  UNL     1      -0.153   6.719  11.432  1.00  0.00    -0.347 N 
HETATM   19  C13 UNL     1       0.888   6.016  10.888  1.00  0.00     0.223 C 
HETATM   20  O2  UNL     1       0.960   4.793  10.974  1.00  0.00    -0.273 OA
HETATM   21  H14 UNL     1      -0.131   7.742  11.422  1.00  0.00     0.163 HD
BRANCH  19  22
HETATM   22  C14 UNL     1       1.958   6.871  10.206  1.00  0.00     0.087 C 
BRANCH  22  23
HETATM   23  C15 UNL     1       3.259   6.797  11.024  1.00  0.00     0.119 C 
BRANCH  23  24
HETATM   24  C16 UNL     1       4.299   5.835  10.480  1.00  0.00     0.241 C 
HETATM   25  O3  UNL     1       4.116   5.056   9.548  1.00  0.00    -0.271 OA
HETATM   26  N4  UNL     1       5.531   5.957  11.089  1.00  0.00    -0.237 N 
HETATM   27  H18 UNL     1       5.582   6.200  12.075  1.00  0.00     0.197 HD
BRANCH  26  28
HETATM   28  O4  UNL     1       6.483   4.994  10.661  1.00  0.00    -0.287 OA
HETATM   29  H19 UNL     1       5.990   4.505   9.966  1.00  0.00     0.244 HD
ENDBRANCH  26  28
ENDBRANCH  23  24
ENDBRANCH  22  23
BRANCH  22  30
HETATM   30  C17 UNL     1       2.088   6.530   8.706  1.00  0.00     0.018 C 
BRANCH  30  31
HETATM   31  C18 UNL     1       1.880   7.707   7.728  1.00  0.00    -0.022 C 
HETATM   32  C19 UNL     1       1.790   7.233   6.275  1.00  0.00     0.009 C 
HETATM   33  C20 UNL     1       3.035   8.705   7.875  1.00  0.00     0.009 C 
ENDBRANCH  30  31
ENDBRANCH  22  30
ENDBRANCH  19  22
ENDBRANCH   1  18
TORSDOF 10
ENDMDL
MODEL 2
REMARK minimizedAffinity -8.30556011
REMARK  10 active torsions:
REMARK  status: ('A' for Active; 'I' for Inactive)
REMARK       I    between atoms: N1_2  and  C2_3 
REMARK    1  A    between atoms: C2_3  and  C3_5 
REMARK    2  A    between atoms: C3_5  and  C4_6 
REMARK    3  A    between atoms: C3_5  and  N3_16 
REMARK    4  A    between atoms: C4_6  and  C5_7 
REMARK       I    between atoms: N3_16  and  C13_17 
REMARK    5  A    between atoms: C13_17  and  C14_19 
REMARK    6  A    between atoms: C14_19  and  C15_20 
REMARK    7  A    between atoms: C14_19  and  C17_25 
REMARK    8  A    between atoms: C15_20  and  C16_21 
REMARK       I    between atoms: C16_21  and  N4_23 
REMARK    9  A    between atoms: N4_23  and  O4_24 
REMARK   10  A    between atoms: C17_25  and  C18_26 
ROOT
HETATM    1  C3  UNL     1      -1.441   6.544  12.761  1.00  0.00     0.180 C 
ENDROOT
BRANCH   1   2
HETATM    2  C2  UNL     1      -0.851   6.418  14.183  1.00  0.00     0.240 C 
HETATM    3  N1  UNL     1      -0.231   7.565  14.634  1.00  0.00    -0.364 N 
HETATM    4  C1  UNL     1       0.453   7.618  15.896  1.00  0.00     0.149 C 
HETATM    5  H4  UNL     1      -0.129   8.345  13.983  1.00  0.00     0.161 HD
HETATM    6  O1  UNL     1      -0.945   5.397  14.863  1.00  0.00    -0.271 OA
ENDBRANCH   1   2
BRANCH   1   7
HETATM    7  C4  UNL     1      -2.016   5.192  12.303  1.00  0.00     0.075 C 
BRANCH   7   8
HETATM    8  C5  UNL     1      -3.478   5.051  12.606  1.00  0.00    -0.028 A 
HETATM    9  C6  UNL     1      -4.276   5.986  13.245  1.00  0.00     0.096 A 
HETATM   10  N2  UNL     1      -5.550   5.492  13.304  1.00  0.00    -0.365 N 
HETATM   11  C7  UNL     1      -5.608   4.250  12.710  1.00  0.00     0.042 A 
HETATM   12  H9  UNL     1      -6.344   5.971  13.713  1.00  0.00     0.165 HD
HETATM   13  C8  UNL     1      -6.695   3.385  12.534  1.00  0.00     0.030 A 
HETATM   14  C12 UNL     1      -4.320   3.945  12.267  1.00  0.00    -0.002 A 
HETATM   15  C9  UNL     1      -6.459   2.170  11.883  1.00  0.00     0.002 A 
HETATM   16  C10 UNL     1      -5.187   1.836  11.427  1.00  0.00     0.001 A 
HETATM   17  C11 UNL     1      -4.109   2.713  11.610  1.00  0.00     0.014 A 
ENDBRANCH   7   8
ENDBRANCH   1   7
BRANCH   1  18
HETATM   18  N3  UNL     1      -0.407   7.034  11.840  1.00  0.00    -0.347 N 
HETATM   19  C13 UNL     1       0.850   6.494  11.783  1.00  0.00     0.223 C 
HETATM   20  O2  UNL     1       1.164   5.509  12.445  1.00  0.00    -0.273 OA
HETATM   21  H14 UNL     1      -0.603   7.909  11.346  1.00  0.00     0.163 HD
BRANCH  19  22
HETATM   22  C14 UNL     1       1.828   7.231  10.865  1.00  0.00     0.087 C 
BRANCH  22  23
HETATM   23  C15 UNL     1       3.244   7.135  11.457  1.00  0.00     0.119 C 
BRANCH  23  24
HETATM   24  C16 UNL     1       4.203   6.255  10.675  1.00  0.00     0.241 C 
HETATM   25  O3  UNL     1       4.038   5.898   9.512  1.00  0.00    -0.271 OA
HETATM   26  N4  UNL     1       5.348   5.934  11.374  1.00  0.00    -0.237 N 
HETATM   27  H18 UNL     1       5.302   5.803  12.381  1.00  0.00     0.197 HD
BRANCH  26  28
HETATM   28  O4  UNL     1       6.205   5.030  10.693  1.00  0.00    -0.287 OA
HETATM   29  H19 UNL     1       5.744   4.912   9.832  1.00  0.00     0.244 HD
ENDBRANCH  26  28
ENDBRANCH  23  24
ENDBRANCH  22  23
BRANCH  22  30
HETATM   30  C17 UNL     1       1.682   6.779   9.396  1.00  0.00     0.018 C 
BRANCH  30  31
HETATM   31  C18 UNL     1       1.414   7.902   8.370  1.00  0.00    -0.022 C 
HETATM   32  C19 UNL     1      -0.044   8.369   8.404  1.00  0.00     0.009 C 
HETATM   33  C20 UNL     1       1.763   7.404   6.963  1.00  0.00     0.009 C 
ENDBRANCH  30  31
ENDBRANCH  22  30
ENDBRANCH  19  22
ENDBRANCH   1  18
TORSDOF 10
ENDMDL
MODEL 3
REMARK minimizedAffinity -8.24679375
REMARK  10 active torsions:
REMARK  status: ('A' for Active; 'I' for Inactive)
REMARK       I    between atoms: N1_2  and  C2_3 
REMARK    1  A    between atoms: C2_3  and  C3_5 
REMARK    2  A    between atoms: C3_5  and  C4_6 
REMARK    3  A    between atoms: C3_5  and  N3_16 
REMARK    4  A    between atoms: C4_6  and  C5_7 
REMARK       I    between atoms: N3_16  and  C13_17 
REMARK    5  A    between atoms: C13_17  and  C14_19 
REMARK    6  A    between atoms: C14_19  and  C15_20 
REMARK    7  A    between atoms: C14_19  and  C17_25 
REMARK    8  A    between atoms: C15_20  and  C16_21 
REMARK       I    between atoms: C16_21  and  N4_23 
REMARK    9  A    between atoms: N4_23  and  O4_24 
REMARK   10  A    between atoms: C17_25  and  C18_26 
ROOT
HETATM    1  C3  UNL     1      -1.483   3.984  11.687  1.00  0.00     0.180 C 
ENDROOT
BRANCH   1   2
HETATM    2  C2  UNL     1      -0.618   2.776  11.263  1.00  0.00     0.240 C 
HETATM    3  N1  UNL     1      -1.350   1.656  10.929  1.00  0.00    -0.364 N 
HETATM    4  C1  UNL     1      -0.724   0.407  10.593  1.00  0.00     0.149 C 
HETATM    5  H4  UNL     1      -2.360   1.679  11.074  1.00  0.00     0.161 HD
HETATM    6  O1  UNL     1       0.611   2.814  11.206  1.00  0.00    -0.271 OA
ENDBRANCH   1   2
BRANCH   1   7
HETATM    7  C4  UNL     1      -2.911   3.834  11.134  1.00  0.00     0.075 C 
BRANCH   7   8
HETATM    8  C5  UNL     1      -3.956   4.336  12.086  1.00  0.00    -0.028 A 
HETATM    9  C6  UNL     1      -3.883   5.489  12.849  1.00  0.00     0.096 A 
HETATM   10  N2  UNL     1      -5.045   5.605  13.561  1.00  0.00    -0.365 N 
HETATM   11  C7  UNL     1      -5.886   4.552  13.276  1.00  0.00     0.042 A 
HETATM   12  H9  UNL     1      -5.266   6.362  14.198  1.00  0.00     0.165 HD
HETATM   13  C8  UNL     1      -7.168   4.267  13.760  1.00  0.00     0.030 A 
HETATM   14  C12 UNL     1      -5.227   3.735  12.356  1.00  0.00    -0.002 A 
HETATM   15  C9  UNL     1      -7.799   3.111  13.287  1.00  0.00     0.002 A 
HETATM   16  C10 UNL     1      -7.170   2.276  12.368  1.00  0.00     0.001 A 
HETATM   17  C11 UNL     1      -5.886   2.576  11.893  1.00  0.00     0.014 A 
ENDBRANCH   7   8
ENDBRANCH   1   7
BRANCH   1  18
HETATM   18  N3  UNL     1      -0.851   5.228  11.227  1.00  0.00    -0.347 N 
HETATM   19  C13 UNL     1      -0.101   6.025  12.049  1.00  0.00     0.223 C 
HETATM   20  O2  UNL     1       0.158   5.704  13.206  1.00  0.00    -0.273 OA
HETATM   21  H14 UNL     1      -1.124   5.572  10.302  1.00  0.00     0.163 HD
BRANCH  19  22
HETATM   22  C14 UNL     1       0.353   7.348  11.427  1.00  0.00     0.087 C 
BRANCH  22  23
HETATM   23  C15 UNL     1       0.497   8.403  12.538  1.00  0.00     0.119 C 
BRANCH  23  24
HETATM   24  C16 UNL     1      -0.672   9.363  12.661  1.00  0.00     0.241 C 
HETATM   25  O3  UNL     1      -1.698   9.310  11.987  1.00  0.00    -0.271 OA
HETATM   26  N4  UNL     1      -0.518  10.289  13.672  1.00  0.00    -0.237 N 
HETATM   27  H18 UNL     1       0.409  10.644  13.891  1.00  0.00     0.197 HD
BRANCH  26  28
HETATM   28  O4  UNL     1      -1.557  11.255  13.731  1.00  0.00    -0.287 OA
HETATM   29  H19 UNL     1      -2.168  10.951  13.024  1.00  0.00     0.244 HD
ENDBRANCH  26  28
ENDBRANCH  23  24
ENDBRANCH  22  23
BRANCH  22  30
HETATM   30  C17 UNL     1       1.586   7.157  10.518  1.00  0.00     0.018 C 
BRANCH  30  31
HETATM   31  C18 UNL     1       1.348   7.375   9.008  1.00  0.00    -0.022 C 
HETATM   32  C19 UNL     1       2.606   7.885   8.300  1.00  0.00     0.009 C 
HETATM   33  C20 UNL     1       0.202   8.373   8.808  1.00  0.00     0.009 C 
ENDBRANCH  30  31
ENDBRANCH  22  30
ENDBRANCH  19  22
ENDBRANCH   1  18
TORSDOF 10
ENDMDL
MODEL 4
REMARK minimizedAffinity -8.22936153
REMARK  10 active torsions:
REMARK  status: ('A' for Active; 'I' for Inactive)
REMARK       I    between atoms: N1_2  and  C2_3 
REMARK    1  A    between atoms: C2_3  and  C3_5 
REMARK    2  A    between atoms: C3_5  and  C4_6 
REMARK    3  A    between atoms: C3_5  and  N3_16 
REMARK    4  A    between atoms: C4_6  and  C5_7 
REMARK       I    between atoms: N3_16  and  C13_17 
REMARK    5  A    between atoms: C13_17  and  C14_19 
REMARK    6  A    between atoms: C14_19  and  C15_20 
REMARK    7  A    between atoms: C14_19  and  C17_25 
REMARK    8  A    between atoms: C15_20  and  C16_21 
REMARK       I    between atoms: C16_21  and  N4_23 
REMARK    9  A    between atoms: N4_23  and  O4_24 
REMARK   10  A    between atoms: C17_25  and  C18_26 
ROOT
HETATM    1  C3  UNL     1      -1.595   6.394  12.609  1.00  0.00     0.180 C 
ENDROOT
BRANCH   1   2
HETATM    2  C2  UNL     1      -1.657   6.948  14.049  1.00  0.00     0.240 C 
HETATM    3  N1  UNL     1      -2.578   7.962  14.218  1.00  0.00    -0.364 N 
HETATM    4  C1  UNL     1      -2.722   8.663  15.464  1.00  0.00     0.149 C 
HETATM    5  H4  UNL     1      -3.058   8.319  13.391  1.00  0.00     0.161 HD
HETATM    6  O1  UNL     1      -0.967   6.511  14.969  1.00  0.00    -0.271 OA
ENDBRANCH   1   2
BRANCH   1   7
HETATM    7  C4  UNL     1      -1.293   4.886  12.633  1.00  0.00     0.075 C 
BRANCH   7   8
HETATM    8  C5  UNL     1      -2.418   4.060  12.085  1.00  0.00    -0.028 A 
HETATM    9  C6  UNL     1      -2.309   3.041  11.152  1.00  0.00     0.096 A 
HETATM   10  N2  UNL     1      -3.556   2.522  10.938  1.00  0.00    -0.365 N 
HETATM   11  C7  UNL     1      -4.485   3.176  11.717  1.00  0.00     0.042 A 
HETATM   12  H9  UNL     1      -3.770   1.758  10.307  1.00  0.00     0.165 HD
HETATM   13  C8  UNL     1      -5.866   2.976  11.830  1.00  0.00     0.030 A 
HETATM   14  C12 UNL     1      -3.801   4.150  12.445  1.00  0.00    -0.002 A 
HETATM   15  C9  UNL     1      -6.571   3.798  12.715  1.00  0.00     0.002 A 
HETATM   16  C10 UNL     1      -5.918   4.778  13.458  1.00  0.00     0.001 A 
HETATM   17  C11 UNL     1      -4.535   4.964  13.334  1.00  0.00     0.014 A 
ENDBRANCH   7   8
ENDBRANCH   1   7
BRANCH   1  18
HETATM   18  N3  UNL     1      -0.590   7.137  11.837  1.00  0.00    -0.347 N 
HETATM   19  C13 UNL     1       0.074   6.594  10.770  1.00  0.00     0.223 C 
HETATM   20  O2  UNL     1      -0.193   5.474  10.340  1.00  0.00    -0.273 OA
HETATM   21  H14 UNL     1      -0.276   8.031  12.224  1.00  0.00     0.163 HD
BRANCH  19  22
HETATM   22  C14 UNL     1       1.184   7.471  10.186  1.00  0.00     0.087 C 
BRANCH  22  23
HETATM   23  C15 UNL     1       2.548   6.922  10.636  1.00  0.00     0.119 C 
BRANCH  23  24
HETATM   24  C16 UNL     1       2.920   5.575  10.043  1.00  0.00     0.241 C 
HETATM   25  O3  UNL     1       3.626   5.414   9.051  1.00  0.00    -0.271 OA
HETATM   26  N4  UNL     1       2.443   4.504  10.772  1.00  0.00    -0.237 N 
HETATM   27  H18 UNL     1       1.549   4.579  11.248  1.00  0.00     0.197 HD
BRANCH  26  28
HETATM   28  O4  UNL     1       2.696   3.242  10.173  1.00  0.00    -0.287 OA
HETATM   29  H19 UNL     1       3.221   3.487   9.378  1.00  0.00     0.244 HD
ENDBRANCH  26  28
ENDBRANCH  23  24
ENDBRANCH  22  23
BRANCH  22  30
HETATM   30  C17 UNL     1       1.010   7.674   8.665  1.00  0.00     0.018 C 
BRANCH  30  31
HETATM   31  C18 UNL     1       2.299   7.579   7.822  1.00  0.00    -0.022 C 
HETATM   32  C19 UNL     1       3.099   8.884   7.854  1.00  0.00     0.009 C 
HETATM   33  C20 UNL     1       1.940   7.230   6.373  1.00  0.00     0.009 C 
ENDBRANCH  30  31
ENDBRANCH  22  30
ENDBRANCH  19  22
ENDBRANCH   1  18
TORSDOF 10
ENDMDL
MODEL 5
REMARK minimizedAffinity -8.2256422
REMARK  10 active torsions:
REMARK  status: ('A' for Active; 'I' for Inactive)
REMARK       I    between atoms: N1_2  and  C2_3 
REMARK    1  A    between atoms: C2_3  and  C3_5 
REMARK    2  A    between atoms: C3_5  and  C4_6 
REMARK    3  A    between atoms: C3_5  and  N3_16 
REMARK    4  A    between atoms: C4_6  and  C5_7 
REMARK       I    between atoms: N3_16  and  C13_17 
REMARK    5  A    between atoms: C13_17  and  C14_19 
REMARK    6  A    between atoms: C14_19  and  C15_20 
REMARK    7  A    between atoms: C14_19  and  C17_25 
REMARK    8  A    between atoms: C15_20  and  C16_21 
REMARK       I    between atoms: C16_21  and  N4_23 
REMARK    9  A    between atoms: N4_23  and  O4_24 
REMARK   10  A    between atoms: C17_25  and  C18_26 
ROOT
HETATM    1  C3  UNL     1      -2.526   3.539  11.666  1.00  0.00     0.180 C 
ENDROOT
BRANCH   1   2
HETATM    2  C2  UNL     1      -1.330   2.643  11.273  1.00  0.00     0.240 C 
HETATM    3  N1  UNL     1      -1.696   1.408  10.780  1.00  0.00    -0.364 N 
HETATM    4  C1  UNL     1      -0.727   0.403  10.441  1.00  0.00     0.149 C 
HETATM    5  H4  UNL     1      -2.684   1.154  10.802  1.00  0.00     0.161 HD
HETATM    6  O1  UNL     1      -0.158   3.006  11.368  1.00  0.00    -0.271 OA
ENDBRANCH   1   2
BRANCH   1   7
HETATM    7  C4  UNL     1      -3.677   3.357  10.662  1.00  0.00     0.075 C 
BRANCH   7   8
HETATM    8  C5  UNL     1      -4.965   2.962  11.321  1.00  0.00    -0.028 A 
HETATM    9  C6  UNL     1      -5.694   1.810  11.072  1.00  0.00     0.096 A 
HETATM   10  N2  UNL     1      -6.787   1.809  11.895  1.00  0.00    -0.365 N 
HETATM   11  C7  UNL     1      -6.789   2.937  12.686  1.00  0.00     0.042 A 
HETATM   12  H9  UNL     1      -7.490   1.080  11.930  1.00  0.00     0.165 HD
HETATM   13  C8  UNL     1      -7.699   3.346  13.669  1.00  0.00     0.030 A 
HETATM   14  C12 UNL     1      -5.660   3.683  12.345  1.00  0.00    -0.002 A 
HETATM   15  C9  UNL     1      -7.445   4.555  14.325  1.00  0.00     0.002 A 
HETATM   16  C10 UNL     1      -6.327   5.322  14.010  1.00  0.00     0.001 A 
HETATM   17  C11 UNL     1      -5.426   4.897  13.024  1.00  0.00     0.014 A 
ENDBRANCH   7   8
ENDBRANCH   1   7
BRANCH   1  18
HETATM   18  N3  UNL     1      -2.090   4.939  11.744  1.00  0.00    -0.347 N 
HETATM   19  C13 UNL     1      -1.822   5.566  12.932  1.00  0.00     0.223 C 
HETATM   20  O2  UNL     1      -1.853   4.967  14.004  1.00  0.00    -0.273 OA
HETATM   21  H14 UNL     1      -2.147   5.491  10.884  1.00  0.00     0.163 HD
BRANCH  19  22
HETATM   22  C14 UNL     1      -1.521   7.062  12.818  1.00  0.00     0.087 C 
BRANCH  22  23
HETATM   23  C15 UNL     1      -1.818   7.739  14.167  1.00  0.00     0.119 C 
BRANCH  23  24
HETATM   24  C16 UNL     1      -0.616   7.893  15.081  1.00  0.00     0.241 C 
HETATM   25  O3  UNL     1       0.032   8.927  15.222  1.00  0.00    -0.271 OA
HETATM   26  N4  UNL     1      -0.340   6.761  15.820  1.00  0.00    -0.237 N 
HETATM   27  H18 UNL     1      -0.512   5.844  15.417  1.00  0.00     0.197 HD
BRANCH  26  28
HETATM   28  O4  UNL     1       0.842   6.857  16.601  1.00  0.00    -0.287 OA
HETATM   29  H19 UNL     1       1.131   7.781  16.432  1.00  0.00     0.244 HD
ENDBRANCH  26  28
ENDBRANCH  23  24
ENDBRANCH  22  23
BRANCH  22  30
HETATM   30  C17 UNL     1      -0.115   7.317  12.233  1.00  0.00     0.018 C 
BRANCH  30  31
HETATM   31  C18 UNL     1       0.041   7.061  10.719  1.00  0.00    -0.022 C 
HETATM   32  C19 UNL     1       1.240   6.159  10.413  1.00  0.00     0.009 C 
HETATM   33  C20 UNL     1       0.201   8.398   9.987  1.00  0.00     0.009 C 
ENDBRANCH  30  31
ENDBRANCH  22  30
ENDBRANCH  19  22
ENDBRANCH   1  18
TORSDOF 10
ENDMDL
MODEL 6
REMARK minimizedAffinity -8.16696072
REMARK  10 active torsions:
REMARK  status: ('A' for Active; 'I' for Inactive)
REMARK       I    between atoms: N1_2  and  C2_3 
REMARK    1  A    between atoms: C2_3  and  C3_5 
REMARK    2  A    between atoms: C3_5  and  C4_6 
REMARK    3  A    between atoms: C3_5  and  N3_16 
REMARK    4  A    between atoms: C4_6  and  C5_7 
REMARK       I    between atoms: N3_16  and  C13_17 
REMARK    5  A    between atoms: C13_17  and  C14_19 
REMARK    6  A    between atoms: C14_19  and  C15_20 
REMARK    7  A    between atoms: C14_19  and  C17_25 
REMARK    8  A    between atoms: C15_20  and  C16_21 
REMARK       I    between atoms: C16_21  and  N4_23 
REMARK    9  A    between atoms: N4_23  and  O4_24 
REMARK   10  A    between atoms: C17_25  and  C18_26 
ROOT
HETATM    1  C3  UNL     1      -1.315   6.365  13.469  1.00  0.00     0.180 C 
ENDROOT
BRANCH   1   2
HETATM    2  C2  UNL     1      -2.028   7.209  14.549  1.00  0.00     0.240 C 
HETATM    3  N1  UNL     1      -2.235   8.523  14.184  1.00  0.00    -0.364 N 
HETATM    4  C1  UNL     1      -2.804   9.485  15.087  1.00  0.00     0.149 C 
HETATM    5  H4  UNL     1      -1.830   8.849  13.306  1.00  0.00     0.161 HD
HETATM    6  O1  UNL     1      -2.401   6.747  15.627  1.00  0.00    -0.271 OA
ENDBRANCH   1   2
BRANCH   1   7
HETATM    7  C4  UNL     1      -0.819   7.272  12.329  1.00  0.00     0.075 C 
BRANCH   7   8
HETATM    8  C5  UNL     1       0.315   6.666  11.558  1.00  0.00    -0.028 A 
HETATM    9  C6  UNL     1       1.095   5.592  11.955  1.00  0.00     0.096 A 
HETATM   10  N2  UNL     1       2.001   5.331  10.964  1.00  0.00    -0.365 N 
HETATM   11  C7  UNL     1       1.828   6.210   9.917  1.00  0.00     0.042 A 
HETATM   12  H9  UNL     1       2.692   4.591  10.985  1.00  0.00     0.165 HD
HETATM   13  C8  UNL     1       2.516   6.310   8.702  1.00  0.00     0.030 A 
HETATM   14  C12 UNL     1       0.780   7.065  10.264  1.00  0.00    -0.002 A 
HETATM   15  C9  UNL     1       2.120   7.313   7.811  1.00  0.00     0.002 A 
HETATM   16  C10 UNL     1       1.077   8.180   8.126  1.00  0.00     0.001 A 
HETATM   17  C11 UNL     1       0.398   8.066   9.346  1.00  0.00     0.014 A 
ENDBRANCH   7   8
ENDBRANCH   1   7
BRANCH   1  18
HETATM   18  N3  UNL     1      -2.226   5.323  12.976  1.00  0.00    -0.347 N 
HETATM   19  C13 UNL     1      -3.543   5.565  12.689  1.00  0.00     0.223 C 
HETATM   20  O2  UNL     1      -4.023   6.694  12.750  1.00  0.00    -0.273 OA
HETATM   21  H14 UNL     1      -1.885   4.359  13.006  1.00  0.00     0.163 HD
BRANCH  19  22
HETATM   22  C14 UNL     1      -4.363   4.325  12.327  1.00  0.00     0.087 C 
BRANCH  22  23
HETATM   23  C15 UNL     1      -3.448   3.089  12.363  1.00  0.00     0.119 C 
BRANCH  23  24
HETATM   24  C16 UNL     1      -2.669   2.835  11.085  1.00  0.00     0.241 C 
HETATM   25  O3  UNL     1      -2.531   3.647  10.174  1.00  0.00    -0.271 OA
HETATM   26  N4  UNL     1      -2.049   1.603  11.056  1.00  0.00    -0.237 N 
HETATM   27  H18 UNL     1      -2.493   0.806  11.504  1.00  0.00     0.197 HD
BRANCH  26  28
HETATM   28  O4  UNL     1      -1.403   1.313   9.825  1.00  0.00    -0.287 OA
HETATM   29  H19 UNL     1      -1.538   2.142   9.316  1.00  0.00     0.244 HD
ENDBRANCH  26  28
ENDBRANCH  23  24
ENDBRANCH  22  23
BRANCH  22  30
HETATM   30  C17 UNL     1      -5.654   4.230  13.168  1.00  0.00     0.018 C 
BRANCH  30  31
HETATM   31  C18 UNL     1      -6.944   3.906  12.385  1.00  0.00    -0.022 C 
HETATM   32  C19 UNL     1      -7.978   5.031  12.497  1.00  0.00     0.009 C 
HETATM   33  C20 UNL     1      -7.547   2.598  12.910  1.00  0.00     0.009 C 
ENDBRANCH  30  31
ENDBRANCH  22  30
ENDBRANCH  19  22
ENDBRANCH   1  18
TORSDOF 10
ENDMDL
MODEL 7
REMARK minimizedAffinity -8.03168297
REMARK  10 active torsions:
REMARK  status: ('A' for Active; 'I' for Inactive)
REMARK       I    between atoms: N1_2  and  C2_3 
REMARK    1  A    between atoms: C2_3  and  C3_5 
REMARK    2  A    between atoms: C3_5  and  C4_6 
REMARK    3  A    between atoms: C3_5  and  N3_16 
REMARK    4  A    between atoms: C4_6  and  C5_7 
REMARK       I    between atoms: N3_16  and  C13_17 
REMARK    5  A    between atoms: C13_17  and  C14_19 
REMARK    6  A    between atoms: C14_19  and  C15_20 
REMARK    7  A    between atoms: C14_19  and  C17_25 
REMARK    8  A    between atoms: C15_20  and  C16_21 
REMARK       I    between atoms: C16_21  and  N4_23 
REMARK    9  A    between atoms: N4_23  and  O4_24 
REMARK   10  A    between atoms: C17_25  and  C18_26 
ROOT
HETATM    1  C3  UNL     1      -0.489   6.321  11.599  1.00  0.00     0.180 C 
ENDROOT
BRANCH   1   2
HETATM    2  C2  UNL     1      -0.722   7.552  12.502  1.00  0.00     0.240 C 
HETATM    3  N1  UNL     1      -2.038   7.961  12.559  1.00  0.00    -0.364 N 
HETATM    4  C1  UNL     1      -2.441   9.139  13.277  1.00  0.00     0.149 C 
HETATM    5  H4  UNL     1      -2.713   7.499  11.949  1.00  0.00     0.161 HD
HETATM    6  O1  UNL     1       0.179   8.104  13.134  1.00  0.00    -0.271 OA
ENDBRANCH   1   2
BRANCH   1   7
HETATM    7  C4  UNL     1      -0.844   5.031  12.358  1.00  0.00     0.075 C 
BRANCH   7   8
HETATM    8  C5  UNL     1      -1.986   4.286  11.734  1.00  0.00    -0.028 A 
HETATM    9  C6  UNL     1      -1.904   3.404  10.668  1.00  0.00     0.096 A 
HETATM   10  N2  UNL     1      -3.158   2.917  10.419  1.00  0.00    -0.365 N 
HETATM   11  C7  UNL     1      -4.064   3.458  11.305  1.00  0.00     0.042 A 
HETATM   12  H9  UNL     1      -3.391   2.246   9.697  1.00  0.00     0.165 HD
HETATM   13  C8  UNL     1      -5.442   3.243  11.427  1.00  0.00     0.030 A 
HETATM   14  C12 UNL     1      -3.358   4.325  12.140  1.00  0.00    -0.002 A 
HETATM   15  C9  UNL     1      -6.121   3.936  12.435  1.00  0.00     0.002 A 
HETATM   16  C10 UNL     1      -5.446   4.807  13.286  1.00  0.00     0.001 A 
HETATM   17  C11 UNL     1      -4.065   5.009  13.151  1.00  0.00     0.014 A 
ENDBRANCH   7   8
ENDBRANCH   1   7
BRANCH   1  18
HETATM   18  N3  UNL     1       0.903   6.309  11.130  1.00  0.00    -0.347 N 
HETATM   19  C13 UNL     1       1.297   6.910   9.964  1.00  0.00     0.223 C 
HETATM   20  O2  UNL     1       0.519   7.568   9.278  1.00  0.00    -0.273 OA
HETATM   21  H14 UNL     1       1.553   5.692  11.624  1.00  0.00     0.163 HD
BRANCH  19  22
HETATM   22  C14 UNL     1       2.756   6.667   9.574  1.00  0.00     0.087 C 
BRANCH  22  23
HETATM   23  C15 UNL     1       2.801   5.919   8.231  1.00  0.00     0.119 C 
BRANCH  23  24
HETATM   24  C16 UNL     1       3.481   4.563   8.278  1.00  0.00     0.241 C 
HETATM   25  O3  UNL     1       3.803   3.904   7.294  1.00  0.00    -0.271 OA
HETATM   26  N4  UNL     1       3.781   4.144   9.558  1.00  0.00    -0.237 N 
HETATM   27  H18 UNL     1       3.161   4.388  10.325  1.00  0.00     0.197 HD
BRANCH  26  28
HETATM   28  O4  UNL     1       4.324   2.834   9.623  1.00  0.00    -0.287 OA
HETATM   29  H19 UNL     1       4.390   2.586   8.674  1.00  0.00     0.244 HD
ENDBRANCH  26  28
ENDBRANCH  23  24
ENDBRANCH  22  23
BRANCH  22  30
HETATM   30  C17 UNL     1       3.589   7.965   9.648  1.00  0.00     0.018 C 
BRANCH  30  31
HETATM   31  C18 UNL     1       4.960   7.846  10.349  1.00  0.00    -0.022 C 
HETATM   32  C19 UNL     1       4.857   7.090  11.677  1.00  0.00     0.009 C 
HETATM   33  C20 UNL     1       5.533   9.246  10.594  1.00  0.00     0.009 C 
ENDBRANCH  30  31
ENDBRANCH  22  30
ENDBRANCH  19  22
ENDBRANCH   1  18
TORSDOF 10
ENDMDL
MODEL 8
REMARK minimizedAffinity -8.00914192
REMARK  10 active torsions:
REMARK  status: ('A' for Active; 'I' for Inactive)
REMARK       I    between atoms: N1_2  and  C2_3 
REMARK    1  A    between atoms: C2_3  and  C3_5 
REMARK    2  A    between atoms: C3_5  and  C4_6 
REMARK    3  A    between atoms: C3_5  and  N3_16 
REMARK    4  A    between atoms: C4_6  and  C5_7 
REMARK       I    between atoms: N3_16  and  C13_17 
REMARK    5  A    between atoms: C13_17  and  C14_19 
REMARK    6  A    between atoms: C14_19  and  C15_20 
REMARK    7  A    between atoms: C14_19  and  C17_25 
REMARK    8  A    between atoms: C15_20  and  C16_21 
REMARK       I    between atoms: C16_21  and  N4_23 
REMARK    9  A    between atoms: N4_23  and  O4_24 
REMARK   10  A    between atoms: C17_25  and  C18_26 
ROOT
HETATM    1  C3  UNL     1      -1.682   7.327  12.901  1.00  0.00     0.180 C 
ENDROOT
BRANCH   1   2
HETATM    2  C2  UNL     1      -1.529   8.440  13.961  1.00  0.00     0.240 C 
HETATM    3  N1  UNL     1      -1.791   9.707  13.482  1.00  0.00    -0.364 N 
HETATM    4  C1  UNL     1      -1.619  10.881  14.292  1.00  0.00     0.149 C 
HETATM    5  H4  UNL     1      -1.964   9.818  12.482  1.00  0.00     0.161 HD
HETATM    6  O1  UNL     1      -1.224   8.218  15.132  1.00  0.00    -0.271 OA
ENDBRANCH   1   2
BRANCH   1   7
HETATM    7  C4  UNL     1      -2.045   5.995  13.580  1.00  0.00     0.075 C 
BRANCH   7   8
HETATM    8  C5  UNL     1      -3.496   5.645  13.432  1.00  0.00    -0.028 A 
HETATM    9  C6  UNL     1      -4.570   6.407  13.863  1.00  0.00     0.096 A 
HETATM   10  N2  UNL     1      -5.723   5.755  13.516  1.00  0.00    -0.365 N 
HETATM   11  C7  UNL     1      -5.427   4.581  12.859  1.00  0.00     0.042 A 
HETATM   12  H9  UNL     1      -6.661   6.090  13.702  1.00  0.00     0.165 HD
HETATM   13  C8  UNL     1      -6.281   3.610  12.322  1.00  0.00     0.030 A 
HETATM   14  C12 UNL     1      -4.036   4.482  12.796  1.00  0.00    -0.002 A 
HETATM   15  C9  UNL     1      -5.695   2.504  11.698  1.00  0.00     0.002 A 
HETATM   16  C10 UNL     1      -4.311   2.376  11.616  1.00  0.00     0.001 A 
HETATM   17  C11 UNL     1      -3.471   3.357  12.158  1.00  0.00     0.014 A 
ENDBRANCH   7   8
ENDBRANCH   1   7
BRANCH   1  18
HETATM   18  N3  UNL     1      -0.444   7.217  12.118  1.00  0.00    -0.347 N 
HETATM   19  C13 UNL     1      -0.185   8.005  11.029  1.00  0.00     0.223 C 
HETATM   20  O2  UNL     1      -0.941   8.911  10.688  1.00  0.00    -0.273 OA
HETATM   21  H14 UNL     1       0.159   6.414  12.315  1.00  0.00     0.163 HD
BRANCH  19  22
HETATM   22  C14 UNL     1       1.088   7.645  10.260  1.00  0.00     0.087 C 
BRANCH  22  23
HETATM   23  C15 UNL     1       1.568   6.253  10.704  1.00  0.00     0.119 C 
BRANCH  23  24
HETATM   24  C16 UNL     1       3.068   6.127  10.895  1.00  0.00     0.241 C 
HETATM   25  O3  UNL     1       3.735   6.795  11.681  1.00  0.00    -0.271 OA
HETATM   26  N4  UNL     1       3.635   5.119  10.141  1.00  0.00    -0.237 N 
HETATM   27  H18 UNL     1       3.257   4.906   9.222  1.00  0.00     0.197 HD
BRANCH  26  28
HETATM   28  O4  UNL     1       5.050   5.058  10.233  1.00  0.00    -0.287 OA
HETATM   29  H19 UNL     1       5.250   5.761  10.890  1.00  0.00     0.244 HD
ENDBRANCH  26  28
ENDBRANCH  23  24
ENDBRANCH  22  23
BRANCH  22  30
HETATM   30  C17 UNL     1       0.910   7.840   8.739  1.00  0.00     0.018 C 
BRANCH  30  31
HETATM   31  C18 UNL     1       2.157   7.558   7.874  1.00  0.00    -0.022 C 
HETATM   32  C19 UNL     1       3.144   8.728   7.896  1.00  0.00     0.009 C 
HETATM   33  C20 UNL     1       1.725   7.274   6.430  1.00  0.00     0.009 C 
ENDBRANCH  30  31
ENDBRANCH  22  30
ENDBRANCH  19  22
ENDBRANCH   1  18
TORSDOF 10
ENDMDL
MODEL 9
REMARK minimizedAffinity -7.96815443
REMARK  10 active torsions:
REMARK  status: ('A' for Active; 'I' for Inactive)
REMARK       I    between atoms: N1_2  and  C2_3 
REMARK    1  A    between atoms: C2_3  and  C3_5 
REMARK    2  A    between atoms: C3_5  and  C4_6 
REMARK    3  A    between atoms: C3_5  and  N3_16 
REMARK    4  A    between atoms: C4_6  and  C5_7 
REMARK       I    between atoms: N3_16  and  C13_17 
REMARK    5  A    between atoms: C13_17  and  C14_19 
REMARK    6  A    between atoms: C14_19  and  C15_20 
REMARK    7  A    between atoms: C14_19  and  C17_25 
REMARK    8  A    between atoms: C15_20  and  C16_21 
REMARK       I    between atoms: C16_21  and  N4_23 
REMARK    9  A    between atoms: N4_23  and  O4_24 
REMARK   10  A    between atoms: C17_25  and  C18_26 
ROOT
HETATM    1  C3  UNL     1      -1.054   6.659  13.420  1.00  0.00     0.180 C 
ENDROOT
BRANCH   1   2
HETATM    2  C2  UNL     1      -1.374   7.762  14.453  1.00  0.00     0.240 C 
HETATM    3  N1  UNL     1      -1.801   7.278  15.673  1.00  0.00    -0.364 N 
HETATM    4  C1  UNL     1      -2.228   8.149  16.733  1.00  0.00     0.149 C 
HETATM    5  H4  UNL     1      -1.959   6.274  15.764  1.00  0.00     0.161 HD
HETATM    6  O1  UNL     1      -1.238   8.963  14.220  1.00  0.00    -0.271 OA
ENDBRANCH   1   2
BRANCH   1   7
HETATM    7  C4  UNL     1      -0.793   7.284  12.040  1.00  0.00     0.075 C 
BRANCH   7   8
HETATM    8  C5  UNL     1       0.375   6.663  11.333  1.00  0.00    -0.028 A 
HETATM    9  C6  UNL     1       1.156   5.619  11.802  1.00  0.00     0.096 A 
HETATM   10  N2  UNL     1       2.098   5.330  10.853  1.00  0.00    -0.365 N 
HETATM   11  C7  UNL     1       1.948   6.160   9.764  1.00  0.00     0.042 A 
HETATM   12  H9  UNL     1       2.799   4.603  10.930  1.00  0.00     0.165 HD
HETATM   13  C8  UNL     1       2.675   6.218   8.569  1.00  0.00     0.030 A 
HETATM   14  C12 UNL     1       0.878   7.012  10.039  1.00  0.00    -0.002 A 
HETATM   15  C9  UNL     1       2.294   7.175   7.623  1.00  0.00     0.002 A 
HETATM   16  C10 UNL     1       1.229   8.038   7.864  1.00  0.00     0.001 A 
HETATM   17  C11 UNL     1       0.511   7.967   9.066  1.00  0.00     0.014 A 
ENDBRANCH   7   8
ENDBRANCH   1   7
BRANCH   1  18
HETATM   18  N3  UNL     1      -2.157   5.689  13.377  1.00  0.00    -0.347 N 
HETATM   19  C13 UNL     1      -3.459   6.057  13.169  1.00  0.00     0.223 C 
HETATM   20  O2  UNL     1      -3.774   7.218  12.923  1.00  0.00    -0.273 OA
HETATM   21  H14 UNL     1      -1.944   4.732  13.672  1.00  0.00     0.163 HD
BRANCH  19  22
HETATM   22  C14 UNL     1      -4.479   4.924  13.301  1.00  0.00     0.087 C 
BRANCH  22  23
HETATM   23  C15 UNL     1      -5.785   5.488  13.886  1.00  0.00     0.119 C 
BRANCH  23  24
HETATM   24  C16 UNL     1      -7.053   4.936  13.260  1.00  0.00     0.241 C 
HETATM   25  O3  UNL     1      -7.693   5.487  12.369  1.00  0.00    -0.271 OA
HETATM   26  N4  UNL     1      -7.405   3.691  13.739  1.00  0.00    -0.237 N 
HETATM   27  H18 UNL     1      -7.215   3.453  14.708  1.00  0.00     0.197 HD
BRANCH  26  28
HETATM   28  O4  UNL     1      -8.643   3.209  13.237  1.00  0.00    -0.287 OA
HETATM   29  H19 UNL     1      -8.903   3.916  12.606  1.00  0.00     0.244 HD
ENDBRANCH  26  28
ENDBRANCH  23  24
ENDBRANCH  22  23
BRANCH  22  30
HETATM   30  C17 UNL     1      -4.620   4.128  11.986  1.00  0.00     0.018 C 
BRANCH  30  31
HETATM   31  C18 UNL     1      -4.344   2.612  12.083  1.00  0.00    -0.022 C 
HETATM   32  C19 UNL     1      -2.965   2.246  11.527  1.00  0.00     0.009 C 
HETATM   33  C20 UNL     1      -5.428   1.844  11.319  1.00  0.00     0.009 C 
ENDBRANCH  30  31
ENDBRANCH  22  30
ENDBRANCH  19  22
ENDBRANCH   1  18
TORSDOF 10
ENDMDL
