MODEL 1
REMARK minimizedAffinity -8.14858913
REMARK CNNscore 0.668689966
REMARK CNNaffinity 7.27145624
REMARK  12 active torsions:
REMARK  status: ('A' for Active; 'I' for Inactive)
REMARK    1  A    between atoms: C2_2  and  C3_3 
REMARK    2  A    between atoms: C2_2  and  C13_14 
REMARK    3  A    between atoms: C3_3  and  C4_4 
REMARK    4  A    between atoms: C4_4  and  C5_5 
REMARK    5  A    between atoms: C13_14  and  C14_15 
REMARK    6  A    between atoms: C14_15  and  O2_16 
REMARK    7  A    between atoms: C14_15  and  C15_17 
REMARK    8  A    between atoms: C16_18  and  C18_20 
REMARK    9  A    between atoms: C18_20  and  C19_21 
REMARK       I    between atoms: C19_21  and  N1_23 
REMARK   10  A    between atoms: N1_23  and  C20_24 
REMARK   11  A    between atoms: C20_24  and  C21_25 
REMARK   12  A    between atoms: C21_25  and  C22_26 
ROOT
HETATM    1  C14 UNL     1      -2.294   2.482  10.962  1.00  0.00     0.145 C 
ENDROOT
BRANCH   1   2
HETATM    2  C13 UNL     1      -3.582   2.194  11.772  1.00  0.00     0.069 C 
BRANCH   2   3
HETATM    3  C2  UNL     1      -4.821   3.007  11.422  1.00  0.00    -0.086 C 
HETATM    4  C1  UNL     1      -5.099   3.304  10.140  1.00  0.00     0.014 C 
BRANCH   3   5
HETATM    5  C3  UNL     1      -5.737   3.467  12.539  1.00  0.00     0.034 C 
BRANCH   5   6
HETATM    6  C4  UNL     1      -5.232   4.680  13.337  1.00  0.00     0.010 C 
BRANCH   6   7
HETATM    7  C5  UNL     1      -6.116   5.957  13.260  1.00  0.00     0.001 C 
HETATM    8  C6  UNL     1      -5.234   7.197  13.557  1.00  0.00     0.006 C 
HETATM    9  C7  UNL     1      -5.198   7.535  15.036  1.00  0.00     0.008 C 
HETATM   10  C8  UNL     1      -6.570   7.980  15.517  1.00  0.00     0.079 C 
HETATM   11  C9  UNL     1      -7.695   7.319  14.747  1.00  0.00     0.135 C 
HETATM   12  O1  UNL     1      -8.801   7.863  14.702  1.00  0.00    -0.297 OA
HETATM   13  C10 UNL     1      -7.432   5.932  14.131  1.00  0.00     0.017 C 
HETATM   14  C11 UNL     1      -7.421   4.946  15.316  1.00  0.00     0.023 C 
HETATM   15  C12 UNL     1      -8.633   5.570  13.232  1.00  0.00     0.023 C 
ENDBRANCH   6   7
ENDBRANCH   5   6
ENDBRANCH   3   5
ENDBRANCH   2   3
ENDBRANCH   1   2
BRANCH   1  16
HETATM   16  O2  UNL     1      -1.759   1.296  10.376  1.00  0.00    -0.391 OA
HETATM   17  H23 UNL     1      -2.514   0.757  10.086  1.00  0.00     0.210 HD
ENDBRANCH   1  16
BRANCH   1  18
HETATM   18  C15 UNL     1      -1.191   3.119  11.761  1.00  0.00     0.007 C 
HETATM   19  C16 UNL     1      -1.079   4.419  12.106  1.00  0.00    -0.076 C 
HETATM   20  C17 UNL     1      -2.115   5.467  11.798  1.00  0.00     0.043 C 
BRANCH  19  21
HETATM   21  C18 UNL     1       0.124   4.915  12.881  1.00  0.00     0.136 C 
BRANCH  21  22
HETATM   22  C19 UNL     1       1.276   5.257  11.939  1.00  0.00     0.221 C 
HETATM   23  O3  UNL     1       1.613   4.522  11.014  1.00  0.00    -0.273 OA
HETATM   24  N1  UNL     1       1.908   6.446  12.233  1.00  0.00    -0.361 N 
HETATM   25  H30 UNL     1       1.751   6.854  13.148  1.00  0.00     0.162 HD
BRANCH  24  26
HETATM   26  C20 UNL     1       3.121   6.848  11.542  1.00  0.00     0.127 C 
BRANCH  26  27
HETATM   27  C21 UNL     1       2.872   7.952  10.507  1.00  0.00     0.058 C 
BRANCH  27  28
HETATM   28  C22 UNL     1       2.614   7.397   9.125  1.00  0.00    -0.057 A 
HETATM   29  C23 UNL     1       3.043   6.105   8.789  1.00  0.00     0.007 A 
HETATM   30  C24 UNL     1       2.843   5.606   7.502  1.00  0.00     0.001 A 
HETATM   31  C25 UNL     1       2.209   6.389   6.541  1.00  0.00     0.000 A 
HETATM   32  C26 UNL     1       1.774   7.674   6.865  1.00  0.00     0.001 A 
HETATM   33  C27 UNL     1       1.980   8.178   8.151  1.00  0.00     0.007 A 
ENDBRANCH  27  28
ENDBRANCH  26  27
ENDBRANCH  24  26
ENDBRANCH  21  22
ENDBRANCH  19  21
ENDBRANCH   1  18
TORSDOF 12
ENDMDL
MODEL 2
REMARK minimizedAffinity -8.3424921
REMARK CNNscore 0.622877002
REMARK CNNaffinity 6.64622259
REMARK  12 active torsions:
REMARK  status: ('A' for Active; 'I' for Inactive)
REMARK    1  A    between atoms: C2_2  and  C3_3 
REMARK    2  A    between atoms: C2_2  and  C13_14 
REMARK    3  A    between atoms: C3_3  and  C4_4 
REMARK    4  A    between atoms: C4_4  and  C5_5 
REMARK    5  A    between atoms: C13_14  and  C14_15 
REMARK    6  A    between atoms: C14_15  and  O2_16 
REMARK    7  A    between atoms: C14_15  and  C15_17 
REMARK    8  A    between atoms: C16_18  and  C18_20 
REMARK    9  A    between atoms: C18_20  and  C19_21 
REMARK       I    between atoms: C19_21  and  N1_23 
REMARK   10  A    between atoms: N1_23  and  C20_24 
REMARK   11  A    between atoms: C20_24  and  C21_25 
REMARK   12  A    between atoms: C21_25  and  C22_26 
ROOT
HETATM    1  C14 UNL     1      -3.809   3.468  11.461  1.00  0.00     0.145 C 
ENDROOT
BRANCH   1   2
HETATM    2  C13 UNL     1      -2.817   4.536  11.984  1.00  0.00     0.069 C 
BRANCH   2   3
HETATM    3  C2  UNL     1      -1.334   4.281  11.753  1.00  0.00    -0.086 C 
HETATM    4  C1  UNL     1      -0.886   3.034  11.520  1.00  0.00     0.014 C 
BRANCH   3   5
HETATM    5  C3  UNL     1      -0.373   5.454  11.784  1.00  0.00     0.034 C 
BRANCH   5   6
HETATM    6  C4  UNL     1       0.040   5.995  10.406  1.00  0.00     0.010 C 
BRANCH   6   7
HETATM    7  C5  UNL     1       1.011   7.208  10.418  1.00  0.00     0.001 C 
HETATM    8  C6  UNL     1       0.559   8.224   9.337  1.00  0.00     0.006 C 
HETATM    9  C7  UNL     1       1.207   7.955   7.990  1.00  0.00     0.008 C 
HETATM   10  C8  UNL     1       2.707   8.190   8.061  1.00  0.00     0.079 C 
HETATM   11  C9  UNL     1       3.274   7.896   9.436  1.00  0.00     0.135 C 
HETATM   12  O1  UNL     1       4.333   8.426   9.782  1.00  0.00    -0.297 OA
HETATM   13  C10 UNL     1       2.546   6.859  10.311  1.00  0.00     0.017 C 
HETATM   14  C11 UNL     1       2.869   5.487   9.685  1.00  0.00     0.023 C 
HETATM   15  C12 UNL     1       3.177   6.891  11.720  1.00  0.00     0.023 C 
ENDBRANCH   6   7
ENDBRANCH   5   6
ENDBRANCH   3   5
ENDBRANCH   2   3
ENDBRANCH   1   2
BRANCH   1  16
HETATM   16  O2  UNL     1      -4.033   3.593  10.058  1.00  0.00    -0.391 OA
HETATM   17  H23 UNL     1      -3.182   3.835   9.655  1.00  0.00     0.210 HD
ENDBRANCH   1  16
BRANCH   1  18
HETATM   18  C15 UNL     1      -5.155   3.495  12.130  1.00  0.00     0.007 C 
HETATM   19  C16 UNL     1      -6.148   2.591  12.005  1.00  0.00    -0.076 C 
HETATM   20  C17 UNL     1      -6.039   1.322  11.201  1.00  0.00     0.043 C 
BRANCH  19  21
HETATM   21  C18 UNL     1      -7.472   2.786  12.717  1.00  0.00     0.136 C 
BRANCH  21  22
HETATM   22  C19 UNL     1      -7.684   4.254  13.078  1.00  0.00     0.221 C 
HETATM   23  O3  UNL     1      -8.114   5.078  12.274  1.00  0.00    -0.273 OA
HETATM   24  N1  UNL     1      -7.334   4.570  14.373  1.00  0.00    -0.361 N 
HETATM   25  H30 UNL     1      -6.751   3.914  14.881  1.00  0.00     0.162 HD
BRANCH  24  26
HETATM   26  C20 UNL     1      -7.320   5.946  14.838  1.00  0.00     0.127 C 
BRANCH  26  27
HETATM   27  C21 UNL     1      -8.495   6.266  15.769  1.00  0.00     0.058 C 
BRANCH  27  28
HETATM   28  C22 UNL     1      -9.353   7.395  15.244  1.00  0.00    -0.057 A 
HETATM   29  C23 UNL     1     -10.371   7.138  14.315  1.00  0.00     0.007 A 
HETATM   30  C24 UNL     1     -11.137   8.184  13.797  1.00  0.00     0.001 A 
HETATM   31  C25 UNL     1     -10.898   9.492  14.208  1.00  0.00     0.000 A 
HETATM   32  C26 UNL     1      -9.891   9.759  15.135  1.00  0.00     0.001 A 
HETATM   33  C27 UNL     1      -9.119   8.715  15.649  1.00  0.00     0.007 A 
ENDBRANCH  27  28
ENDBRANCH  26  27
ENDBRANCH  24  26
ENDBRANCH  21  22
ENDBRANCH  19  21
ENDBRANCH   1  18
TORSDOF 12
ENDMDL
MODEL 3
REMARK minimizedAffinity -7.63374138
REMARK CNNscore 0.602397382
REMARK CNNaffinity 6.5585041
REMARK  12 active torsions:
REMARK  status: ('A' for Active; 'I' for Inactive)
REMARK    1  A    between atoms: C2_2  and  C3_3 
REMARK    2  A    between atoms: C2_2  and  C13_14 
REMARK    3  A    between atoms: C3_3  and  C4_4 
REMARK    4  A    between atoms: C4_4  and  C5_5 
REMARK    5  A    between atoms: C13_14  and  C14_15 
REMARK    6  A    between atoms: C14_15  and  O2_16 
REMARK    7  A    between atoms: C14_15  and  C15_17 
REMARK    8  A    between atoms: C16_18  and  C18_20 
REMARK    9  A    between atoms: C18_20  and  C19_21 
REMARK       I    between atoms: C19_21  and  N1_23 
REMARK   10  A    between atoms: N1_23  and  C20_24 
REMARK   11  A    between atoms: C20_24  and  C21_25 
REMARK   12  A    between atoms: C21_25  and  C22_26 
ROOT
HETATM    1  C14 UNL     1      -7.302   3.997  12.564  1.00  0.00     0.145 C 
ENDROOT
BRANCH   1   2
HETATM    2  C13 UNL     1      -7.728   5.396  13.074  1.00  0.00     0.069 C 
BRANCH   2   3
HETATM    3  C2  UNL     1      -7.348   5.764  14.501  1.00  0.00    -0.086 C 
HETATM    4  C1  UNL     1      -7.600   4.913  15.513  1.00  0.00     0.014 C 
BRANCH   3   5
HETATM    5  C3  UNL     1      -6.675   7.097  14.762  1.00  0.00     0.034 C 
BRANCH   5   6
HETATM    6  C4  UNL     1      -5.352   7.019  15.541  1.00  0.00     0.010 C 
BRANCH   6   7
HETATM    7  C5  UNL     1      -4.343   8.172  15.278  1.00  0.00     0.001 C 
HETATM    8  C6  UNL     1      -4.732   8.888  13.959  1.00  0.00     0.006 C 
HETATM    9  C7  UNL     1      -4.056   8.268  12.749  1.00  0.00     0.008 C 
HETATM   10  C8  UNL     1      -2.552   8.478  12.810  1.00  0.00     0.079 C 
HETATM   11  C9  UNL     1      -2.032   8.531  14.233  1.00  0.00     0.135 C 
HETATM   12  O1  UNL     1      -0.968   9.105  14.470  1.00  0.00    -0.297 OA
HETATM   13  C10 UNL     1      -2.818   7.769  15.318  1.00  0.00     0.017 C 
HETATM   14  C11 UNL     1      -2.523   6.276  15.072  1.00  0.00     0.023 C 
HETATM   15  C12 UNL     1      -2.225   8.144  16.693  1.00  0.00     0.023 C 
ENDBRANCH   6   7
ENDBRANCH   5   6
ENDBRANCH   3   5
ENDBRANCH   2   3
ENDBRANCH   1   2
BRANCH   1  16
HETATM   16  O2  UNL     1      -7.949   2.949  13.284  1.00  0.00    -0.391 OA
HETATM   17  H23 UNL     1      -8.858   3.246  13.461  1.00  0.00     0.210 HD
ENDBRANCH   1  16
BRANCH   1  18
HETATM   18  C15 UNL     1      -5.823   3.738  12.637  1.00  0.00     0.007 C 
HETATM   19  C16 UNL     1      -5.124   2.800  11.964  1.00  0.00    -0.076 C 
HETATM   20  C17 UNL     1      -5.723   1.874  10.938  1.00  0.00     0.043 C 
BRANCH  19  21
HETATM   21  C18 UNL     1      -3.633   2.636  12.182  1.00  0.00     0.136 C 
BRANCH  21  22
HETATM   22  C19 UNL     1      -2.847   3.641  11.345  1.00  0.00     0.221 C 
HETATM   23  O3  UNL     1      -2.876   3.645  10.117  1.00  0.00    -0.273 OA
HETATM   24  N1  UNL     1      -2.093   4.524  12.088  1.00  0.00    -0.361 N 
HETATM   25  H30 UNL     1      -1.915   4.295  13.059  1.00  0.00     0.162 HD
BRANCH  24  26
HETATM   26  C20 UNL     1      -1.162   5.442  11.455  1.00  0.00     0.127 C 
BRANCH  26  27
HETATM   27  C21 UNL     1       0.292   4.965  11.548  1.00  0.00     0.058 C 
BRANCH  27  28
HETATM   28  C22 UNL     1       1.214   5.755  10.647  1.00  0.00    -0.057 A 
HETATM   29  C23 UNL     1       2.534   5.331  10.437  1.00  0.00     0.007 A 
HETATM   30  C24 UNL     1       3.399   6.081   9.639  1.00  0.00     0.001 A 
HETATM   31  C25 UNL     1       2.953   7.255   9.040  1.00  0.00     0.000 A 
HETATM   32  C26 UNL     1       1.641   7.684   9.238  1.00  0.00     0.001 A 
HETATM   33  C27 UNL     1       0.776   6.939  10.042  1.00  0.00     0.007 A 
ENDBRANCH  27  28
ENDBRANCH  26  27
ENDBRANCH  24  26
ENDBRANCH  21  22
ENDBRANCH  19  21
ENDBRANCH   1  18
TORSDOF 12
ENDMDL
MODEL 4
REMARK minimizedAffinity -8.02729607
REMARK CNNscore 0.590135336
REMARK CNNaffinity 7.00736046
REMARK  12 active torsions:
REMARK  status: ('A' for Active; 'I' for Inactive)
REMARK    1  A    between atoms: C2_2  and  C3_3 
REMARK    2  A    between atoms: C2_2  and  C13_14 
REMARK    3  A    between atoms: C3_3  and  C4_4 
REMARK    4  A    between atoms: C4_4  and  C5_5 
REMARK    5  A    between atoms: C13_14  and  C14_15 
REMARK    6  A    between atoms: C14_15  and  O2_16 
REMARK    7  A    between atoms: C14_15  and  C15_17 
REMARK    8  A    between atoms: C16_18  and  C18_20 
REMARK    9  A    between atoms: C18_20  and  C19_21 
REMARK       I    between atoms: C19_21  and  N1_23 
REMARK   10  A    between atoms: N1_23  and  C20_24 
REMARK   11  A    between atoms: C20_24  and  C21_25 
REMARK   12  A    between atoms: C21_25  and  C22_26 
ROOT
HETATM    1  C14 UNL     1      -6.386   6.480  15.533  1.00  0.00     0.145 C 
ENDROOT
BRANCH   1   2
HETATM    2  C13 UNL     1      -7.261   6.939  14.340  1.00  0.00     0.069 C 
BRANCH   2   3
HETATM    3  C2  UNL     1      -8.055   5.868  13.606  1.00  0.00    -0.086 C 
HETATM    4  C1  UNL     1      -9.333   6.094  13.250  1.00  0.00     0.014 C 
BRANCH   3   5
HETATM    5  C3  UNL     1      -7.383   4.549  13.277  1.00  0.00     0.034 C 
BRANCH   5   6
HETATM    6  C4  UNL     1      -6.103   4.663  12.435  1.00  0.00     0.010 C 
BRANCH   6   7
HETATM    7  C5  UNL     1      -5.022   3.577  12.697  1.00  0.00     0.001 C 
HETATM    8  C6  UNL     1      -3.779   4.249  13.334  1.00  0.00     0.006 C 
HETATM    9  C7  UNL     1      -2.784   4.724  12.290  1.00  0.00     0.008 C 
HETATM   10  C8  UNL     1      -2.180   3.542  11.550  1.00  0.00     0.079 C 
HETATM   11  C9  UNL     1      -3.136   2.370  11.451  1.00  0.00     0.135 C 
HETATM   12  O1  UNL     1      -2.690   1.233  11.286  1.00  0.00    -0.297 OA
HETATM   13  C10 UNL     1      -4.648   2.670  11.461  1.00  0.00     0.017 C 
HETATM   14  C11 UNL     1      -4.960   3.277  10.078  1.00  0.00     0.023 C 
HETATM   15  C12 UNL     1      -5.403   1.327  11.565  1.00  0.00     0.023 C 
ENDBRANCH   6   7
ENDBRANCH   5   6
ENDBRANCH   3   5
ENDBRANCH   2   3
ENDBRANCH   1   2
BRANCH   1  16
HETATM   16  O2  UNL     1      -6.786   7.101  16.753  1.00  0.00    -0.391 OA
HETATM   17  H23 UNL     1      -7.756   7.158  16.739  1.00  0.00     0.210 HD
ENDBRANCH   1  16
BRANCH   1  18
HETATM   18  C15 UNL     1      -4.917   6.746  15.359  1.00  0.00     0.007 C 
HETATM   19  C16 UNL     1      -4.311   7.947  15.255  1.00  0.00    -0.076 C 
HETATM   20  C17 UNL     1      -5.025   9.267  15.374  1.00  0.00     0.043 C 
BRANCH  19  21
HETATM   21  C18 UNL     1      -2.814   8.045  15.037  1.00  0.00     0.136 C 
BRANCH  21  22
HETATM   22  C19 UNL     1      -2.491   8.228  13.556  1.00  0.00     0.221 C 
HETATM   23  O3  UNL     1      -3.357   8.230  12.686  1.00  0.00    -0.273 OA
HETATM   24  N1  UNL     1      -1.146   8.371  13.289  1.00  0.00    -0.361 N 
HETATM   25  H30 UNL     1      -0.487   8.098  14.009  1.00  0.00     0.162 HD
BRANCH  24  26
HETATM   26  C20 UNL     1      -0.645   8.395  11.926  1.00  0.00     0.127 C 
BRANCH  26  27
HETATM   27  C21 UNL     1      -0.168   7.018  11.448  1.00  0.00     0.058 C 
BRANCH  27  28
HETATM   28  C22 UNL     1       0.616   7.098  10.158  1.00  0.00    -0.057 A 
HETATM   29  C23 UNL     1       1.696   6.234   9.930  1.00  0.00     0.007 A 
HETATM   30  C24 UNL     1       2.447   6.334   8.759  1.00  0.00     0.001 A 
HETATM   31  C25 UNL     1       2.123   7.291   7.802  1.00  0.00     0.000 A 
HETATM   32  C26 UNL     1       1.048   8.153   8.015  1.00  0.00     0.001 A 
HETATM   33  C27 UNL     1       0.300   8.060   9.190  1.00  0.00     0.007 A 
ENDBRANCH  27  28
ENDBRANCH  26  27
ENDBRANCH  24  26
ENDBRANCH  21  22
ENDBRANCH  19  21
ENDBRANCH   1  18
TORSDOF 12
ENDMDL
MODEL 5
REMARK minimizedAffinity -8.26332855
REMARK CNNscore 0.576642394
REMARK CNNaffinity 6.73019028
REMARK  12 active torsions:
REMARK  status: ('A' for Active; 'I' for Inactive)
REMARK    1  A    between atoms: C2_2  and  C3_3 
REMARK    2  A    between atoms: C2_2  and  C13_14 
REMARK    3  A    between atoms: C3_3  and  C4_4 
REMARK    4  A    between atoms: C4_4  and  C5_5 
REMARK    5  A    between atoms: C13_14  and  C14_15 
REMARK    6  A    between atoms: C14_15  and  O2_16 
REMARK    7  A    between atoms: C14_15  and  C15_17 
REMARK    8  A    between atoms: C16_18  and  C18_20 
REMARK    9  A    between atoms: C18_20  and  C19_21 
REMARK       I    between atoms: C19_21  and  N1_23 
REMARK   10  A    between atoms: N1_23  and  C20_24 
REMARK   11  A    between atoms: C20_24  and  C21_25 
REMARK   12  A    between atoms: C21_25  and  C22_26 
ROOT
HETATM    1  C14 UNL     1      -3.833   3.435  11.464  1.00  0.00     0.145 C 
ENDROOT
BRANCH   1   2
HETATM    2  C13 UNL     1      -2.887   4.531  12.015  1.00  0.00     0.069 C 
BRANCH   2   3
HETATM    3  C2  UNL     1      -1.392   4.324  11.818  1.00  0.00    -0.086 C 
HETATM    4  C1  UNL     1      -0.897   3.089  11.620  1.00  0.00     0.014 C 
BRANCH   3   5
HETATM    5  C3  UNL     1      -0.474   5.530  11.843  1.00  0.00     0.034 C 
BRANCH   5   6
HETATM    6  C4  UNL     1      -0.040   6.047  10.462  1.00  0.00     0.010 C 
BRANCH   6   7
HETATM    7  C5  UNL     1       0.937   7.256  10.468  1.00  0.00     0.001 C 
HETATM    8  C6  UNL     1       0.530   8.237   9.339  1.00  0.00     0.006 C 
HETATM    9  C7  UNL     1       1.223   7.920   8.026  1.00  0.00     0.008 C 
HETATM   10  C8  UNL     1       2.721   8.150   8.142  1.00  0.00     0.079 C 
HETATM   11  C9  UNL     1       3.238   7.900   9.544  1.00  0.00     0.135 C 
HETATM   12  O1  UNL     1       4.287   8.435   9.910  1.00  0.00    -0.297 OA
HETATM   13  C10 UNL     1       2.473   6.895  10.427  1.00  0.00     0.017 C 
HETATM   14  C11 UNL     1       2.809   5.502   9.858  1.00  0.00     0.023 C 
HETATM   15  C12 UNL     1       3.055   6.971  11.855  1.00  0.00     0.023 C 
ENDBRANCH   6   7
ENDBRANCH   5   6
ENDBRANCH   3   5
ENDBRANCH   2   3
ENDBRANCH   1   2
BRANCH   1  16
HETATM   16  O2  UNL     1      -4.081   3.599  10.070  1.00  0.00    -0.391 OA
HETATM   17  H23 UNL     1      -3.249   3.897   9.666  1.00  0.00     0.210 HD
ENDBRANCH   1  16
BRANCH   1  18
HETATM   18  C15 UNL     1      -5.170   3.372  12.149  1.00  0.00     0.007 C 
HETATM   19  C16 UNL     1      -6.105   2.407  12.029  1.00  0.00    -0.076 C 
HETATM   20  C17 UNL     1      -5.924   1.152  11.216  1.00  0.00     0.043 C 
BRANCH  19  21
HETATM   21  C18 UNL     1      -7.430   2.513  12.757  1.00  0.00     0.136 C 
BRANCH  21  22
HETATM   22  C19 UNL     1      -7.779   3.971  13.042  1.00  0.00     0.221 C 
HETATM   23  O3  UNL     1      -8.100   4.760  12.156  1.00  0.00    -0.273 OA
HETATM   24  N1  UNL     1      -7.684   4.322  14.371  1.00  0.00    -0.361 N 
HETATM   25  H30 UNL     1      -7.169   3.706  14.990  1.00  0.00     0.162 HD
BRANCH  24  26
HETATM   26  C20 UNL     1      -7.825   5.703  14.801  1.00  0.00     0.127 C 
BRANCH  26  27
HETATM   27  C21 UNL     1      -7.178   6.693  13.825  1.00  0.00     0.058 C 
BRANCH  27  28
HETATM   28  C22 UNL     1      -5.918   7.311  14.385  1.00  0.00    -0.057 A 
HETATM   29  C23 UNL     1      -5.980   8.498  15.128  1.00  0.00     0.007 A 
HETATM   30  C24 UNL     1      -4.813   9.093  15.610  1.00  0.00     0.001 A 
HETATM   31  C25 UNL     1      -3.576   8.504  15.362  1.00  0.00     0.000 A 
HETATM   32  C26 UNL     1      -3.503   7.320  14.628  1.00  0.00     0.001 A 
HETATM   33  C27 UNL     1      -4.668   6.728  14.138  1.00  0.00     0.007 A 
ENDBRANCH  27  28
ENDBRANCH  26  27
ENDBRANCH  24  26
ENDBRANCH  21  22
ENDBRANCH  19  21
ENDBRANCH   1  18
TORSDOF 12
ENDMDL
MODEL 6
REMARK minimizedAffinity -8.07575226
REMARK CNNscore 0.56919235
REMARK CNNaffinity 7.11728811
REMARK  12 active torsions:
REMARK  status: ('A' for Active; 'I' for Inactive)
REMARK    1  A    between atoms: C2_2  and  C3_3 
REMARK    2  A    between atoms: C2_2  and  C13_14 
REMARK    3  A    between atoms: C3_3  and  C4_4 
REMARK    4  A    between atoms: C4_4  and  C5_5 
REMARK    5  A    between atoms: C13_14  and  C14_15 
REMARK    6  A    between atoms: C14_15  and  O2_16 
REMARK    7  A    between atoms: C14_15  and  C15_17 
REMARK    8  A    between atoms: C16_18  and  C18_20 
REMARK    9  A    between atoms: C18_20  and  C19_21 
REMARK       I    between atoms: C19_21  and  N1_23 
REMARK   10  A    between atoms: N1_23  and  C20_24 
REMARK   11  A    between atoms: C20_24  and  C21_25 
REMARK   12  A    between atoms: C21_25  and  C22_26 
ROOT
HETATM    1  C14 UNL     1      -2.251   3.048  10.780  1.00  0.00     0.145 C 
ENDROOT
BRANCH   1   2
HETATM    2  C13 UNL     1      -3.541   3.858  10.496  1.00  0.00     0.069 C 
BRANCH   2   3
HETATM    3  C2  UNL     1      -4.870   3.182  10.801  1.00  0.00    -0.086 C 
HETATM    4  C1  UNL     1      -5.653   2.739   9.800  1.00  0.00     0.014 C 
BRANCH   3   5
HETATM    5  C3  UNL     1      -5.293   3.010  12.247  1.00  0.00     0.034 C 
BRANCH   5   6
HETATM    6  C4  UNL     1      -5.370   4.311  13.062  1.00  0.00     0.010 C 
BRANCH   6   7
HETATM    7  C5  UNL     1      -6.668   4.512  13.893  1.00  0.00     0.001 C 
HETATM    8  C6  UNL     1      -7.876   3.998  13.070  1.00  0.00     0.006 C 
HETATM    9  C7  UNL     1      -8.484   5.085  12.201  1.00  0.00     0.008 C 
HETATM   10  C8  UNL     1      -9.106   6.172  13.062  1.00  0.00     0.079 C 
HETATM   11  C9  UNL     1      -8.394   6.339  14.389  1.00  0.00     0.135 C 
HETATM   12  O1  UNL     1      -8.996   6.836  15.343  1.00  0.00    -0.297 OA
HETATM   13  C10 UNL     1      -6.900   5.967  14.458  1.00  0.00     0.017 C 
HETATM   14  C11 UNL     1      -6.157   7.093  13.710  1.00  0.00     0.023 C 
HETATM   15  C12 UNL     1      -6.461   6.018  15.937  1.00  0.00     0.023 C 
ENDBRANCH   6   7
ENDBRANCH   5   6
ENDBRANCH   3   5
ENDBRANCH   2   3
ENDBRANCH   1   2
BRANCH   1  16
HETATM   16  O2  UNL     1      -2.524   1.660  10.957  1.00  0.00    -0.391 OA
HETATM   17  H23 UNL     1      -3.225   1.425  10.325  1.00  0.00     0.210 HD
ENDBRANCH   1  16
BRANCH   1  18
HETATM   18  C15 UNL     1      -1.487   3.509  11.990  1.00  0.00     0.007 C 
HETATM   19  C16 UNL     1      -0.701   4.600  12.093  1.00  0.00    -0.076 C 
HETATM   20  C17 UNL     1      -0.512   5.613  10.994  1.00  0.00     0.043 C 
BRANCH  19  21
HETATM   21  C18 UNL     1       0.042   4.904  13.378  1.00  0.00     0.136 C 
BRANCH  21  22
HETATM   22  C19 UNL     1       0.691   6.284  13.319  1.00  0.00     0.221 C 
HETATM   23  O3  UNL     1       0.133   7.297  13.733  1.00  0.00    -0.273 OA
HETATM   24  N1  UNL     1       1.944   6.291  12.744  1.00  0.00    -0.361 N 
HETATM   25  H30 UNL     1       2.221   5.483  12.197  1.00  0.00     0.162 HD
BRANCH  24  26
HETATM   26  C20 UNL     1       2.640   7.535  12.461  1.00  0.00     0.127 C 
BRANCH  26  27
HETATM   27  C21 UNL     1       1.913   8.393  11.418  1.00  0.00     0.058 C 
BRANCH  27  28
HETATM   28  C22 UNL     1       2.020   7.816  10.025  1.00  0.00    -0.057 A 
HETATM   29  C23 UNL     1       1.184   8.280   9.000  1.00  0.00     0.007 A 
HETATM   30  C24 UNL     1       1.252   7.720   7.724  1.00  0.00     0.001 A 
HETATM   31  C25 UNL     1       2.159   6.698   7.458  1.00  0.00     0.000 A 
HETATM   32  C26 UNL     1       2.999   6.231   8.469  1.00  0.00     0.001 A 
HETATM   33  C27 UNL     1       2.927   6.785   9.749  1.00  0.00     0.007 A 
ENDBRANCH  27  28
ENDBRANCH  26  27
ENDBRANCH  24  26
ENDBRANCH  21  22
ENDBRANCH  19  21
ENDBRANCH   1  18
TORSDOF 12
ENDMDL
MODEL 7
REMARK minimizedAffinity -7.69192266
REMARK CNNscore 0.555462122
REMARK CNNaffinity 6.98859358
REMARK  12 active torsions:
REMARK  status: ('A' for Active; 'I' for Inactive)
REMARK    1  A    between atoms: C2_2  and  C3_3 
REMARK    2  A    between atoms: C2_2  and  C13_14 
REMARK    3  A    between atoms: C3_3  and  C4_4 
REMARK    4  A    between atoms: C4_4  and  C5_5 
REMARK    5  A    between atoms: C13_14  and  C14_15 
REMARK    6  A    between atoms: C14_15  and  O2_16 
REMARK    7  A    between atoms: C14_15  and  C15_17 
REMARK    8  A    between atoms: C16_18  and  C18_20 
REMARK    9  A    between atoms: C18_20  and  C19_21 
REMARK       I    between atoms: C19_21  and  N1_23 
REMARK   10  A    between atoms: N1_23  and  C20_24 
REMARK   11  A    between atoms: C20_24  and  C21_25 
REMARK   12  A    between atoms: C21_25  and  C22_26 
ROOT
HETATM    1  C14 UNL     1      -7.399   4.095  12.707  1.00  0.00     0.145 C 
ENDROOT
BRANCH   1   2
HETATM    2  C13 UNL     1      -8.063   5.276  13.458  1.00  0.00     0.069 C 
BRANCH   2   3
HETATM    3  C2  UNL     1      -9.188   6.012  12.744  1.00  0.00    -0.086 C 
HETATM    4  C1  UNL     1      -9.195   6.105  11.402  1.00  0.00     0.014 C 
BRANCH   3   5
HETATM    5  C3  UNL     1     -10.300   6.632  13.567  1.00  0.00     0.034 C 
BRANCH   5   6
HETATM    6  C4  UNL     1     -11.290   7.502  12.776  1.00  0.00     0.010 C 
BRANCH   6   7
HETATM    7  C5  UNL     1     -11.420   8.977  13.246  1.00  0.00     0.001 C 
HETATM    8  C6  UNL     1     -10.477   9.204  14.456  1.00  0.00     0.006 C 
HETATM    9  C7  UNL     1     -11.163   8.915  15.780  1.00  0.00     0.008 C 
HETATM   10  C8  UNL     1     -12.277   9.917  16.035  1.00  0.00     0.079 C 
HETATM   11  C9  UNL     1     -12.914  10.413  14.752  1.00  0.00     0.135 C 
HETATM   12  O1  UNL     1     -13.499  11.498  14.745  1.00  0.00    -0.297 OA
HETATM   13  C10 UNL     1     -12.889   9.480  13.526  1.00  0.00     0.017 C 
HETATM   14  C11 UNL     1     -13.920   8.374  13.825  1.00  0.00     0.023 C 
HETATM   15  C12 UNL     1     -13.398  10.278  12.306  1.00  0.00     0.023 C 
ENDBRANCH   6   7
ENDBRANCH   5   6
ENDBRANCH   3   5
ENDBRANCH   2   3
ENDBRANCH   1   2
BRANCH   1  16
HETATM   16  O2  UNL     1      -8.037   2.853  13.000  1.00  0.00    -0.391 OA
HETATM   17  H23 UNL     1      -8.990   3.032  13.065  1.00  0.00     0.210 HD
ENDBRANCH   1  16
BRANCH   1  18
HETATM   18  C15 UNL     1      -5.935   3.923  12.999  1.00  0.00     0.007 C 
HETATM   19  C16 UNL     1      -4.973   3.519  12.143  1.00  0.00    -0.076 C 
HETATM   20  C17 UNL     1      -5.207   3.234  10.682  1.00  0.00     0.043 C 
BRANCH  19  21
HETATM   21  C18 UNL     1      -3.540   3.351  12.606  1.00  0.00     0.136 C 
BRANCH  21  22
HETATM   22  C19 UNL     1      -2.788   4.678  12.540  1.00  0.00     0.221 C 
HETATM   23  O3  UNL     1      -3.237   5.717  13.016  1.00  0.00    -0.273 OA
HETATM   24  N1  UNL     1      -1.577   4.604  11.886  1.00  0.00    -0.361 N 
HETATM   25  H30 UNL     1      -1.401   3.794  11.303  1.00  0.00     0.162 HD
BRANCH  24  26
HETATM   26  C20 UNL     1      -0.804   5.798  11.592  1.00  0.00     0.127 C 
BRANCH  26  27
HETATM   27  C21 UNL     1       0.620   5.477  11.121  1.00  0.00     0.058 C 
BRANCH  27  28
HETATM   28  C22 UNL     1       1.096   6.426  10.044  1.00  0.00    -0.057 A 
HETATM   29  C23 UNL     1       0.303   7.515   9.658  1.00  0.00     0.007 A 
HETATM   30  C24 UNL     1       0.722   8.367   8.636  1.00  0.00     0.001 A 
HETATM   31  C25 UNL     1       1.938   8.144   7.995  1.00  0.00     0.000 A 
HETATM   32  C26 UNL     1       2.737   7.066   8.375  1.00  0.00     0.001 A 
HETATM   33  C27 UNL     1       2.316   6.208   9.392  1.00  0.00     0.007 A 
ENDBRANCH  27  28
ENDBRANCH  26  27
ENDBRANCH  24  26
ENDBRANCH  21  22
ENDBRANCH  19  21
ENDBRANCH   1  18
TORSDOF 12
ENDMDL
MODEL 8
REMARK minimizedAffinity -8.03048897
REMARK CNNscore 0.532658875
REMARK CNNaffinity 6.72090292
REMARK  12 active torsions:
REMARK  status: ('A' for Active; 'I' for Inactive)
REMARK    1  A    between atoms: C2_2  and  C3_3 
REMARK    2  A    between atoms: C2_2  and  C13_14 
REMARK    3  A    between atoms: C3_3  and  C4_4 
REMARK    4  A    between atoms: C4_4  and  C5_5 
REMARK    5  A    between atoms: C13_14  and  C14_15 
REMARK    6  A    between atoms: C14_15  and  O2_16 
REMARK    7  A    between atoms: C14_15  and  C15_17 
REMARK    8  A    between atoms: C16_18  and  C18_20 
REMARK    9  A    between atoms: C18_20  and  C19_21 
REMARK       I    between atoms: C19_21  and  N1_23 
REMARK   10  A    between atoms: N1_23  and  C20_24 
REMARK   11  A    between atoms: C20_24  and  C21_25 
REMARK   12  A    between atoms: C21_25  and  C22_26 
ROOT
HETATM    1  C14 UNL     1      -1.815   9.538  13.939  1.00  0.00     0.145 C 
ENDROOT
BRANCH   1   2
HETATM    2  C13 UNL     1      -3.088   8.982  13.255  1.00  0.00     0.069 C 
BRANCH   2   3
HETATM    3  C2  UNL     1      -3.965   8.043  14.073  1.00  0.00    -0.086 C 
HETATM    4  C1  UNL     1      -4.799   8.533  15.007  1.00  0.00     0.014 C 
BRANCH   3   5
HETATM    5  C3  UNL     1      -3.887   6.551  13.812  1.00  0.00     0.034 C 
BRANCH   5   6
HETATM    6  C4  UNL     1      -5.091   5.958  13.062  1.00  0.00     0.010 C 
BRANCH   6   7
HETATM    7  C5  UNL     1      -5.375   4.452  13.323  1.00  0.00     0.001 C 
HETATM    8  C6  UNL     1      -4.378   3.602  12.494  1.00  0.00     0.006 C 
HETATM    9  C7  UNL     1      -4.915   3.273  11.112  1.00  0.00     0.008 C 
HETATM   10  C8  UNL     1      -6.127   2.362  11.211  1.00  0.00     0.079 C 
HETATM   11  C9  UNL     1      -6.921   2.591  12.481  1.00  0.00     0.135 C 
HETATM   12  O1  UNL     1      -7.641   1.691  12.918  1.00  0.00    -0.297 OA
HETATM   13  C10 UNL     1      -6.871   3.992  13.121  1.00  0.00     0.017 C 
HETATM   14  C11 UNL     1      -7.722   4.897  12.208  1.00  0.00     0.023 C 
HETATM   15  C12 UNL     1      -7.573   3.918  14.494  1.00  0.00     0.023 C 
ENDBRANCH   6   7
ENDBRANCH   5   6
ENDBRANCH   3   5
ENDBRANCH   2   3
ENDBRANCH   1   2
BRANCH   1  16
HETATM   16  O2  UNL     1      -1.233  10.604  13.192  1.00  0.00    -0.391 OA
HETATM   17  H23 UNL     1      -1.966  11.128  12.827  1.00  0.00     0.210 HD
ENDBRANCH   1  16
BRANCH   1  18
HETATM   18  C15 UNL     1      -0.738   8.514  14.164  1.00  0.00     0.007 C 
HETATM   19  C16 UNL     1      -0.197   7.682  13.250  1.00  0.00    -0.076 C 
HETATM   20  C17 UNL     1      -0.547   7.696  11.784  1.00  0.00     0.043 C 
BRANCH  19  21
HETATM   21  C18 UNL     1       0.857   6.668  13.647  1.00  0.00     0.136 C 
BRANCH  21  22
HETATM   22  C19 UNL     1       2.256   7.181  13.320  1.00  0.00     0.221 C 
HETATM   23  O3  UNL     1       2.818   8.045  13.988  1.00  0.00    -0.273 OA
HETATM   24  N1  UNL     1       2.819   6.602  12.202  1.00  0.00    -0.361 N 
HETATM   25  H30 UNL     1       2.206   6.106  11.565  1.00  0.00     0.162 HD
BRANCH  24  26
HETATM   26  C20 UNL     1       4.075   7.082  11.654  1.00  0.00     0.127 C 
BRANCH  26  27
HETATM   27  C21 UNL     1       3.877   8.139  10.561  1.00  0.00     0.058 C 
BRANCH  27  28
HETATM   28  C22 UNL     1       3.327   7.548   9.283  1.00  0.00    -0.057 A 
HETATM   29  C23 UNL     1       2.759   8.377   8.306  1.00  0.00     0.007 A 
HETATM   30  C24 UNL     1       2.213   7.829   7.144  1.00  0.00     0.001 A 
HETATM   31  C25 UNL     1       2.237   6.452   6.944  1.00  0.00     0.000 A 
HETATM   32  C26 UNL     1       2.804   5.618   7.907  1.00  0.00     0.001 A 
HETATM   33  C27 UNL     1       3.343   6.163   9.074  1.00  0.00     0.007 A 
ENDBRANCH  27  28
ENDBRANCH  26  27
ENDBRANCH  24  26
ENDBRANCH  21  22
ENDBRANCH  19  21
ENDBRANCH   1  18
TORSDOF 12
ENDMDL
MODEL 9
REMARK minimizedAffinity -7.34529495
REMARK CNNscore 0.531584859
REMARK CNNaffinity 6.73659706
REMARK  12 active torsions:
REMARK  status: ('A' for Active; 'I' for Inactive)
REMARK    1  A    between atoms: C2_2  and  C3_3 
REMARK    2  A    between atoms: C2_2  and  C13_14 
REMARK    3  A    between atoms: C3_3  and  C4_4 
REMARK    4  A    between atoms: C4_4  and  C5_5 
REMARK    5  A    between atoms: C13_14  and  C14_15 
REMARK    6  A    between atoms: C14_15  and  O2_16 
REMARK    7  A    between atoms: C14_15  and  C15_17 
REMARK    8  A    between atoms: C16_18  and  C18_20 
REMARK    9  A    between atoms: C18_20  and  C19_21 
REMARK       I    between atoms: C19_21  and  N1_23 
REMARK   10  A    between atoms: N1_23  and  C20_24 
REMARK   11  A    between atoms: C20_24  and  C21_25 
REMARK   12  A    between atoms: C21_25  and  C22_26 
ROOT
HETATM    1  C14 UNL     1      -7.193   3.483  13.046  1.00  0.00     0.145 C 
ENDROOT
BRANCH   1   2
HETATM    2  C13 UNL     1      -6.145   3.384  11.911  1.00  0.00     0.069 C 
BRANCH   2   3
HETATM    3  C2  UNL     1      -4.678   3.475  12.306  1.00  0.00    -0.086 C 
HETATM    4  C1  UNL     1      -3.815   2.506  11.948  1.00  0.00     0.014 C 
BRANCH   3   5
HETATM    5  C3  UNL     1      -4.204   4.674  13.104  1.00  0.00     0.034 C 
BRANCH   5   6
HETATM    6  C4  UNL     1      -2.679   4.790  13.263  1.00  0.00     0.010 C 
BRANCH   6   7
HETATM    7  C5  UNL     1      -1.962   5.724  12.248  1.00  0.00     0.001 C 
HETATM    8  C6  UNL     1      -0.999   4.874  11.379  1.00  0.00     0.006 C 
HETATM    9  C7  UNL     1       0.389   4.777  11.988  1.00  0.00     0.008 C 
HETATM   10  C8  UNL     1       1.064   6.139  12.001  1.00  0.00     0.079 C 
HETATM   11  C9  UNL     1       0.072   7.276  12.137  1.00  0.00     0.135 C 
HETATM   12  O1  UNL     1       0.381   8.402  11.741  1.00  0.00    -0.297 OA
HETATM   13  C10 UNL     1      -1.256   6.992  12.865  1.00  0.00     0.017 C 
HETATM   14  C11 UNL     1      -0.895   6.886  14.360  1.00  0.00     0.023 C 
HETATM   15  C12 UNL     1      -2.171   8.223  12.690  1.00  0.00     0.023 C 
ENDBRANCH   6   7
ENDBRANCH   5   6
ENDBRANCH   3   5
ENDBRANCH   2   3
ENDBRANCH   1   2
BRANCH   1  16
HETATM   16  O2  UNL     1      -8.267   2.563  12.859  1.00  0.00    -0.391 OA
HETATM   17  H23 UNL     1      -7.882   1.746  12.500  1.00  0.00     0.210 HD
ENDBRANCH   1  16
BRANCH   1  18
HETATM   18  C15 UNL     1      -7.801   4.849  13.208  1.00  0.00     0.007 C 
HETATM   19  C16 UNL     1      -7.907   5.566  14.346  1.00  0.00    -0.076 C 
HETATM   20  C17 UNL     1      -7.347   5.130  15.675  1.00  0.00     0.043 C 
BRANCH  19  21
HETATM   21  C18 UNL     1      -8.591   6.918  14.351  1.00  0.00     0.136 C 
BRANCH  21  22
HETATM   22  C19 UNL     1     -10.021   6.806  13.829  1.00  0.00     0.221 C 
HETATM   23  O3  UNL     1     -10.288   6.783  12.631  1.00  0.00    -0.273 OA
HETATM   24  N1  UNL     1     -10.977   6.752  14.821  1.00  0.00    -0.361 N 
HETATM   25  H30 UNL     1     -10.710   7.039  15.756  1.00  0.00     0.162 HD
BRANCH  24  26
HETATM   26  C20 UNL     1     -12.395   6.805  14.507  1.00  0.00     0.127 C 
BRANCH  26  27
HETATM   27  C21 UNL     1     -12.900   8.237  14.296  1.00  0.00     0.058 C 
BRANCH  27  28
HETATM   28  C22 UNL     1     -12.059   9.257  15.031  1.00  0.00    -0.057 A 
HETATM   29  C23 UNL     1     -11.229  10.135  14.320  1.00  0.00     0.007 A 
HETATM   30  C24 UNL     1     -10.422  11.049  14.998  1.00  0.00     0.001 A 
HETATM   31  C25 UNL     1     -10.441  11.099  16.389  1.00  0.00     0.000 A 
HETATM   32  C26 UNL     1     -11.266  10.233  17.106  1.00  0.00     0.001 A 
HETATM   33  C27 UNL     1     -12.069   9.313  16.430  1.00  0.00     0.007 A 
ENDBRANCH  27  28
ENDBRANCH  26  27
ENDBRANCH  24  26
ENDBRANCH  21  22
ENDBRANCH  19  21
ENDBRANCH   1  18
TORSDOF 12
ENDMDL
