MODEL 1
REMARK minimizedAffinity -8.99125862
REMARK  4 active torsions:
REMARK  status: ('A' for Active; 'I' for Inactive)
REMARK    1  A    between atoms: C10_11  and  O2_12 
REMARK    2  A    between atoms: C14_16  and  C15_17 
REMARK    3  A    between atoms: C15_17  and  O3_18 
REMARK    4  A    between atoms: C16_20  and  O5_21 
ROOT
HETATM    1  C1  UNL     1      -1.428   8.760  12.309  1.00  0.00     0.023 C 
HETATM    2  C2  UNL     1      -0.030   8.142  12.449  1.00  0.00     0.018 C 
HETATM    3  C3  UNL     1       0.896   9.192  13.102  1.00  0.00     0.023 C 
HETATM    4  C4  UNL     1       0.512   7.895  11.030  1.00  0.00     0.135 C 
HETATM    5  O1  UNL     1       0.862   8.816  10.291  1.00  0.00    -0.297 OA
HETATM    6  C5  UNL     1       0.621   6.464  10.567  1.00  0.00     0.080 C 
HETATM    7  C6  UNL     1      -0.612   5.700  11.020  1.00  0.00     0.022 C 
HETATM    8  C7  UNL     1      -0.743   5.585  12.573  1.00  0.00    -0.007 C 
HETATM    9  C8  UNL     1      -0.053   4.262  13.015  1.00  0.00     0.021 C 
HETATM   10  C9  UNL     1      -2.217   5.484  13.017  1.00  0.00     0.003 A 
HETATM   11  C10 UNL     1      -3.142   4.668  12.335  1.00  0.00     0.107 A 
HETATM   12  C11 UNL     1      -4.469   4.620  12.732  1.00  0.00     0.112 A 
HETATM   13  C12 UNL     1      -4.935   5.335  13.809  1.00  0.00     0.015 A 
HETATM   14  C13 UNL     1      -6.367   5.029  14.029  1.00  0.00     0.079 C 
HETATM   15  C14 UNL     1      -6.678   4.337  12.693  1.00  0.00     0.157 C 
HETATM   16  O4  UNL     1      -5.424   3.850  12.118  1.00  0.00    -0.340 OA
HETATM   17  C16 UNL     1      -4.066   6.117  14.538  1.00  0.00     0.089 A 
HETATM   18  C17 UNL     1      -2.705   6.188  14.154  1.00  0.00     0.053 A 
HETATM   19  C18 UNL     1      -1.784   6.988  14.997  1.00  0.00     0.163 C 
HETATM   20  O6  UNL     1      -2.231   7.660  15.924  1.00  0.00    -0.292 OA
HETATM   21  C19 UNL     1      -0.314   6.889  14.738  1.00  0.00     0.091 C 
HETATM   22  C20 UNL     1       0.022   6.785  13.249  1.00  0.00     0.021 C 
ENDROOT
BRANCH  15  23
HETATM   23  C15 UNL     1      -7.639   3.156  12.829  1.00  0.00     0.196 C 
BRANCH  23  24
HETATM   24  O3  UNL     1      -8.950   3.586  13.191  1.00  0.00    -0.398 OA
HETATM   25  H20 UNL     1      -8.846   4.212  13.930  1.00  0.00     0.209 HD
ENDBRANCH  23  24
ENDBRANCH  15  23
BRANCH  17  26
HETATM   26  O5  UNL     1      -4.589   6.775  15.617  1.00  0.00    -0.359 OA
HETATM   27  H21 UNL     1      -3.870   7.302  16.034  1.00  0.00     0.217 HD
ENDBRANCH  17  26
BRANCH  11  28
HETATM   28  O2  UNL     1      -2.764   3.891  11.278  1.00  0.00    -0.357 OA
HETATM   29  H14 UNL     1      -3.569   3.427  10.974  1.00  0.00     0.217 HD
ENDBRANCH  11  28
TORSDOF 4
ENDMDL
MODEL 2
REMARK minimizedAffinity -8.8625536
REMARK  4 active torsions:
REMARK  status: ('A' for Active; 'I' for Inactive)
REMARK    1  A    between atoms: C10_11  and  O2_12 
REMARK    2  A    between atoms: C14_16  and  C15_17 
REMARK    3  A    between atoms: C15_17  and  O3_18 
REMARK    4  A    between atoms: C16_20  and  O5_21 
ROOT
HETATM    1  C1  UNL     1      -0.109   5.436  14.651  1.00  0.00     0.023 C 
HETATM    2  C2  UNL     1       0.283   6.857  14.222  1.00  0.00     0.018 C 
HETATM    3  C3  UNL     1       1.787   6.853  13.869  1.00  0.00     0.023 C 
HETATM    4  C4  UNL     1       0.118   7.772  15.449  1.00  0.00     0.135 C 
HETATM    5  O1  UNL     1       0.883   7.722  16.413  1.00  0.00    -0.297 OA
HETATM    6  C5  UNL     1      -1.018   8.764  15.428  1.00  0.00     0.080 C 
HETATM    7  C6  UNL     1      -2.252   8.093  14.847  1.00  0.00     0.022 C 
HETATM    8  C7  UNL     1      -2.091   7.673  13.350  1.00  0.00    -0.007 C 
HETATM    9  C8  UNL     1      -2.603   8.846  12.466  1.00  0.00     0.021 C 
HETATM   10  C9  UNL     1      -2.960   6.446  13.004  1.00  0.00     0.003 A 
HETATM   11  C10 UNL     1      -4.289   6.328  13.459  1.00  0.00     0.107 A 
HETATM   12  C11 UNL     1      -5.039   5.201  13.164  1.00  0.00     0.112 A 
HETATM   13  C12 UNL     1      -4.540   4.171  12.403  1.00  0.00     0.015 A 
HETATM   14  C13 UNL     1      -5.590   3.145  12.201  1.00  0.00     0.079 C 
HETATM   15  C14 UNL     1      -6.592   3.607  13.270  1.00  0.00     0.157 C 
HETATM   16  O4  UNL     1      -6.336   5.017  13.570  1.00  0.00    -0.340 OA
HETATM   17  C16 UNL     1      -3.261   4.251  11.897  1.00  0.00     0.089 A 
HETATM   18  C17 UNL     1      -2.471   5.390  12.186  1.00  0.00     0.053 A 
HETATM   19  C18 UNL     1      -1.122   5.474  11.574  1.00  0.00     0.163 C 
HETATM   20  O6  UNL     1      -0.676   4.520  10.940  1.00  0.00    -0.292 OA
HETATM   21  C19 UNL     1      -0.370   6.764  11.682  1.00  0.00     0.091 C 
HETATM   22  C20 UNL     1      -0.563   7.453  13.034  1.00  0.00     0.021 C 
ENDROOT
BRANCH  15  23
HETATM   23  C15 UNL     1      -8.051   3.462  12.838  1.00  0.00     0.196 C 
BRANCH  23  24
HETATM   24  O3  UNL     1      -8.390   2.100  12.587  1.00  0.00    -0.398 OA
HETATM   25  H20 UNL     1      -7.682   1.733  12.027  1.00  0.00     0.209 HD
ENDBRANCH  23  24
ENDBRANCH  15  23
BRANCH  17  26
HETATM   26  O5  UNL     1      -2.840   3.208  11.121  1.00  0.00    -0.359 OA
HETATM   27  H21 UNL     1      -1.913   3.387  10.841  1.00  0.00     0.217 HD
ENDBRANCH  17  26
BRANCH  11  28
HETATM   28  O2  UNL     1      -4.885   7.318  14.187  1.00  0.00    -0.357 OA
HETATM   29  H14 UNL     1      -5.790   7.007  14.386  1.00  0.00     0.217 HD
ENDBRANCH  11  28
TORSDOF 4
ENDMDL
MODEL 3
REMARK minimizedAffinity -8.23007298
REMARK  4 active torsions:
REMARK  status: ('A' for Active; 'I' for Inactive)
REMARK    1  A    between atoms: C10_11  and  O2_12 
REMARK    2  A    between atoms: C14_16  and  C15_17 
REMARK    3  A    between atoms: C15_17  and  O3_18 
REMARK    4  A    between atoms: C16_20  and  O5_21 
ROOT
HETATM    1  C1  UNL     1       3.370   8.306   8.923  1.00  0.00     0.023 C 
HETATM    2  C2  UNL     1       2.138   7.393   9.006  1.00  0.00     0.018 C 
HETATM    3  C3  UNL     1       2.010   6.638   7.663  1.00  0.00     0.023 C 
HETATM    4  C4  UNL     1       0.899   8.297   9.125  1.00  0.00     0.135 C 
HETATM    5  O1  UNL     1       0.485   8.972   8.182  1.00  0.00    -0.297 OA
HETATM    6  C5  UNL     1       0.182   8.321  10.452  1.00  0.00     0.080 C 
HETATM    7  C6  UNL     1       1.209   8.338  11.572  1.00  0.00     0.022 C 
HETATM    8  C7  UNL     1       2.084   7.045  11.640  1.00  0.00    -0.007 C 
HETATM    9  C8  UNL     1       1.391   6.047  12.611  1.00  0.00     0.021 C 
HETATM   10  C9  UNL     1       3.483   7.332  12.224  1.00  0.00     0.003 A 
HETATM   11  C10 UNL     1       3.659   8.164  13.348  1.00  0.00     0.107 A 
HETATM   12  C11 UNL     1       4.928   8.435  13.834  1.00  0.00     0.112 A 
HETATM   13  C12 UNL     1       6.058   7.892  13.269  1.00  0.00     0.015 A 
HETATM   14  C13 UNL     1       7.251   8.305  14.044  1.00  0.00     0.079 C 
HETATM   15  C14 UNL     1       6.626   9.437  14.873  1.00  0.00     0.157 C 
HETATM   16  O4  UNL     1       5.177   9.232  14.922  1.00  0.00    -0.340 OA
HETATM   17  C16 UNL     1       5.942   7.039  12.194  1.00  0.00     0.089 A 
HETATM   18  C17 UNL     1       4.658   6.747  11.674  1.00  0.00     0.053 A 
HETATM   19  C18 UNL     1       4.563   5.776  10.557  1.00  0.00     0.163 C 
HETATM   20  O6  UNL     1       5.588   5.343  10.033  1.00  0.00    -0.292 OA
HETATM   21  C19 UNL     1       3.208   5.288  10.150  1.00  0.00     0.091 C 
HETATM   22  C20 UNL     1       2.139   6.380  10.212  1.00  0.00     0.021 C 
ENDROOT
BRANCH  15  23
HETATM   23  C15 UNL     1       7.154   9.505  16.306  1.00  0.00     0.196 C 
BRANCH  23  24
HETATM   24  O3  UNL     1       7.387   8.203  16.840  1.00  0.00    -0.398 OA
HETATM   25  H20 UNL     1       6.594   7.672  16.642  1.00  0.00     0.209 HD
ENDBRANCH  23  24
ENDBRANCH  15  23
BRANCH  17  26
HETATM   26  O5  UNL     1       7.102   6.509  11.702  1.00  0.00    -0.359 OA
HETATM   27  H21 UNL     1       6.877   5.935  10.935  1.00  0.00     0.217 HD
ENDBRANCH  17  26
BRANCH  11  28
HETATM   28  O2  UNL     1       2.595   8.717  14.002  1.00  0.00    -0.357 OA
HETATM   29  H14 UNL     1       2.966   9.248  14.733  1.00  0.00     0.217 HD
ENDBRANCH  11  28
TORSDOF 4
ENDMDL
MODEL 4
REMARK minimizedAffinity -8.09826279
REMARK  4 active torsions:
REMARK  status: ('A' for Active; 'I' for Inactive)
REMARK    1  A    between atoms: C10_11  and  O2_12 
REMARK    2  A    between atoms: C14_16  and  C15_17 
REMARK    3  A    between atoms: C15_17  and  O3_18 
REMARK    4  A    between atoms: C16_20  and  O5_21 
ROOT
HETATM    1  C1  UNL     1      -4.139   7.559  13.107  1.00  0.00     0.023 C 
HETATM    2  C2  UNL     1      -3.939   7.512  14.629  1.00  0.00     0.018 C 
HETATM    3  C3  UNL     1      -5.077   6.661  15.236  1.00  0.00     0.023 C 
HETATM    4  C4  UNL     1      -4.124   8.943  15.164  1.00  0.00     0.135 C 
HETATM    5  O1  UNL     1      -5.225   9.493  15.204  1.00  0.00    -0.297 OA
HETATM    6  C5  UNL     1      -2.896   9.662  15.663  1.00  0.00     0.080 C 
HETATM    7  C6  UNL     1      -1.737   9.378  14.722  1.00  0.00     0.022 C 
HETATM    8  C7  UNL     1      -1.308   7.876  14.691  1.00  0.00    -0.007 C 
HETATM    9  C8  UNL     1      -0.186   7.676  15.751  1.00  0.00     0.021 C 
HETATM   10  C9  UNL     1      -0.703   7.482  13.327  1.00  0.00     0.003 A 
HETATM   11  C10 UNL     1       0.209   8.319  12.652  1.00  0.00     0.107 A 
HETATM   12  C11 UNL     1       0.712   7.960  11.412  1.00  0.00     0.112 A 
HETATM   13  C12 UNL     1       0.373   6.777  10.801  1.00  0.00     0.015 A 
HETATM   14  C13 UNL     1       1.118   6.640   9.528  1.00  0.00     0.079 C 
HETATM   15  C14 UNL     1       1.615   8.086   9.379  1.00  0.00     0.157 C 
HETATM   16  O4  UNL     1       1.602   8.721  10.698  1.00  0.00    -0.340 OA
HETATM   17  C16 UNL     1      -0.482   5.901  11.434  1.00  0.00     0.089 A 
HETATM   18  C17 UNL     1      -1.015   6.243  12.701  1.00  0.00     0.053 A 
HETATM   19  C18 UNL     1      -1.882   5.251  13.382  1.00  0.00     0.163 C 
HETATM   20  O6  UNL     1      -2.214   4.223  12.796  1.00  0.00    -0.292 OA
HETATM   21  C19 UNL     1      -2.264   5.501  14.808  1.00  0.00     0.091 C 
HETATM   22  C20 UNL     1      -2.535   6.977  15.102  1.00  0.00     0.021 C 
ENDROOT
BRANCH  15  23
HETATM   23  C15 UNL     1       3.029   8.187   8.807  1.00  0.00     0.196 C 
BRANCH  23  24
HETATM   24  O3  UNL     1       3.048   8.922   7.585  1.00  0.00    -0.398 OA
HETATM   25  H20 UNL     1       2.327   8.567   7.032  1.00  0.00     0.209 HD
ENDBRANCH  23  24
ENDBRANCH  15  23
BRANCH  17  26
HETATM   26  O5  UNL     1      -0.751   4.728  10.786  1.00  0.00    -0.359 OA
HETATM   27  H21 UNL     1      -1.380   4.209  11.337  1.00  0.00     0.217 HD
ENDBRANCH  17  26
BRANCH  11  28
HETATM   28  O2  UNL     1       0.636   9.496  13.198  1.00  0.00    -0.357 OA
HETATM   29  H14 UNL     1       1.251   9.893  12.550  1.00  0.00     0.217 HD
ENDBRANCH  11  28
TORSDOF 4
ENDMDL
MODEL 5
REMARK minimizedAffinity -7.6326499
REMARK  4 active torsions:
REMARK  status: ('A' for Active; 'I' for Inactive)
REMARK    1  A    between atoms: C10_11  and  O2_12 
REMARK    2  A    between atoms: C14_16  and  C15_17 
REMARK    3  A    between atoms: C15_17  and  O3_18 
REMARK    4  A    between atoms: C16_20  and  O5_21 
ROOT
HETATM    1  C1  UNL     1      -3.411   8.956  13.138  1.00  0.00     0.023 C 
HETATM    2  C2  UNL     1      -2.681   9.373  14.423  1.00  0.00     0.018 C 
HETATM    3  C3  UNL     1      -3.625  10.287  15.236  1.00  0.00     0.023 C 
HETATM    4  C4  UNL     1      -1.475  10.236  14.011  1.00  0.00     0.135 C 
HETATM    5  O1  UNL     1      -1.606  11.379  13.571  1.00  0.00    -0.297 OA
HETATM    6  C5  UNL     1      -0.102   9.637  14.181  1.00  0.00     0.080 C 
HETATM    7  C6  UNL     1      -0.138   8.181  13.750  1.00  0.00     0.022 C 
HETATM    8  C7  UNL     1      -1.053   7.284  14.645  1.00  0.00    -0.007 C 
HETATM    9  C8  UNL     1      -0.173   6.680  15.777  1.00  0.00     0.021 C 
HETATM   10  C9  UNL     1      -1.636   6.094  13.855  1.00  0.00     0.003 A 
HETATM   11  C10 UNL     1      -0.846   5.340  12.962  1.00  0.00     0.107 A 
HETATM   12  C11 UNL     1      -1.400   4.296  12.238  1.00  0.00     0.112 A 
HETATM   13  C12 UNL     1      -2.719   3.934  12.372  1.00  0.00     0.015 A 
HETATM   14  C13 UNL     1      -3.000   2.749  11.528  1.00  0.00     0.079 C 
HETATM   15  C14 UNL     1      -1.737   2.767  10.653  1.00  0.00     0.157 C 
HETATM   16  O4  UNL     1      -0.695   3.519  11.354  1.00  0.00    -0.340 OA
HETATM   17  C16 UNL     1      -3.527   4.610  13.260  1.00  0.00     0.089 A 
HETATM   18  C17 UNL     1      -2.989   5.683  14.011  1.00  0.00     0.053 A 
HETATM   19  C18 UNL     1      -3.868   6.347  15.004  1.00  0.00     0.163 C 
HETATM   20  O6  UNL     1      -5.057   6.042  15.070  1.00  0.00    -0.292 OA
HETATM   21  C19 UNL     1      -3.254   7.323  15.958  1.00  0.00     0.091 C 
HETATM   22  C20 UNL     1      -2.164   8.180  15.313  1.00  0.00     0.021 C 
ENDROOT
BRANCH  15  23
HETATM   23  C15 UNL     1      -1.197   1.372  10.337  1.00  0.00     0.196 C 
BRANCH  23  24
HETATM   24  O3  UNL     1       0.143   1.213  10.798  1.00  0.00    -0.398 OA
HETATM   25  H20 UNL     1       0.637   2.000  10.505  1.00  0.00     0.209 HD
ENDBRANCH  23  24
ENDBRANCH  15  23
BRANCH  17  26
HETATM   26  O5  UNL     1      -4.819   4.176  13.368  1.00  0.00    -0.359 OA
HETATM   27  H21 UNL     1      -5.283   4.750  14.019  1.00  0.00     0.217 HD
ENDBRANCH  17  26
BRANCH  11  28
HETATM   28  O2  UNL     1       0.484   5.598  12.793  1.00  0.00    -0.357 OA
HETATM   29  H14 UNL     1       0.807   4.956  12.131  1.00  0.00     0.217 HD
ENDBRANCH  11  28
TORSDOF 4
ENDMDL
MODEL 6
REMARK minimizedAffinity -7.62516785
REMARK  4 active torsions:
REMARK  status: ('A' for Active; 'I' for Inactive)
REMARK    1  A    between atoms: C10_11  and  O2_12 
REMARK    2  A    between atoms: C14_16  and  C15_17 
REMARK    3  A    between atoms: C15_17  and  O3_18 
REMARK    4  A    between atoms: C16_20  and  O5_21 
ROOT
HETATM    1  C1  UNL     1      -4.030   8.999  13.501  1.00  0.00     0.023 C 
HETATM    2  C2  UNL     1      -2.759   8.985  14.362  1.00  0.00     0.018 C 
HETATM    3  C3  UNL     1      -2.898  10.083  15.440  1.00  0.00     0.023 C 
HETATM    4  C4  UNL     1      -1.584   9.399  13.458  1.00  0.00     0.135 C 
HETATM    5  O1  UNL     1      -1.442  10.553  13.052  1.00  0.00    -0.297 OA
HETATM    6  C5  UNL     1      -0.582   8.334  13.090  1.00  0.00     0.080 C 
HETATM    7  C6  UNL     1      -1.321   7.042  12.782  1.00  0.00     0.022 C 
HETATM    8  C7  UNL     1      -2.075   6.442  14.011  1.00  0.00    -0.007 C 
HETATM    9  C8  UNL     1      -1.115   5.444  14.722  1.00  0.00     0.021 C 
HETATM   10  C9  UNL     1      -3.316   5.632  13.581  1.00  0.00     0.003 A 
HETATM   11  C10 UNL     1      -3.278   4.746  12.484  1.00  0.00     0.107 A 
HETATM   12  C11 UNL     1      -4.414   4.055  12.096  1.00  0.00     0.112 A 
HETATM   13  C12 UNL     1      -5.608   4.177  12.766  1.00  0.00     0.015 A 
HETATM   14  C13 UNL     1      -6.613   3.269  12.165  1.00  0.00     0.079 C 
HETATM   15  C14 UNL     1      -5.884   2.929  10.857  1.00  0.00     0.157 C 
HETATM   16  O4  UNL     1      -4.454   3.177  11.043  1.00  0.00    -0.340 OA
HETATM   17  C16 UNL     1      -5.692   4.996  13.871  1.00  0.00     0.089 A 
HETATM   18  C17 UNL     1      -4.547   5.718  14.288  1.00  0.00     0.053 A 
HETATM   19  C18 UNL     1      -4.654   6.541  15.518  1.00  0.00     0.163 C 
HETATM   20  O6  UNL     1      -5.743   6.677  16.071  1.00  0.00    -0.292 OA
HETATM   21  C19 UNL     1      -3.403   7.124  16.095  1.00  0.00     0.091 C 
HETATM   22  C20 UNL     1      -2.417   7.598  15.026  1.00  0.00     0.021 C 
ENDROOT
BRANCH  15  23
HETATM   23  C15 UNL     1      -6.070   1.476  10.418  1.00  0.00     0.196 C 
BRANCH  23  24
HETATM   24  O3  UNL     1      -6.732   0.707  11.420  1.00  0.00    -0.398 OA
HETATM   25  H20 UNL     1      -6.288   0.903  12.265  1.00  0.00     0.209 HD
ENDBRANCH  23  24
ENDBRANCH  15  23
BRANCH  17  26
HETATM   26  O5  UNL     1      -6.899   5.046  14.510  1.00  0.00    -0.359 OA
HETATM   27  H21 UNL     1      -6.823   5.673  15.264  1.00  0.00     0.217 HD
ENDBRANCH  17  26
BRANCH  11  28
HETATM   28  O2  UNL     1      -2.128   4.528  11.782  1.00  0.00    -0.357 OA
HETATM   29  H14 UNL     1      -2.352   3.888  11.078  1.00  0.00     0.217 HD
ENDBRANCH  11  28
TORSDOF 4
ENDMDL
MODEL 7
REMARK minimizedAffinity -7.60693693
REMARK  4 active torsions:
REMARK  status: ('A' for Active; 'I' for Inactive)
REMARK    1  A    between atoms: C10_11  and  O2_12 
REMARK    2  A    between atoms: C14_16  and  C15_17 
REMARK    3  A    between atoms: C15_17  and  O3_18 
REMARK    4  A    between atoms: C16_20  and  O5_21 
ROOT
HETATM    1  C1  UNL     1       0.632   6.576  15.196  1.00  0.00     0.023 C 
HETATM    2  C2  UNL     1       0.745   8.035  14.732  1.00  0.00     0.018 C 
HETATM    3  C3  UNL     1       2.224   8.465  14.856  1.00  0.00     0.023 C 
HETATM    4  C4  UNL     1      -0.053   8.899  15.725  1.00  0.00     0.135 C 
HETATM    5  O1  UNL     1       0.337   9.108  16.875  1.00  0.00    -0.297 OA
HETATM    6  C5  UNL     1      -1.342   9.509  15.236  1.00  0.00     0.080 C 
HETATM    7  C6  UNL     1      -2.088   8.486  14.396  1.00  0.00     0.022 C 
HETATM    8  C7  UNL     1      -1.340   8.085  13.084  1.00  0.00    -0.007 C 
HETATM    9  C8  UNL     1      -1.830   9.025  11.946  1.00  0.00     0.021 C 
HETATM   10  C9  UNL     1      -1.682   6.646  12.648  1.00  0.00     0.003 A 
HETATM   11  C10 UNL     1      -3.004   6.154  12.688  1.00  0.00     0.107 A 
HETATM   12  C11 UNL     1      -3.282   4.847  12.322  1.00  0.00     0.112 A 
HETATM   13  C12 UNL     1      -2.303   3.987  11.885  1.00  0.00     0.015 A 
HETATM   14  C13 UNL     1      -2.912   2.691  11.504  1.00  0.00     0.079 C 
HETATM   15  C14 UNL     1      -4.294   2.869  12.150  1.00  0.00     0.157 C 
HETATM   16  O4  UNL     1      -4.540   4.300  12.335  1.00  0.00    -0.340 OA
HETATM   17  C16 UNL     1      -1.001   4.426  11.786  1.00  0.00     0.089 A 
HETATM   18  C17 UNL     1      -0.687   5.756  12.156  1.00  0.00     0.053 A 
HETATM   19  C18 UNL     1       0.712   6.216  11.977  1.00  0.00     0.163 C 
HETATM   20  O6  UNL     1       1.581   5.416  11.635  1.00  0.00    -0.292 OA
HETATM   21  C19 UNL     1       1.010   7.672  12.147  1.00  0.00     0.091 C 
HETATM   22  C20 UNL     1       0.207   8.317  13.278  1.00  0.00     0.021 C 
ENDROOT
BRANCH  15  23
HETATM   23  C15 UNL     1      -5.435   2.286  11.317  1.00  0.00     0.196 C 
BRANCH  23  24
HETATM   24  O3  UNL     1      -5.402   2.767   9.975  1.00  0.00    -0.398 OA
HETATM   25  H20 UNL     1      -5.286   3.733  10.025  1.00  0.00     0.209 HD
ENDBRANCH  23  24
ENDBRANCH  15  23
BRANCH  17  26
HETATM   26  O5  UNL     1      -0.084   3.529  11.312  1.00  0.00    -0.359 OA
HETATM   27  H21 UNL     1       0.798   3.965  11.307  1.00  0.00     0.217 HD
ENDBRANCH  17  26
BRANCH  11  28
HETATM   28  O2  UNL     1      -4.048   6.946  13.070  1.00  0.00    -0.357 OA
HETATM   29  H14 UNL     1      -4.849   6.388  13.021  1.00  0.00     0.217 HD
ENDBRANCH  11  28
TORSDOF 4
ENDMDL
MODEL 8
REMARK minimizedAffinity -7.51522207
REMARK  4 active torsions:
REMARK  status: ('A' for Active; 'I' for Inactive)
REMARK    1  A    between atoms: C10_11  and  O2_12 
REMARK    2  A    between atoms: C14_16  and  C15_17 
REMARK    3  A    between atoms: C15_17  and  O3_18 
REMARK    4  A    between atoms: C16_20  and  O5_21 
ROOT
HETATM    1  C1  UNL     1       6.815   6.987  14.358  1.00  0.00     0.023 C 
HETATM    2  C2  UNL     1       7.161   8.482  14.308  1.00  0.00     0.018 C 
HETATM    3  C3  UNL     1       8.691   8.614  14.139  1.00  0.00     0.023 C 
HETATM    4  C4  UNL     1       6.813   9.084  15.681  1.00  0.00     0.135 C 
HETATM    5  O1  UNL     1       7.474   8.841  16.692  1.00  0.00    -0.297 OA
HETATM    6  C5  UNL     1       5.626  10.011  15.753  1.00  0.00     0.080 C 
HETATM    7  C6  UNL     1       4.503   9.448  14.897  1.00  0.00     0.022 C 
HETATM    8  C7  UNL     1       4.845   9.390  13.374  1.00  0.00    -0.007 C 
HETATM    9  C8  UNL     1       4.356  10.716  12.723  1.00  0.00     0.021 C 
HETATM   10  C9  UNL     1       4.094   8.245  12.663  1.00  0.00     0.003 A 
HETATM   11  C10 UNL     1       2.734   7.978  12.922  1.00  0.00     0.107 A 
HETATM   12  C11 UNL     1       2.091   6.922  12.297  1.00  0.00     0.112 A 
HETATM   13  C12 UNL     1       2.729   6.114  11.387  1.00  0.00     0.015 A 
HETATM   14  C13 UNL     1       1.771   5.125  10.839  1.00  0.00     0.079 C 
HETATM   15  C14 UNL     1       0.636   5.292  11.861  1.00  0.00     0.157 C 
HETATM   16  O4  UNL     1       0.772   6.602  12.498  1.00  0.00    -0.340 OA
HETATM   17  C16 UNL     1       4.046   6.355  11.063  1.00  0.00     0.089 A 
HETATM   18  C17 UNL     1       4.730   7.425  11.690  1.00  0.00     0.053 A 
HETATM   19  C18 UNL     1       6.128   7.697  11.272  1.00  0.00     0.163 C 
HETATM   20  O6  UNL     1       6.695   6.931  10.496  1.00  0.00    -0.292 OA
HETATM   21  C19 UNL     1       6.783   8.953  11.755  1.00  0.00     0.091 C 
HETATM   22  C20 UNL     1       6.408   9.305  13.195  1.00  0.00     0.021 C 
ENDROOT
BRANCH  15  23
HETATM   23  C15 UNL     1      -0.758   5.197  11.242  1.00  0.00     0.196 C 
BRANCH  23  24
HETATM   24  O3  UNL     1      -1.030   3.883  10.761  1.00  0.00    -0.398 OA
HETATM   25  H20 UNL     1      -0.252   3.606  10.243  1.00  0.00     0.209 HD
ENDBRANCH  23  24
ENDBRANCH  15  23
BRANCH  17  26
HETATM   26  O5  UNL     1       4.610   5.534  10.126  1.00  0.00    -0.359 OA
HETATM   27  H21 UNL     1       5.547   5.807  10.003  1.00  0.00     0.217 HD
ENDBRANCH  17  26
BRANCH  11  28
HETATM   28  O2  UNL     1       2.006   8.751  13.781  1.00  0.00    -0.357 OA
HETATM   29  H14 UNL     1       1.106   8.370  13.799  1.00  0.00     0.217 HD
ENDBRANCH  11  28
TORSDOF 4
ENDMDL
MODEL 9
REMARK minimizedAffinity -7.37991428
REMARK  4 active torsions:
REMARK  status: ('A' for Active; 'I' for Inactive)
REMARK    1  A    between atoms: C10_11  and  O2_12 
REMARK    2  A    between atoms: C14_16  and  C15_17 
REMARK    3  A    between atoms: C15_17  and  O3_18 
REMARK    4  A    between atoms: C16_20  and  O5_21 
ROOT
HETATM    1  C1  UNL     1      -1.478   9.152  12.019  1.00  0.00     0.023 C 
HETATM    2  C2  UNL     1      -2.056   8.895  13.418  1.00  0.00     0.018 C 
HETATM    3  C3  UNL     1      -3.581   8.693  13.277  1.00  0.00     0.023 C 
HETATM    4  C4  UNL     1      -1.853  10.177  14.245  1.00  0.00     0.135 C 
HETATM    5  O1  UNL     1      -2.500  11.204  14.034  1.00  0.00    -0.297 OA
HETATM    6  C5  UNL     1      -0.832  10.135  15.354  1.00  0.00     0.080 C 
HETATM    7  C6  UNL     1       0.393   9.376  14.872  1.00  0.00     0.022 C 
HETATM    8  C7  UNL     1       0.115   7.871  14.558  1.00  0.00    -0.007 C 
HETATM    9  C8  UNL     1       0.408   7.051  15.848  1.00  0.00     0.021 C 
HETATM   10  C9  UNL     1       1.062   7.331  13.466  1.00  0.00     0.003 A 
HETATM   11  C10 UNL     1       2.438   7.640  13.459  1.00  0.00     0.107 A 
HETATM   12  C11 UNL     1       3.261   7.171  12.449  1.00  0.00     0.112 A 
HETATM   13  C12 UNL     1       2.790   6.372  11.434  1.00  0.00     0.015 A 
HETATM   14  C13 UNL     1       3.911   5.975  10.550  1.00  0.00     0.079 C 
HETATM   15  C14 UNL     1       4.971   6.977  11.033  1.00  0.00     0.157 C 
HETATM   16  O4  UNL     1       4.607   7.429  12.377  1.00  0.00    -0.340 OA
HETATM   17  C16 UNL     1       1.463   6.005  11.413  1.00  0.00     0.089 A 
HETATM   18  C17 UNL     1       0.597   6.472  12.431  1.00  0.00     0.053 A 
HETATM   19  C18 UNL     1      -0.812   6.006  12.415  1.00  0.00     0.163 C 
HETATM   20  O6  UNL     1      -1.224   5.336  11.471  1.00  0.00    -0.292 OA
HETATM   21  C19 UNL     1      -1.674   6.305  13.601  1.00  0.00     0.091 C 
HETATM   22  C20 UNL     1      -1.407   7.689  14.197  1.00  0.00     0.021 C 
ENDROOT
BRANCH  15  23
HETATM   23  C15 UNL     1       6.382   6.392  11.084  1.00  0.00     0.196 C 
BRANCH  23  24
HETATM   24  O3  UNL     1       7.293   7.151  10.291  1.00  0.00    -0.398 OA
HETATM   25  H20 UNL     1       6.861   7.296   9.430  1.00  0.00     0.209 HD
ENDBRANCH  23  24
ENDBRANCH  15  23
BRANCH  17  26
HETATM   26  O5  UNL     1       1.069   5.182  10.395  1.00  0.00    -0.359 OA
HETATM   27  H21 UNL     1       0.104   5.012  10.493  1.00  0.00     0.217 HD
ENDBRANCH  17  26
BRANCH  11  28
HETATM   28  O2  UNL     1       3.005   8.393  14.447  1.00  0.00    -0.357 OA
HETATM   29  H14 UNL     1       3.953   8.472  14.223  1.00  0.00     0.217 HD
ENDBRANCH  11  28
TORSDOF 4
ENDMDL
