MODEL 1
REMARK minimizedAffinity -9.44459343
REMARK CNNscore 0.558812082
REMARK CNNaffinity 6.69617605
REMARK  9 active torsions:
REMARK  status: ('A' for Active; 'I' for Inactive)
REMARK    1  A    between atoms: C4_4  and  C5_5 
REMARK    2  A    between atoms: C5_5  and  C6_6 
REMARK    3  A    between atoms: C6_6  and  C7_7 
REMARK    4  A    between atoms: C7_7  and  C9_9 
REMARK    5  A    between atoms: C16_16  and  O1_17 
REMARK    6  A    between atoms: C22_23  and  O2_24 
REMARK    7  A    between atoms: C24_26  and  O3_27 
REMARK    8  A    between atoms: C25_28  and  C27_30 
REMARK    9  A    between atoms: C27_30  and  O5_32 
ROOT
HETATM    1  C9  UNL     1      -0.795  50.269 -21.724  1.00  0.00    -0.002 C 
HETATM    2  C10 UNL     1      -0.814  49.848 -20.233  1.00  0.00     0.007 C 
HETATM    3  C11 UNL     1      -2.069  48.979 -20.034  1.00  0.00     0.015 C 
HETATM    4  C12 UNL     1      -2.570  48.634 -21.457  1.00  0.00    -0.005 C 
HETATM    5  C13 UNL     1      -1.751  47.404 -21.944  1.00  0.00     0.021 C 
HETATM    6  C14 UNL     1      -4.030  48.248 -21.700  1.00  0.00     0.003 C 
HETATM    7  C15 UNL     1      -4.637  48.485 -22.896  1.00  0.00    -0.030 C 
HETATM    8  C16 UNL     1      -3.848  49.192 -24.018  1.00  0.00     0.149 C 
HETATM    9  C17 UNL     1      -2.455  49.780 -23.681  1.00  0.00     0.047 C 
HETATM   10  C18 UNL     1      -2.258  50.003 -22.185  1.00  0.00    -0.026 C 
HETATM   11  C19 UNL     1      -3.197  51.157 -21.730  1.00  0.00     0.016 C 
HETATM   12  C20 UNL     1      -6.174  48.219 -23.131  1.00  0.00     0.014 C 
HETATM   13  C21 UNL     1      -6.827  49.605 -22.851  1.00  0.00     0.023 C 
HETATM   14  C22 UNL     1      -6.507  47.704 -24.595  1.00  0.00     0.133 C 
HETATM   15  C23 UNL     1      -7.573  46.596 -24.699  1.00  0.00     0.065 C 
HETATM   16  C24 UNL     1      -8.717  46.808 -23.712  1.00  0.00     0.139 C 
HETATM   17  C25 UNL     1      -8.194  46.671 -22.260  1.00  0.00     0.072 C 
HETATM   18  C26 UNL     1      -8.246  45.155 -21.887  1.00  0.00     0.030 C 
HETATM   19  C28 UNL     1      -6.675  47.120 -22.129  1.00  0.00     0.029 C 
HETATM   20  C29 UNL     1      -6.260  47.400 -20.689  1.00  0.00     0.090 C 
HETATM   21  C30 UNL     1      -4.780  47.631 -20.560  1.00  0.00     0.157 C 
HETATM   22  O6  UNL     1      -4.226  47.377 -19.486  1.00  0.00    -0.293 OA
ENDROOT
BRANCH   1  23
HETATM   23  C7  UNL     1      -0.037  51.607 -21.978  1.00  0.00    -0.014 C 
HETATM   24  C8  UNL     1      -0.092  52.657 -20.864  1.00  0.00     0.010 C 
BRANCH  23  25
HETATM   25  C6  UNL     1      -0.430  52.235 -23.336  1.00  0.00     0.008 C 
BRANCH  25  26
HETATM   26  C5  UNL     1       0.737  52.474 -24.310  1.00  0.00     0.028 C 
BRANCH  26  27
HETATM   27  C4  UNL     1       0.354  52.324 -25.759  1.00  0.00    -0.025 C 
HETATM   28  C2  UNL     1       1.114  51.846 -26.764  1.00  0.00    -0.091 C 
HETATM   29  C1  UNL     1       2.544  51.401 -26.622  1.00  0.00     0.042 C 
HETATM   30  C3  UNL     1       0.560  51.724 -28.157  1.00  0.00     0.042 C 
ENDBRANCH  26  27
ENDBRANCH  25  26
ENDBRANCH  23  25
ENDBRANCH   1  23
BRANCH   8  31
HETATM   31  O1  UNL     1      -3.673  48.279 -25.104  1.00  0.00    -0.391 OA
HETATM   32  H25 UNL     1      -3.033  48.666 -25.726  1.00  0.00     0.210 HD
ENDBRANCH   8  31
BRANCH  14  33
HETATM   33  O2  UNL     1      -6.971  48.783 -25.428  1.00  0.00    -0.394 OA
HETATM   34  H35 UNL     1      -6.188  49.328 -25.647  1.00  0.00     0.210 HD
ENDBRANCH  14  33
BRANCH  17  35
HETATM   35  C27 UNL     1      -9.203  47.338 -21.316  1.00  0.00     0.151 C 
HETATM   36  O4  UNL     1      -8.954  48.228 -20.513  1.00  0.00    -0.649 OA
BRANCH  35  37
HETATM   37  O5  UNL     1     -10.456  46.868 -21.390  1.00  0.00    -0.776 OA
HETATM   38  H43 UNL     1     -10.918  47.320 -20.650  1.00  0.00     0.167 HD
ENDBRANCH  35  37
ENDBRANCH  17  35
BRANCH  16  39
HETATM   39  O3  UNL     1      -9.348  48.064 -23.968  1.00  0.00    -0.394 OA
HETATM   40  H39 UNL     1      -8.880  48.493 -24.716  1.00  0.00     0.210 HD
ENDBRANCH  16  39
TORSDOF 9
ENDMDL
MODEL 2
REMARK minimizedAffinity -7.6882062
REMARK CNNscore 0.461173594
REMARK CNNaffinity 5.92256784
REMARK  9 active torsions:
REMARK  status: ('A' for Active; 'I' for Inactive)
REMARK    1  A    between atoms: C4_4  and  C5_5 
REMARK    2  A    between atoms: C5_5  and  C6_6 
REMARK    3  A    between atoms: C6_6  and  C7_7 
REMARK    4  A    between atoms: C7_7  and  C9_9 
REMARK    5  A    between atoms: C16_16  and  O1_17 
REMARK    6  A    between atoms: C22_23  and  O2_24 
REMARK    7  A    between atoms: C24_26  and  O3_27 
REMARK    8  A    between atoms: C25_28  and  C27_30 
REMARK    9  A    between atoms: C27_30  and  O5_32 
ROOT
HETATM    1  C9  UNL     1      -7.778  46.978 -31.591  1.00  0.00    -0.002 C 
HETATM    2  C10 UNL     1      -7.621  45.561 -32.199  1.00  0.00     0.007 C 
HETATM    3  C11 UNL     1      -8.801  44.721 -31.677  1.00  0.00     0.015 C 
HETATM    4  C12 UNL     1      -9.794  45.734 -31.057  1.00  0.00    -0.005 C 
HETATM    5  C13 UNL     1     -10.661  46.295 -32.221  1.00  0.00     0.021 C 
HETATM    6  C14 UNL     1     -10.806  45.290 -30.000  1.00  0.00     0.003 C 
HETATM    7  C15 UNL     1     -11.274  46.155 -29.058  1.00  0.00    -0.030 C 
HETATM    8  C16 UNL     1     -10.744  47.605 -29.032  1.00  0.00     0.149 C 
HETATM    9  C17 UNL     1      -9.557  47.972 -29.956  1.00  0.00     0.047 C 
HETATM   10  C18 UNL     1      -8.767  46.748 -30.411  1.00  0.00    -0.026 C 
HETATM   11  C19 UNL     1      -8.025  46.154 -29.179  1.00  0.00     0.016 C 
HETATM   12  C20 UNL     1     -12.215  45.693 -27.878  1.00  0.00     0.014 C 
HETATM   13  C21 UNL     1     -11.220  45.413 -26.714  1.00  0.00     0.023 C 
HETATM   14  C22 UNL     1     -13.295  46.783 -27.472  1.00  0.00     0.133 C 
HETATM   15  C23 UNL     1     -14.704  46.251 -27.143  1.00  0.00     0.065 C 
HETATM   16  C24 UNL     1     -14.655  44.935 -26.373  1.00  0.00     0.139 C 
HETATM   17  C25 UNL     1     -14.048  43.823 -27.265  1.00  0.00     0.072 C 
HETATM   18  C26 UNL     1     -15.215  43.207 -28.101  1.00  0.00     0.030 C 
HETATM   19  C28 UNL     1     -12.997  44.402 -28.307  1.00  0.00     0.029 C 
HETATM   20  C29 UNL     1     -12.088  43.328 -28.895  1.00  0.00     0.090 C 
HETATM   21  C30 UNL     1     -11.238  43.856 -30.017  1.00  0.00     0.157 C 
HETATM   22  O6  UNL     1     -10.849  43.076 -30.890  1.00  0.00    -0.293 OA
ENDROOT
BRANCH   1  23
HETATM   23  C7  UNL     1      -6.428  47.744 -31.454  1.00  0.00    -0.014 C 
HETATM   24  C8  UNL     1      -5.461  47.662 -32.639  1.00  0.00     0.010 C 
BRANCH  23  25
HETATM   25  C6  UNL     1      -5.702  47.387 -30.135  1.00  0.00     0.008 C 
BRANCH  25  26
HETATM   26  C5  UNL     1      -5.214  48.590 -29.309  1.00  0.00     0.028 C 
BRANCH  26  27
HETATM   27  C4  UNL     1      -4.610  48.207 -27.984  1.00  0.00    -0.025 C 
HETATM   28  C2  UNL     1      -3.722  48.909 -27.252  1.00  0.00    -0.091 C 
HETATM   29  C1  UNL     1      -3.123  50.227 -27.662  1.00  0.00     0.042 C 
HETATM   30  C3  UNL     1      -3.248  48.397 -25.920  1.00  0.00     0.042 C 
ENDBRANCH  26  27
ENDBRANCH  25  26
ENDBRANCH  23  25
ENDBRANCH   1  23
BRANCH   8  31
HETATM   31  O1  UNL     1     -11.819  48.494 -29.346  1.00  0.00    -0.391 OA
HETATM   32  H25 UNL     1     -11.446  49.378 -29.499  1.00  0.00     0.210 HD
ENDBRANCH   8  31
BRANCH  14  33
HETATM   33  O2  UNL     1     -12.870  47.524 -26.314  1.00  0.00    -0.394 OA
HETATM   34  H35 UNL     1     -12.164  48.134 -26.613  1.00  0.00     0.210 HD
ENDBRANCH  14  33
BRANCH  17  35
HETATM   35  C27 UNL     1     -13.574  42.678 -26.359  1.00  0.00     0.151 C 
HETATM   36  O4  UNL     1     -12.620  42.717 -25.594  1.00  0.00    -0.649 OA
BRANCH  35  37
HETATM   37  O5  UNL     1     -14.280  41.543 -26.452  1.00  0.00    -0.776 OA
HETATM   38  H43 UNL     1     -13.771  40.907 -25.903  1.00  0.00     0.167 HD
ENDBRANCH  35  37
ENDBRANCH  17  35
BRANCH  16  39
HETATM   39  O3  UNL     1     -13.947  45.121 -25.145  1.00  0.00    -0.394 OA
HETATM   40  H39 UNL     1     -13.654  46.057 -25.103  1.00  0.00     0.210 HD
ENDBRANCH  16  39
TORSDOF 9
ENDMDL
MODEL 3
REMARK minimizedAffinity -7.85294294
REMARK CNNscore 0.438706964
REMARK CNNaffinity 5.94991636
REMARK  9 active torsions:
REMARK  status: ('A' for Active; 'I' for Inactive)
REMARK    1  A    between atoms: C4_4  and  C5_5 
REMARK    2  A    between atoms: C5_5  and  C6_6 
REMARK    3  A    between atoms: C6_6  and  C7_7 
REMARK    4  A    between atoms: C7_7  and  C9_9 
REMARK    5  A    between atoms: C16_16  and  O1_17 
REMARK    6  A    between atoms: C22_23  and  O2_24 
REMARK    7  A    between atoms: C24_26  and  O3_27 
REMARK    8  A    between atoms: C25_28  and  C27_30 
REMARK    9  A    between atoms: C27_30  and  O5_32 
ROOT
HETATM    1  C9  UNL     1      -6.834  47.483 -27.886  1.00  0.00    -0.002 C 
HETATM    2  C10 UNL     1      -6.631  46.429 -29.003  1.00  0.00     0.007 C 
HETATM    3  C11 UNL     1      -8.000  45.766 -29.241  1.00  0.00     0.015 C 
HETATM    4  C12 UNL     1      -9.032  46.661 -28.513  1.00  0.00    -0.005 C 
HETATM    5  C13 UNL     1      -9.387  47.828 -29.478  1.00  0.00     0.021 C 
HETATM    6  C14 UNL     1     -10.383  46.097 -28.072  1.00  0.00     0.003 C 
HETATM    7  C15 UNL     1     -11.049  46.607 -26.998  1.00  0.00    -0.030 C 
HETATM    8  C16 UNL     1     -10.409  47.753 -26.185  1.00  0.00     0.149 C 
HETATM    9  C17 UNL     1      -8.946  48.153 -26.502  1.00  0.00     0.047 C 
HETATM   10  C18 UNL     1      -8.183  47.055 -27.237  1.00  0.00    -0.026 C 
HETATM   11  C19 UNL     1      -7.970  45.863 -26.261  1.00  0.00     0.016 C 
HETATM   12  C20 UNL     1     -12.377  45.961 -26.443  1.00  0.00     0.014 C 
HETATM   13  C21 UNL     1     -11.872  45.012 -25.317  1.00  0.00     0.023 C 
HETATM   14  C22 UNL     1     -13.409  47.030 -25.884  1.00  0.00     0.133 C 
HETATM   15  C23 UNL     1     -14.894  46.772 -26.208  1.00  0.00     0.065 C 
HETATM   16  C24 UNL     1     -15.248  45.290 -26.131  1.00  0.00     0.139 C 
HETATM   17  C25 UNL     1     -14.496  44.508 -27.237  1.00  0.00     0.072 C 
HETATM   18  C26 UNL     1     -15.368  44.577 -28.531  1.00  0.00     0.030 C 
HETATM   19  C28 UNL     1     -13.099  45.177 -27.594  1.00  0.00     0.029 C 
HETATM   20  C29 UNL     1     -12.164  44.235 -28.345  1.00  0.00     0.090 C 
HETATM   21  C30 UNL     1     -10.933  44.939 -28.845  1.00  0.00     0.157 C 
HETATM   22  O6  UNL     1     -10.355  44.497 -29.842  1.00  0.00    -0.293 OA
ENDROOT
BRANCH   1  23
HETATM   23  C7  UNL     1      -5.538  47.780 -27.073  1.00  0.00    -0.014 C 
HETATM   24  C8  UNL     1      -5.709  48.511 -25.738  1.00  0.00     0.010 C 
BRANCH  23  25
HETATM   25  C6  UNL     1      -4.468  48.481 -27.942  1.00  0.00     0.008 C 
BRANCH  25  26
HETATM   26  C5  UNL     1      -3.230  48.986 -27.179  1.00  0.00     0.028 C 
BRANCH  26  27
HETATM   27  C4  UNL     1      -3.137  48.465 -25.769  1.00  0.00    -0.025 C 
HETATM   28  C2  UNL     1      -2.701  49.125 -24.677  1.00  0.00    -0.091 C 
HETATM   29  C1  UNL     1      -2.172  50.533 -24.680  1.00  0.00     0.042 C 
HETATM   30  C3  UNL     1      -2.711  48.466 -23.325  1.00  0.00     0.042 C 
ENDBRANCH  26  27
ENDBRANCH  25  26
ENDBRANCH  23  25
ENDBRANCH   1  23
BRANCH   8  31
HETATM   31  O1  UNL     1     -11.212  48.926 -26.331  1.00  0.00    -0.391 OA
HETATM   32  H25 UNL     1     -10.718  49.679 -25.966  1.00  0.00     0.210 HD
ENDBRANCH   8  31
BRANCH  14  33
HETATM   33  O2  UNL     1     -13.326  47.127 -24.451  1.00  0.00    -0.394 OA
HETATM   34  H35 UNL     1     -12.501  47.613 -24.248  1.00  0.00     0.210 HD
ENDBRANCH  14  33
BRANCH  17  35
HETATM   35  C27 UNL     1     -14.482  43.022 -26.857  1.00  0.00     0.151 C 
HETATM   36  O4  UNL     1     -15.161  42.143 -27.372  1.00  0.00    -0.649 OA
BRANCH  35  37
HETATM   37  O5  UNL     1     -13.655  42.693 -25.854  1.00  0.00    -0.776 OA
HETATM   38  H43 UNL     1     -13.866  41.751 -25.679  1.00  0.00     0.167 HD
ENDBRANCH  35  37
ENDBRANCH  17  35
BRANCH  16  39
HETATM   39  O3  UNL     1     -14.984  44.799 -24.815  1.00  0.00    -0.394 OA
HETATM   40  H39 UNL     1     -14.625  45.541 -24.281  1.00  0.00     0.210 HD
ENDBRANCH  16  39
TORSDOF 9
ENDMDL
MODEL 4
REMARK minimizedAffinity -9.1751585
REMARK CNNscore 0.391011834
REMARK CNNaffinity 6.45722818
REMARK  9 active torsions:
REMARK  status: ('A' for Active; 'I' for Inactive)
REMARK    1  A    between atoms: C4_4  and  C5_5 
REMARK    2  A    between atoms: C5_5  and  C6_6 
REMARK    3  A    between atoms: C6_6  and  C7_7 
REMARK    4  A    between atoms: C7_7  and  C9_9 
REMARK    5  A    between atoms: C16_16  and  O1_17 
REMARK    6  A    between atoms: C22_23  and  O2_24 
REMARK    7  A    between atoms: C24_26  and  O3_27 
REMARK    8  A    between atoms: C25_28  and  C27_30 
REMARK    9  A    between atoms: C27_30  and  O5_32 
ROOT
HETATM    1  C9  UNL     1      -0.773  50.518 -22.055  1.00  0.00    -0.002 C 
HETATM    2  C10 UNL     1      -0.119  50.286 -20.669  1.00  0.00     0.007 C 
HETATM    3  C11 UNL     1      -1.137  49.496 -19.826  1.00  0.00     0.015 C 
HETATM    4  C12 UNL     1      -2.210  48.996 -20.823  1.00  0.00    -0.005 C 
HETATM    5  C13 UNL     1      -1.666  47.686 -21.460  1.00  0.00     0.021 C 
HETATM    6  C14 UNL     1      -3.617  48.639 -20.343  1.00  0.00     0.003 C 
HETATM    7  C15 UNL     1      -4.697  48.748 -21.167  1.00  0.00    -0.030 C 
HETATM    8  C16 UNL     1      -4.502  49.279 -22.603  1.00  0.00     0.149 C 
HETATM    9  C17 UNL     1      -3.117  49.852 -22.996  1.00  0.00     0.047 C 
HETATM   10  C18 UNL     1      -2.282  50.251 -21.783  1.00  0.00    -0.026 C 
HETATM   11  C19 UNL     1      -2.947  51.488 -21.112  1.00  0.00     0.016 C 
HETATM   12  C20 UNL     1      -6.173  48.513 -20.662  1.00  0.00     0.014 C 
HETATM   13  C21 UNL     1      -6.663  49.946 -20.302  1.00  0.00     0.023 C 
HETATM   14  C22 UNL     1      -7.109  47.833 -21.749  1.00  0.00     0.133 C 
HETATM   15  C23 UNL     1      -8.087  46.762 -21.227  1.00  0.00     0.065 C 
HETATM   16  C24 UNL     1      -8.679  47.138 -19.872  1.00  0.00     0.139 C 
HETATM   17  C25 UNL     1      -7.563  47.163 -18.797  1.00  0.00     0.072 C 
HETATM   18  C26 UNL     1      -7.412  45.708 -18.248  1.00  0.00     0.030 C 
HETATM   19  C28 UNL     1      -6.154  47.567 -19.410  1.00  0.00     0.029 C 
HETATM   20  C29 UNL     1      -5.149  48.008 -18.351  1.00  0.00     0.090 C 
HETATM   21  C30 UNL     1      -3.770  48.197 -18.921  1.00  0.00     0.157 C 
HETATM   22  O6  UNL     1      -2.793  48.058 -18.180  1.00  0.00    -0.293 OA
ENDROOT
BRANCH   1  23
HETATM   23  C7  UNL     1      -0.235  51.783 -22.787  1.00  0.00    -0.014 C 
HETATM   24  C8  UNL     1       0.354  52.894 -21.911  1.00  0.00     0.010 C 
BRANCH  23  25
HETATM   25  C6  UNL     1      -1.282  52.364 -23.766  1.00  0.00     0.008 C 
BRANCH  25  26
HETATM   26  C5  UNL     1      -0.719  52.872 -25.105  1.00  0.00     0.028 C 
BRANCH  26  27
HETATM   27  C4  UNL     1       0.680  52.394 -25.392  1.00  0.00    -0.025 C 
HETATM   28  C2  UNL     1       1.132  51.802 -26.515  1.00  0.00    -0.091 C 
HETATM   29  C1  UNL     1       0.282  51.464 -27.709  1.00  0.00     0.042 C 
HETATM   30  C3  UNL     1       2.580  51.420 -26.655  1.00  0.00     0.042 C 
ENDBRANCH  26  27
ENDBRANCH  25  26
ENDBRANCH  23  25
ENDBRANCH   1  23
BRANCH   8  31
HETATM   31  O1  UNL     1      -4.807  48.233 -23.528  1.00  0.00    -0.391 OA
HETATM   32  H25 UNL     1      -4.518  48.515 -24.411  1.00  0.00     0.210 HD
ENDBRANCH   8  31
BRANCH  14  33
HETATM   33  O2  UNL     1      -7.917  48.816 -22.420  1.00  0.00    -0.394 OA
HETATM   34  H35 UNL     1      -7.324  49.300 -23.032  1.00  0.00     0.210 HD
ENDBRANCH  14  33
BRANCH  17  35
HETATM   35  C27 UNL     1      -8.063  47.980 -17.598  1.00  0.00     0.151 C 
HETATM   36  O4  UNL     1      -8.523  49.113 -17.644  1.00  0.00    -0.649 OA
BRANCH  35  37
HETATM   37  O5  UNL     1      -7.955  47.375 -16.406  1.00  0.00    -0.776 OA
HETATM   38  H43 UNL     1      -8.207  48.077 -15.767  1.00  0.00     0.167 HD
ENDBRANCH  35  37
ENDBRANCH  17  35
BRANCH  16  39
HETATM   39  O3  UNL     1      -9.385  48.375 -19.980  1.00  0.00    -0.394 OA
HETATM   40  H39 UNL     1      -9.306  48.689 -20.907  1.00  0.00     0.210 HD
ENDBRANCH  16  39
TORSDOF 9
ENDMDL
MODEL 5
REMARK minimizedAffinity -7.41198444
REMARK CNNscore 0.388956666
REMARK CNNaffinity 5.82265043
REMARK  9 active torsions:
REMARK  status: ('A' for Active; 'I' for Inactive)
REMARK    1  A    between atoms: C4_4  and  C5_5 
REMARK    2  A    between atoms: C5_5  and  C6_6 
REMARK    3  A    between atoms: C6_6  and  C7_7 
REMARK    4  A    between atoms: C7_7  and  C9_9 
REMARK    5  A    between atoms: C16_16  and  O1_17 
REMARK    6  A    between atoms: C22_23  and  O2_24 
REMARK    7  A    between atoms: C24_26  and  O3_27 
REMARK    8  A    between atoms: C25_28  and  C27_30 
REMARK    9  A    between atoms: C27_30  and  O5_32 
ROOT
HETATM    1  C9  UNL     1      -3.016  49.178 -22.151  1.00  0.00    -0.002 C 
HETATM    2  C10 UNL     1      -3.550  47.723 -22.176  1.00  0.00     0.007 C 
HETATM    3  C11 UNL     1      -3.631  47.256 -20.711  1.00  0.00     0.015 C 
HETATM    4  C12 UNL     1      -3.468  48.534 -19.854  1.00  0.00    -0.005 C 
HETATM    5  C13 UNL     1      -4.870  49.201 -19.757  1.00  0.00     0.021 C 
HETATM    6  C14 UNL     1      -2.979  48.448 -18.408  1.00  0.00     0.003 C 
HETATM    7  C15 UNL     1      -2.303  49.478 -17.825  1.00  0.00    -0.030 C 
HETATM    8  C16 UNL     1      -1.990  50.742 -18.652  1.00  0.00     0.149 C 
HETATM    9  C17 UNL     1      -2.286  50.720 -20.173  1.00  0.00     0.047 C 
HETATM   10  C18 UNL     1      -2.398  49.303 -20.728  1.00  0.00    -0.026 C 
HETATM   11  C19 UNL     1      -0.990  48.642 -20.680  1.00  0.00     0.016 C 
HETATM   12  C20 UNL     1      -1.674  49.366 -16.382  1.00  0.00     0.014 C 
HETATM   13  C21 UNL     1      -0.204  48.938 -16.663  1.00  0.00     0.023 C 
HETATM   14  C22 UNL     1      -1.738  50.723 -15.561  1.00  0.00     0.133 C 
HETATM   15  C23 UNL     1      -2.081  50.595 -14.064  1.00  0.00     0.065 C 
HETATM   16  C24 UNL     1      -1.419  49.376 -13.427  1.00  0.00     0.139 C 
HETATM   17  C25 UNL     1      -2.000  48.078 -14.043  1.00  0.00     0.072 C 
HETATM   18  C26 UNL     1      -3.286  47.714 -13.236  1.00  0.00     0.030 C 
HETATM   19  C28 UNL     1      -2.453  48.286 -15.552  1.00  0.00     0.029 C 
HETATM   20  C29 UNL     1      -2.626  46.972 -16.307  1.00  0.00     0.090 C 
HETATM   21  C30 UNL     1      -3.241  47.175 -17.664  1.00  0.00     0.157 C 
HETATM   22  O6  UNL     1      -3.886  46.254 -18.172  1.00  0.00    -0.293 OA
ENDROOT
BRANCH   1  23
HETATM   23  C7  UNL     1      -2.271  49.585 -23.458  1.00  0.00    -0.014 C 
HETATM   24  C8  UNL     1      -1.278  50.747 -23.356  1.00  0.00     0.010 C 
BRANCH  23  25
HETATM   25  C6  UNL     1      -3.256  49.815 -24.628  1.00  0.00     0.008 C 
BRANCH  25  26
HETATM   26  C5  UNL     1      -3.282  48.703 -25.692  1.00  0.00     0.028 C 
BRANCH  26  27
HETATM   27  C4  UNL     1      -4.667  48.208 -26.015  1.00  0.00    -0.025 C 
HETATM   28  C2  UNL     1      -5.233  48.087 -27.232  1.00  0.00    -0.091 C 
HETATM   29  C1  UNL     1      -4.575  48.476 -28.527  1.00  0.00     0.042 C 
HETATM   30  C3  UNL     1      -6.623  47.533 -27.382  1.00  0.00     0.042 C 
ENDBRANCH  26  27
ENDBRANCH  25  26
ENDBRANCH  23  25
ENDBRANCH   1  23
BRANCH   8  31
HETATM   31  O1  UNL     1      -2.707  51.847 -18.095  1.00  0.00    -0.391 OA
HETATM   32  H25 UNL     1      -2.646  52.592 -18.716  1.00  0.00     0.210 HD
ENDBRANCH   8  31
BRANCH  14  33
HETATM   33  O2  UNL     1      -0.482  51.424 -15.624  1.00  0.00    -0.394 OA
HETATM   34  H35 UNL     1      -0.417  51.808 -16.522  1.00  0.00     0.210 HD
ENDBRANCH  14  33
BRANCH  17  35
HETATM   35  C27 UNL     1      -1.025  46.928 -13.759  1.00  0.00     0.151 C 
HETATM   36  O4  UNL     1       0.121  46.838 -14.182  1.00  0.00    -0.649 OA
BRANCH  35  37
HETATM   37  O5  UNL     1      -1.508  45.942 -12.990  1.00  0.00    -0.776 OA
HETATM   38  H43 UNL     1      -0.802  45.260 -13.016  1.00  0.00     0.167 HD
ENDBRANCH  35  37
ENDBRANCH  17  35
BRANCH  16  39
HETATM   39  O3  UNL     1      -0.000  49.476 -13.556  1.00  0.00    -0.394 OA
HETATM   40  H39 UNL     1       0.204  50.307 -14.038  1.00  0.00     0.210 HD
ENDBRANCH  16  39
TORSDOF 9
ENDMDL
MODEL 6
REMARK minimizedAffinity -8.75266647
REMARK CNNscore 0.359457731
REMARK CNNaffinity 6.13325357
REMARK  9 active torsions:
REMARK  status: ('A' for Active; 'I' for Inactive)
REMARK    1  A    between atoms: C4_4  and  C5_5 
REMARK    2  A    between atoms: C5_5  and  C6_6 
REMARK    3  A    between atoms: C6_6  and  C7_7 
REMARK    4  A    between atoms: C7_7  and  C9_9 
REMARK    5  A    between atoms: C16_16  and  O1_17 
REMARK    6  A    between atoms: C22_23  and  O2_24 
REMARK    7  A    between atoms: C24_26  and  O3_27 
REMARK    8  A    between atoms: C25_28  and  C27_30 
REMARK    9  A    between atoms: C27_30  and  O5_32 
ROOT
HETATM    1  C9  UNL     1      -1.199  50.352 -21.976  1.00  0.00    -0.002 C 
HETATM    2  C10 UNL     1      -1.176  49.907 -20.492  1.00  0.00     0.007 C 
HETATM    3  C11 UNL     1      -2.384  48.974 -20.291  1.00  0.00     0.015 C 
HETATM    4  C12 UNL     1      -2.889  48.628 -21.712  1.00  0.00    -0.005 C 
HETATM    5  C13 UNL     1      -2.018  47.448 -22.231  1.00  0.00     0.021 C 
HETATM    6  C14 UNL     1      -4.331  48.175 -21.941  1.00  0.00     0.003 C 
HETATM    7  C15 UNL     1      -4.966  48.401 -23.126  1.00  0.00    -0.030 C 
HETATM    8  C16 UNL     1      -4.229  49.164 -24.246  1.00  0.00     0.149 C 
HETATM    9  C17 UNL     1      -2.861  49.814 -23.919  1.00  0.00     0.047 C 
HETATM   10  C18 UNL     1      -2.654  50.022 -22.421  1.00  0.00    -0.026 C 
HETATM   11  C19 UNL     1      -3.641  51.121 -21.935  1.00  0.00     0.016 C 
HETATM   12  C20 UNL     1      -6.492  48.063 -23.344  1.00  0.00     0.014 C 
HETATM   13  C21 UNL     1      -7.207  49.411 -23.032  1.00  0.00     0.023 C 
HETATM   14  C22 UNL     1      -6.820  47.557 -24.812  1.00  0.00     0.133 C 
HETATM   15  C23 UNL     1      -7.833  46.400 -24.920  1.00  0.00     0.065 C 
HETATM   16  C24 UNL     1      -8.971  46.539 -23.913  1.00  0.00     0.139 C 
HETATM   17  C25 UNL     1      -8.421  46.405 -22.471  1.00  0.00     0.072 C 
HETATM   18  C26 UNL     1      -8.394  44.883 -22.123  1.00  0.00     0.030 C 
HETATM   19  C28 UNL     1      -6.924  46.926 -22.354  1.00  0.00     0.029 C 
HETATM   20  C29 UNL     1      -6.502  47.202 -20.915  1.00  0.00     0.090 C 
HETATM   21  C30 UNL     1      -5.033  47.503 -20.803  1.00  0.00     0.157 C 
HETATM   22  O6  UNL     1      -4.453  47.260 -19.741  1.00  0.00    -0.293 OA
ENDROOT
BRANCH   1  23
HETATM   23  C7  UNL     1      -0.511  51.729 -22.218  1.00  0.00    -0.014 C 
HETATM   24  C8  UNL     1       0.019  52.000 -23.630  1.00  0.00     0.010 C 
BRANCH  23  25
HETATM   25  C6  UNL     1       0.584  52.013 -21.164  1.00  0.00     0.008 C 
BRANCH  25  26
HETATM   26  C5  UNL     1       0.168  52.957 -20.022  1.00  0.00     0.028 C 
BRANCH  26  27
HETATM   27  C4  UNL     1       1.158  53.009 -18.890  1.00  0.00    -0.025 C 
HETATM   28  C2  UNL     1       1.104  52.341 -17.720  1.00  0.00    -0.091 C 
HETATM   29  C1  UNL     1      -0.016  51.427 -17.305  1.00  0.00     0.042 C 
HETATM   30  C3  UNL     1       2.206  52.476 -16.706  1.00  0.00     0.042 C 
ENDBRANCH  26  27
ENDBRANCH  25  26
ENDBRANCH  23  25
ENDBRANCH   1  23
BRANCH   8  31
HETATM   31  O1  UNL     1      -4.025  48.278 -25.350  1.00  0.00    -0.391 OA
HETATM   32  H25 UNL     1      -3.414  48.706 -25.973  1.00  0.00     0.210 HD
ENDBRANCH   8  31
BRANCH  14  33
HETATM   33  O2  UNL     1      -7.348  48.625 -25.620  1.00  0.00    -0.394 OA
HETATM   34  H35 UNL     1      -6.596  49.211 -25.841  1.00  0.00     0.210 HD
ENDBRANCH  14  33
BRANCH  17  35
HETATM   35  C27 UNL     1      -9.448  47.006 -21.502  1.00  0.00     0.151 C 
HETATM   36  O4  UNL     1      -9.231  47.894 -20.688  1.00  0.00    -0.649 OA
BRANCH  35  37
HETATM   37  O5  UNL     1     -10.678  46.477 -21.567  1.00  0.00    -0.776 OA
HETATM   38  H43 UNL     1     -11.150  46.894 -20.814  1.00  0.00     0.167 HD
ENDBRANCH  35  37
ENDBRANCH  17  35
BRANCH  16  39
HETATM   39  O3  UNL     1      -9.667  47.767 -24.139  1.00  0.00    -0.394 OA
HETATM   40  H39 UNL     1      -9.230  48.230 -24.887  1.00  0.00     0.210 HD
ENDBRANCH  16  39
TORSDOF 9
ENDMDL
MODEL 7
REMARK minimizedAffinity -7.61178207
REMARK CNNscore 0.331629813
REMARK CNNaffinity 6.61889982
REMARK  9 active torsions:
REMARK  status: ('A' for Active; 'I' for Inactive)
REMARK    1  A    between atoms: C4_4  and  C5_5 
REMARK    2  A    between atoms: C5_5  and  C6_6 
REMARK    3  A    between atoms: C6_6  and  C7_7 
REMARK    4  A    between atoms: C7_7  and  C9_9 
REMARK    5  A    between atoms: C16_16  and  O1_17 
REMARK    6  A    between atoms: C22_23  and  O2_24 
REMARK    7  A    between atoms: C24_26  and  O3_27 
REMARK    8  A    between atoms: C25_28  and  C27_30 
REMARK    9  A    between atoms: C27_30  and  O5_32 
ROOT
HETATM    1  C9  UNL     1      -1.471  51.405 -22.142  1.00  0.00    -0.002 C 
HETATM    2  C10 UNL     1      -1.001  52.227 -20.915  1.00  0.00     0.007 C 
HETATM    3  C11 UNL     1      -1.193  51.327 -19.679  1.00  0.00     0.015 C 
HETATM    4  C12 UNL     1      -1.448  49.904 -20.232  1.00  0.00    -0.005 C 
HETATM    5  C13 UNL     1      -0.057  49.271 -20.523  1.00  0.00     0.021 C 
HETATM    6  C14 UNL     1      -2.182  48.859 -19.391  1.00  0.00     0.003 C 
HETATM    7  C15 UNL     1      -2.905  47.861 -19.972  1.00  0.00    -0.030 C 
HETATM    8  C16 UNL     1      -3.019  47.806 -21.510  1.00  0.00     0.149 C 
HETATM    9  C17 UNL     1      -2.467  48.997 -22.333  1.00  0.00     0.047 C 
HETATM   10  C18 UNL     1      -2.320  50.267 -21.501  1.00  0.00    -0.026 C 
HETATM   11  C19 UNL     1      -3.740  50.782 -21.131  1.00  0.00     0.016 C 
HETATM   12  C20 UNL     1      -3.777  46.850 -19.131  1.00  0.00     0.014 C 
HETATM   13  C21 UNL     1      -5.194  47.497 -19.147  1.00  0.00     0.023 C 
HETATM   14  C22 UNL     1      -3.800  45.384 -19.738  1.00  0.00     0.133 C 
HETATM   15  C23 UNL     1      -3.726  44.228 -18.722  1.00  0.00     0.065 C 
HETATM   16  C24 UNL     1      -4.536  44.520 -17.462  1.00  0.00     0.139 C 
HETATM   17  C25 UNL     1      -3.912  45.713 -16.697  1.00  0.00     0.072 C 
HETATM   18  C26 UNL     1      -2.799  45.139 -15.764  1.00  0.00     0.030 C 
HETATM   19  C28 UNL     1      -3.197  46.741 -17.678  1.00  0.00     0.029 C 
HETATM   20  C29 UNL     1      -2.950  48.102 -17.036  1.00  0.00     0.090 C 
HETATM   21  C30 UNL     1      -2.104  48.992 -17.902  1.00  0.00     0.157 C 
HETATM   22  O6  UNL     1      -1.419  49.870 -17.368  1.00  0.00    -0.293 OA
ENDROOT
BRANCH   1  23
HETATM   23  C7  UNL     1      -1.963  52.290 -23.326  1.00  0.00    -0.014 C 
HETATM   24  C8  UNL     1      -2.920  51.637 -24.328  1.00  0.00     0.010 C 
BRANCH  23  25
HETATM   25  C6  UNL     1      -0.782  52.963 -24.063  1.00  0.00     0.008 C 
BRANCH  25  26
HETATM   26  C5  UNL     1       0.505  52.123 -24.147  1.00  0.00     0.028 C 
BRANCH  26  27
HETATM   27  C4  UNL     1       1.178  52.182 -25.492  1.00  0.00    -0.025 C 
HETATM   28  C2  UNL     1       0.814  51.543 -26.622  1.00  0.00    -0.091 C 
HETATM   29  C1  UNL     1      -0.345  50.591 -26.734  1.00  0.00     0.042 C 
HETATM   30  C3  UNL     1       1.579  51.746 -27.901  1.00  0.00     0.042 C 
ENDBRANCH  26  27
ENDBRANCH  25  26
ENDBRANCH  23  25
ENDBRANCH   1  23
BRANCH   8  31
HETATM   31  O1  UNL     1      -2.365  46.625 -21.979  1.00  0.00    -0.391 OA
HETATM   32  H25 UNL     1      -2.288  46.685 -22.946  1.00  0.00     0.210 HD
ENDBRANCH   8  31
BRANCH  14  33
HETATM   33  O2  UNL     1      -4.997  45.162 -20.506  1.00  0.00    -0.394 OA
HETATM   34  H35 UNL     1      -4.891  45.657 -21.344  1.00  0.00     0.210 HD
ENDBRANCH  14  33
BRANCH  17  35
HETATM   35  C27 UNL     1      -4.967  46.281 -15.739  1.00  0.00     0.151 C 
HETATM   36  O4  UNL     1      -4.987  46.133 -14.524  1.00  0.00    -0.649 OA
BRANCH  35  37
HETATM   37  O5  UNL     1      -5.952  46.982 -16.319  1.00  0.00    -0.776 OA
HETATM   38  H43 UNL     1      -6.577  47.158 -15.583  1.00  0.00     0.167 HD
ENDBRANCH  35  37
ENDBRANCH  17  35
BRANCH  16  39
HETATM   39  O3  UNL     1      -5.907  44.726 -17.808  1.00  0.00    -0.394 OA
HETATM   40  H39 UNL     1      -5.991  44.640 -18.782  1.00  0.00     0.210 HD
ENDBRANCH  16  39
TORSDOF 9
ENDMDL
MODEL 8
REMARK minimizedAffinity -8.96197319
REMARK CNNscore 0.325089455
REMARK CNNaffinity 6.09722185
REMARK  9 active torsions:
REMARK  status: ('A' for Active; 'I' for Inactive)
REMARK    1  A    between atoms: C4_4  and  C5_5 
REMARK    2  A    between atoms: C5_5  and  C6_6 
REMARK    3  A    between atoms: C6_6  and  C7_7 
REMARK    4  A    between atoms: C7_7  and  C9_9 
REMARK    5  A    between atoms: C16_16  and  O1_17 
REMARK    6  A    between atoms: C22_23  and  O2_24 
REMARK    7  A    between atoms: C24_26  and  O3_27 
REMARK    8  A    between atoms: C25_28  and  C27_30 
REMARK    9  A    between atoms: C27_30  and  O5_32 
ROOT
HETATM    1  C9  UNL     1      -0.355  51.001 -19.202  1.00  0.00    -0.002 C 
HETATM    2  C10 UNL     1      -0.427  49.948 -18.067  1.00  0.00     0.007 C 
HETATM    3  C11 UNL     1      -1.527  48.945 -18.462  1.00  0.00     0.015 C 
HETATM    4  C12 UNL     1      -1.840  49.231 -19.951  1.00  0.00    -0.005 C 
HETATM    5  C13 UNL     1      -0.784  48.462 -20.795  1.00  0.00     0.021 C 
HETATM    6  C14 UNL     1      -3.185  48.833 -20.557  1.00  0.00     0.003 C 
HETATM    7  C15 UNL     1      -3.721  49.517 -21.607  1.00  0.00    -0.030 C 
HETATM    8  C16 UNL     1      -2.973  50.743 -22.172  1.00  0.00     0.149 C 
HETATM    9  C17 UNL     1      -1.735  51.269 -21.404  1.00  0.00     0.047 C 
HETATM   10  C18 UNL     1      -1.707  50.807 -19.950  1.00  0.00    -0.026 C 
HETATM   11  C19 UNL     1      -2.864  51.511 -19.186  1.00  0.00     0.016 C 
HETATM   12  C20 UNL     1      -5.165  49.211 -22.166  1.00  0.00     0.014 C 
HETATM   13  C21 UNL     1      -6.066  50.232 -21.411  1.00  0.00     0.023 C 
HETATM   14  C22 UNL     1      -5.279  49.386 -23.740  1.00  0.00     0.133 C 
HETATM   15  C23 UNL     1      -6.127  48.332 -24.478  1.00  0.00     0.065 C 
HETATM   16  C24 UNL     1      -7.370  47.937 -23.686  1.00  0.00     0.139 C 
HETATM   17  C25 UNL     1      -6.955  47.215 -22.379  1.00  0.00     0.072 C 
HETATM   18  C26 UNL     1      -6.777  45.701 -22.718  1.00  0.00     0.030 C 
HETATM   19  C28 UNL     1      -5.552  47.728 -21.835  1.00  0.00     0.029 C 
HETATM   20  C29 UNL     1      -5.314  47.367 -20.372  1.00  0.00     0.090 C 
HETATM   21  C30 UNL     1      -3.911  47.683 -19.932  1.00  0.00     0.157 C 
HETATM   22  O6  UNL     1      -3.415  47.034 -19.006  1.00  0.00    -0.293 OA
ENDROOT
BRANCH   1  23
HETATM   23  C7  UNL     1       0.181  52.385 -18.727  1.00  0.00    -0.014 C 
HETATM   24  C8  UNL     1       0.412  53.447 -19.807  1.00  0.00     0.010 C 
BRANCH  23  25
HETATM   25  C6  UNL     1       1.436  52.235 -17.837  1.00  0.00     0.008 C 
BRANCH  25  26
HETATM   26  C5  UNL     1       1.243  52.617 -16.359  1.00  0.00     0.028 C 
BRANCH  26  27
HETATM   27  C4  UNL     1       1.988  51.725 -15.402  1.00  0.00    -0.025 C 
HETATM   28  C2  UNL     1       3.322  51.635 -15.232  1.00  0.00    -0.091 C 
HETATM   29  C1  UNL     1       4.342  52.407 -16.024  1.00  0.00     0.042 C 
HETATM   30  C3  UNL     1       3.906  50.714 -14.196  1.00  0.00     0.042 C 
ENDBRANCH  26  27
ENDBRANCH  25  26
ENDBRANCH  23  25
ENDBRANCH   1  23
BRANCH   8  31
HETATM   31  O1  UNL     1      -2.553  50.452 -23.507  1.00  0.00    -0.391 OA
HETATM   32  H25 UNL     1      -1.940  51.150 -23.791  1.00  0.00     0.210 HD
ENDBRANCH   8  31
BRANCH  14  33
HETATM   33  O2  UNL     1      -5.850  50.663 -24.077  1.00  0.00    -0.394 OA
HETATM   34  H35 UNL     1      -5.156  51.334 -23.914  1.00  0.00     0.210 HD
ENDBRANCH  14  33
BRANCH  17  35
HETATM   35  C27 UNL     1      -8.140  47.258 -21.404  1.00  0.00     0.151 C 
HETATM   36  O4  UNL     1      -8.633  48.268 -20.918  1.00  0.00    -0.649 OA
BRANCH  35  37
HETATM   37  O5  UNL     1      -8.644  46.065 -21.061  1.00  0.00    -0.776 OA
HETATM   38  H43 UNL     1      -9.297  46.282 -20.360  1.00  0.00     0.167 HD
ENDBRANCH  35  37
ENDBRANCH  17  35
BRANCH  16  39
HETATM   39  O3  UNL     1      -8.183  49.090 -23.459  1.00  0.00    -0.394 OA
HETATM   40  H39 UNL     1      -7.734  49.863 -23.864  1.00  0.00     0.210 HD
ENDBRANCH  16  39
TORSDOF 9
ENDMDL
MODEL 9
REMARK minimizedAffinity -8.05064106
REMARK CNNscore 0.291251063
REMARK CNNaffinity 6.12757874
REMARK  9 active torsions:
REMARK  status: ('A' for Active; 'I' for Inactive)
REMARK    1  A    between atoms: C4_4  and  C5_5 
REMARK    2  A    between atoms: C5_5  and  C6_6 
REMARK    3  A    between atoms: C6_6  and  C7_7 
REMARK    4  A    between atoms: C7_7  and  C9_9 
REMARK    5  A    between atoms: C16_16  and  O1_17 
REMARK    6  A    between atoms: C22_23  and  O2_24 
REMARK    7  A    between atoms: C24_26  and  O3_27 
REMARK    8  A    between atoms: C25_28  and  C27_30 
REMARK    9  A    between atoms: C27_30  and  O5_32 
ROOT
HETATM    1  C9  UNL     1      -3.275  50.051 -21.638  1.00  0.00    -0.002 C 
HETATM    2  C10 UNL     1      -3.709  49.451 -20.277  1.00  0.00     0.007 C 
HETATM    3  C11 UNL     1      -4.796  48.403 -20.581  1.00  0.00     0.015 C 
HETATM    4  C12 UNL     1      -4.739  48.172 -22.110  1.00  0.00    -0.005 C 
HETATM    5  C13 UNL     1      -3.613  47.132 -22.373  1.00  0.00     0.021 C 
HETATM    6  C14 UNL     1      -5.953  47.627 -22.863  1.00  0.00     0.003 C 
HETATM    7  C15 UNL     1      -6.166  47.925 -24.176  1.00  0.00    -0.030 C 
HETATM    8  C16 UNL     1      -5.184  48.863 -24.908  1.00  0.00     0.149 C 
HETATM    9  C17 UNL     1      -4.097  49.587 -24.074  1.00  0.00     0.047 C 
HETATM   10  C18 UNL     1      -4.440  49.649 -22.589  1.00  0.00    -0.026 C 
HETATM   11  C19 UNL     1      -5.655  50.602 -22.403  1.00  0.00     0.016 C 
HETATM   12  C20 UNL     1      -7.475  47.486 -24.940  1.00  0.00     0.014 C 
HETATM   13  C21 UNL     1      -8.405  48.727 -24.803  1.00  0.00     0.023 C 
HETATM   14  C22 UNL     1      -7.220  47.115 -26.462  1.00  0.00     0.133 C 
HETATM   15  C23 UNL     1      -7.992  45.895 -27.002  1.00  0.00     0.065 C 
HETATM   16  C24 UNL     1      -9.414  45.829 -26.453  1.00  0.00     0.139 C 
HETATM   17  C25 UNL     1      -9.379  45.587 -24.923  1.00  0.00     0.072 C 
HETATM   18  C26 UNL     1      -9.296  44.043 -24.698  1.00  0.00     0.030 C 
HETATM   19  C28 UNL     1      -8.084  46.216 -24.250  1.00  0.00     0.029 C 
HETATM   20  C29 UNL     1      -8.215  46.370 -22.738  1.00  0.00     0.090 C 
HETATM   21  C30 UNL     1      -6.919  46.779 -22.095  1.00  0.00     0.157 C 
HETATM   22  O6  UNL     1      -6.713  46.473 -20.918  1.00  0.00    -0.293 OA
ENDROOT
BRANCH   1  23
HETATM   23  C7  UNL     1      -2.711  51.498 -21.523  1.00  0.00    -0.014 C 
HETATM   24  C8  UNL     1      -2.428  52.238 -22.835  1.00  0.00     0.010 C 
BRANCH  23  25
HETATM   25  C6  UNL     1      -1.478  51.558 -20.591  1.00  0.00     0.008 C 
BRANCH  25  26
HETATM   26  C5  UNL     1      -0.138  51.185 -21.250  1.00  0.00     0.028 C 
BRANCH  26  27
HETATM   27  C4  UNL     1       0.575  52.356 -21.873  1.00  0.00    -0.025 C 
HETATM   28  C2  UNL     1       1.001  53.479 -21.260  1.00  0.00    -0.091 C 
HETATM   29  C1  UNL     1       0.797  53.792 -19.803  1.00  0.00     0.042 C 
HETATM   30  C3  UNL     1       1.738  54.541 -22.028  1.00  0.00     0.042 C 
ENDBRANCH  26  27
ENDBRANCH  25  26
ENDBRANCH  23  25
ENDBRANCH   1  23
BRANCH   8  31
HETATM   31  O1  UNL     1      -4.513  48.122 -25.930  1.00  0.00    -0.391 OA
HETATM   32  H25 UNL     1      -3.780  48.665 -26.266  1.00  0.00     0.210 HD
ENDBRANCH   8  31
BRANCH  14  33
HETATM   33  O2  UNL     1      -7.560  48.215 -27.325  1.00  0.00    -0.394 OA
HETATM   34  H35 UNL     1      -6.851  48.883 -27.225  1.00  0.00     0.210 HD
ENDBRANCH  14  33
BRANCH  17  35
HETATM   35  C27 UNL     1     -10.738  45.992 -24.337  1.00  0.00     0.151 C 
HETATM   36  O4  UNL     1     -11.606  45.224 -23.941  1.00  0.00    -0.649 OA
BRANCH  35  37
HETATM   37  O5  UNL     1     -10.971  47.311 -24.284  1.00  0.00    -0.776 OA
HETATM   38  H43 UNL     1     -11.908  47.370 -23.999  1.00  0.00     0.167 HD
ENDBRANCH  35  37
ENDBRANCH  17  35
BRANCH  16  39
HETATM   39  O3  UNL     1     -10.128  47.011 -26.820  1.00  0.00    -0.394 OA
HETATM   40  H39 UNL     1      -9.519  47.587 -27.331  1.00  0.00     0.210 HD
ENDBRANCH  16  39
TORSDOF 9
ENDMDL
