MODEL 1
REMARK minimizedAffinity -10.1533518
REMARK CNNscore 0.463379711
REMARK CNNaffinity 7.50216532
REMARK  13 active torsions:
REMARK  status: ('A' for Active; 'I' for Inactive)
REMARK    1  A    between atoms: C5_6  and  C6_7 
REMARK    2  A    between atoms: C5_6  and  C29_33 
REMARK    3  A    between atoms: C19_20  and  O2_21 
REMARK    4  A    between atoms: C28_31  and  O4_32 
REMARK    5  A    between atoms: C30_35  and  C31_36 
REMARK    6  A    between atoms: C31_36  and  O6_38 
REMARK    7  A    between atoms: C31_36  and  C33_39 
REMARK    8  A    between atoms: C33_39  and  C35_41 
REMARK    9  A    between atoms: C33_39  and  C36_43 
REMARK   10  A    between atoms: C35_41  and  O7_42 
REMARK   11  A    between atoms: C36_43  and  C37_44 
REMARK   12  A    between atoms: C37_44  and  C38_45 
REMARK   13  A    between atoms: C41_49  and  N2_50 
ROOT
HETATM    1  C1  UNL     1      -3.694  11.557  18.946  1.00  0.00     0.010 C 
HETATM    2  C2  UNL     1      -3.034  11.046  17.664  1.00  0.00    -0.014 C 
HETATM    3  C3  UNL     1      -3.187  12.060  16.533  1.00  0.00     0.030 C 
HETATM    4  C4  UNL     1      -2.447  11.570  15.300  1.00  0.00     0.169 C 
HETATM    5  O1  UNL     1      -1.068  11.351  15.564  1.00  0.00    -0.377 OA
HETATM    6  C5  UNL     1      -0.762  10.405  16.606  1.00  0.00     0.094 C 
HETATM    7  C43 UNL     1      -1.545  10.758  17.891  1.00  0.00     0.045 C 
ENDROOT
BRANCH   6   8
HETATM    8  C6  UNL     1       0.794  10.496  16.871  1.00  0.00     0.035 C 
HETATM    9  C7  UNL     1       1.587  11.099  15.628  1.00  0.00     0.016 C 
HETATM   10  C8  UNL     1       2.702  11.976  16.211  1.00  0.00     0.026 C 
HETATM   11  C9  UNL     1       4.045  12.067  15.508  1.00  0.00     0.013 C 
HETATM   12  C28 UNL     1       2.873  11.383  17.598  1.00  0.00     0.094 C 
HETATM   13  C10 UNL     1       5.019  12.914  16.369  1.00  0.00     0.043 C 
HETATM   14  C11 UNL     1       4.890  12.738  17.878  1.00  0.00    -0.006 C 
HETATM   15  C12 UNL     1       3.871  12.075  18.454  1.00  0.00    -0.030 C 
HETATM   16  C22 UNL     1       6.045  13.161  18.724  1.00  0.00     0.161 C 
HETATM   17  C13 UNL     1       3.815  11.698  19.905  1.00  0.00     0.031 C 
HETATM   18  C14 UNL     1       2.388  11.383  20.463  1.00  0.00    -0.005 C 
HETATM   19  C23 UNL     1       4.567  12.690  20.836  1.00  0.00    -0.022 C 
HETATM   20  C15 UNL     1       2.512  10.717  21.848  1.00  0.00     0.006 C 
HETATM   21  C25 UNL     1       1.495  10.568  19.482  1.00  0.00     0.018 C 
HETATM   22  C16 UNL     1       3.410  11.513  22.818  1.00  0.00     0.006 C 
HETATM   23  C17 UNL     1       4.753  11.880  22.162  1.00  0.00    -0.003 C 
HETATM   24  C18 UNL     1       5.754  12.561  23.090  1.00  0.00     0.037 C 
HETATM   25  C19 UNL     1       7.140  12.660  22.420  1.00  0.00     0.119 C 
HETATM   26  C20 UNL     1       7.121  12.416  20.900  1.00  0.00     0.045 C 
HETATM   27  C21 UNL     1       5.940  13.150  20.250  1.00  0.00     0.072 C 
HETATM   28  C26 UNL     1       1.411  11.286  18.103  1.00  0.00    -0.002 C 
HETATM   29  C27 UNL     1       0.729  12.668  18.290  1.00  0.00     0.019 C 
HETATM   30  C24 UNL     1       3.762  14.006  21.057  1.00  0.00     0.017 C 
HETATM   31  O3  UNL     1       7.086  13.524  18.172  1.00  0.00    -0.292 OA
BRANCH  25  32
HETATM   32  O2  UNL     1       7.656  13.964  22.690  1.00  0.00    -0.396 OA
HETATM   33  H27 UNL     1       8.543  14.020  22.295  1.00  0.00     0.210 HD
ENDBRANCH  25  32
BRANCH  12  34
HETATM   34  O4  UNL     1       3.395  10.038  17.465  1.00  0.00    -0.384 OA
HETATM   35  H39 UNL     1       4.359  10.090  17.341  1.00  0.00     0.211 HD
ENDBRANCH  12  34
ENDBRANCH   6   8
BRANCH   6  36
HETATM   36  C29 UNL     1      -1.059   8.994  16.068  1.00  0.00     0.189 A 
HETATM   37  O5  UNL     1      -1.830   8.208  16.999  1.00  0.00    -0.369 OA
HETATM   38  C30 UNL     1      -2.419   8.376  15.702  1.00  0.00     0.189 A 
BRANCH  38  39
HETATM   39  C31 UNL     1      -2.593   7.030  14.992  1.00  0.00     0.092 C 
HETATM   40  C32 UNL     1      -3.734   6.274  15.706  1.00  0.00     0.049 C 
BRANCH  39  41
HETATM   41  O6  UNL     1      -1.410   6.236  15.223  1.00  0.00    -0.387 OA
HETATM   42  H45 UNL     1      -1.183   6.381  16.166  1.00  0.00     0.210 HD
ENDBRANCH  39  41
BRANCH  39  43
HETATM   43  C33 UNL     1      -2.773   7.161  13.424  1.00  0.00     0.011 C 
HETATM   44  C34 UNL     1      -1.464   6.768  12.691  1.00  0.00     0.020 C 
BRANCH  43  45
HETATM   45  C35 UNL     1      -3.088   8.618  12.985  1.00  0.00     0.176 C 
BRANCH  45  46
HETATM   46  O7  UNL     1      -1.980   9.234  12.352  1.00  0.00    -0.400 OA
HETATM   47  H51 UNL     1      -1.774  10.058  12.835  1.00  0.00     0.209 HD
ENDBRANCH  45  46
ENDBRANCH  43  45
BRANCH  43  48
HETATM   48  C36 UNL     1      -3.928   6.251  12.863  1.00  0.00     0.019 C 
BRANCH  48  49
HETATM   49  C37 UNL     1      -3.526   4.863  12.344  1.00  0.00     0.039 C 
BRANCH  49  50
HETATM   50  C38 UNL     1      -4.712   3.927  12.254  1.00  0.00    -0.053 A 
HETATM   51  C39 UNL     1      -4.651   2.776  11.469  1.00  0.00     0.024 A 
HETATM   52  C40 UNL     1      -5.753   1.936  11.414  1.00  0.00     0.090 A 
HETATM   53  N1  UNL     1      -6.858   2.230  12.115  1.00  0.00    -0.353 N 
HETATM   54  C41 UNL     1      -6.963   3.310  12.900  1.00  0.00     0.098 A 
HETATM   55  H58 UNL     1      -7.664   1.616  12.045  1.00  0.00     0.166 HD
HETATM   56  C42 UNL     1      -5.890   4.200  12.956  1.00  0.00     0.055 A 
BRANCH  54  57
HETATM   57  N2  UNL     1      -8.156   3.567  13.552  1.00  0.00    -0.385 N 
HETATM   58  H59 UNL     1      -8.057   4.028  14.458  1.00  0.00     0.157 HD
HETATM   59  H60 UNL     1      -8.900   2.880  13.557  1.00  0.00     0.157 HD
ENDBRANCH  54  57
ENDBRANCH  49  50
ENDBRANCH  48  49
ENDBRANCH  43  48
ENDBRANCH  39  43
ENDBRANCH  38  39
ENDBRANCH   6  36
TORSDOF 13
ENDMDL
MODEL 2
REMARK minimizedAffinity -10.687295
REMARK CNNscore 0.378480077
REMARK CNNaffinity 8.03958035
REMARK  13 active torsions:
REMARK  status: ('A' for Active; 'I' for Inactive)
REMARK    1  A    between atoms: C5_6  and  C6_7 
REMARK    2  A    between atoms: C5_6  and  C29_33 
REMARK    3  A    between atoms: C19_20  and  O2_21 
REMARK    4  A    between atoms: C28_31  and  O4_32 
REMARK    5  A    between atoms: C30_35  and  C31_36 
REMARK    6  A    between atoms: C31_36  and  O6_38 
REMARK    7  A    between atoms: C31_36  and  C33_39 
REMARK    8  A    between atoms: C33_39  and  C35_41 
REMARK    9  A    between atoms: C33_39  and  C36_43 
REMARK   10  A    between atoms: C35_41  and  O7_42 
REMARK   11  A    between atoms: C36_43  and  C37_44 
REMARK   12  A    between atoms: C37_44  and  C38_45 
REMARK   13  A    between atoms: C41_49  and  N2_50 
ROOT
HETATM    1  C1  UNL     1      -3.260   5.918  16.295  1.00  0.00     0.010 C 
HETATM    2  C2  UNL     1      -3.202   6.006  14.768  1.00  0.00    -0.014 C 
HETATM    3  C3  UNL     1      -3.767   7.338  14.279  1.00  0.00     0.030 C 
HETATM    4  C4  UNL     1      -3.615   7.436  12.771  1.00  0.00     0.169 C 
HETATM    5  O1  UNL     1      -2.257   7.315  12.368  1.00  0.00    -0.377 OA
HETATM    6  C5  UNL     1      -1.588   6.099  12.749  1.00  0.00     0.094 C 
HETATM    7  C43 UNL     1      -1.762   5.849  14.264  1.00  0.00     0.045 C 
ENDROOT
BRANCH   6   8
HETATM    8  C6  UNL     1      -0.057   6.285  12.398  1.00  0.00     0.035 C 
HETATM    9  C7  UNL     1       0.220   6.211  10.831  1.00  0.00     0.016 C 
HETATM   10  C8  UNL     1       1.313   7.246  10.536  1.00  0.00     0.026 C 
HETATM   11  C9  UNL     1       2.349   6.972   9.460  1.00  0.00     0.013 C 
HETATM   12  C28 UNL     1       1.985   7.385  11.890  1.00  0.00     0.094 C 
HETATM   13  C10 UNL     1       3.399   8.116   9.456  1.00  0.00     0.043 C 
HETATM   14  C11 UNL     1       3.762   8.683  10.824  1.00  0.00    -0.006 C 
HETATM   15  C12 UNL     1       3.079   8.389  11.945  1.00  0.00    -0.030 C 
HETATM   16  C22 UNL     1       5.042   9.444  10.937  1.00  0.00     0.161 C 
HETATM   17  C13 UNL     1       3.525   8.752  13.331  1.00  0.00     0.031 C 
HETATM   18  C14 UNL     1       2.400   8.759  14.417  1.00  0.00    -0.005 C 
HETATM   19  C23 UNL     1       4.364  10.057  13.394  1.00  0.00    -0.022 C 
HETATM   20  C15 UNL     1       3.037   8.834  15.819  1.00  0.00     0.006 C 
HETATM   21  C25 UNL     1       1.385   7.586  14.281  1.00  0.00     0.018 C 
HETATM   22  C16 UNL     1       4.057   9.984  15.953  1.00  0.00     0.006 C 
HETATM   23  C17 UNL     1       5.065   9.977  14.791  1.00  0.00    -0.003 C 
HETATM   24  C18 UNL     1       6.186  11.005  14.908  1.00  0.00     0.037 C 
HETATM   25  C19 UNL     1       7.270  10.754  13.840  1.00  0.00     0.119 C 
HETATM   26  C20 UNL     1       6.828   9.815  12.703  1.00  0.00     0.045 C 
HETATM   27  C21 UNL     1       5.408  10.164  12.236  1.00  0.00     0.072 C 
HETATM   28  C26 UNL     1       0.778   7.560  12.847  1.00  0.00    -0.002 C 
HETATM   29  C27 UNL     1      -0.016   8.871  12.606  1.00  0.00     0.019 C 
HETATM   30  C24 UNL     1       3.475  11.329  13.252  1.00  0.00     0.017 C 
HETATM   31  O3  UNL     1       5.798   9.487   9.965  1.00  0.00    -0.292 OA
BRANCH  25  32
HETATM   32  O2  UNL     1       7.640  12.022  13.298  1.00  0.00    -0.396 OA
HETATM   33  H27 UNL     1       8.347  11.871  12.645  1.00  0.00     0.210 HD
ENDBRANCH  25  32
BRANCH  12  34
HETATM   34  O4  UNL     1       2.639   6.133  12.213  1.00  0.00    -0.384 OA
HETATM   35  H39 UNL     1       3.500   6.107  11.760  1.00  0.00     0.211 HD
ENDBRANCH  12  34
ENDBRANCH   6   8
BRANCH   6  36
HETATM   36  C29 UNL     1      -2.130   4.961  11.867  1.00  0.00     0.189 A 
HETATM   37  O5  UNL     1      -1.425   3.722  12.082  1.00  0.00    -0.369 OA
HETATM   38  C30 UNL     1      -2.841   3.668  12.301  1.00  0.00     0.189 A 
BRANCH  38  39
HETATM   39  C31 UNL     1      -3.516   2.688  11.338  1.00  0.00     0.092 C 
HETATM   40  C32 UNL     1      -3.053   1.267  11.724  1.00  0.00     0.049 C 
BRANCH  39  41
HETATM   41  O6  UNL     1      -2.988   2.912  10.015  1.00  0.00    -0.387 OA
HETATM   42  H45 UNL     1      -2.025   3.047  10.140  1.00  0.00     0.210 HD
ENDBRANCH  39  41
BRANCH  39  43
HETATM   43  C33 UNL     1      -5.088   2.865  11.254  1.00  0.00     0.011 C 
HETATM   44  C34 UNL     1      -5.788   1.484  11.172  1.00  0.00     0.020 C 
BRANCH  43  45
HETATM   45  C35 UNL     1      -5.527   3.643   9.982  1.00  0.00     0.176 C 
BRANCH  45  46
HETATM   46  O7  UNL     1      -5.542   2.816   8.831  1.00  0.00    -0.400 OA
HETATM   47  H51 UNL     1      -4.966   3.225   8.157  1.00  0.00     0.209 HD
ENDBRANCH  45  46
ENDBRANCH  43  45
BRANCH  43  48
HETATM   48  C36 UNL     1      -5.684   3.633  12.492  1.00  0.00     0.019 C 
BRANCH  48  49
HETATM   49  C37 UNL     1      -7.215   3.691  12.598  1.00  0.00     0.039 C 
BRANCH  49  50
HETATM   50  C38 UNL     1      -7.678   4.831  13.479  1.00  0.00    -0.053 A 
HETATM   51  C39 UNL     1      -8.778   5.609  13.115  1.00  0.00     0.024 A 
HETATM   52  C40 UNL     1      -9.180   6.641  13.948  1.00  0.00     0.090 A 
HETATM   53  N1  UNL     1      -8.520   6.880  15.092  1.00  0.00    -0.353 N 
HETATM   54  C41 UNL     1      -7.472   6.152  15.498  1.00  0.00     0.098 A 
HETATM   55  H58 UNL     1      -8.814   7.655  15.678  1.00  0.00     0.166 HD
HETATM   56  C42 UNL     1      -7.012   5.126  14.673  1.00  0.00     0.055 A 
BRANCH  54  57
HETATM   57  N2  UNL     1      -6.815   6.494  16.667  1.00  0.00    -0.385 N 
HETATM   58  H59 UNL     1      -6.419   5.706  17.181  1.00  0.00     0.157 HD
HETATM   59  H60 UNL     1      -7.200   7.195  17.289  1.00  0.00     0.157 HD
ENDBRANCH  54  57
ENDBRANCH  49  50
ENDBRANCH  48  49
ENDBRANCH  43  48
ENDBRANCH  39  43
ENDBRANCH  38  39
ENDBRANCH   6  36
TORSDOF 13
ENDMDL
MODEL 3
REMARK minimizedAffinity -11.3440981
REMARK CNNscore 0.33885169
REMARK CNNaffinity 8.25069141
REMARK  13 active torsions:
REMARK  status: ('A' for Active; 'I' for Inactive)
REMARK    1  A    between atoms: C5_6  and  C6_7 
REMARK    2  A    between atoms: C5_6  and  C29_33 
REMARK    3  A    between atoms: C19_20  and  O2_21 
REMARK    4  A    between atoms: C28_31  and  O4_32 
REMARK    5  A    between atoms: C30_35  and  C31_36 
REMARK    6  A    between atoms: C31_36  and  O6_38 
REMARK    7  A    between atoms: C31_36  and  C33_39 
REMARK    8  A    between atoms: C33_39  and  C35_41 
REMARK    9  A    between atoms: C33_39  and  C36_43 
REMARK   10  A    between atoms: C35_41  and  O7_42 
REMARK   11  A    between atoms: C36_43  and  C37_44 
REMARK   12  A    between atoms: C37_44  and  C38_45 
REMARK   13  A    between atoms: C41_49  and  N2_50 
ROOT
HETATM    1  C1  UNL     1       0.538   8.269   8.314  1.00  0.00     0.010 C 
HETATM    2  C2  UNL     1       0.846   7.017   9.138  1.00  0.00    -0.014 C 
HETATM    3  C3  UNL     1       2.339   6.702   9.112  1.00  0.00     0.030 C 
HETATM    4  C4  UNL     1       2.628   5.511  10.009  1.00  0.00     0.169 C 
HETATM    5  O1  UNL     1       2.210   5.744  11.348  1.00  0.00    -0.377 OA
HETATM    6  C5  UNL     1       0.814   6.045  11.535  1.00  0.00     0.094 C 
HETATM    7  C43 UNL     1       0.387   7.192  10.591  1.00  0.00     0.045 C 
ENDROOT
BRANCH   6   8
HETATM    8  C6  UNL     1       0.635   6.482  13.044  1.00  0.00     0.035 C 
HETATM    9  C7  UNL     1       2.028   6.669  13.792  1.00  0.00     0.016 C 
HETATM   10  C8  UNL     1       1.858   7.871  14.729  1.00  0.00     0.026 C 
HETATM   11  C9  UNL     1       2.563   7.893  16.074  1.00  0.00     0.013 C 
HETATM   12  C28 UNL     1       0.354   7.905  14.923  1.00  0.00     0.094 C 
HETATM   13  C10 UNL     1       2.123   9.156  16.863  1.00  0.00     0.043 C 
HETATM   14  C11 UNL     1       0.665   9.566  16.690  1.00  0.00    -0.006 C 
HETATM   15  C12 UNL     1      -0.143   9.028  15.760  1.00  0.00    -0.030 C 
HETATM   16  C22 UNL     1       0.076  10.468  17.725  1.00  0.00     0.161 C 
HETATM   17  C13 UNL     1      -1.626   9.247  15.694  1.00  0.00     0.031 C 
HETATM   18  C14 UNL     1      -2.288   8.950  14.309  1.00  0.00    -0.005 C 
HETATM   19  C23 UNL     1      -2.077  10.630  16.238  1.00  0.00    -0.022 C 
HETATM   20  C15 UNL     1      -3.821   8.909  14.467  1.00  0.00     0.006 C 
HETATM   21  C25 UNL     1      -1.724   7.683  13.600  1.00  0.00     0.018 C 
HETATM   22  C16 UNL     1      -4.382  10.155  15.185  1.00  0.00     0.006 C 
HETATM   23  C17 UNL     1      -3.611  10.447  16.484  1.00  0.00    -0.003 C 
HETATM   24  C18 UNL     1      -4.178  11.589  17.323  1.00  0.00     0.037 C 
HETATM   25  C19 UNL     1      -3.499  11.639  18.706  1.00  0.00     0.119 C 
HETATM   26  C20 UNL     1      -2.198  10.819  18.798  1.00  0.00     0.045 C 
HETATM   27  C21 UNL     1      -1.333  11.039  17.549  1.00  0.00     0.072 C 
HETATM   28  C26 UNL     1      -0.175   7.780  13.472  1.00  0.00    -0.002 C 
HETATM   29  C27 UNL     1       0.186   8.994  12.576  1.00  0.00     0.019 C 
HETATM   30  C24 UNL     1      -1.774  11.780  15.229  1.00  0.00     0.017 C 
HETATM   31  O3  UNL     1       0.744  10.748  18.721  1.00  0.00    -0.292 OA
BRANCH  25  32
HETATM   32  O2  UNL     1      -3.224  13.009  19.001  1.00  0.00    -0.396 OA
HETATM   33  H27 UNL     1      -2.823  13.047  19.887  1.00  0.00     0.210 HD
ENDBRANCH  25  32
BRANCH  12  34
HETATM   34  O4  UNL     1      -0.046   6.718  15.653  1.00  0.00    -0.384 OA
HETATM   35  H39 UNL     1       0.105   6.873  16.602  1.00  0.00     0.211 HD
ENDBRANCH  12  34
ENDBRANCH   6   8
BRANCH   6  36
HETATM   36  C29 UNL     1       0.017   4.744  11.330  1.00  0.00     0.189 A 
HETATM   37  O5  UNL     1      -0.637   4.312  12.540  1.00  0.00    -0.369 OA
HETATM   38  C30 UNL     1      -1.503   4.530  11.418  1.00  0.00     0.189 A 
BRANCH  38  39
HETATM   39  C31 UNL     1      -2.218   3.239  11.009  1.00  0.00     0.092 C 
HETATM   40  C32 UNL     1      -1.265   2.064  11.314  1.00  0.00     0.049 C 
BRANCH  39  41
HETATM   41  O6  UNL     1      -2.373   3.238   9.575  1.00  0.00    -0.387 OA
HETATM   42  H45 UNL     1      -1.523   3.579   9.223  1.00  0.00     0.210 HD
ENDBRANCH  39  41
BRANCH  39  43
HETATM   43  C33 UNL     1      -3.664   3.091  11.638  1.00  0.00     0.011 C 
HETATM   44  C34 UNL     1      -3.967   1.605  11.963  1.00  0.00     0.020 C 
BRANCH  43  45
HETATM   45  C35 UNL     1      -4.783   3.551  10.662  1.00  0.00     0.176 C 
BRANCH  45  46
HETATM   46  O7  UNL     1      -5.348   2.464   9.951  1.00  0.00    -0.400 OA
HETATM   47  H51 UNL     1      -5.264   2.650   8.996  1.00  0.00     0.209 HD
ENDBRANCH  45  46
ENDBRANCH  43  45
BRANCH  43  48
HETATM   48  C36 UNL     1      -3.842   3.919  12.965  1.00  0.00     0.019 C 
BRANCH  48  49
HETATM   49  C37 UNL     1      -4.408   5.340  12.823  1.00  0.00     0.039 C 
BRANCH  49  50
HETATM   50  C38 UNL     1      -5.584   5.575  13.746  1.00  0.00    -0.053 A 
HETATM   51  C39 UNL     1      -5.381   5.861  15.096  1.00  0.00     0.024 A 
HETATM   52  C40 UNL     1      -6.481   6.078  15.913  1.00  0.00     0.090 A 
HETATM   53  N1  UNL     1      -7.720   6.019  15.403  1.00  0.00    -0.353 N 
HETATM   54  C41 UNL     1      -7.970   5.769  14.112  1.00  0.00     0.098 A 
HETATM   55  H58 UNL     1      -8.514   6.157  16.021  1.00  0.00     0.166 HD
HETATM   56  C42 UNL     1      -6.894   5.509  13.262  1.00  0.00     0.055 A 
BRANCH  54  57
HETATM   57  N2  UNL     1      -9.279   5.677  13.675  1.00  0.00    -0.385 N 
HETATM   58  H59 UNL     1      -9.434   5.993  12.716  1.00  0.00     0.157 HD
HETATM   59  H60 UNL     1     -10.046   5.934  14.284  1.00  0.00     0.157 HD
ENDBRANCH  54  57
ENDBRANCH  49  50
ENDBRANCH  48  49
ENDBRANCH  43  48
ENDBRANCH  39  43
ENDBRANCH  38  39
ENDBRANCH   6  36
TORSDOF 13
ENDMDL
MODEL 4
REMARK minimizedAffinity -10.0995893
REMARK CNNscore 0.275998771
REMARK CNNaffinity 7.3877883
REMARK  13 active torsions:
REMARK  status: ('A' for Active; 'I' for Inactive)
REMARK    1  A    between atoms: C5_6  and  C6_7 
REMARK    2  A    between atoms: C5_6  and  C29_33 
REMARK    3  A    between atoms: C19_20  and  O2_21 
REMARK    4  A    between atoms: C28_31  and  O4_32 
REMARK    5  A    between atoms: C30_35  and  C31_36 
REMARK    6  A    between atoms: C31_36  and  O6_38 
REMARK    7  A    between atoms: C31_36  and  C33_39 
REMARK    8  A    between atoms: C33_39  and  C35_41 
REMARK    9  A    between atoms: C33_39  and  C36_43 
REMARK   10  A    between atoms: C35_41  and  O7_42 
REMARK   11  A    between atoms: C36_43  and  C37_44 
REMARK   12  A    between atoms: C37_44  and  C38_45 
REMARK   13  A    between atoms: C41_49  and  N2_50 
ROOT
HETATM    1  C1  UNL     1       2.724   4.738   6.951  1.00  0.00     0.010 C 
HETATM    2  C2  UNL     1       3.109   5.993   7.737  1.00  0.00    -0.014 C 
HETATM    3  C3  UNL     1       2.388   7.221   7.188  1.00  0.00     0.030 C 
HETATM    4  C4  UNL     1       2.718   8.434   8.041  1.00  0.00     0.169 C 
HETATM    5  O1  UNL     1       2.359   8.236   9.402  1.00  0.00    -0.377 OA
HETATM    6  C5  UNL     1       2.972   7.113  10.064  1.00  0.00     0.094 C 
HETATM    7  C43 UNL     1       2.777   5.830   9.226  1.00  0.00     0.045 C 
ENDROOT
BRANCH   6   8
HETATM    8  C6  UNL     1       2.262   6.963  11.469  1.00  0.00     0.035 C 
HETATM    9  C7  UNL     1       2.771   8.040  12.526  1.00  0.00     0.016 C 
HETATM   10  C8  UNL     1       1.545   8.448  13.352  1.00  0.00     0.026 C 
HETATM   11  C9  UNL     1       1.697   8.781  14.826  1.00  0.00     0.013 C 
HETATM   12  C28 UNL     1       0.635   7.247  13.174  1.00  0.00     0.094 C 
HETATM   13  C10 UNL     1       0.295   9.037  15.441  1.00  0.00     0.043 C 
HETATM   14  C11 UNL     1      -0.830   8.159  14.907  1.00  0.00    -0.006 C 
HETATM   15  C12 UNL     1      -0.695   7.368  13.827  1.00  0.00    -0.030 C 
HETATM   16  C22 UNL     1      -2.067   8.042  15.737  1.00  0.00     0.161 C 
HETATM   17  C13 UNL     1      -1.698   6.339  13.397  1.00  0.00     0.031 C 
HETATM   18  C14 UNL     1      -1.596   5.887  11.903  1.00  0.00    -0.005 C 
HETATM   19  C23 UNL     1      -3.161   6.702  13.768  1.00  0.00    -0.022 C 
HETATM   20  C15 UNL     1      -2.456   4.625  11.687  1.00  0.00     0.006 C 
HETATM   21  C25 UNL     1      -0.135   5.711  11.396  1.00  0.00     0.018 C 
HETATM   22  C16 UNL     1      -3.901   4.789  12.204  1.00  0.00     0.006 C 
HETATM   23  C17 UNL     1      -3.922   5.340  13.641  1.00  0.00    -0.003 C 
HETATM   24  C18 UNL     1      -5.306   5.416  14.278  1.00  0.00     0.037 C 
HETATM   25  C19 UNL     1      -5.197   5.738  15.782  1.00  0.00     0.119 C 
HETATM   26  C20 UNL     1      -3.817   6.265  16.215  1.00  0.00     0.045 C 
HETATM   27  C21 UNL     1      -3.293   7.298  15.206  1.00  0.00     0.072 C 
HETATM   28  C26 UNL     1       0.683   7.012  11.644  1.00  0.00    -0.002 C 
HETATM   29  C27 UNL     1       0.058   8.171  10.821  1.00  0.00     0.019 C 
HETATM   30  C24 UNL     1      -3.748   7.795  12.824  1.00  0.00     0.017 C 
HETATM   31  O3  UNL     1      -2.085   8.558  16.855  1.00  0.00    -0.292 OA
BRANCH  25  32
HETATM   32  O2  UNL     1      -6.199   6.709  16.088  1.00  0.00    -0.396 OA
HETATM   33  H27 UNL     1      -6.154   6.892  17.043  1.00  0.00     0.210 HD
ENDBRANCH  25  32
BRANCH  12  34
HETATM   34  O4  UNL     1       1.244   6.105  13.826  1.00  0.00    -0.384 OA
HETATM   35  H39 UNL     1       1.044   6.147  14.777  1.00  0.00     0.211 HD
ENDBRANCH  12  34
ENDBRANCH   6   8
BRANCH   6  36
HETATM   36  C29 UNL     1       4.447   7.465  10.326  1.00  0.00     0.189 A 
HETATM   37  O5  UNL     1       4.788   8.778   9.839  1.00  0.00    -0.369 OA
HETATM   38  C30 UNL     1       5.023   8.561  11.237  1.00  0.00     0.189 A 
BRANCH  38  39
HETATM   39  C31 UNL     1       6.508   8.708  11.581  1.00  0.00     0.092 C 
HETATM   40  C32 UNL     1       6.989  10.050  10.990  1.00  0.00     0.049 C 
BRANCH  39  41
HETATM   41  O6  UNL     1       7.243   7.693  10.866  1.00  0.00    -0.387 OA
HETATM   42  H45 UNL     1       6.845   7.669   9.970  1.00  0.00     0.210 HD
ENDBRANCH  39  41
BRANCH  39  43
HETATM   43  C33 UNL     1       6.822   8.518  13.121  1.00  0.00     0.011 C 
HETATM   44  C34 UNL     1       8.206   7.847  13.316  1.00  0.00     0.020 C 
BRANCH  43  45
HETATM   45  C35 UNL     1       5.794   7.589  13.825  1.00  0.00     0.176 C 
BRANCH  45  46
HETATM   46  O7  UNL     1       6.415   6.466  14.425  1.00  0.00    -0.400 OA
HETATM   47  H51 UNL     1       5.998   5.660  14.063  1.00  0.00     0.209 HD
ENDBRANCH  45  46
ENDBRANCH  43  45
BRANCH  43  48
HETATM   48  C36 UNL     1       6.832   9.877  13.915  1.00  0.00     0.019 C 
BRANCH  48  49
HETATM   49  C37 UNL     1       6.675   9.789  15.440  1.00  0.00     0.039 C 
BRANCH  49  50
HETATM   50  C38 UNL     1       7.885  10.335  16.167  1.00  0.00    -0.053 A 
HETATM   51  C39 UNL     1       9.047  10.661  15.467  1.00  0.00     0.024 A 
HETATM   52  C40 UNL     1      10.135  11.165  16.162  1.00  0.00     0.090 A 
HETATM   53  N1  UNL     1      10.062  11.343  17.490  1.00  0.00    -0.353 N 
HETATM   54  C41 UNL     1       8.965  11.066  18.207  1.00  0.00     0.098 A 
HETATM   55  H58 UNL     1      10.877  11.691  17.986  1.00  0.00     0.166 HD
HETATM   56  C42 UNL     1       7.859  10.523  17.552  1.00  0.00     0.055 A 
BRANCH  54  57
HETATM   57  N2  UNL     1       8.988  11.232  19.580  1.00  0.00    -0.385 N 
HETATM   58  H59 UNL     1       8.096  11.508  19.993  1.00  0.00     0.157 HD
HETATM   59  H60 UNL     1       9.770  11.689  20.033  1.00  0.00     0.157 HD
ENDBRANCH  54  57
ENDBRANCH  49  50
ENDBRANCH  48  49
ENDBRANCH  43  48
ENDBRANCH  39  43
ENDBRANCH  38  39
ENDBRANCH   6  36
TORSDOF 13
ENDMDL
MODEL 5
REMARK minimizedAffinity -9.19730377
REMARK CNNscore 0.267389476
REMARK CNNaffinity 6.39782763
REMARK  13 active torsions:
REMARK  status: ('A' for Active; 'I' for Inactive)
REMARK    1  A    between atoms: C5_6  and  C6_7 
REMARK    2  A    between atoms: C5_6  and  C29_33 
REMARK    3  A    between atoms: C19_20  and  O2_21 
REMARK    4  A    between atoms: C28_31  and  O4_32 
REMARK    5  A    between atoms: C30_35  and  C31_36 
REMARK    6  A    between atoms: C31_36  and  O6_38 
REMARK    7  A    between atoms: C31_36  and  C33_39 
REMARK    8  A    between atoms: C33_39  and  C35_41 
REMARK    9  A    between atoms: C33_39  and  C36_43 
REMARK   10  A    between atoms: C35_41  and  O7_42 
REMARK   11  A    between atoms: C36_43  and  C37_44 
REMARK   12  A    between atoms: C37_44  and  C38_45 
REMARK   13  A    between atoms: C41_49  and  N2_50 
ROOT
HETATM    1  C1  UNL     1      -3.240  10.045  18.788  1.00  0.00     0.010 C 
HETATM    2  C2  UNL     1      -2.059  10.822  18.201  1.00  0.00    -0.014 C 
HETATM    3  C3  UNL     1      -2.461  12.258  17.875  1.00  0.00     0.030 C 
HETATM    4  C4  UNL     1      -1.250  13.030  17.381  1.00  0.00     0.169 C 
HETATM    5  O1  UNL     1      -0.198  13.032  18.337  1.00  0.00    -0.377 OA
HETATM    6  C5  UNL     1       0.298  11.742  18.739  1.00  0.00     0.094 C 
HETATM    7  C43 UNL     1      -0.873  10.834  19.175  1.00  0.00     0.045 C 
ENDROOT
BRANCH   6   8
HETATM    8  C6  UNL     1       1.284  11.984  19.951  1.00  0.00     0.035 C 
HETATM    9  C7  UNL     1       1.649  10.635  20.715  1.00  0.00     0.016 C 
HETATM   10  C8  UNL     1       3.124  10.751  21.117  1.00  0.00     0.026 C 
HETATM   11  C9  UNL     1       3.608  10.144  22.422  1.00  0.00     0.013 C 
HETATM   12  C28 UNL     1       3.327  12.255  21.129  1.00  0.00     0.094 C 
HETATM   13  C10 UNL     1       5.101  10.512  22.637  1.00  0.00     0.043 C 
HETATM   14  C11 UNL     1       5.509  11.906  22.177  1.00  0.00    -0.006 C 
HETATM   15  C12 UNL     1       4.713  12.697  21.434  1.00  0.00    -0.030 C 
HETATM   16  C22 UNL     1       6.771  12.476  22.737  1.00  0.00     0.161 C 
HETATM   17  C13 UNL     1       4.986  14.142  21.141  1.00  0.00     0.031 C 
HETATM   18  C14 UNL     1       4.231  14.730  19.904  1.00  0.00    -0.005 C 
HETATM   19  C23 UNL     1       6.499  14.491  21.084  1.00  0.00    -0.022 C 
HETATM   20  C15 UNL     1       4.353  16.267  19.909  1.00  0.00     0.006 C 
HETATM   21  C25 UNL     1       2.757  14.245  19.777  1.00  0.00     0.018 C 
HETATM   22  C16 UNL     1       5.811  16.752  20.052  1.00  0.00     0.006 C 
HETATM   23  C17 UNL     1       6.522  16.050  21.222  1.00  0.00    -0.003 C 
HETATM   24  C18 UNL     1       7.930  16.560  21.514  1.00  0.00     0.037 C 
HETATM   25  C19 UNL     1       8.455  15.978  22.842  1.00  0.00     0.119 C 
HETATM   26  C20 UNL     1       7.649  14.774  23.365  1.00  0.00     0.045 C 
HETATM   27  C21 UNL     1       7.323  13.805  22.219  1.00  0.00     0.072 C 
HETATM   28  C26 UNL     1       2.697  12.689  19.782  1.00  0.00    -0.002 C 
HETATM   29  C27 UNL     1       3.457  12.148  18.542  1.00  0.00     0.019 C 
HETATM   30  C24 UNL     1       7.159  14.007  19.758  1.00  0.00     0.017 C 
HETATM   31  O3  UNL     1       7.364  11.856  23.621  1.00  0.00    -0.292 OA
BRANCH  25  32
HETATM   32  O2  UNL     1       9.814  15.591  22.635  1.00  0.00    -0.396 OA
HETATM   33  H27 UNL     1      10.159  15.252  23.479  1.00  0.00     0.210 HD
ENDBRANCH  25  32
BRANCH  12  34
HETATM   34  O4  UNL     1       2.533  12.820  22.202  1.00  0.00    -0.384 OA
HETATM   35  H39 UNL     1       3.024  12.722  23.036  1.00  0.00     0.211 HD
ENDBRANCH  12  34
ENDBRANCH   6   8
BRANCH   6  36
HETATM   36  C29 UNL     1       1.126  11.169  17.575  1.00  0.00     0.189 A 
HETATM   37  O5  UNL     1       1.378   9.758  17.730  1.00  0.00    -0.369 OA
HETATM   38  C30 UNL     1       0.705  10.132  16.520  1.00  0.00     0.189 A 
BRANCH  38  39
HETATM   39  C31 UNL     1       1.536   9.769  15.286  1.00  0.00     0.092 C 
HETATM   40  C32 UNL     1       3.008  10.111  15.602  1.00  0.00     0.049 C 
BRANCH  39  41
HETATM   41  O6  UNL     1       1.164  10.654  14.209  1.00  0.00    -0.387 OA
HETATM   42  H45 UNL     1       1.076  11.539  14.621  1.00  0.00     0.210 HD
ENDBRANCH  39  41
BRANCH  39  43
HETATM   43  C33 UNL     1       1.301   8.287  14.780  1.00  0.00     0.011 C 
HETATM   44  C34 UNL     1       0.332   7.534  15.727  1.00  0.00     0.020 C 
BRANCH  43  45
HETATM   45  C35 UNL     1       2.613   7.454  14.762  1.00  0.00     0.176 C 
BRANCH  45  46
HETATM   46  O7  UNL     1       2.709   6.588  15.880  1.00  0.00    -0.400 OA
HETATM   47  H51 UNL     1       3.544   6.786  16.345  1.00  0.00     0.209 HD
ENDBRANCH  45  46
ENDBRANCH  43  45
BRANCH  43  48
HETATM   48  C36 UNL     1       0.697   8.225  13.328  1.00  0.00     0.019 C 
BRANCH  48  49
HETATM   49  C37 UNL     1       0.572   6.834  12.689  1.00  0.00     0.039 C 
BRANCH  49  50
HETATM   50  C38 UNL     1       1.361   6.729  11.402  1.00  0.00    -0.053 A 
HETATM   51  C39 UNL     1       0.841   7.223  10.206  1.00  0.00     0.024 A 
HETATM   52  C40 UNL     1       1.594   7.117   9.047  1.00  0.00     0.090 A 
HETATM   53  N1  UNL     1       2.810   6.551   9.083  1.00  0.00    -0.353 N 
HETATM   54  C41 UNL     1       3.365   6.079  10.207  1.00  0.00     0.098 A 
HETATM   55  H58 UNL     1       3.337   6.460   8.220  1.00  0.00     0.166 HD
HETATM   56  C42 UNL     1       2.627   6.133  11.390  1.00  0.00     0.055 A 
BRANCH  54  57
HETATM   57  N2  UNL     1       4.604   5.465  10.151  1.00  0.00    -0.385 N 
HETATM   58  H59 UNL     1       5.181   5.589  10.983  1.00  0.00     0.157 HD
HETATM   59  H60 UNL     1       5.156   5.493   9.302  1.00  0.00     0.157 HD
ENDBRANCH  54  57
ENDBRANCH  49  50
ENDBRANCH  48  49
ENDBRANCH  43  48
ENDBRANCH  39  43
ENDBRANCH  38  39
ENDBRANCH   6  36
TORSDOF 13
ENDMDL
MODEL 6
REMARK minimizedAffinity -10.0299177
REMARK CNNscore 0.241939664
REMARK CNNaffinity 7.05411959
REMARK  13 active torsions:
REMARK  status: ('A' for Active; 'I' for Inactive)
REMARK    1  A    between atoms: C5_6  and  C6_7 
REMARK    2  A    between atoms: C5_6  and  C29_33 
REMARK    3  A    between atoms: C19_20  and  O2_21 
REMARK    4  A    between atoms: C28_31  and  O4_32 
REMARK    5  A    between atoms: C30_35  and  C31_36 
REMARK    6  A    between atoms: C31_36  and  O6_38 
REMARK    7  A    between atoms: C31_36  and  C33_39 
REMARK    8  A    between atoms: C33_39  and  C35_41 
REMARK    9  A    between atoms: C33_39  and  C36_43 
REMARK   10  A    between atoms: C35_41  and  O7_42 
REMARK   11  A    between atoms: C36_43  and  C37_44 
REMARK   12  A    between atoms: C37_44  and  C38_45 
REMARK   13  A    between atoms: C41_49  and  N2_50 
ROOT
HETATM    1  C1  UNL     1       2.958   8.608   7.848  1.00  0.00     0.010 C 
HETATM    2  C2  UNL     1       2.842   7.842   9.168  1.00  0.00    -0.014 C 
HETATM    3  C3  UNL     1       3.333   6.405   9.008  1.00  0.00     0.030 C 
HETATM    4  C4  UNL     1       3.291   5.697  10.351  1.00  0.00     0.169 C 
HETATM    5  O1  UNL     1       4.078   6.367  11.327  1.00  0.00    -0.377 OA
HETATM    6  C5  UNL     1       3.725   7.737  11.596  1.00  0.00     0.094 C 
HETATM    7  C43 UNL     1       3.645   8.535  10.276  1.00  0.00     0.045 C 
ENDROOT
BRANCH   6   8
HETATM    8  C6  UNL     1       4.857   8.330  12.527  1.00  0.00     0.035 C 
HETATM    9  C7  UNL     1       5.843   7.206  13.076  1.00  0.00     0.016 C 
HETATM   10  C8  UNL     1       7.244   7.829  13.090  1.00  0.00     0.026 C 
HETATM   11  C9  UNL     1       8.233   7.456  14.181  1.00  0.00     0.013 C 
HETATM   12  C28 UNL     1       6.926   9.312  13.153  1.00  0.00     0.094 C 
HETATM   13  C10 UNL     1       9.515   8.317  14.028  1.00  0.00     0.043 C 
HETATM   14  C11 UNL     1       9.293   9.756  13.575  1.00  0.00    -0.006 C 
HETATM   15  C12 UNL     1       8.111  10.208  13.119  1.00  0.00    -0.030 C 
HETATM   16  C22 UNL     1      10.392  10.736  13.828  1.00  0.00     0.161 C 
HETATM   17  C13 UNL     1       7.795  11.652  12.865  1.00  0.00     0.031 C 
HETATM   18  C14 UNL     1       6.586  11.916  11.909  1.00  0.00    -0.005 C 
HETATM   19  C23 UNL     1       9.029  12.495  12.444  1.00  0.00    -0.022 C 
HETATM   20  C15 UNL     1       6.182  13.402  11.987  1.00  0.00     0.006 C 
HETATM   21  C25 UNL     1       5.383  10.954  12.134  1.00  0.00     0.018 C 
HETATM   22  C16 UNL     1       7.375  14.359  11.782  1.00  0.00     0.006 C 
HETATM   23  C17 UNL     1       8.564  13.971  12.678  1.00  0.00    -0.003 C 
HETATM   24  C18 UNL     1       9.744  14.938  12.631  1.00  0.00     0.037 C 
HETATM   25  C19 UNL     1      10.767  14.604  13.735  1.00  0.00     0.119 C 
HETATM   26  C20 UNL     1      10.581  13.210  14.364  1.00  0.00     0.045 C 
HETATM   27  C21 UNL     1      10.307  12.161  13.278  1.00  0.00     0.072 C 
HETATM   28  C26 UNL     1       5.852   9.472  12.047  1.00  0.00    -0.002 C 
HETATM   29  C27 UNL     1       6.390   9.192  10.619  1.00  0.00     0.019 C 
HETATM   30  C24 UNL     1       9.436  12.233  10.962  1.00  0.00     0.017 C 
HETATM   31  O3  UNL     1      11.371  10.377  14.484  1.00  0.00    -0.292 OA
BRANCH  25  32
HETATM   32  O2  UNL     1      12.069  14.699  13.157  1.00  0.00    -0.396 OA
HETATM   33  H27 UNL     1      12.720  14.519  13.859  1.00  0.00     0.210 HD
ENDBRANCH  25  32
BRANCH  12  34
HETATM   34  O4  UNL     1       6.304   9.598  14.431  1.00  0.00    -0.384 OA
HETATM   35  H39 UNL     1       7.003   9.694  15.101  1.00  0.00     0.211 HD
ENDBRANCH  12  34
ENDBRANCH   6   8
BRANCH   6  36
HETATM   36  C29 UNL     1       2.414   7.738  12.402  1.00  0.00     0.189 A 
HETATM   37  O5  UNL     1       1.704   8.988  12.283  1.00  0.00    -0.369 OA
HETATM   38  C30 UNL     1       0.970   7.824  11.881  1.00  0.00     0.189 A 
BRANCH  38  39
HETATM   39  C31 UNL     1      -0.276   7.624  12.749  1.00  0.00     0.092 C 
HETATM   40  C32 UNL     1      -1.358   8.598  12.237  1.00  0.00     0.049 C 
BRANCH  39  41
HETATM   41  O6  UNL     1       0.027   8.066  14.089  1.00  0.00    -0.387 OA
HETATM   42  H45 UNL     1       0.543   8.893  13.978  1.00  0.00     0.210 HD
ENDBRANCH  39  41
BRANCH  39  43
HETATM   43  C33 UNL     1      -0.744   6.114  12.847  1.00  0.00     0.011 C 
HETATM   44  C34 UNL     1      -0.649   5.608  14.309  1.00  0.00     0.020 C 
BRANCH  43  45
HETATM   45  C35 UNL     1       0.152   5.163  12.005  1.00  0.00     0.176 C 
BRANCH  45  46
HETATM   46  O7  UNL     1      -0.564   4.560  10.941  1.00  0.00    -0.400 OA
HETATM   47  H51 UNL     1      -0.479   3.592  11.030  1.00  0.00     0.209 HD
ENDBRANCH  45  46
ENDBRANCH  43  45
BRANCH  43  48
HETATM   48  C36 UNL     1      -2.225   5.901  12.360  1.00  0.00     0.019 C 
BRANCH  48  49
HETATM   49  C37 UNL     1      -3.304   5.801  13.450  1.00  0.00     0.039 C 
BRANCH  49  50
HETATM   50  C38 UNL     1      -4.474   4.948  13.011  1.00  0.00    -0.053 A 
HETATM   51  C39 UNL     1      -5.737   5.131  13.572  1.00  0.00     0.024 A 
HETATM   52  C40 UNL     1      -6.789   4.336  13.143  1.00  0.00     0.090 A 
HETATM   53  N1  UNL     1      -6.589   3.409  12.194  1.00  0.00    -0.353 N 
HETATM   54  C41 UNL     1      -5.402   3.205  11.608  1.00  0.00     0.098 A 
HETATM   55  H58 UNL     1      -7.365   2.820  11.908  1.00  0.00     0.166 HD
HETATM   56  C42 UNL     1      -4.308   3.959  12.036  1.00  0.00     0.055 A 
BRANCH  54  57
HETATM   57  N2  UNL     1      -5.267   2.196  10.672  1.00  0.00    -0.385 N 
HETATM   58  H59 UNL     1      -4.591   2.386   9.932  1.00  0.00     0.157 HD
HETATM   59  H60 UNL     1      -6.080   1.704  10.323  1.00  0.00     0.157 HD
ENDBRANCH  54  57
ENDBRANCH  49  50
ENDBRANCH  48  49
ENDBRANCH  43  48
ENDBRANCH  39  43
ENDBRANCH  38  39
ENDBRANCH   6  36
TORSDOF 13
ENDMDL
MODEL 7
REMARK minimizedAffinity -9.95606136
REMARK CNNscore 0.23227185
REMARK CNNaffinity 7.27346087
REMARK  13 active torsions:
REMARK  status: ('A' for Active; 'I' for Inactive)
REMARK    1  A    between atoms: C5_6  and  C6_7 
REMARK    2  A    between atoms: C5_6  and  C29_33 
REMARK    3  A    between atoms: C19_20  and  O2_21 
REMARK    4  A    between atoms: C28_31  and  O4_32 
REMARK    5  A    between atoms: C30_35  and  C31_36 
REMARK    6  A    between atoms: C31_36  and  O6_38 
REMARK    7  A    between atoms: C31_36  and  C33_39 
REMARK    8  A    between atoms: C33_39  and  C35_41 
REMARK    9  A    between atoms: C33_39  and  C36_43 
REMARK   10  A    between atoms: C35_41  and  O7_42 
REMARK   11  A    between atoms: C36_43  and  C37_44 
REMARK   12  A    between atoms: C37_44  and  C38_45 
REMARK   13  A    between atoms: C41_49  and  N2_50 
ROOT
HETATM    1  C1  UNL     1      -2.432  14.463  16.093  1.00  0.00     0.010 C 
HETATM    2  C2  UNL     1      -1.958  13.091  16.579  1.00  0.00    -0.014 C 
HETATM    3  C3  UNL     1      -3.007  12.441  17.478  1.00  0.00     0.030 C 
HETATM    4  C4  UNL     1      -2.551  11.046  17.871  1.00  0.00     0.169 C 
HETATM    5  O1  UNL     1      -2.319  10.226  16.734  1.00  0.00    -0.377 OA
HETATM    6  C5  UNL     1      -1.340  10.706  15.793  1.00  0.00     0.094 C 
HETATM    7  C43 UNL     1      -1.657  12.165  15.394  1.00  0.00     0.045 C 
ENDROOT
BRANCH   6   8
HETATM    8  C6  UNL     1      -1.418   9.763  14.525  1.00  0.00     0.035 C 
HETATM    9  C7  UNL     1       0.023   9.317  14.011  1.00  0.00     0.016 C 
HETATM   10  C8  UNL     1      -0.115   7.862  13.548  1.00  0.00     0.026 C 
HETATM   11  C9  UNL     1       0.691   7.361  12.362  1.00  0.00     0.013 C 
HETATM   12  C28 UNL     1      -1.601   7.768  13.252  1.00  0.00     0.094 C 
HETATM   13  C10 UNL     1       0.270   5.903  12.035  1.00  0.00     0.043 C 
HETATM   14  C11 UNL     1      -1.210   5.587  12.217  1.00  0.00    -0.006 C 
HETATM   15  C12 UNL     1      -2.069   6.423  12.826  1.00  0.00    -0.030 C 
HETATM   16  C22 UNL     1      -1.748   4.380  11.521  1.00  0.00     0.161 C 
HETATM   17  C13 UNL     1      -3.559   6.248  12.840  1.00  0.00     0.031 C 
HETATM   18  C14 UNL     1      -4.315   7.020  13.970  1.00  0.00    -0.005 C 
HETATM   19  C23 UNL     1      -4.013   4.764  12.783  1.00  0.00    -0.022 C 
HETATM   20  C15 UNL     1      -5.829   7.008  13.679  1.00  0.00     0.006 C 
HETATM   21  C25 UNL     1      -3.765   8.453  14.232  1.00  0.00     0.018 C 
HETATM   22  C16 UNL     1      -6.375   5.592  13.402  1.00  0.00     0.006 C 
HETATM   23  C17 UNL     1      -5.517   4.855  12.359  1.00  0.00    -0.003 C 
HETATM   24  C18 UNL     1      -6.056   3.493  11.933  1.00  0.00     0.037 C 
HETATM   25  C19 UNL     1      -5.273   2.953  10.719  1.00  0.00     0.119 C 
HETATM   26  C20 UNL     1      -3.943   3.681  10.453  1.00  0.00     0.045 C 
HETATM   27  C21 UNL     1      -3.184   3.914  11.767  1.00  0.00     0.072 C 
HETATM   28  C26 UNL     1      -2.235   8.401  14.516  1.00  0.00    -0.002 C 
HETATM   29  C27 UNL     1      -1.985   7.581  15.810  1.00  0.00     0.019 C 
HETATM   30  C24 UNL     1      -3.829   4.045  14.154  1.00  0.00     0.017 C 
HETATM   31  O3  UNL     1      -1.015   3.762  10.748  1.00  0.00    -0.292 OA
BRANCH  25  32
HETATM   32  O2  UNL     1      -5.023   1.566  10.951  1.00  0.00    -0.396 OA
HETATM   33  H27 UNL     1      -4.556   1.214  10.172  1.00  0.00     0.210 HD
ENDBRANCH  25  32
BRANCH  12  34
HETATM   34  O4  UNL     1      -1.902   8.621  12.120  1.00  0.00    -0.384 OA
HETATM   35  H39 UNL     1      -1.683   8.140  11.303  1.00  0.00     0.211 HD
ENDBRANCH  12  34
ENDBRANCH   6   8
BRANCH   6  36
HETATM   36  C29 UNL     1       0.052  10.524  16.422  1.00  0.00     0.189 A 
HETATM   37  O5  UNL     1       0.942  11.610  16.097  1.00  0.00    -0.369 OA
HETATM   38  C30 UNL     1       0.736  11.383  17.497  1.00  0.00     0.189 A 
BRANCH  38  39
HETATM   39  C31 UNL     1       2.045  11.010  18.199  1.00  0.00     0.092 C 
HETATM   40  C32 UNL     1       3.195  11.689  17.424  1.00  0.00     0.049 C 
BRANCH  39  41
HETATM   41  O6  UNL     1       2.263   9.593  18.034  1.00  0.00    -0.387 OA
HETATM   42  H45 UNL     1       2.015   9.400  17.105  1.00  0.00     0.210 HD
ENDBRANCH  39  41
BRANCH  39  43
HETATM   43  C33 UNL     1       2.037  11.307  19.754  1.00  0.00     0.011 C 
HETATM   44  C34 UNL     1       0.766  10.714  20.415  1.00  0.00     0.020 C 
BRANCH  43  45
HETATM   45  C35 UNL     1       2.009  12.830  20.065  1.00  0.00     0.176 C 
BRANCH  45  46
HETATM   46  O7  UNL     1       2.007  13.613  18.884  1.00  0.00    -0.400 OA
HETATM   47  H51 UNL     1       2.767  14.225  18.926  1.00  0.00     0.209 HD
ENDBRANCH  45  46
ENDBRANCH  43  45
BRANCH  43  48
HETATM   48  C36 UNL     1       3.288  10.708  20.498  1.00  0.00     0.019 C 
BRANCH  48  49
HETATM   49  C37 UNL     1       3.894  11.557  21.626  1.00  0.00     0.039 C 
BRANCH  49  50
HETATM   50  C38 UNL     1       5.364  11.834  21.397  1.00  0.00    -0.053 A 
HETATM   51  C39 UNL     1       5.915  11.740  20.120  1.00  0.00     0.024 A 
HETATM   52  C40 UNL     1       7.265  12.007  19.944  1.00  0.00     0.090 A 
HETATM   53  N1  UNL     1       8.023  12.358  20.994  1.00  0.00    -0.353 N 
HETATM   54  C41 UNL     1       7.541  12.483  22.237  1.00  0.00     0.098 A 
HETATM   55  H58 UNL     1       9.014  12.527  20.851  1.00  0.00     0.166 HD
HETATM   56  C42 UNL     1       6.196  12.189  22.464  1.00  0.00     0.055 A 
BRANCH  54  57
HETATM   57  N2  UNL     1       8.400  12.802  23.274  1.00  0.00    -0.385 N 
HETATM   58  H59 UNL     1       7.983  13.361  24.019  1.00  0.00     0.157 HD
HETATM   59  H60 UNL     1       9.356  13.079  23.085  1.00  0.00     0.157 HD
ENDBRANCH  54  57
ENDBRANCH  49  50
ENDBRANCH  48  49
ENDBRANCH  43  48
ENDBRANCH  39  43
ENDBRANCH  38  39
ENDBRANCH   6  36
TORSDOF 13
ENDMDL
MODEL 8
REMARK minimizedAffinity -9.45771217
REMARK CNNscore 0.225863829
REMARK CNNaffinity 6.90448952
REMARK  13 active torsions:
REMARK  status: ('A' for Active; 'I' for Inactive)
REMARK    1  A    between atoms: C5_6  and  C6_7 
REMARK    2  A    between atoms: C5_6  and  C29_33 
REMARK    3  A    between atoms: C19_20  and  O2_21 
REMARK    4  A    between atoms: C28_31  and  O4_32 
REMARK    5  A    between atoms: C30_35  and  C31_36 
REMARK    6  A    between atoms: C31_36  and  O6_38 
REMARK    7  A    between atoms: C31_36  and  C33_39 
REMARK    8  A    between atoms: C33_39  and  C35_41 
REMARK    9  A    between atoms: C33_39  and  C36_43 
REMARK   10  A    between atoms: C35_41  and  O7_42 
REMARK   11  A    between atoms: C36_43  and  C37_44 
REMARK   12  A    between atoms: C37_44  and  C38_45 
REMARK   13  A    between atoms: C41_49  and  N2_50 
ROOT
HETATM    1  C1  UNL     1      -3.836  12.060  19.258  1.00  0.00     0.010 C 
HETATM    2  C2  UNL     1      -3.243  11.485  17.969  1.00  0.00    -0.014 C 
HETATM    3  C3  UNL     1      -3.405  12.466  16.811  1.00  0.00     0.030 C 
HETATM    4  C4  UNL     1      -2.729  11.910  15.569  1.00  0.00     0.169 C 
HETATM    5  O1  UNL     1      -1.349  11.652  15.789  1.00  0.00    -0.377 OA
HETATM    6  C5  UNL     1      -1.036  10.730  16.851  1.00  0.00     0.094 C 
HETATM    7  C43 UNL     1      -1.756  11.152  18.151  1.00  0.00     0.045 C 
ENDROOT
BRANCH   6   8
HETATM    8  C6  UNL     1       0.531  10.776  17.054  1.00  0.00     0.035 C 
HETATM    9  C7  UNL     1       1.287  11.412  15.805  1.00  0.00     0.016 C 
HETATM   10  C8  UNL     1       2.446  12.239  16.376  1.00  0.00     0.026 C 
HETATM   11  C9  UNL     1       3.761  12.329  15.622  1.00  0.00     0.013 C 
HETATM   12  C28 UNL     1       2.658  11.586  17.729  1.00  0.00     0.094 C 
HETATM   13  C10 UNL     1       4.789  13.118  16.476  1.00  0.00     0.043 C 
HETATM   14  C11 UNL     1       4.717  12.882  17.980  1.00  0.00    -0.006 C 
HETATM   15  C12 UNL     1       3.707  12.219  18.571  1.00  0.00    -0.030 C 
HETATM   16  C22 UNL     1       5.916  13.244  18.794  1.00  0.00     0.161 C 
HETATM   17  C13 UNL     1       3.701  11.784  20.007  1.00  0.00     0.031 C 
HETATM   18  C14 UNL     1       2.291  11.477  20.610  1.00  0.00    -0.005 C 
HETATM   19  C23 UNL     1       4.513  12.718  20.945  1.00  0.00    -0.022 C 
HETATM   20  C15 UNL     1       2.454  10.752  21.960  1.00  0.00     0.006 C 
HETATM   21  C25 UNL     1       1.339  10.723  19.635  1.00  0.00     0.018 C 
HETATM   22  C16 UNL     1       3.410  11.486  22.923  1.00  0.00     0.006 C 
HETATM   23  C17 UNL     1       4.734  11.851  22.228  1.00  0.00    -0.003 C 
HETATM   24  C18 UNL     1       5.788  12.470  23.141  1.00  0.00     0.037 C 
HETATM   25  C19 UNL     1       7.147  12.566  22.418  1.00  0.00     0.119 C 
HETATM   26  C20 UNL     1       7.061  12.386  20.891  1.00  0.00     0.045 C 
HETATM   27  C21 UNL     1       5.872  13.172  20.322  1.00  0.00     0.072 C 
HETATM   28  C26 UNL     1       1.217  11.500  18.291  1.00  0.00    -0.002 C 
HETATM   29  C27 UNL     1       0.576  12.887  18.561  1.00  0.00     0.019 C 
HETATM   30  C24 UNL     1       3.749  14.042  21.252  1.00  0.00     0.017 C 
HETATM   31  O3  UNL     1       6.941  13.607  18.215  1.00  0.00    -0.292 OA
BRANCH  25  32
HETATM   32  O2  UNL     1       7.704  13.845  22.720  1.00  0.00    -0.396 OA
HETATM   33  H27 UNL     1       8.576  13.898  22.291  1.00  0.00     0.210 HD
ENDBRANCH  25  32
BRANCH  12  34
HETATM   34  O4  UNL     1       3.142  10.236  17.520  1.00  0.00    -0.384 OA
HETATM   35  H39 UNL     1       4.101  10.272  17.359  1.00  0.00     0.211 HD
ENDBRANCH  12  34
ENDBRANCH   6   8
BRANCH   6  36
HETATM   36  C29 UNL     1      -1.401   9.314  16.372  1.00  0.00     0.189 A 
HETATM   37  O5  UNL     1      -2.084   9.328  15.103  1.00  0.00    -0.369 OA
HETATM   38  C30 UNL     1      -0.876   8.555  15.142  1.00  0.00     0.189 A 
BRANCH  38  39
HETATM   39  C31 UNL     1      -1.153   7.077  14.855  1.00  0.00     0.092 C 
HETATM   40  C32 UNL     1      -2.659   6.833  15.091  1.00  0.00     0.049 C 
BRANCH  39  41
HETATM   41  O6  UNL     1      -0.481   6.285  15.856  1.00  0.00    -0.387 OA
HETATM   42  H45 UNL     1      -0.626   6.759  16.702  1.00  0.00     0.210 HD
ENDBRANCH  39  41
BRANCH  39  43
HETATM   43  C33 UNL     1      -0.625   6.596  13.442  1.00  0.00     0.011 C 
HETATM   44  C34 UNL     1       0.549   5.596  13.610  1.00  0.00     0.020 C 
BRANCH  43  45
HETATM   45  C35 UNL     1      -0.066   7.770  12.590  1.00  0.00     0.176 C 
BRANCH  45  46
HETATM   46  O7  UNL     1       1.323   7.959  12.791  1.00  0.00    -0.400 OA
HETATM   47  H51 UNL     1       1.465   8.883  13.073  1.00  0.00     0.209 HD
ENDBRANCH  45  46
ENDBRANCH  43  45
BRANCH  43  48
HETATM   48  C36 UNL     1      -1.737   5.890  12.581  1.00  0.00     0.019 C 
BRANCH  48  49
HETATM   49  C37 UNL     1      -1.268   5.138  11.327  1.00  0.00     0.039 C 
BRANCH  49  50
HETATM   50  C38 UNL     1      -1.730   3.697  11.324  1.00  0.00    -0.053 A 
HETATM   51  C39 UNL     1      -3.034   3.369  11.695  1.00  0.00     0.024 A 
HETATM   52  C40 UNL     1      -3.428   2.040  11.675  1.00  0.00     0.090 A 
HETATM   53  N1  UNL     1      -2.563   1.087  11.296  1.00  0.00    -0.353 N 
HETATM   54  C41 UNL     1      -1.307   1.348  10.912  1.00  0.00     0.098 A 
HETATM   55  H58 UNL     1      -2.861   0.116  11.310  1.00  0.00     0.166 HD
HETATM   56  C42 UNL     1      -0.859   2.669  10.951  1.00  0.00     0.055 A 
BRANCH  54  57
HETATM   57  N2  UNL     1      -0.462   0.304  10.582  1.00  0.00    -0.385 N 
HETATM   58  H59 UNL     1       0.225   0.521   9.859  1.00  0.00     0.157 HD
HETATM   59  H60 UNL     1      -0.818  -0.640  10.493  1.00  0.00     0.157 HD
ENDBRANCH  54  57
ENDBRANCH  49  50
ENDBRANCH  48  49
ENDBRANCH  43  48
ENDBRANCH  39  43
ENDBRANCH  38  39
ENDBRANCH   6  36
TORSDOF 13
ENDMDL
MODEL 9
REMARK minimizedAffinity -8.74352169
REMARK CNNscore 0.211208239
REMARK CNNaffinity 6.94734335
REMARK  13 active torsions:
REMARK  status: ('A' for Active; 'I' for Inactive)
REMARK    1  A    between atoms: C5_6  and  C6_7 
REMARK    2  A    between atoms: C5_6  and  C29_33 
REMARK    3  A    between atoms: C19_20  and  O2_21 
REMARK    4  A    between atoms: C28_31  and  O4_32 
REMARK    5  A    between atoms: C30_35  and  C31_36 
REMARK    6  A    between atoms: C31_36  and  O6_38 
REMARK    7  A    between atoms: C31_36  and  C33_39 
REMARK    8  A    between atoms: C33_39  and  C35_41 
REMARK    9  A    between atoms: C33_39  and  C36_43 
REMARK   10  A    between atoms: C35_41  and  O7_42 
REMARK   11  A    between atoms: C36_43  and  C37_44 
REMARK   12  A    between atoms: C37_44  and  C38_45 
REMARK   13  A    between atoms: C41_49  and  N2_50 
ROOT
HETATM    1  C1  UNL     1       1.348  11.956  20.395  1.00  0.00     0.010 C 
HETATM    2  C2  UNL     1       0.389  12.326  19.261  1.00  0.00    -0.014 C 
HETATM    3  C3  UNL     1       1.160  12.760  18.017  1.00  0.00     0.030 C 
HETATM    4  C4  UNL     1       0.190  13.034  16.881  1.00  0.00     0.169 C 
HETATM    5  O1  UNL     1      -0.606  11.895  16.579  1.00  0.00    -0.377 OA
HETATM    6  C5  UNL     1      -1.404  11.373  17.658  1.00  0.00     0.094 C 
HETATM    7  C43 UNL     1      -0.524  11.145  18.908  1.00  0.00     0.045 C 
ENDROOT
BRANCH   6   8
HETATM    8  C6  UNL     1      -2.012  10.001  17.160  1.00  0.00     0.035 C 
HETATM    9  C7  UNL     1      -3.597  10.060  17.006  1.00  0.00     0.016 C 
HETATM   10  C8  UNL     1      -3.942   9.229  15.765  1.00  0.00     0.026 C 
HETATM   11  C9  UNL     1      -5.226   8.419  15.724  1.00  0.00     0.013 C 
HETATM   12  C28 UNL     1      -2.737   8.311  15.659  1.00  0.00     0.094 C 
HETATM   13  C10 UNL     1      -5.264   7.583  14.416  1.00  0.00     0.043 C 
HETATM   14  C11 UNL     1      -3.924   7.025  13.951  1.00  0.00    -0.006 C 
HETATM   15  C12 UNL     1      -2.748   7.398  14.487  1.00  0.00    -0.030 C 
HETATM   16  C22 UNL     1      -3.949   5.883  12.988  1.00  0.00     0.161 C 
HETATM   17  C13 UNL     1      -1.436   6.725  14.207  1.00  0.00     0.031 C 
HETATM   18  C14 UNL     1      -0.164   7.578  14.526  1.00  0.00    -0.005 C 
HETATM   19  C23 UNL     1      -1.345   6.103  12.787  1.00  0.00    -0.022 C 
HETATM   20  C15 UNL     1       1.084   6.673  14.495  1.00  0.00     0.006 C 
HETATM   21  C25 UNL     1      -0.273   8.406  15.840  1.00  0.00     0.018 C 
HETATM   22  C16 UNL     1       1.186   5.837  13.202  1.00  0.00     0.006 C 
HETATM   23  C17 UNL     1      -0.137   5.114  12.896  1.00  0.00    -0.003 C 
HETATM   24  C18 UNL     1      -0.088   4.166  11.702  1.00  0.00     0.037 C 
HETATM   25  C19 UNL     1      -1.370   3.311  11.631  1.00  0.00     0.119 C 
HETATM   26  C20 UNL     1      -2.526   3.838  12.502  1.00  0.00     0.045 C 
HETATM   27  C21 UNL     1      -2.653   5.362  12.364  1.00  0.00     0.072 C 
HETATM   28  C26 UNL     1      -1.551   9.295  15.814  1.00  0.00    -0.002 C 
HETATM   29  C27 UNL     1      -1.438  10.314  14.649  1.00  0.00     0.019 C 
HETATM   30  C24 UNL     1      -1.123   7.186  11.689  1.00  0.00     0.017 C 
HETATM   31  O3  UNL     1      -5.032   5.370  12.701  1.00  0.00    -0.292 OA
BRANCH  25  32
HETATM   32  O2  UNL     1      -1.781   3.266  10.264  1.00  0.00    -0.396 OA
HETATM   33  H27 UNL     1      -2.573   2.702  10.211  1.00  0.00     0.210 HD
ENDBRANCH  25  32
BRANCH  12  34
HETATM   34  O4  UNL     1      -2.735   7.418  16.801  1.00  0.00    -0.384 OA
HETATM   35  H39 UNL     1      -3.344   6.681  16.619  1.00  0.00     0.211 HD
ENDBRANCH  12  34
ENDBRANCH   6   8
BRANCH   6  36
HETATM   36  C29 UNL     1      -2.576  12.342  17.894  1.00  0.00     0.189 A 
HETATM   37  O5  UNL     1      -2.653  12.779  19.265  1.00  0.00    -0.369 OA
HETATM   38  C30 UNL     1      -2.525  13.826  18.294  1.00  0.00     0.189 A 
BRANCH  38  39
HETATM   39  C31 UNL     1      -3.740  14.757  18.316  1.00  0.00     0.092 C 
HETATM   40  C32 UNL     1      -3.787  15.490  16.958  1.00  0.00     0.049 C 
BRANCH  39  41
HETATM   41  O6  UNL     1      -3.506  15.789  19.296  1.00  0.00    -0.387 OA
HETATM   42  H45 UNL     1      -2.567  16.048  19.180  1.00  0.00     0.210 HD
ENDBRANCH  39  41
BRANCH  39  43
HETATM   43  C33 UNL     1      -5.089  14.027  18.714  1.00  0.00     0.011 C 
HETATM   44  C34 UNL     1      -4.791  12.695  19.449  1.00  0.00     0.020 C 
BRANCH  43  45
HETATM   45  C35 UNL     1      -5.944  13.649  17.473  1.00  0.00     0.176 C 
BRANCH  45  46
HETATM   46  O7  UNL     1      -7.121  14.433  17.379  1.00  0.00    -0.400 OA
HETATM   47  H51 UNL     1      -7.886  13.827  17.348  1.00  0.00     0.209 HD
ENDBRANCH  45  46
ENDBRANCH  43  45
BRANCH  43  48
HETATM   48  C36 UNL     1      -6.001  14.900  19.654  1.00  0.00     0.019 C 
BRANCH  48  49
HETATM   49  C37 UNL     1      -6.581  14.205  20.895  1.00  0.00     0.039 C 
BRANCH  49  50
HETATM   50  C38 UNL     1      -6.089  14.837  22.179  1.00  0.00    -0.053 A 
HETATM   51  C39 UNL     1      -6.988  15.211  23.177  1.00  0.00     0.024 A 
HETATM   52  C40 UNL     1      -6.503  15.781  24.344  1.00  0.00     0.090 A 
HETATM   53  N1  UNL     1      -5.183  15.960  24.508  1.00  0.00    -0.353 N 
HETATM   54  C41 UNL     1      -4.275  15.600  23.591  1.00  0.00     0.098 A 
HETATM   55  H58 UNL     1      -4.847  16.401  25.359  1.00  0.00     0.166 HD
HETATM   56  C42 UNL     1      -4.723  15.056  22.387  1.00  0.00     0.055 A 
BRANCH  54  57
HETATM   57  N2  UNL     1      -2.936  15.864  23.816  1.00  0.00    -0.385 N 
HETATM   58  H59 UNL     1      -2.292  15.181  23.416  1.00  0.00     0.157 HD
HETATM   59  H60 UNL     1      -2.620  16.196  24.720  1.00  0.00     0.157 HD
ENDBRANCH  54  57
ENDBRANCH  49  50
ENDBRANCH  48  49
ENDBRANCH  43  48
ENDBRANCH  39  43
ENDBRANCH  38  39
ENDBRANCH   6  36
TORSDOF 13
ENDMDL
