MODEL 1
REMARK minimizedAffinity -9.6569376
REMARK  8 active torsions:
REMARK  status: ('A' for Active; 'I' for Inactive)
REMARK    1  A    between atoms: C2_2  and  C3_3 
REMARK    2  A    between atoms: C2_2  and  C9_12 
REMARK    3  A    between atoms: C3_3  and  C4_4 
REMARK    4  A    between atoms: C4_4  and  C5_5 
REMARK    5  A    between atoms: C6_6  and  C7_7 
REMARK    6  A    between atoms: C6_6  and  C8_9 
REMARK    7  A    between atoms: C7_7  and  O1_8 
REMARK    8  A    between atoms: C8_9  and  O3_11 
ROOT
HETATM    1  C9  UNL     1       0.950   7.216  12.402  1.00  0.00    -0.002 C 
HETATM    2  C10 UNL     1       0.794   8.230  13.571  1.00  0.00     0.006 C 
HETATM    3  C11 UNL     1      -0.592   7.978  14.210  1.00  0.00     0.011 C 
HETATM    4  C12 UNL     1      -1.081   6.657  13.592  1.00  0.00    -0.032 C 
HETATM    5  C13 UNL     1      -0.423   5.503  14.429  1.00  0.00     0.016 C 
HETATM    6  C14 UNL     1      -2.619   6.445  13.538  1.00  0.00     0.004 C 
HETATM    7  C15 UNL     1      -3.297   6.496  14.919  1.00  0.00     0.007 C 
HETATM    8  C16 UNL     1      -4.768   6.056  14.938  1.00  0.00     0.007 C 
HETATM    9  C17 UNL     1      -5.361   5.654  13.574  1.00  0.00     0.010 C 
HETATM   10  C18 UNL     1      -6.839   5.111  13.640  1.00  0.00     0.018 C 
HETATM   11  C19 UNL     1      -7.728   5.833  12.601  1.00  0.00     0.023 C 
HETATM   12  C20 UNL     1      -7.525   5.327  15.007  1.00  0.00     0.023 C 
HETATM   13  C21 UNL     1      -6.881   3.612  13.305  1.00  0.00     0.135 C 
HETATM   14  O4  UNL     1      -7.534   2.808  13.977  1.00  0.00    -0.297 OA
HETATM   15  C22 UNL     1      -6.180   3.132  12.053  1.00  0.00     0.080 C 
HETATM   16  C23 UNL     1      -5.076   4.074  11.600  1.00  0.00     0.018 C 
HETATM   17  C24 UNL     1      -4.412   4.717  12.796  1.00  0.00    -0.026 A 
HETATM   18  C25 UNL     1      -3.341   3.892  13.482  1.00  0.00     0.021 A 
HETATM   19  C26 UNL     1      -2.940   5.159  12.742  1.00  0.00    -0.027 A 
HETATM   20  C27 UNL     1      -2.190   5.002  11.408  1.00  0.00     0.011 C 
HETATM   21  C28 UNL     1      -0.713   5.436  11.425  1.00  0.00     0.011 C 
HETATM   22  C29 UNL     1      -0.524   6.790  12.124  1.00  0.00    -0.032 C 
HETATM   23  C30 UNL     1      -1.226   7.880  11.259  1.00  0.00     0.016 C 
ENDROOT
BRANCH   1  24
HETATM   24  C2  UNL     1       1.831   7.662  11.198  1.00  0.00    -0.014 C 
HETATM   25  C1  UNL     1       3.199   8.256  11.550  1.00  0.00     0.010 C 
BRANCH  24  26
HETATM   26  C3  UNL     1       2.022   6.518  10.161  1.00  0.00     0.008 C 
BRANCH  26  27
HETATM   27  C4  UNL     1       2.108   6.962   8.696  1.00  0.00     0.028 C 
BRANCH  27  28
HETATM   28  C5  UNL     1       2.707   5.936   7.768  1.00  0.00    -0.011 C 
HETATM   29  C6  UNL     1       3.432   4.839   8.086  1.00  0.00     0.035 C 
BRANCH  29  30
HETATM   30  C7  UNL     1       3.855   4.390   9.460  1.00  0.00     0.209 C 
BRANCH  30  31
HETATM   31  O1  UNL     1       3.117   3.252   9.901  1.00  0.00    -0.396 OA
HETATM   32  H12 UNL     1       2.177   3.440   9.723  1.00  0.00     0.209 HD
ENDBRANCH  30  31
ENDBRANCH  29  30
BRANCH  29  33
HETATM   33  C8  UNL     1       3.871   3.916   7.004  1.00  0.00     0.173 C 
HETATM   34  O2  UNL     1       3.501   3.950   5.841  1.00  0.00    -0.646 OA
BRANCH  33  35
HETATM   35  O3  UNL     1       4.717   2.956   7.426  1.00  0.00    -0.773 OA
HETATM   36  H13 UNL     1       4.907   2.442   6.613  1.00  0.00     0.167 HD
ENDBRANCH  33  35
ENDBRANCH  29  33
ENDBRANCH  27  28
ENDBRANCH  26  27
ENDBRANCH  24  26
ENDBRANCH   1  24
TORSDOF 8
ENDMDL
MODEL 2
REMARK minimizedAffinity -9.61663437
REMARK  8 active torsions:
REMARK  status: ('A' for Active; 'I' for Inactive)
REMARK    1  A    between atoms: C2_2  and  C3_3 
REMARK    2  A    between atoms: C2_2  and  C9_12 
REMARK    3  A    between atoms: C3_3  and  C4_4 
REMARK    4  A    between atoms: C4_4  and  C5_5 
REMARK    5  A    between atoms: C6_6  and  C7_7 
REMARK    6  A    between atoms: C6_6  and  C8_9 
REMARK    7  A    between atoms: C7_7  and  O1_8 
REMARK    8  A    between atoms: C8_9  and  O3_11 
ROOT
HETATM    1  C9  UNL     1      -1.564   6.041  11.854  1.00  0.00    -0.002 C 
HETATM    2  C10 UNL     1      -2.021   7.095  12.903  1.00  0.00     0.006 C 
HETATM    3  C11 UNL     1      -0.782   7.952  13.256  1.00  0.00     0.011 C 
HETATM    4  C12 UNL     1       0.277   7.569  12.209  1.00  0.00    -0.032 C 
HETATM    5  C13 UNL     1      -0.026   8.431  10.932  1.00  0.00     0.016 C 
HETATM    6  C14 UNL     1       1.762   7.763  12.624  1.00  0.00     0.004 C 
HETATM    7  C15 UNL     1       2.111   9.211  13.009  1.00  0.00     0.007 C 
HETATM    8  C16 UNL     1       3.609   9.494  13.192  1.00  0.00     0.007 C 
HETATM    9  C17 UNL     1       4.544   8.286  12.991  1.00  0.00     0.010 C 
HETATM   10  C18 UNL     1       6.079   8.627  13.085  1.00  0.00     0.018 C 
HETATM   11  C19 UNL     1       6.794   7.651  14.047  1.00  0.00     0.023 C 
HETATM   12  C20 UNL     1       6.374  10.044  13.624  1.00  0.00     0.023 C 
HETATM   13  C21 UNL     1       6.752   8.479  11.711  1.00  0.00     0.135 C 
HETATM   14  O4  UNL     1       7.532   9.327  11.268  1.00  0.00    -0.297 OA
HETATM   15  C22 UNL     1       6.525   7.204  10.929  1.00  0.00     0.080 C 
HETATM   16  C23 UNL     1       5.244   6.489  11.331  1.00  0.00     0.018 C 
HETATM   17  C24 UNL     1       4.183   7.493  11.716  1.00  0.00    -0.026 A 
HETATM   18  C25 UNL     1       3.406   8.109  10.568  1.00  0.00     0.021 A 
HETATM   19  C26 UNL     1       2.688   7.177  11.532  1.00  0.00    -0.027 A 
HETATM   20  C27 UNL     1       2.308   5.776  11.024  1.00  0.00     0.011 C 
HETATM   21  C28 UNL     1       0.800   5.529  10.834  1.00  0.00     0.011 C 
HETATM   22  C29 UNL     1      -0.016   6.031  12.035  1.00  0.00    -0.032 C 
HETATM   23  C30 UNL     1       0.356   5.155  13.270  1.00  0.00     0.016 C 
ENDROOT
BRANCH   1  24
HETATM   24  C2  UNL     1      -2.319   4.679  11.851  1.00  0.00    -0.014 C 
HETATM   25  C1  UNL     1      -1.466   3.439  11.562  1.00  0.00     0.010 C 
BRANCH  24  26
HETATM   26  C3  UNL     1      -3.120   4.454  13.165  1.00  0.00     0.008 C 
BRANCH  26  27
HETATM   27  C4  UNL     1      -4.502   5.118  13.218  1.00  0.00     0.028 C 
BRANCH  27  28
HETATM   28  C5  UNL     1      -5.654   4.175  12.983  1.00  0.00    -0.011 C 
HETATM   29  C6  UNL     1      -6.846   4.130  13.622  1.00  0.00     0.035 C 
BRANCH  29  30
HETATM   30  C7  UNL     1      -7.302   5.000  14.764  1.00  0.00     0.209 C 
BRANCH  30  31
HETATM   31  O1  UNL     1      -7.919   4.239  15.802  1.00  0.00    -0.396 OA
HETATM   32  H12 UNL     1      -8.554   3.639  15.370  1.00  0.00     0.209 HD
ENDBRANCH  30  31
ENDBRANCH  29  30
BRANCH  29  33
HETATM   33  C8  UNL     1      -7.875   3.151  13.179  1.00  0.00     0.173 C 
HETATM   34  O2  UNL     1      -7.670   1.989  12.866  1.00  0.00    -0.646 OA
BRANCH  33  35
HETATM   35  O3  UNL     1      -9.115   3.674  13.096  1.00  0.00    -0.773 OA
HETATM   36  H13 UNL     1      -9.664   2.920  12.796  1.00  0.00     0.167 HD
ENDBRANCH  33  35
ENDBRANCH  29  33
ENDBRANCH  27  28
ENDBRANCH  26  27
ENDBRANCH  24  26
ENDBRANCH   1  24
TORSDOF 8
ENDMDL
MODEL 3
REMARK minimizedAffinity -9.58516026
REMARK  8 active torsions:
REMARK  status: ('A' for Active; 'I' for Inactive)
REMARK    1  A    between atoms: C2_2  and  C3_3 
REMARK    2  A    between atoms: C2_2  and  C9_12 
REMARK    3  A    between atoms: C3_3  and  C4_4 
REMARK    4  A    between atoms: C4_4  and  C5_5 
REMARK    5  A    between atoms: C6_6  and  C7_7 
REMARK    6  A    between atoms: C6_6  and  C8_9 
REMARK    7  A    between atoms: C7_7  and  O1_8 
REMARK    8  A    between atoms: C8_9  and  O3_11 
ROOT
HETATM    1  C9  UNL     1       0.693   8.533  13.463  1.00  0.00    -0.002 C 
HETATM    2  C10 UNL     1       0.227   9.601  14.494  1.00  0.00     0.006 C 
HETATM    3  C11 UNL     1      -1.203   9.211  14.938  1.00  0.00     0.011 C 
HETATM    4  C12 UNL     1      -1.419   7.793  14.382  1.00  0.00    -0.032 C 
HETATM    5  C13 UNL     1      -0.768   6.805  15.415  1.00  0.00     0.016 C 
HETATM    6  C14 UNL     1      -2.890   7.370  14.118  1.00  0.00     0.004 C 
HETATM    7  C15 UNL     1      -3.783   7.430  15.369  1.00  0.00     0.007 C 
HETATM    8  C16 UNL     1      -5.172   6.796  15.208  1.00  0.00     0.007 C 
HETATM    9  C17 UNL     1      -5.483   6.216  13.815  1.00  0.00     0.010 C 
HETATM   10  C18 UNL     1      -6.874   5.483  13.709  1.00  0.00     0.018 C 
HETATM   11  C19 UNL     1      -7.665   5.996  12.485  1.00  0.00     0.023 C 
HETATM   12  C20 UNL     1      -7.793   5.705  14.931  1.00  0.00     0.023 C 
HETATM   13  C21 UNL     1      -6.676   3.971  13.517  1.00  0.00     0.135 C 
HETATM   14  O4  UNL     1      -7.326   3.138  14.157  1.00  0.00    -0.297 OA
HETATM   15  C22 UNL     1      -5.728   3.498  12.437  1.00  0.00     0.080 C 
HETATM   16  C23 UNL     1      -4.690   4.546  12.067  1.00  0.00     0.018 C 
HETATM   17  C24 UNL     1      -4.313   5.361  13.282  1.00  0.00    -0.026 A 
HETATM   18  C25 UNL     1      -3.273   4.744  14.197  1.00  0.00     0.021 A 
HETATM   19  C26 UNL     1      -2.917   5.995  13.409  1.00  0.00    -0.027 A 
HETATM   20  C27 UNL     1      -1.948   5.842  12.224  1.00  0.00     0.011 C 
HETATM   21  C28 UNL     1      -0.557   6.474  12.422  1.00  0.00     0.011 C 
HETATM   22  C29 UNL     1      -0.652   7.889  13.009  1.00  0.00    -0.032 C 
HETATM   23  C30 UNL     1      -1.334   8.806  11.948  1.00  0.00     0.016 C 
ENDROOT
BRANCH   1  24
HETATM   24  C2  UNL     1       1.696   9.003  12.369  1.00  0.00    -0.014 C 
HETATM   25  C1  UNL     1       2.810   9.945  12.838  1.00  0.00     0.010 C 
BRANCH  24  26
HETATM   26  C3  UNL     1       2.329   7.804  11.606  1.00  0.00     0.008 C 
BRANCH  26  27
HETATM   27  C4  UNL     1       2.050   7.760  10.098  1.00  0.00     0.028 C 
BRANCH  27  28
HETATM   28  C5  UNL     1       2.393   6.448   9.440  1.00  0.00    -0.011 C 
HETATM   29  C6  UNL     1       3.466   5.653   9.660  1.00  0.00     0.035 C 
BRANCH  29  30
HETATM   30  C7  UNL     1       4.612   5.909  10.603  1.00  0.00     0.209 C 
BRANCH  30  31
HETATM   31  O1  UNL     1       5.693   5.001  10.389  1.00  0.00    -0.396 OA
HETATM   32  H12 UNL     1       5.303   4.109  10.335  1.00  0.00     0.209 HD
ENDBRANCH  30  31
ENDBRANCH  29  30
BRANCH  29  33
HETATM   33  C8  UNL     1       3.572   4.355   8.941  1.00  0.00     0.173 C 
HETATM   34  O2  UNL     1       3.723   4.214   7.738  1.00  0.00    -0.646 OA
BRANCH  33  35
HETATM   35  O3  UNL     1       3.439   3.282   9.745  1.00  0.00    -0.773 OA
HETATM   36  H13 UNL     1       3.530   2.522   9.133  1.00  0.00     0.167 HD
ENDBRANCH  33  35
ENDBRANCH  29  33
ENDBRANCH  27  28
ENDBRANCH  26  27
ENDBRANCH  24  26
ENDBRANCH   1  24
TORSDOF 8
ENDMDL
MODEL 4
REMARK minimizedAffinity -9.40544415
REMARK  8 active torsions:
REMARK  status: ('A' for Active; 'I' for Inactive)
REMARK    1  A    between atoms: C2_2  and  C3_3 
REMARK    2  A    between atoms: C2_2  and  C9_12 
REMARK    3  A    between atoms: C3_3  and  C4_4 
REMARK    4  A    between atoms: C4_4  and  C5_5 
REMARK    5  A    between atoms: C6_6  and  C7_7 
REMARK    6  A    between atoms: C6_6  and  C8_9 
REMARK    7  A    between atoms: C7_7  and  O1_8 
REMARK    8  A    between atoms: C8_9  and  O3_11 
ROOT
HETATM    1  C9  UNL     1      -3.360   7.455  14.787  1.00  0.00    -0.002 C 
HETATM    2  C10 UNL     1      -4.022   6.286  14.002  1.00  0.00     0.006 C 
HETATM    3  C11 UNL     1      -2.988   5.794  12.962  1.00  0.00     0.011 C 
HETATM    4  C12 UNL     1      -1.670   6.485  13.353  1.00  0.00    -0.032 C 
HETATM    5  C13 UNL     1      -1.028   5.610  14.488  1.00  0.00     0.016 C 
HETATM    6  C14 UNL     1      -0.635   6.696  12.214  1.00  0.00     0.004 C 
HETATM    7  C15 UNL     1      -0.194   5.390  11.531  1.00  0.00     0.007 C 
HETATM    8  C16 UNL     1       0.997   5.526  10.572  1.00  0.00     0.007 C 
HETATM    9  C17 UNL     1       1.561   6.950  10.409  1.00  0.00     0.010 C 
HETATM   10  C18 UNL     1       2.844   7.043   9.498  1.00  0.00     0.018 C 
HETATM   11  C19 UNL     1       2.673   8.150   8.433  1.00  0.00     0.023 C 
HETATM   12  C20 UNL     1       3.152   5.747   8.717  1.00  0.00     0.023 C 
HETATM   13  C21 UNL     1       4.078   7.411  10.337  1.00  0.00     0.135 C 
HETATM   14  O4  UNL     1       5.157   6.825  10.209  1.00  0.00    -0.297 OA
HETATM   15  C22 UNL     1       3.988   8.596  11.273  1.00  0.00     0.080 C 
HETATM   16  C23 UNL     1       2.557   8.918  11.677  1.00  0.00     0.018 C 
HETATM   17  C24 UNL     1       1.743   7.649  11.774  1.00  0.00    -0.026 A 
HETATM   18  C25 UNL     1       1.870   6.877  13.073  1.00  0.00     0.021 A 
HETATM   19  C26 UNL     1       0.547   7.547  12.736  1.00  0.00    -0.027 A 
HETATM   20  C27 UNL     1       0.157   8.802  13.534  1.00  0.00     0.011 C 
HETATM   21  C28 UNL     1      -1.030   8.630  14.500  1.00  0.00     0.011 C 
HETATM   22  C29 UNL     1      -2.200   7.887  13.839  1.00  0.00    -0.032 C 
HETATM   23  C30 UNL     1      -2.768   8.795  12.706  1.00  0.00     0.016 C 
ENDROOT
BRANCH   1  24
HETATM   24  C2  UNL     1      -4.310   8.556  15.343  1.00  0.00    -0.014 C 
HETATM   25  C1  UNL     1      -3.779   9.992  15.292  1.00  0.00     0.010 C 
BRANCH  24  26
HETATM   26  C3  UNL     1      -5.714   8.506  14.674  1.00  0.00     0.008 C 
BRANCH  26  27
HETATM   27  C4  UNL     1      -6.696   7.493  15.275  1.00  0.00     0.028 C 
BRANCH  27  28
HETATM   28  C5  UNL     1      -7.154   6.425  14.314  1.00  0.00    -0.011 C 
HETATM   29  C6  UNL     1      -8.391   6.228  13.804  1.00  0.00     0.035 C 
BRANCH  29  30
HETATM   30  C7  UNL     1      -9.639   7.017  14.106  1.00  0.00     0.209 C 
BRANCH  30  31
HETATM   31  O1  UNL     1     -10.195   6.672  15.374  1.00  0.00    -0.396 OA
HETATM   32  H12 UNL     1     -10.220   5.699  15.414  1.00  0.00     0.209 HD
ENDBRANCH  30  31
ENDBRANCH  29  30
BRANCH  29  33
HETATM   33  C8  UNL     1      -8.606   5.143  12.809  1.00  0.00     0.173 C 
HETATM   34  O2  UNL     1      -8.670   5.285  11.598  1.00  0.00    -0.646 OA
BRANCH  33  35
HETATM   35  O3  UNL     1      -8.782   3.929  13.366  1.00  0.00    -0.773 OA
HETATM   36  H13 UNL     1      -8.910   3.337  12.595  1.00  0.00     0.167 HD
ENDBRANCH  33  35
ENDBRANCH  29  33
ENDBRANCH  27  28
ENDBRANCH  26  27
ENDBRANCH  24  26
ENDBRANCH   1  24
TORSDOF 8
ENDMDL
MODEL 5
REMARK minimizedAffinity -9.23828125
REMARK  8 active torsions:
REMARK  status: ('A' for Active; 'I' for Inactive)
REMARK    1  A    between atoms: C2_2  and  C3_3 
REMARK    2  A    between atoms: C2_2  and  C9_12 
REMARK    3  A    between atoms: C3_3  and  C4_4 
REMARK    4  A    between atoms: C4_4  and  C5_5 
REMARK    5  A    between atoms: C6_6  and  C7_7 
REMARK    6  A    between atoms: C6_6  and  C8_9 
REMARK    7  A    between atoms: C7_7  and  O1_8 
REMARK    8  A    between atoms: C8_9  and  O3_11 
ROOT
HETATM    1  C9  UNL     1       0.594   7.581  13.461  1.00  0.00    -0.002 C 
HETATM    2  C10 UNL     1       0.179   8.552  14.603  1.00  0.00     0.006 C 
HETATM    3  C11 UNL     1      -1.279   8.206  14.987  1.00  0.00     0.011 C 
HETATM    4  C12 UNL     1      -1.573   6.876  14.271  1.00  0.00    -0.032 C 
HETATM    5  C13 UNL     1      -1.001   5.738  15.190  1.00  0.00     0.016 C 
HETATM    6  C14 UNL     1      -3.064   6.580  13.947  1.00  0.00     0.004 C 
HETATM    7  C15 UNL     1      -3.971   6.555  15.190  1.00  0.00     0.007 C 
HETATM    8  C16 UNL     1      -5.394   6.032  14.946  1.00  0.00     0.007 C 
HETATM    9  C17 UNL     1      -5.719   5.636  13.493  1.00  0.00     0.010 C 
HETATM   10  C18 UNL     1      -7.150   5.009  13.292  1.00  0.00     0.018 C 
HETATM   11  C19 UNL     1      -7.889   5.708  12.128  1.00  0.00     0.023 C 
HETATM   12  C20 UNL     1      -8.073   5.148  14.523  1.00  0.00     0.023 C 
HETATM   13  C21 UNL     1      -7.044   3.520  12.929  1.00  0.00     0.135 C 
HETATM   14  O4  UNL     1      -7.754   2.662  13.464  1.00  0.00    -0.297 OA
HETATM   15  C22 UNL     1      -6.111   3.114  11.810  1.00  0.00     0.080 C 
HETATM   16  C23 UNL     1      -5.003   4.129  11.571  1.00  0.00     0.018 C 
HETATM   17  C24 UNL     1      -4.596   4.775  12.875  1.00  0.00    -0.026 A 
HETATM   18  C25 UNL     1      -3.611   3.993  13.722  1.00  0.00     0.021 A 
HETATM   19  C26 UNL     1      -3.165   5.300  13.086  1.00  0.00    -0.027 A 
HETATM   20  C27 UNL     1      -2.189   5.222  11.899  1.00  0.00     0.011 C 
HETATM   21  C28 UNL     1      -0.765   5.737  12.179  1.00  0.00     0.011 C 
HETATM   22  C29 UNL     1      -0.781   7.080  12.924  1.00  0.00    -0.032 C 
HETATM   23  C30 UNL     1      -1.388   8.153  11.970  1.00  0.00     0.016 C 
ENDROOT
BRANCH   1  24
HETATM   24  C2  UNL     1       1.641   8.108  12.436  1.00  0.00    -0.014 C 
HETATM   25  C1  UNL     1       2.283   9.460  12.765  1.00  0.00     0.010 C 
BRANCH  24  26
HETATM   26  C3  UNL     1       2.762   7.064  12.159  1.00  0.00     0.008 C 
BRANCH  26  27
HETATM   27  C4  UNL     1       2.532   6.156  10.945  1.00  0.00     0.028 C 
BRANCH  27  28
HETATM   28  C5  UNL     1       2.819   6.809   9.617  1.00  0.00    -0.011 C 
HETATM   29  C6  UNL     1       1.987   7.550   8.848  1.00  0.00     0.035 C 
BRANCH  29  30
HETATM   30  C7  UNL     1       0.541   7.875   9.119  1.00  0.00     0.209 C 
BRANCH  30  31
HETATM   31  O1  UNL     1       0.127   9.065   8.451  1.00  0.00    -0.396 OA
HETATM   32  H12 UNL     1       0.812   9.737   8.623  1.00  0.00     0.209 HD
ENDBRANCH  30  31
ENDBRANCH  29  30
BRANCH  29  33
HETATM   33  C8  UNL     1       2.503   8.162   7.594  1.00  0.00     0.173 C 
HETATM   34  O2  UNL     1       3.216   9.151   7.521  1.00  0.00    -0.646 OA
BRANCH  33  35
HETATM   35  O3  UNL     1       2.072   7.545   6.477  1.00  0.00    -0.773 OA
HETATM   36  H13 UNL     1       2.490   8.057   5.754  1.00  0.00     0.167 HD
ENDBRANCH  33  35
ENDBRANCH  29  33
ENDBRANCH  27  28
ENDBRANCH  26  27
ENDBRANCH  24  26
ENDBRANCH   1  24
TORSDOF 8
ENDMDL
MODEL 6
REMARK minimizedAffinity -9.00488091
REMARK  8 active torsions:
REMARK  status: ('A' for Active; 'I' for Inactive)
REMARK    1  A    between atoms: C2_2  and  C3_3 
REMARK    2  A    between atoms: C2_2  and  C9_12 
REMARK    3  A    between atoms: C3_3  and  C4_4 
REMARK    4  A    between atoms: C4_4  and  C5_5 
REMARK    5  A    between atoms: C6_6  and  C7_7 
REMARK    6  A    between atoms: C6_6  and  C8_9 
REMARK    7  A    between atoms: C7_7  and  O1_8 
REMARK    8  A    between atoms: C8_9  and  O3_11 
ROOT
HETATM    1  C9  UNL     1      -2.008   5.665  12.770  1.00  0.00    -0.002 C 
HETATM    2  C10 UNL     1      -1.813   5.406  14.292  1.00  0.00     0.006 C 
HETATM    3  C11 UNL     1      -0.412   5.943  14.668  1.00  0.00     0.011 C 
HETATM    4  C12 UNL     1       0.049   6.747  13.441  1.00  0.00    -0.032 C 
HETATM    5  C13 UNL     1      -0.595   8.173  13.574  1.00  0.00     0.016 C 
HETATM    6  C14 UNL     1       1.584   6.888  13.242  1.00  0.00     0.004 C 
HETATM    7  C15 UNL     1       2.299   7.558  14.429  1.00  0.00     0.007 C 
HETATM    8  C16 UNL     1       3.767   7.933  14.176  1.00  0.00     0.007 C 
HETATM    9  C17 UNL     1       4.319   7.563  12.786  1.00  0.00     0.010 C 
HETATM   10  C18 UNL     1       5.794   8.050  12.520  1.00  0.00     0.018 C 
HETATM   11  C19 UNL     1       6.660   6.888  11.984  1.00  0.00     0.023 C 
HETATM   12  C20 UNL     1       6.518   8.571  13.781  1.00  0.00     0.023 C 
HETATM   13  C21 UNL     1       5.815   9.156  11.454  1.00  0.00     0.135 C 
HETATM   14  O4  UNL     1       6.480  10.188  11.592  1.00  0.00    -0.297 OA
HETATM   15  C22 UNL     1       5.076   8.922  10.155  1.00  0.00     0.080 C 
HETATM   16  C23 UNL     1       3.968   7.889  10.287  1.00  0.00     0.018 C 
HETATM   17  C24 UNL     1       3.342   7.966  11.661  1.00  0.00    -0.026 A 
HETATM   18  C25 UNL     1       2.283   9.036  11.847  1.00  0.00     0.021 A 
HETATM   19  C26 UNL     1       1.872   7.572  11.885  1.00  0.00    -0.027 A 
HETATM   20  C27 UNL     1       1.086   7.018  10.685  1.00  0.00     0.011 C 
HETATM   21  C28 UNL     1      -0.387   6.667  10.965  1.00  0.00     0.011 C 
HETATM   22  C29 UNL     1      -0.546   5.875  12.271  1.00  0.00    -0.032 C 
HETATM   23  C30 UNL     1       0.140   4.488  12.080  1.00  0.00     0.016 C 
ENDROOT
BRANCH   1  24
HETATM   24  C2  UNL     1      -2.919   4.666  11.998  1.00  0.00    -0.014 C 
HETATM   25  C1  UNL     1      -2.218   3.440  11.403  1.00  0.00     0.010 C 
BRANCH  24  26
HETATM   26  C3  UNL     1      -4.129   4.197  12.856  1.00  0.00     0.008 C 
BRANCH  26  27
HETATM   27  C4  UNL     1      -4.824   5.294  13.672  1.00  0.00     0.028 C 
BRANCH  27  28
HETATM   28  C5  UNL     1      -6.177   5.698  13.145  1.00  0.00    -0.011 C 
HETATM   29  C6  UNL     1      -7.317   4.970  13.109  1.00  0.00     0.035 C 
BRANCH  29  30
HETATM   30  C7  UNL     1      -7.503   3.545  13.561  1.00  0.00     0.209 C 
BRANCH  30  31
HETATM   31  O1  UNL     1      -8.649   2.940  12.962  1.00  0.00    -0.396 OA
HETATM   32  H12 UNL     1      -9.383   3.575  13.056  1.00  0.00     0.209 HD
ENDBRANCH  30  31
ENDBRANCH  29  30
BRANCH  29  33
HETATM   33  C8  UNL     1      -8.568   5.596  12.603  1.00  0.00     0.173 C 
HETATM   34  O2  UNL     1      -8.816   5.859  11.437  1.00  0.00    -0.646 OA
BRANCH  33  35
HETATM   35  O3  UNL     1      -9.442   5.915  13.577  1.00  0.00    -0.773 OA
HETATM   36  H13 UNL     1     -10.196   6.310  13.092  1.00  0.00     0.167 HD
ENDBRANCH  33  35
ENDBRANCH  29  33
ENDBRANCH  27  28
ENDBRANCH  26  27
ENDBRANCH  24  26
ENDBRANCH   1  24
TORSDOF 8
ENDMDL
MODEL 7
REMARK minimizedAffinity -8.85450935
REMARK  8 active torsions:
REMARK  status: ('A' for Active; 'I' for Inactive)
REMARK    1  A    between atoms: C2_2  and  C3_3 
REMARK    2  A    between atoms: C2_2  and  C9_12 
REMARK    3  A    between atoms: C3_3  and  C4_4 
REMARK    4  A    between atoms: C4_4  and  C5_5 
REMARK    5  A    between atoms: C6_6  and  C7_7 
REMARK    6  A    between atoms: C6_6  and  C8_9 
REMARK    7  A    between atoms: C7_7  and  O1_8 
REMARK    8  A    between atoms: C8_9  and  O3_11 
ROOT
HETATM    1  C9  UNL     1      -5.874   6.792  14.470  1.00  0.00    -0.002 C 
HETATM    2  C10 UNL     1      -6.044   8.151  15.207  1.00  0.00     0.006 C 
HETATM    3  C11 UNL     1      -4.684   8.885  15.128  1.00  0.00     0.011 C 
HETATM    4  C12 UNL     1      -3.854   8.076  14.117  1.00  0.00    -0.032 C 
HETATM    5  C13 UNL     1      -4.273   8.581  12.690  1.00  0.00     0.016 C 
HETATM    6  C14 UNL     1      -2.310   8.161  14.263  1.00  0.00     0.004 C 
HETATM    7  C15 UNL     1      -1.758   9.593  14.152  1.00  0.00     0.007 C 
HETATM    8  C16 UNL     1      -0.229   9.696  14.050  1.00  0.00     0.007 C 
HETATM    9  C17 UNL     1       0.533   8.358  14.102  1.00  0.00     0.010 C 
HETATM   10  C18 UNL     1       2.090   8.486  13.894  1.00  0.00     0.018 C 
HETATM   11  C19 UNL     1       2.849   7.726  15.004  1.00  0.00     0.023 C 
HETATM   12  C20 UNL     1       2.610   9.940  13.944  1.00  0.00     0.023 C 
HETATM   13  C21 UNL     1       2.511   7.865  12.553  1.00  0.00     0.135 C 
HETATM   14  O4  UNL     1       3.290   8.433  11.782  1.00  0.00    -0.297 OA
HETATM   15  C22 UNL     1       2.030   6.469  12.222  1.00  0.00     0.080 C 
HETATM   16  C23 UNL     1       0.767   6.087  12.978  1.00  0.00     0.018 C 
HETATM   17  C24 UNL     1      -0.110   7.302  13.177  1.00  0.00    -0.026 A 
HETATM   18  C25 UNL     1      -0.998   7.677  12.007  1.00  0.00     0.021 A 
HETATM   19  C26 UNL     1      -1.638   7.166  13.288  1.00  0.00    -0.027 A 
HETATM   20  C27 UNL     1      -2.237   5.749  13.272  1.00  0.00     0.011 C 
HETATM   21  C28 UNL     1      -3.773   5.679  13.358  1.00  0.00     0.011 C 
HETATM   22  C29 UNL     1      -4.326   6.609  14.448  1.00  0.00    -0.032 C 
HETATM   23  C30 UNL     1      -3.847   6.069  15.830  1.00  0.00     0.016 C 
ENDROOT
BRANCH   1  24
HETATM   24  C2  UNL     1      -6.753   5.608  14.969  1.00  0.00    -0.014 C 
HETATM   25  C1  UNL     1      -7.615   5.884  16.204  1.00  0.00     0.010 C 
BRANCH  24  26
HETATM   26  C3  UNL     1      -7.651   5.032  13.837  1.00  0.00     0.008 C 
BRANCH  26  27
HETATM   27  C4  UNL     1      -7.181   3.703  13.232  1.00  0.00     0.028 C 
BRANCH  27  28
HETATM   28  C5  UNL     1      -6.240   3.849  12.064  1.00  0.00    -0.011 C 
HETATM   29  C6  UNL     1      -5.620   2.876  11.357  1.00  0.00     0.035 C 
BRANCH  29  30
HETATM   30  C7  UNL     1      -5.693   1.390  11.594  1.00  0.00     0.209 C 
BRANCH  30  31
HETATM   31  O1  UNL     1      -6.657   0.761  10.750  1.00  0.00    -0.396 OA
HETATM   32  H12 UNL     1      -7.469   1.298  10.804  1.00  0.00     0.209 HD
ENDBRANCH  30  31
ENDBRANCH  29  30
BRANCH  29  33
HETATM   33  C8  UNL     1      -4.779   3.246  10.187  1.00  0.00     0.173 C 
HETATM   34  O2  UNL     1      -3.648   3.704  10.235  1.00  0.00    -0.646 OA
BRANCH  33  35
HETATM   35  O3  UNL     1      -5.399   3.075   9.003  1.00  0.00    -0.773 OA
HETATM   36  H13 UNL     1      -4.728   3.359   8.348  1.00  0.00     0.167 HD
ENDBRANCH  33  35
ENDBRANCH  29  33
ENDBRANCH  27  28
ENDBRANCH  26  27
ENDBRANCH  24  26
ENDBRANCH   1  24
TORSDOF 8
ENDMDL
MODEL 8
REMARK minimizedAffinity -8.76694012
REMARK  8 active torsions:
REMARK  status: ('A' for Active; 'I' for Inactive)
REMARK    1  A    between atoms: C2_2  and  C3_3 
REMARK    2  A    between atoms: C2_2  and  C9_12 
REMARK    3  A    between atoms: C3_3  and  C4_4 
REMARK    4  A    between atoms: C4_4  and  C5_5 
REMARK    5  A    between atoms: C6_6  and  C7_7 
REMARK    6  A    between atoms: C6_6  and  C8_9 
REMARK    7  A    between atoms: C7_7  and  O1_8 
REMARK    8  A    between atoms: C8_9  and  O3_11 
ROOT
HETATM    1  C9  UNL     1      -1.911   7.837  14.262  1.00  0.00    -0.002 C 
HETATM    2  C10 UNL     1      -1.506   7.305  15.667  1.00  0.00     0.006 C 
HETATM    3  C11 UNL     1       0.041   7.293  15.719  1.00  0.00     0.011 C 
HETATM    4  C12 UNL     1       0.487   8.074  14.472  1.00  0.00    -0.032 C 
HETATM    5  C13 UNL     1       0.430   9.596  14.854  1.00  0.00     0.016 C 
HETATM    6  C14 UNL     1       1.895   7.734  13.909  1.00  0.00     0.004 C 
HETATM    7  C15 UNL     1       3.032   7.949  14.922  1.00  0.00     0.007 C 
HETATM    8  C16 UNL     1       4.450   7.857  14.339  1.00  0.00     0.007 C 
HETATM    9  C17 UNL     1       4.532   7.536  12.834  1.00  0.00     0.010 C 
HETATM   10  C18 UNL     1       5.992   7.548  12.244  1.00  0.00     0.018 C 
HETATM   11  C19 UNL     1       6.260   6.259  11.434  1.00  0.00     0.023 C 
HETATM   12  C20 UNL     1       7.101   7.611  13.317  1.00  0.00     0.023 C 
HETATM   13  C21 UNL     1       6.178   8.731  11.282  1.00  0.00     0.135 C 
HETATM   14  O4  UNL     1       7.177   9.456  11.319  1.00  0.00    -0.297 OA
HETATM   15  C22 UNL     1       5.149   8.946  10.194  1.00  0.00     0.080 C 
HETATM   16  C23 UNL     1       3.802   8.325  10.528  1.00  0.00     0.018 C 
HETATM   17  C24 UNL     1       3.547   8.399  12.016  1.00  0.00    -0.026 A 
HETATM   18  C25 UNL     1       2.997   9.715  12.529  1.00  0.00     0.021 A 
HETATM   19  C26 UNL     1       2.114   8.478  12.571  1.00  0.00    -0.027 A 
HETATM   20  C27 UNL     1       0.950   8.396  11.569  1.00  0.00     0.011 C 
HETATM   21  C28 UNL     1      -0.459   8.508  12.182  1.00  0.00     0.011 C 
HETATM   22  C29 UNL     1      -0.609   7.628  13.431  1.00  0.00    -0.032 C 
HETATM   23  C30 UNL     1      -0.512   6.138  12.984  1.00  0.00     0.016 C 
ENDROOT
BRANCH   1  24
HETATM   24  C2  UNL     1      -3.256   7.316  13.675  1.00  0.00    -0.014 C 
HETATM   25  C1  UNL     1      -4.067   8.324  12.855  1.00  0.00     0.010 C 
BRANCH  24  26
HETATM   26  C3  UNL     1      -3.063   6.017  12.841  1.00  0.00     0.008 C 
BRANCH  26  27
HETATM   27  C4  UNL     1      -3.819   4.785  13.355  1.00  0.00     0.028 C 
BRANCH  27  28
HETATM   28  C5  UNL     1      -5.314   4.854  13.179  1.00  0.00    -0.011 C 
HETATM   29  C6  UNL     1      -6.128   3.975  12.549  1.00  0.00     0.035 C 
BRANCH  29  30
HETATM   30  C7  UNL     1      -5.725   2.715  11.828  1.00  0.00     0.209 C 
BRANCH  30  31
HETATM   31  O1  UNL     1      -5.386   2.965  10.465  1.00  0.00    -0.396 OA
HETATM   32  H12 UNL     1      -6.095   3.524  10.097  1.00  0.00     0.209 HD
ENDBRANCH  30  31
ENDBRANCH  29  30
BRANCH  29  33
HETATM   33  C8  UNL     1      -7.597   4.207  12.555  1.00  0.00     0.173 C 
HETATM   34  O2  UNL     1      -8.177   5.137  12.016  1.00  0.00    -0.646 OA
BRANCH  33  35
HETATM   35  O3  UNL     1      -8.283   3.296  13.272  1.00  0.00    -0.773 OA
HETATM   36  H13 UNL     1      -9.216   3.584  13.180  1.00  0.00     0.167 HD
ENDBRANCH  33  35
ENDBRANCH  29  33
ENDBRANCH  27  28
ENDBRANCH  26  27
ENDBRANCH  24  26
ENDBRANCH   1  24
TORSDOF 8
ENDMDL
MODEL 9
REMARK minimizedAffinity -8.6841383
REMARK  8 active torsions:
REMARK  status: ('A' for Active; 'I' for Inactive)
REMARK    1  A    between atoms: C2_2  and  C3_3 
REMARK    2  A    between atoms: C2_2  and  C9_12 
REMARK    3  A    between atoms: C3_3  and  C4_4 
REMARK    4  A    between atoms: C4_4  and  C5_5 
REMARK    5  A    between atoms: C6_6  and  C7_7 
REMARK    6  A    between atoms: C6_6  and  C8_9 
REMARK    7  A    between atoms: C7_7  and  O1_8 
REMARK    8  A    between atoms: C8_9  and  O3_11 
ROOT
HETATM    1  C9  UNL     1       1.047   8.272  14.002  1.00  0.00    -0.002 C 
HETATM    2  C10 UNL     1       1.412   6.792  13.688  1.00  0.00     0.006 C 
HETATM    3  C11 UNL     1       0.082   6.007  13.591  1.00  0.00     0.011 C 
HETATM    4  C12 UNL     1      -1.015   7.085  13.566  1.00  0.00    -0.032 C 
HETATM    5  C13 UNL     1      -1.129   7.572  12.077  1.00  0.00     0.016 C 
HETATM    6  C14 UNL     1      -2.418   6.656  14.079  1.00  0.00     0.004 C 
HETATM    7  C15 UNL     1      -3.024   5.475  13.301  1.00  0.00     0.007 C 
HETATM    8  C16 UNL     1      -4.497   5.177  13.614  1.00  0.00     0.007 C 
HETATM    9  C17 UNL     1      -5.149   6.082  14.677  1.00  0.00     0.010 C 
HETATM   10  C18 UNL     1      -6.686   5.820  14.904  1.00  0.00     0.018 C 
HETATM   11  C19 UNL     1      -6.992   5.658  16.410  1.00  0.00     0.023 C 
HETATM   12  C20 UNL     1      -7.208   4.535  14.225  1.00  0.00     0.023 C 
HETATM   13  C21 UNL     1      -7.519   7.009  14.400  1.00  0.00     0.135 C 
HETATM   14  O4  UNL     1      -8.534   6.856  13.715  1.00  0.00    -0.297 OA
HETATM   15  C22 UNL     1      -7.132   8.402  14.847  1.00  0.00     0.080 C 
HETATM   16  C23 UNL     1      -5.674   8.501  15.267  1.00  0.00     0.018 C 
HETATM   17  C24 UNL     1      -4.825   7.572  14.431  1.00  0.00    -0.026 A 
HETATM   18  C25 UNL     1      -4.406   8.099  13.072  1.00  0.00     0.021 A 
HETATM   19  C26 UNL     1      -3.347   7.891  14.144  1.00  0.00    -0.027 A 
HETATM   20  C27 UNL     1      -2.741   9.141  14.804  1.00  0.00     0.011 C 
HETATM   21  C28 UNL     1      -1.267   9.423  14.458  1.00  0.00     0.011 C 
HETATM   22  C29 UNL     1      -0.408   8.154  14.551  1.00  0.00    -0.032 C 
HETATM   23  C30 UNL     1      -0.364   7.710  16.045  1.00  0.00     0.016 C 
ENDROOT
BRANCH   1  24
HETATM   24  C2  UNL     1       2.084   9.092  14.824  1.00  0.00    -0.014 C 
HETATM   25  C1  UNL     1       2.058   8.882  16.341  1.00  0.00     0.010 C 
BRANCH  24  26
HETATM   26  C3  UNL     1       3.536   8.883  14.304  1.00  0.00     0.008 C 
BRANCH  26  27
HETATM   27  C4  UNL     1       3.796   9.350  12.866  1.00  0.00     0.028 C 
BRANCH  27  28
HETATM   28  C5  UNL     1       4.613   8.390  12.039  1.00  0.00    -0.011 C 
HETATM   29  C6  UNL     1       5.730   7.714  12.396  1.00  0.00     0.035 C 
BRANCH  29  30
HETATM   30  C7  UNL     1       6.459   7.787  13.712  1.00  0.00     0.209 C 
BRANCH  30  31
HETATM   31  O1  UNL     1       6.429   6.542  14.408  1.00  0.00    -0.396 OA
HETATM   32  H12 UNL     1       5.506   6.230  14.386  1.00  0.00     0.209 HD
ENDBRANCH  30  31
ENDBRANCH  29  30
BRANCH  29  33
HETATM   33  C8  UNL     1       6.342   6.757  11.435  1.00  0.00     0.173 C 
HETATM   34  O2  UNL     1       7.031   7.052  10.472  1.00  0.00    -0.646 OA
BRANCH  33  35
HETATM   35  O3  UNL     1       6.030   5.470  11.685  1.00  0.00    -0.773 OA
HETATM   36  H13 UNL     1       6.498   4.977  10.980  1.00  0.00     0.167 HD
ENDBRANCH  33  35
ENDBRANCH  29  33
ENDBRANCH  27  28
ENDBRANCH  26  27
ENDBRANCH  24  26
ENDBRANCH   1  24
TORSDOF 8
ENDMDL
