MODEL 1
REMARK minimizedAffinity -8.82062817
REMARK CNNscore 0.694028139
REMARK CNNaffinity 6.88840866
REMARK  12 active torsions:
REMARK  status: ('A' for Active; 'I' for Inactive)
REMARK    1  A    between atoms: C2_2  and  C27_36 
REMARK    2  A    between atoms: C3_3  and  C4_4 
REMARK    3  A    between atoms: C4_4  and  C5_5 
REMARK    4  A    between atoms: C5_5  and  C6_6 
REMARK    5  A    between atoms: C6_6  and  C8_8 
REMARK    6  A    between atoms: C10_10  and  O1_11 
REMARK    7  A    between atoms: O1_11  and  S1_12 
REMARK    8  A    between atoms: C11_16  and  O5_17 
REMARK    9  A    between atoms: C12_18  and  O6_19 
REMARK   10  A    between atoms: C14_21  and  O7_22 
REMARK   11  A    between atoms: C17_25  and  O8_26 
REMARK   12  A    between atoms: C27_36  and  O9_37 
ROOT
HETATM    1  C8  UNL     1      -2.007  10.050  15.289  1.00  0.00     0.005 C 
HETATM    2  C9  UNL     1      -0.924   9.940  16.416  1.00  0.00     0.044 C 
HETATM    3  C10 UNL     1       0.191   9.024  15.878  1.00  0.00     0.201 C 
HETATM    4  C11 UNL     1       0.020   9.122  14.354  1.00  0.00     0.162 A 
HETATM    5  C12 UNL     1       0.843   8.171  13.424  1.00  0.00     0.139 A 
HETATM    6  C13 UNL     1       2.348   8.520  13.361  1.00  0.00     0.093 C 
HETATM    7  C14 UNL     1       3.130   7.586  12.434  1.00  0.00     0.127 C 
HETATM    8  C15 UNL     1       2.595   7.690  10.999  1.00  0.00     0.025 C 
HETATM    9  C16 UNL     1       3.414   6.845  10.004  1.00  0.00     0.039 C 
HETATM   10  C17 UNL     1       2.924   7.003   8.559  1.00  0.00     0.118 C 
HETATM   11  C18 UNL     1       1.731   7.941   8.407  1.00  0.00     0.032 C 
HETATM   12  C19 UNL     1       0.605   7.727   9.431  1.00  0.00     0.012 C 
HETATM   13  C20 UNL     1       1.067   7.390  10.891  1.00  0.00    -0.030 C 
HETATM   14  C21 UNL     1       0.771   5.887  11.135  1.00  0.00     0.016 C 
HETATM   15  C22 UNL     1       0.303   8.301  11.942  1.00  0.00     0.050 C 
HETATM   16  C23 UNL     1      -1.239   8.208  11.852  1.00  0.00     0.011 C 
HETATM   17  C24 UNL     1      -1.949   9.195  12.795  1.00  0.00     0.015 C 
HETATM   18  C25 UNL     1      -1.544   8.955  14.257  1.00  0.00     0.013 C 
HETATM   19  C26 UNL     1      -2.090   7.564  14.696  1.00  0.00     0.020 C 
HETATM   20 NA1  UNL     1      -0.931   9.192  14.136  1.00  0.00    -0.358 Na
ATOM     21  HA1 UNL     1      -1.906   9.487  14.195  1.00  0.00     0.159 HD
ENDROOT
BRANCH   1  22
HETATM   22  C6  UNL     1      -3.455  10.016  15.862  1.00  0.00    -0.013 C 
HETATM   23  C7  UNL     1      -3.487  10.319  17.366  1.00  0.00     0.010 C 
BRANCH  22  24
HETATM   24  C5  UNL     1      -4.122   8.637  15.602  1.00  0.00     0.008 C 
BRANCH  24  25
HETATM   25  C4  UNL     1      -5.553   8.758  15.062  1.00  0.00     0.028 C 
BRANCH  25  26
HETATM   26  C3  UNL     1      -6.124   7.408  14.718  1.00  0.00    -0.022 C 
HETATM   27  C2  UNL     1      -7.023   6.682  15.412  1.00  0.00    -0.064 C 
HETATM   28  C1  UNL     1      -7.627   7.085  16.731  1.00  0.00     0.045 C 
BRANCH  27  29
HETATM   29  C27 UNL     1      -7.513   5.357  14.882  1.00  0.00     0.197 C 
BRANCH  29  30
HETATM   30  O9  UNL     1      -7.909   4.539  15.972  1.00  0.00    -0.397 OA
HETATM   31  H45 UNL     1      -7.135   4.478  16.559  1.00  0.00     0.209 HD
ENDBRANCH  29  30
ENDBRANCH  27  29
ENDBRANCH  25  26
ENDBRANCH  24  25
ENDBRANCH  22  24
ENDBRANCH   1  22
BRANCH   3  32
HETATM   32  O1  UNL     1       1.465   9.464  16.296  1.00  0.00    -0.246 OA
BRANCH  32  33
HETATM   33  S1  UNL     1       1.517  10.393  17.640  1.00  0.00     0.252 S 
HETATM   34  O2  UNL     1       0.240  10.103  18.301  1.00  0.00    -0.572 OA
HETATM   35  O3  UNL     1       2.683   9.881  18.349  1.00  0.00    -0.572 OA
HETATM   36  O4  UNL     1       1.640  11.745  17.110  1.00  0.00    -0.572 OA
ENDBRANCH  32  33
ENDBRANCH   3  32
BRANCH   4  37
HETATM   37  O5  UNL     1       0.364  10.484  13.964  1.00  0.00    -0.368 OA
HETATM   38  H17 UNL     1       1.148  10.716  14.506  1.00  0.00     0.212 HD
ENDBRANCH   4  37
BRANCH   5  39
HETATM   39  O6  UNL     1       0.729   6.831  13.906  1.00  0.00    -0.370 OA
HETATM   40  H18 UNL     1       1.265   6.766  14.739  1.00  0.00     0.212 HD
ENDBRANCH   5  39
BRANCH   7  41
HETATM   41  O7  UNL     1       4.503   7.989  12.448  1.00  0.00    -0.395 OA
HETATM   42  H22 UNL     1       4.787   7.956  13.383  1.00  0.00     0.210 HD
ENDBRANCH   7  41
BRANCH  10  43
HETATM   43  O8  UNL     1       2.619   5.729   7.992  1.00  0.00    -0.396 OA
HETATM   44  H27 UNL     1       1.822   5.390   8.431  1.00  0.00     0.210 HD
ENDBRANCH  10  43
TORSDOF 12
ENDMDL
MODEL 2
REMARK minimizedAffinity -8.32127762
REMARK CNNscore 0.402784795
REMARK CNNaffinity 6.72894859
REMARK  12 active torsions:
REMARK  status: ('A' for Active; 'I' for Inactive)
REMARK    1  A    between atoms: C2_2  and  C27_36 
REMARK    2  A    between atoms: C3_3  and  C4_4 
REMARK    3  A    between atoms: C4_4  and  C5_5 
REMARK    4  A    between atoms: C5_5  and  C6_6 
REMARK    5  A    between atoms: C6_6  and  C8_8 
REMARK    6  A    between atoms: C10_10  and  O1_11 
REMARK    7  A    between atoms: O1_11  and  S1_12 
REMARK    8  A    between atoms: C11_16  and  O5_17 
REMARK    9  A    between atoms: C12_18  and  O6_19 
REMARK   10  A    between atoms: C14_21  and  O7_22 
REMARK   11  A    between atoms: C17_25  and  O8_26 
REMARK   12  A    between atoms: C27_36  and  O9_37 
ROOT
HETATM    1  C8  UNL     1       0.124   6.016  11.400  1.00  0.00     0.005 C 
HETATM    2  C9  UNL     1       0.172   4.544  10.866  1.00  0.00     0.044 C 
HETATM    3  C10 UNL     1      -1.039   3.809  11.468  1.00  0.00     0.201 C 
HETATM    4  C11 UNL     1      -2.006   4.951  11.813  1.00  0.00     0.162 A 
HETATM    5  C12 UNL     1      -3.298   4.643  12.640  1.00  0.00     0.139 A 
HETATM    6  C13 UNL     1      -4.369   3.864  11.844  1.00  0.00     0.093 C 
HETATM    7  C14 UNL     1      -5.629   3.587  12.668  1.00  0.00     0.127 C 
HETATM    8  C15 UNL     1      -6.280   4.907  13.105  1.00  0.00     0.025 C 
HETATM    9  C16 UNL     1      -7.609   4.687  13.853  1.00  0.00     0.039 C 
HETATM   10  C17 UNL     1      -8.296   6.006  14.228  1.00  0.00     0.118 C 
HETATM   11  C18 UNL     1      -7.523   7.251  13.802  1.00  0.00     0.032 C 
HETATM   12  C19 UNL     1      -6.019   7.217  14.112  1.00  0.00     0.012 C 
HETATM   13  C20 UNL     1      -5.312   5.832  13.906  1.00  0.00    -0.030 C 
HETATM   14  C21 UNL     1      -5.014   5.250  15.313  1.00  0.00     0.016 C 
HETATM   15  C22 UNL     1      -3.977   6.007  13.066  1.00  0.00     0.050 C 
HETATM   16  C23 UNL     1      -2.975   7.015  13.680  1.00  0.00     0.011 C 
HETATM   17  C24 UNL     1      -1.751   7.257  12.779  1.00  0.00     0.015 C 
HETATM   18  C25 UNL     1      -0.998   5.947  12.502  1.00  0.00     0.013 C 
HETATM   19  C26 UNL     1      -0.381   5.443  13.840  1.00  0.00     0.020 C 
HETATM   20 NA1  UNL     1      -1.497   5.730  12.115  1.00  0.00    -0.358 Na
ATOM     21  HA1 UNL     1      -0.762   6.436  12.151  1.00  0.00     0.159 HD
ENDROOT
BRANCH   1  22
HETATM   22  C6  UNL     1       1.540   6.555  11.764  1.00  0.00    -0.013 C 
HETATM   23  C7  UNL     1       1.733   6.688  13.281  1.00  0.00     0.010 C 
BRANCH  22  24
HETATM   24  C5  UNL     1       1.799   7.931  11.091  1.00  0.00     0.008 C 
BRANCH  24  25
HETATM   25  C4  UNL     1       1.612   7.896   9.569  1.00  0.00     0.028 C 
BRANCH  25  26
HETATM   26  C3  UNL     1       2.268   6.684   8.964  1.00  0.00    -0.022 C 
HETATM   27  C2  UNL     1       2.364   6.352   7.660  1.00  0.00    -0.064 C 
HETATM   28  C1  UNL     1       1.784   7.146   6.520  1.00  0.00     0.045 C 
BRANCH  27  29
HETATM   29  C27 UNL     1       3.103   5.106   7.239  1.00  0.00     0.197 C 
BRANCH  29  30
HETATM   30  O9  UNL     1       3.615   4.456   8.392  1.00  0.00    -0.397 OA
HETATM   31  H45 UNL     1       4.165   5.116   8.851  1.00  0.00     0.209 HD
ENDBRANCH  29  30
ENDBRANCH  27  29
ENDBRANCH  25  26
ENDBRANCH  24  25
ENDBRANCH  22  24
ENDBRANCH   1  22
BRANCH   3  32
HETATM   32  O1  UNL     1      -1.600   2.900  10.545  1.00  0.00    -0.246 OA
BRANCH  32  33
HETATM   33  S1  UNL     1      -1.153   1.335  10.691  1.00  0.00     0.252 S 
HETATM   34  O2  UNL     1      -2.353   0.691  11.235  1.00  0.00    -0.572 OA
HETATM   35  O3  UNL     1      -0.844   0.952   9.319  1.00  0.00    -0.572 OA
HETATM   36  O4  UNL     1      -0.019   1.391  11.604  1.00  0.00    -0.572 OA
ENDBRANCH  32  33
ENDBRANCH   3  32
BRANCH   4  37
HETATM   37  O5  UNL     1      -2.449   5.540  10.555  1.00  0.00    -0.368 OA
HETATM   38  H17 UNL     1      -2.593   4.780   9.952  1.00  0.00     0.212 HD
ENDBRANCH   4  37
BRANCH   5  39
HETATM   39  O6  UNL     1      -2.947   3.856  13.780  1.00  0.00    -0.370 OA
HETATM   40  H18 UNL     1      -2.726   2.944  13.456  1.00  0.00     0.212 HD
ENDBRANCH   5  39
BRANCH   7  41
HETATM   41  O7  UNL     1      -6.551   2.864  11.847  1.00  0.00    -0.395 OA
HETATM   42  H22 UNL     1      -6.080   2.059  11.552  1.00  0.00     0.210 HD
ENDBRANCH   7  41
BRANCH  10  43
HETATM   43  O8  UNL     1      -8.560   6.053  15.630  1.00  0.00    -0.396 OA
HETATM   44  H27 UNL     1      -7.711   6.138  16.092  1.00  0.00     0.210 HD
ENDBRANCH  10  43
TORSDOF 12
ENDMDL
MODEL 3
REMARK minimizedAffinity -7.4674778
REMARK CNNscore 0.368131578
REMARK CNNaffinity 6.34044838
REMARK  12 active torsions:
REMARK  status: ('A' for Active; 'I' for Inactive)
REMARK    1  A    between atoms: C2_2  and  C27_36 
REMARK    2  A    between atoms: C3_3  and  C4_4 
REMARK    3  A    between atoms: C4_4  and  C5_5 
REMARK    4  A    between atoms: C5_5  and  C6_6 
REMARK    5  A    between atoms: C6_6  and  C8_8 
REMARK    6  A    between atoms: C10_10  and  O1_11 
REMARK    7  A    between atoms: O1_11  and  S1_12 
REMARK    8  A    between atoms: C11_16  and  O5_17 
REMARK    9  A    between atoms: C12_18  and  O6_19 
REMARK   10  A    between atoms: C14_21  and  O7_22 
REMARK   11  A    between atoms: C17_25  and  O8_26 
REMARK   12  A    between atoms: C27_36  and  O9_37 
ROOT
HETATM    1  C8  UNL     1     -10.588   7.934  13.605  1.00  0.00     0.005 C 
HETATM    2  C9  UNL     1     -11.870   7.276  12.989  1.00  0.00     0.044 C 
HETATM    3  C10 UNL     1     -13.043   8.232  13.270  1.00  0.00     0.201 C 
HETATM    4  C11 UNL     1     -12.349   9.585  13.484  1.00  0.00     0.162 A 
HETATM    5  C12 UNL     1     -13.182  10.806  13.998  1.00  0.00     0.139 A 
HETATM    6  C13 UNL     1     -14.155  11.378  12.941  1.00  0.00     0.093 C 
HETATM    7  C14 UNL     1     -14.948  12.579  13.460  1.00  0.00     0.127 C 
HETATM    8  C15 UNL     1     -13.996  13.721  13.844  1.00  0.00     0.025 C 
HETATM    9  C16 UNL     1     -14.748  14.993  14.278  1.00  0.00     0.039 C 
HETATM   10  C17 UNL     1     -13.800  16.156  14.594  1.00  0.00     0.118 C 
HETATM   11  C18 UNL     1     -12.322  15.814  14.430  1.00  0.00     0.032 C 
HETATM   12  C19 UNL     1     -11.896  14.473  15.046  1.00  0.00     0.012 C 
HETATM   13  C20 UNL     1     -12.922  13.296  14.894  1.00  0.00    -0.030 C 
HETATM   14  C21 UNL     1     -13.563  13.058  16.287  1.00  0.00     0.016 C 
HETATM   15  C22 UNL     1     -12.196  11.987  14.368  1.00  0.00     0.050 C 
HETATM   16  C23 UNL     1     -11.009  11.529  15.248  1.00  0.00     0.011 C 
HETATM   17  C24 UNL     1     -10.250  10.335  14.645  1.00  0.00     0.015 C 
HETATM   18  C25 UNL     1     -11.181   9.130  14.439  1.00  0.00     0.013 C 
HETATM   19  C26 UNL     1     -11.632   8.615  15.837  1.00  0.00     0.020 C 
HETATM   20 NA1  UNL     1     -11.495   9.446  13.941  1.00  0.00    -0.358 Na
ATOM     21  HA1 UNL     1     -10.597   9.026  14.181  1.00  0.00     0.159 HD
ENDROOT
BRANCH   1  22
HETATM   22  C6  UNL     1      -9.665   6.887  14.296  1.00  0.00    -0.013 C 
HETATM   23  C7  UNL     1      -8.444   7.541  14.956  1.00  0.00     0.010 C 
BRANCH  22  24
HETATM   24  C5  UNL     1      -9.185   5.814  13.279  1.00  0.00     0.008 C 
BRANCH  24  25
HETATM   25  C4  UNL     1      -7.833   5.196  13.657  1.00  0.00     0.028 C 
BRANCH  25  26
HETATM   26  C3  UNL     1      -7.599   3.902  12.924  1.00  0.00    -0.022 C 
HETATM   27  C2  UNL     1      -6.434   3.406  12.460  1.00  0.00    -0.064 C 
HETATM   28  C1  UNL     1      -5.099   4.095  12.562  1.00  0.00     0.045 C 
BRANCH  27  29
HETATM   29  C27 UNL     1      -6.389   2.060  11.780  1.00  0.00     0.197 C 
BRANCH  29  30
HETATM   30  O9  UNL     1      -5.447   2.106  10.720  1.00  0.00    -0.397 OA
HETATM   31  H45 UNL     1      -5.725   2.839  10.144  1.00  0.00     0.209 HD
ENDBRANCH  29  30
ENDBRANCH  27  29
ENDBRANCH  25  26
ENDBRANCH  24  25
ENDBRANCH  22  24
ENDBRANCH   1  22
BRANCH   3  32
HETATM   32  O1  UNL     1     -13.948   8.267  12.187  1.00  0.00    -0.246 OA
BRANCH  32  33
HETATM   33  S1  UNL     1     -15.466   7.736  12.480  1.00  0.00     0.252 S 
HETATM   34  O2  UNL     1     -15.256   6.374  12.980  1.00  0.00    -0.572 OA
HETATM   35  O3  UNL     1     -15.951   8.671  13.488  1.00  0.00    -0.572 OA
HETATM   36  O4  UNL     1     -16.110   7.820  11.176  1.00  0.00    -0.572 OA
ENDBRANCH  32  33
ENDBRANCH   3  32
BRANCH   4  37
HETATM   37  O5  UNL     1     -11.772   9.986  12.207  1.00  0.00    -0.368 OA
HETATM   38  H17 UNL     1     -12.444   9.745  11.535  1.00  0.00     0.212 HD
ENDBRANCH   4  37
BRANCH   5  39
HETATM   39  O6  UNL     1     -13.959  10.401  15.127  1.00  0.00    -0.370 OA
HETATM   40  H18 UNL     1     -14.691   9.818  14.792  1.00  0.00     0.212 HD
ENDBRANCH   5  39
BRANCH   7  41
HETATM   41  O7  UNL     1     -15.815  13.029  12.414  1.00  0.00    -0.395 OA
HETATM   42  H22 UNL     1     -16.367  12.260  12.168  1.00  0.00     0.210 HD
ENDBRANCH   7  41
BRANCH  10  43
HETATM   43  O8  UNL     1     -14.041  16.657  15.909  1.00  0.00    -0.396 OA
HETATM   44  H27 UNL     1     -13.744  15.985  16.544  1.00  0.00     0.210 HD
ENDBRANCH  10  43
TORSDOF 12
ENDMDL
MODEL 4
REMARK minimizedAffinity -8.82738972
REMARK CNNscore 0.362664968
REMARK CNNaffinity 6.2133503
REMARK  12 active torsions:
REMARK  status: ('A' for Active; 'I' for Inactive)
REMARK    1  A    between atoms: C2_2  and  C27_36 
REMARK    2  A    between atoms: C3_3  and  C4_4 
REMARK    3  A    between atoms: C4_4  and  C5_5 
REMARK    4  A    between atoms: C5_5  and  C6_6 
REMARK    5  A    between atoms: C6_6  and  C8_8 
REMARK    6  A    between atoms: C10_10  and  O1_11 
REMARK    7  A    between atoms: O1_11  and  S1_12 
REMARK    8  A    between atoms: C11_16  and  O5_17 
REMARK    9  A    between atoms: C12_18  and  O6_19 
REMARK   10  A    between atoms: C14_21  and  O7_22 
REMARK   11  A    between atoms: C17_25  and  O8_26 
REMARK   12  A    between atoms: C27_36  and  O9_37 
ROOT
HETATM    1  C8  UNL     1       0.262   6.138  12.224  1.00  0.00     0.005 C 
HETATM    2  C9  UNL     1       0.352   6.410  10.684  1.00  0.00     0.044 C 
HETATM    3  C10 UNL     1       1.511   7.401  10.471  1.00  0.00     0.201 C 
HETATM    4  C11 UNL     1       2.371   7.210  11.729  1.00  0.00     0.162 A 
HETATM    5  C12 UNL     1       3.560   8.189  12.005  1.00  0.00     0.139 A 
HETATM    6  C13 UNL     1       4.760   7.985  11.052  1.00  0.00     0.093 C 
HETATM    7  C14 UNL     1       5.917   8.942  11.350  1.00  0.00     0.127 C 
HETATM    8  C15 UNL     1       6.444   8.714  12.774  1.00  0.00     0.025 C 
HETATM    9  C16 UNL     1       7.676   9.583  13.091  1.00  0.00     0.039 C 
HETATM   10  C17 UNL     1       8.246   9.305  14.487  1.00  0.00     0.118 C 
HETATM   11  C18 UNL     1       7.475   8.249  15.274  1.00  0.00     0.032 C 
HETATM   12  C19 UNL     1       5.947   8.404  15.239  1.00  0.00     0.012 C 
HETATM   13  C20 UNL     1       5.339   8.858  13.866  1.00  0.00    -0.030 C 
HETATM   14  C21 UNL     1       4.893  10.336  14.024  1.00  0.00     0.016 C 
HETATM   15  C22 UNL     1       4.114   7.931  13.465  1.00  0.00     0.050 C 
HETATM   16  C23 UNL     1       2.996   7.870  14.533  1.00  0.00     0.011 C 
HETATM   17  C24 UNL     1       1.886   6.867  14.171  1.00  0.00     0.015 C 
HETATM   18  C25 UNL     1       1.237   7.219  12.824  1.00  0.00     0.013 C 
HETATM   19  C26 UNL     1       0.480   8.570  12.981  1.00  0.00     0.020 C 
HETATM   20 NA1  UNL     1       1.791   7.037  12.498  1.00  0.00    -0.358 Na
ATOM     21  HA1 UNL     1       1.024   6.651  13.049  1.00  0.00     0.159 HD
ENDROOT
BRANCH   1  22
HETATM   22  C6  UNL     1      -1.212   6.060  12.721  1.00  0.00    -0.013 C 
HETATM   23  C7  UNL     1      -1.305   5.591  14.179  1.00  0.00     0.010 C 
BRANCH  22  24
HETATM   24  C5  UNL     1      -2.051   5.110  11.822  1.00  0.00     0.008 C 
BRANCH  24  25
HETATM   25  C4  UNL     1      -2.796   4.034  12.622  1.00  0.00     0.028 C 
BRANCH  25  26
HETATM   26  C3  UNL     1      -4.271   4.325  12.691  1.00  0.00    -0.022 C 
HETATM   27  C2  UNL     1      -5.289   3.595  12.192  1.00  0.00    -0.064 C 
HETATM   28  C1  UNL     1      -5.135   2.315  11.414  1.00  0.00     0.045 C 
BRANCH  27  29
HETATM   29  C27 UNL     1      -6.719   4.030  12.398  1.00  0.00     0.197 C 
BRANCH  29  30
HETATM   30  O9  UNL     1      -7.257   3.344  13.518  1.00  0.00    -0.397 OA
HETATM   31  H45 UNL     1      -7.146   2.395  13.331  1.00  0.00     0.209 HD
ENDBRANCH  29  30
ENDBRANCH  27  29
ENDBRANCH  25  26
ENDBRANCH  24  25
ENDBRANCH  22  24
ENDBRANCH   1  22
BRANCH   3  32
HETATM   32  O1  UNL     1       2.227   7.109   9.291  1.00  0.00    -0.246 OA
BRANCH  32  33
HETATM   33  S1  UNL     1       1.949   8.077   8.004  1.00  0.00     0.252 S 
HETATM   34  O2  UNL     1       0.815   8.900   8.438  1.00  0.00    -0.572 OA
HETATM   35  O3  UNL     1       3.200   8.813   7.870  1.00  0.00    -0.572 OA
HETATM   36  O4  UNL     1       1.650   7.136   6.933  1.00  0.00    -0.572 OA
ENDBRANCH  32  33
ENDBRANCH   3  32
BRANCH   4  37
HETATM   37  O5  UNL     1       2.942   5.870  11.666  1.00  0.00    -0.368 OA
HETATM   38  H17 UNL     1       3.197   5.744  10.728  1.00  0.00     0.212 HD
ENDBRANCH   4  37
BRANCH   5  39
HETATM   39  O6  UNL     1       3.106   9.534  11.849  1.00  0.00    -0.370 OA
HETATM   40  H18 UNL     1       2.971   9.693  10.877  1.00  0.00     0.212 HD
ENDBRANCH   5  39
BRANCH   7  41
HETATM   41  O7  UNL     1       6.969   8.676  10.418  1.00  0.00    -0.395 OA
HETATM   42  H22 UNL     1       6.579   8.784   9.528  1.00  0.00     0.210 HD
ENDBRANCH   7  41
BRANCH  10  43
HETATM   43  O8  UNL     1       8.328  10.513  15.245  1.00  0.00    -0.396 OA
HETATM   44  H27 UNL     1       7.423  10.795  15.456  1.00  0.00     0.210 HD
ENDBRANCH  10  43
TORSDOF 12
ENDMDL
MODEL 5
REMARK minimizedAffinity -7.78532076
REMARK CNNscore 0.303376198
REMARK CNNaffinity 4.77315664
REMARK  12 active torsions:
REMARK  status: ('A' for Active; 'I' for Inactive)
REMARK    1  A    between atoms: C2_2  and  C27_36 
REMARK    2  A    between atoms: C3_3  and  C4_4 
REMARK    3  A    between atoms: C4_4  and  C5_5 
REMARK    4  A    between atoms: C5_5  and  C6_6 
REMARK    5  A    between atoms: C6_6  and  C8_8 
REMARK    6  A    between atoms: C10_10  and  O1_11 
REMARK    7  A    between atoms: O1_11  and  S1_12 
REMARK    8  A    between atoms: C11_16  and  O5_17 
REMARK    9  A    between atoms: C12_18  and  O6_19 
REMARK   10  A    between atoms: C14_21  and  O7_22 
REMARK   11  A    between atoms: C17_25  and  O8_26 
REMARK   12  A    between atoms: C27_36  and  O9_37 
ROOT
HETATM    1  C8  UNL     1     -15.638   0.862  15.524  1.00  0.00     0.005 C 
HETATM    2  C9  UNL     1     -15.862  -0.030  16.791  1.00  0.00     0.044 C 
HETATM    3  C10 UNL     1     -16.330  -1.409  16.292  1.00  0.00     0.201 C 
HETATM    4  C11 UNL     1     -15.817  -1.451  14.845  1.00  0.00     0.162 A 
HETATM    5  C12 UNL     1     -16.259  -2.619  13.903  1.00  0.00     0.139 A 
HETATM    6  C13 UNL     1     -15.613  -3.977  14.260  1.00  0.00     0.093 C 
HETATM    7  C14 UNL     1     -16.048  -5.102  13.318  1.00  0.00     0.127 C 
HETATM    8  C15 UNL     1     -15.628  -4.781  11.876  1.00  0.00     0.025 C 
HETATM    9  C16 UNL     1     -15.953  -5.928  10.900  1.00  0.00     0.039 C 
HETATM   10  C17 UNL     1     -15.471  -5.638   9.474  1.00  0.00     0.118 C 
HETATM   11  C18 UNL     1     -14.790  -4.283   9.312  1.00  0.00     0.032 C 
HETATM   12  C19 UNL     1     -15.522  -3.107   9.977  1.00  0.00     0.012 C 
HETATM   13  C20 UNL     1     -16.182  -3.414  11.367  1.00  0.00    -0.030 C 
HETATM   14  C21 UNL     1     -17.717  -3.476  11.147  1.00  0.00     0.016 C 
HETATM   15  C22 UNL     1     -15.801  -2.294  12.424  1.00  0.00     0.050 C 
HETATM   16  C23 UNL     1     -16.171  -0.858  11.980  1.00  0.00     0.011 C 
HETATM   17  C24 UNL     1     -15.676   0.214  12.967  1.00  0.00     0.015 C 
HETATM   18  C25 UNL     1     -16.257  -0.014  14.371  1.00  0.00     0.013 C 
HETATM   19  C26 UNL     1     -17.795   0.220  14.310  1.00  0.00     0.020 C 
HETATM   20 NA1  UNL     1     -15.877  -0.557  14.451  1.00  0.00    -0.358 Na
ATOM     21  HA1 UNL     1     -15.814   0.458  14.370  1.00  0.00     0.159 HD
ENDROOT
BRANCH   1  22
HETATM   22  C6  UNL     1     -16.133   2.324  15.740  1.00  0.00    -0.013 C 
HETATM   23  C7  UNL     1     -17.591   2.374  16.215  1.00  0.00     0.010 C 
BRANCH  22  24
HETATM   24  C5  UNL     1     -15.988   3.157  14.437  1.00  0.00     0.008 C 
BRANCH  24  25
HETATM   25  C4  UNL     1     -16.203   4.659  14.662  1.00  0.00     0.028 C 
BRANCH  25  26
HETATM   26  C3  UNL     1     -14.893   5.380  14.835  1.00  0.00    -0.022 C 
HETATM   27  C2  UNL     1     -14.367   6.350  14.060  1.00  0.00    -0.064 C 
HETATM   28  C1  UNL     1     -14.999   6.894  12.806  1.00  0.00     0.045 C 
BRANCH  27  29
HETATM   29  C27 UNL     1     -13.048   6.988  14.419  1.00  0.00     0.197 C 
BRANCH  29  30
HETATM   30  O9  UNL     1     -12.035   5.994  14.419  1.00  0.00    -0.397 OA
HETATM   31  H45 UNL     1     -12.332   5.306  15.039  1.00  0.00     0.209 HD
ENDBRANCH  29  30
ENDBRANCH  27  29
ENDBRANCH  25  26
ENDBRANCH  24  25
ENDBRANCH  22  24
ENDBRANCH   1  22
BRANCH   3  32
HETATM   32  O1  UNL     1     -15.790  -2.451  17.076  1.00  0.00    -0.246 OA
BRANCH  32  33
HETATM   33  S1  UNL     1     -16.783  -3.128  18.183  1.00  0.00     0.252 S 
HETATM   34  O2  UNL     1     -16.403  -4.544  18.157  1.00  0.00    -0.572 OA
HETATM   35  O3  UNL     1     -16.419  -2.439  19.415  1.00  0.00    -0.572 OA
HETATM   36  O4  UNL     1     -18.113  -2.840  17.665  1.00  0.00    -0.572 OA
ENDBRANCH  32  33
ENDBRANCH   3  32
BRANCH   4  37
HETATM   37  O5  UNL     1     -14.360  -1.492  14.902  1.00  0.00    -0.368 OA
HETATM   38  H17 UNL     1     -14.150  -2.100  15.641  1.00  0.00     0.212 HD
ENDBRANCH   4  37
BRANCH   5  39
HETATM   39  O6  UNL     1     -17.676  -2.778  13.989  1.00  0.00    -0.370 OA
HETATM   40  H18 UNL     1     -17.879  -3.181  14.874  1.00  0.00     0.212 HD
ENDBRANCH   5  39
BRANCH   7  41
HETATM   41  O7  UNL     1     -15.401  -6.309  13.732  1.00  0.00    -0.395 OA
HETATM   42  H22 UNL     1     -15.656  -6.448  14.666  1.00  0.00     0.210 HD
ENDBRANCH   7  41
BRANCH  10  43
HETATM   43  O8  UNL     1     -16.549  -5.756   8.546  1.00  0.00    -0.396 OA
HETATM   44  H27 UNL     1     -17.158  -5.015   8.700  1.00  0.00     0.210 HD
ENDBRANCH  10  43
TORSDOF 12
ENDMDL
MODEL 6
REMARK minimizedAffinity -9.38219547
REMARK CNNscore 0.298105985
REMARK CNNaffinity 6.27669716
REMARK  12 active torsions:
REMARK  status: ('A' for Active; 'I' for Inactive)
REMARK    1  A    between atoms: C2_2  and  C27_36 
REMARK    2  A    between atoms: C3_3  and  C4_4 
REMARK    3  A    between atoms: C4_4  and  C5_5 
REMARK    4  A    between atoms: C5_5  and  C6_6 
REMARK    5  A    between atoms: C6_6  and  C8_8 
REMARK    6  A    between atoms: C10_10  and  O1_11 
REMARK    7  A    between atoms: O1_11  and  S1_12 
REMARK    8  A    between atoms: C11_16  and  O5_17 
REMARK    9  A    between atoms: C12_18  and  O6_19 
REMARK   10  A    between atoms: C14_21  and  O7_22 
REMARK   11  A    between atoms: C17_25  and  O8_26 
REMARK   12  A    between atoms: C27_36  and  O9_37 
ROOT
HETATM    1  C8  UNL     1      -5.360   6.246  14.516  1.00  0.00     0.005 C 
HETATM    2  C9  UNL     1      -4.179   5.386  13.951  1.00  0.00     0.044 C 
HETATM    3  C10 UNL     1      -2.920   6.272  13.988  1.00  0.00     0.201 C 
HETATM    4  C11 UNL     1      -3.264   7.323  15.053  1.00  0.00     0.162 A 
HETATM    5  C12 UNL     1      -2.315   8.550  15.259  1.00  0.00     0.139 A 
HETATM    6  C13 UNL     1      -0.972   8.186  15.931  1.00  0.00     0.093 C 
HETATM    7  C14 UNL     1      -0.067   9.403  16.136  1.00  0.00     0.127 C 
HETATM    8  C15 UNL     1      -0.752  10.429  17.051  1.00  0.00     0.025 C 
HETATM    9  C16 UNL     1       0.158  11.630  17.372  1.00  0.00     0.039 C 
HETATM   10  C17 UNL     1      -0.499  12.620  18.342  1.00  0.00     0.118 C 
HETATM   11  C18 UNL     1      -1.908  12.224  18.773  1.00  0.00     0.032 C 
HETATM   12  C19 UNL     1      -2.827  11.760  17.632  1.00  0.00     0.012 C 
HETATM   13  C20 UNL     1      -2.148  10.885  16.523  1.00  0.00    -0.030 C 
HETATM   14  C21 UNL     1      -2.007  11.770  15.256  1.00  0.00     0.016 C 
HETATM   15  C22 UNL     1      -3.017   9.591  16.222  1.00  0.00     0.050 C 
HETATM   16  C23 UNL     1      -4.480   9.896  15.819  1.00  0.00     0.011 C 
HETATM   17  C24 UNL     1      -5.328   8.623  15.659  1.00  0.00     0.015 C 
HETATM   18  C25 UNL     1      -4.729   7.686  14.599  1.00  0.00     0.013 C 
HETATM   19  C26 UNL     1      -4.838   8.382  13.211  1.00  0.00     0.020 C 
HETATM   20 NA1  UNL     1      -4.216   7.541  15.003  1.00  0.00    -0.358 Na
ATOM     21  HA1 UNL     1      -5.223   7.408  14.910  1.00  0.00     0.159 HD
ENDROOT
BRANCH   1  22
HETATM   22  C6  UNL     1      -6.681   6.021  13.722  1.00  0.00    -0.013 C 
HETATM   23  C7  UNL     1      -7.851   6.819  14.313  1.00  0.00     0.010 C 
BRANCH  22  24
HETATM   24  C5  UNL     1      -7.056   4.514  13.684  1.00  0.00     0.008 C 
BRANCH  24  25
HETATM   25  C4  UNL     1      -6.889   3.892  12.292  1.00  0.00     0.028 C 
BRANCH  25  26
HETATM   26  C3  UNL     1      -5.455   3.521  12.025  1.00  0.00    -0.022 C 
HETATM   27  C2  UNL     1      -4.968   2.351  11.564  1.00  0.00    -0.064 C 
HETATM   28  C1  UNL     1      -5.797   1.135  11.247  1.00  0.00     0.045 C 
BRANCH  27  29
HETATM   29  C27 UNL     1      -3.489   2.179  11.318  1.00  0.00     0.197 C 
BRANCH  29  30
HETATM   30  O9  UNL     1      -3.174   0.795  11.332  1.00  0.00    -0.397 OA
HETATM   31  H45 UNL     1      -3.482   0.458  12.191  1.00  0.00     0.209 HD
ENDBRANCH  29  30
ENDBRANCH  27  29
ENDBRANCH  25  26
ENDBRANCH  24  25
ENDBRANCH  22  24
ENDBRANCH   1  22
BRANCH   3  32
HETATM   32  O1  UNL     1      -1.774   5.524  14.332  1.00  0.00    -0.246 OA
BRANCH  32  33
HETATM   33  S1  UNL     1      -0.549   5.518  13.250  1.00  0.00     0.252 S 
HETATM   34  O2  UNL     1      -0.724   4.242  12.548  1.00  0.00    -0.572 OA
HETATM   35  O3  UNL     1      -0.828   6.690  12.431  1.00  0.00    -0.572 OA
HETATM   36  O4  UNL     1       0.640   5.599  14.088  1.00  0.00    -0.572 OA
ENDBRANCH  32  33
ENDBRANCH   3  32
BRANCH   4  37
HETATM   37  O5  UNL     1      -3.335   6.635  16.336  1.00  0.00    -0.368 OA
HETATM   38  H17 UNL     1      -2.591   5.996  16.327  1.00  0.00     0.212 HD
ENDBRANCH   4  37
BRANCH   5  39
HETATM   39  O6  UNL     1      -2.020   9.132  13.988  1.00  0.00    -0.370 OA
HETATM   40  H18 UNL     1      -1.405   8.514  13.512  1.00  0.00     0.212 HD
ENDBRANCH   5  39
BRANCH   7  41
HETATM   41  O7  UNL     1       1.143   8.961  16.758  1.00  0.00    -0.395 OA
HETATM   42  H22 UNL     1       1.519   8.277  16.168  1.00  0.00     0.210 HD
ENDBRANCH   7  41
BRANCH  10  43
HETATM   43  O8  UNL     1      -0.510  13.934  17.785  1.00  0.00    -0.396 OA
HETATM   44  H27 UNL     1      -1.139  13.940  17.046  1.00  0.00     0.210 HD
ENDBRANCH  10  43
TORSDOF 12
ENDMDL
MODEL 7
REMARK minimizedAffinity -8.20168877
REMARK CNNscore 0.297586083
REMARK CNNaffinity 5.81972265
REMARK  12 active torsions:
REMARK  status: ('A' for Active; 'I' for Inactive)
REMARK    1  A    between atoms: C2_2  and  C27_36 
REMARK    2  A    between atoms: C3_3  and  C4_4 
REMARK    3  A    between atoms: C4_4  and  C5_5 
REMARK    4  A    between atoms: C5_5  and  C6_6 
REMARK    5  A    between atoms: C6_6  and  C8_8 
REMARK    6  A    between atoms: C10_10  and  O1_11 
REMARK    7  A    between atoms: O1_11  and  S1_12 
REMARK    8  A    between atoms: C11_16  and  O5_17 
REMARK    9  A    between atoms: C12_18  and  O6_19 
REMARK   10  A    between atoms: C14_21  and  O7_22 
REMARK   11  A    between atoms: C17_25  and  O8_26 
REMARK   12  A    between atoms: C27_36  and  O9_37 
ROOT
HETATM    1  C8  UNL     1      -9.091  -8.489   7.502  1.00  0.00     0.005 C 
HETATM    2  C9  UNL     1      -8.431  -8.752   8.898  1.00  0.00     0.044 C 
HETATM    3  C10 UNL     1      -7.191  -9.630   8.649  1.00  0.00     0.201 C 
HETATM    4  C11 UNL     1      -6.860  -9.359   7.174  1.00  0.00     0.162 A 
HETATM    5  C12 UNL     1      -5.769 -10.221   6.457  1.00  0.00     0.139 A 
HETATM    6  C13 UNL     1      -4.329  -9.907   6.924  1.00  0.00     0.093 C 
HETATM    7  C14 UNL     1      -3.278 -10.750   6.200  1.00  0.00     0.127 C 
HETATM    8  C15 UNL     1      -3.320 -10.474   4.690  1.00  0.00     0.025 C 
HETATM    9  C16 UNL     1      -2.213 -11.223   3.925  1.00  0.00     0.039 C 
HETATM   10  C17 UNL     1      -2.210 -10.893   2.427  1.00  0.00     0.118 C 
HETATM   11  C18 UNL     1      -3.300  -9.913   2.005  1.00  0.00     0.032 C 
HETATM   12  C19 UNL     1      -4.694 -10.211   2.579  1.00  0.00     0.012 C 
HETATM   13  C20 UNL     1      -4.727 -10.720   4.062  1.00  0.00    -0.030 C 
HETATM   14  C21 UNL     1      -5.068 -12.233   4.024  1.00  0.00     0.016 C 
HETATM   15  C22 UNL     1      -5.801  -9.913   4.906  1.00  0.00     0.050 C 
HETATM   16  C23 UNL     1      -7.229  -9.956   4.311  1.00  0.00     0.011 C 
HETATM   17  C24 UNL     1      -8.219  -9.062   5.080  1.00  0.00     0.015 C 
HETATM   18  C25 UNL     1      -8.307  -9.474   6.557  1.00  0.00     0.013 C 
HETATM   19  C26 UNL     1      -8.948 -10.890   6.635  1.00  0.00     0.020 C 
HETATM   20 NA1  UNL     1      -7.690  -9.241   6.669  1.00  0.00    -0.358 Na
ATOM     21  HA1 UNL     1      -8.635  -8.929   6.442  1.00  0.00     0.159 HD
ENDROOT
BRANCH   1  22
HETATM   22  C6  UNL     1     -10.647  -8.550   7.568  1.00  0.00    -0.013 C 
HETATM   23  C7  UNL     1     -11.144  -9.806   8.296  1.00  0.00     0.010 C 
BRANCH  22  24
HETATM   24  C5  UNL     1     -11.265  -8.505   6.143  1.00  0.00     0.008 C 
BRANCH  24  25
HETATM   25  C4  UNL     1     -12.112  -7.249   5.899  1.00  0.00     0.028 C 
BRANCH  25  26
HETATM   26  C3  UNL     1     -11.995  -6.778   4.474  1.00  0.00    -0.022 C 
HETATM   27  C2  UNL     1     -12.298  -5.565   3.970  1.00  0.00    -0.064 C 
HETATM   28  C1  UNL     1     -12.864  -4.416   4.762  1.00  0.00     0.045 C 
BRANCH  27  29
HETATM   29  C27 UNL     1     -12.073  -5.262   2.509  1.00  0.00     0.197 C 
BRANCH  29  30
HETATM   30  O9  UNL     1     -12.457  -3.921   2.248  1.00  0.00    -0.397 OA
HETATM   31  H45 UNL     1     -13.383  -3.845   2.537  1.00  0.00     0.209 HD
ENDBRANCH  29  30
ENDBRANCH  27  29
ENDBRANCH  25  26
ENDBRANCH  24  25
ENDBRANCH  22  24
ENDBRANCH   1  22
BRANCH   3  32
HETATM   32  O1  UNL     1      -6.127  -9.273   9.504  1.00  0.00    -0.246 OA
BRANCH  32  33
HETATM   33  S1  UNL     1      -5.907 -10.201  10.831  1.00  0.00     0.252 S 
HETATM   34  O2  UNL     1      -6.532 -11.474  10.460  1.00  0.00    -0.572 OA
HETATM   35  O3  UNL     1      -4.456 -10.264  10.950  1.00  0.00    -0.572 OA
HETATM   36  O4  UNL     1      -6.597  -9.460  11.879  1.00  0.00    -0.572 OA
ENDBRANCH  32  33
ENDBRANCH   3  32
BRANCH   4  37
HETATM   37  O5  UNL     1      -6.425  -7.971   7.073  1.00  0.00    -0.368 OA
HETATM   38  H17 UNL     1      -5.862  -7.822   7.862  1.00  0.00     0.212 HD
ENDBRANCH   4  37
BRANCH   5  39
HETATM   39  O6  UNL     1      -6.017 -11.603   6.720  1.00  0.00    -0.370 OA
HETATM   40  H18 UNL     1      -5.779 -11.774   7.669  1.00  0.00     0.212 HD
ENDBRANCH   5  39
BRANCH   7  41
HETATM   41  O7  UNL     1      -1.989 -10.387   6.703  1.00  0.00    -0.395 OA
HETATM   42  H22 UNL     1      -2.022 -10.532   7.670  1.00  0.00     0.210 HD
ENDBRANCH   7  41
BRANCH  10  43
HETATM   43  O8  UNL     1      -2.300 -12.087   1.650  1.00  0.00    -0.396 OA
HETATM   44  H27 UNL     1      -3.191 -12.453   1.767  1.00  0.00     0.210 HD
ENDBRANCH  10  43
TORSDOF 12
ENDMDL
MODEL 8
REMARK minimizedAffinity -8.52077484
REMARK CNNscore 0.273140728
REMARK CNNaffinity 6.08142042
REMARK  12 active torsions:
REMARK  status: ('A' for Active; 'I' for Inactive)
REMARK    1  A    between atoms: C2_2  and  C27_36 
REMARK    2  A    between atoms: C3_3  and  C4_4 
REMARK    3  A    between atoms: C4_4  and  C5_5 
REMARK    4  A    between atoms: C5_5  and  C6_6 
REMARK    5  A    between atoms: C6_6  and  C8_8 
REMARK    6  A    between atoms: C10_10  and  O1_11 
REMARK    7  A    between atoms: O1_11  and  S1_12 
REMARK    8  A    between atoms: C11_16  and  O5_17 
REMARK    9  A    between atoms: C12_18  and  O6_19 
REMARK   10  A    between atoms: C14_21  and  O7_22 
REMARK   11  A    between atoms: C17_25  and  O8_26 
REMARK   12  A    between atoms: C27_36  and  O9_37 
ROOT
HETATM    1  C8  UNL     1      -3.335   6.915  14.737  1.00  0.00     0.005 C 
HETATM    2  C9  UNL     1      -1.807   6.571  14.785  1.00  0.00     0.044 C 
HETATM    3  C10 UNL     1      -1.076   7.842  15.252  1.00  0.00     0.201 C 
HETATM    4  C11 UNL     1      -2.173   8.629  15.984  1.00  0.00     0.162 A 
HETATM    5  C12 UNL     1      -1.891  10.097  16.447  1.00  0.00     0.139 A 
HETATM    6  C13 UNL     1      -0.912  10.190  17.639  1.00  0.00     0.093 C 
HETATM    7  C14 UNL     1      -0.663  11.633  18.084  1.00  0.00     0.127 C 
HETATM    8  C15 UNL     1      -1.976  12.284  18.542  1.00  0.00     0.025 C 
HETATM    9  C16 UNL     1      -1.765  13.706  19.096  1.00  0.00     0.039 C 
HETATM   10  C17 UNL     1      -3.064  14.331  19.618  1.00  0.00     0.118 C 
HETATM   11  C18 UNL     1      -4.288  13.432  19.469  1.00  0.00     0.032 C 
HETATM   12  C19 UNL     1      -4.427  12.748  18.101  1.00  0.00     0.012 C 
HETATM   13  C20 UNL     1      -3.090  12.248  17.450  1.00  0.00    -0.030 C 
HETATM   14  C21 UNL     1      -2.759  13.208  16.276  1.00  0.00     0.016 C 
HETATM   15  C22 UNL     1      -3.244  10.753  16.940  1.00  0.00     0.050 C 
HETATM   16  C23 UNL     1      -4.413  10.544  15.948  1.00  0.00     0.011 C 
HETATM   17  C24 UNL     1      -4.614   9.065  15.572  1.00  0.00     0.015 C 
HETATM   18  C25 UNL     1      -3.344   8.476  14.940  1.00  0.00     0.013 C 
HETATM   19  C26 UNL     1      -3.105   9.178  13.571  1.00  0.00     0.020 C 
HETATM   20 NA1  UNL     1      -3.029   8.496  15.529  1.00  0.00    -0.358 Na
ATOM     21  HA1 UNL     1      -3.791   8.020  15.045  1.00  0.00     0.159 HD
ENDROOT
BRANCH   1  22
HETATM   22  C6  UNL     1      -4.039   6.288  13.497  1.00  0.00    -0.013 C 
HETATM   23  C7  UNL     1      -5.566   6.419  13.574  1.00  0.00     0.010 C 
BRANCH  22  24
HETATM   24  C5  UNL     1      -3.660   4.789  13.343  1.00  0.00     0.008 C 
BRANCH  24  25
HETATM   25  C4  UNL     1      -3.518   4.357  11.878  1.00  0.00     0.028 C 
BRANCH  25  26
HETATM   26  C3  UNL     1      -4.111   2.992  11.649  1.00  0.00    -0.022 C 
HETATM   27  C2  UNL     1      -5.414   2.651  11.574  1.00  0.00    -0.064 C 
HETATM   28  C1  UNL     1      -6.568   3.603  11.740  1.00  0.00     0.045 C 
BRANCH  27  29
HETATM   29  C27 UNL     1      -5.819   1.225  11.295  1.00  0.00     0.197 C 
BRANCH  29  30
HETATM   30  O9  UNL     1      -6.988   0.920  12.040  1.00  0.00    -0.397 OA
HETATM   31  H45 UNL     1      -6.770   1.103  12.971  1.00  0.00     0.209 HD
ENDBRANCH  29  30
ENDBRANCH  27  29
ENDBRANCH  25  26
ENDBRANCH  24  25
ENDBRANCH  22  24
ENDBRANCH   1  22
BRANCH   3  32
HETATM   32  O1  UNL     1       0.008   7.530  16.101  1.00  0.00    -0.246 OA
BRANCH  32  33
HETATM   33  S1  UNL     1       1.488   8.022  15.614  1.00  0.00     0.252 S 
HETATM   34  O2  UNL     1       1.907   6.965  14.688  1.00  0.00    -0.572 OA
HETATM   35  O3  UNL     1       1.214   9.301  14.971  1.00  0.00    -0.572 OA
HETATM   36  O4  UNL     1       2.247   8.087  16.856  1.00  0.00    -0.572 OA
ENDBRANCH  32  33
ENDBRANCH   3  32
BRANCH   4  37
HETATM   37  O5  UNL     1      -2.522   7.876  17.183  1.00  0.00    -0.368 OA
HETATM   38  H17 UNL     1      -1.669   7.546  17.536  1.00  0.00     0.212 HD
ENDBRANCH   4  37
BRANCH   5  39
HETATM   39  O6  UNL     1      -1.322  10.828  15.360  1.00  0.00    -0.370 OA
HETATM   40  H18 UNL     1      -0.391  10.503  15.236  1.00  0.00     0.212 HD
ENDBRANCH   5  39
BRANCH   7  41
HETATM   41  O7  UNL     1       0.252  11.611  19.184  1.00  0.00    -0.395 OA
HETATM   42  H22 UNL     1       1.051  11.146  18.864  1.00  0.00     0.210 HD
ENDBRANCH   7  41
BRANCH  10  43
HETATM   43  O8  UNL     1      -3.304  15.589  18.988  1.00  0.00    -0.396 OA
HETATM   44  H27 UNL     1      -3.530  15.420  18.059  1.00  0.00     0.210 HD
ENDBRANCH  10  43
TORSDOF 12
ENDMDL
MODEL 9
REMARK minimizedAffinity -7.47202587
REMARK CNNscore 0.24522227
REMARK CNNaffinity 5.97505808
REMARK  12 active torsions:
REMARK  status: ('A' for Active; 'I' for Inactive)
REMARK    1  A    between atoms: C2_2  and  C27_36 
REMARK    2  A    between atoms: C3_3  and  C4_4 
REMARK    3  A    between atoms: C4_4  and  C5_5 
REMARK    4  A    between atoms: C5_5  and  C6_6 
REMARK    5  A    between atoms: C6_6  and  C8_8 
REMARK    6  A    between atoms: C10_10  and  O1_11 
REMARK    7  A    between atoms: O1_11  and  S1_12 
REMARK    8  A    between atoms: C11_16  and  O5_17 
REMARK    9  A    between atoms: C12_18  and  O6_19 
REMARK   10  A    between atoms: C14_21  and  O7_22 
REMARK   11  A    between atoms: C17_25  and  O8_26 
REMARK   12  A    between atoms: C27_36  and  O9_37 
ROOT
HETATM    1  C8  UNL     1     -10.407   7.676  15.293  1.00  0.00     0.005 C 
HETATM    2  C9  UNL     1     -10.236   9.219  15.504  1.00  0.00     0.044 C 
HETATM    3  C10 UNL     1     -11.472   9.896  14.884  1.00  0.00     0.201 C 
HETATM    4  C11 UNL     1     -12.520   8.774  14.879  1.00  0.00     0.162 A 
HETATM    5  C12 UNL     1     -13.880   8.992  14.136  1.00  0.00     0.139 A 
HETATM    6  C13 UNL     1     -14.823   9.985  14.854  1.00  0.00     0.093 C 
HETATM    7  C14 UNL     1     -16.151  10.172  14.118  1.00  0.00     0.127 C 
HETATM    8  C15 UNL     1     -16.904   8.837  14.030  1.00  0.00     0.025 C 
HETATM    9  C16 UNL     1     -18.296   8.988  13.386  1.00  0.00     0.039 C 
HETATM   10  C17 UNL     1     -19.077   7.669  13.361  1.00  0.00     0.118 C 
HETATM   11  C18 UNL     1     -18.318   6.487  13.958  1.00  0.00     0.032 C 
HETATM   12  C19 UNL     1     -16.857   6.359  13.502  1.00  0.00     0.012 C 
HETATM   13  C20 UNL     1     -16.071   7.708  13.347  1.00  0.00    -0.030 C 
HETATM   14  C21 UNL     1     -15.903   7.974  11.828  1.00  0.00     0.016 C 
HETATM   15  C22 UNL     1     -14.661   7.618  14.071  1.00  0.00     0.050 C 
HETATM   16  C23 UNL     1     -13.778   6.444  13.584  1.00  0.00     0.011 C 
HETATM   17  C24 UNL     1     -12.475   6.309  14.391  1.00  0.00     0.015 C 
HETATM   18  C25 UNL     1     -11.638   7.595  14.315  1.00  0.00     0.013 C 
HETATM   19  C26 UNL     1     -11.150   7.778  12.849  1.00  0.00     0.020 C 
HETATM   20 NA1  UNL     1     -12.083   7.918  14.697  1.00  0.00    -0.358 Na
ATOM     21  HA1 UNL     1     -11.388   7.173  14.736  1.00  0.00     0.159 HD
ENDROOT
BRANCH   1  22
HETATM   22  C6  UNL     1      -9.065   6.983  14.912  1.00  0.00    -0.013 C 
HETATM   23  C7  UNL     1      -7.885   7.963  14.930  1.00  0.00     0.010 C 
BRANCH  22  24
HETATM   24  C5  UNL     1      -9.162   6.321  13.509  1.00  0.00     0.008 C 
BRANCH  24  25
HETATM   25  C4  UNL     1      -7.803   5.845  12.979  1.00  0.00     0.028 C 
BRANCH  25  26
HETATM   26  C3  UNL     1      -7.776   4.350  12.804  1.00  0.00    -0.022 C 
HETATM   27  C2  UNL     1      -6.719   3.563  12.522  1.00  0.00    -0.064 C 
HETATM   28  C1  UNL     1      -5.314   4.053  12.287  1.00  0.00     0.045 C 
BRANCH  27  29
HETATM   29  C27 UNL     1      -6.880   2.066  12.425  1.00  0.00     0.197 C 
BRANCH  29  30
HETATM   30  O9  UNL     1      -8.254   1.737  12.560  1.00  0.00    -0.397 OA
HETATM   31  H45 UNL     1      -8.541   2.121  13.407  1.00  0.00     0.209 HD
ENDBRANCH  29  30
ENDBRANCH  27  29
ENDBRANCH  25  26
ENDBRANCH  24  25
ENDBRANCH  22  24
ENDBRANCH   1  22
BRANCH   3  32
HETATM   32  O1  UNL     1     -11.888  11.006  15.649  1.00  0.00    -0.246 OA
BRANCH  32  33
HETATM   33  S1  UNL     1     -11.806  12.469  14.925  1.00  0.00     0.252 S 
HETATM   34  O2  UNL     1     -12.672  12.315  13.752  1.00  0.00    -0.572 OA
HETATM   35  O3  UNL     1     -12.337  13.369  15.941  1.00  0.00    -0.572 OA
HETATM   36  O4  UNL     1     -10.388  12.618  14.626  1.00  0.00    -0.572 OA
ENDBRANCH  32  33
ENDBRANCH   3  32
BRANCH   4  37
HETATM   37  O5  UNL     1     -12.850   8.480  16.269  1.00  0.00    -0.368 OA
HETATM   38  H17 UNL     1     -12.893   9.354  16.712  1.00  0.00     0.212 HD
ENDBRANCH   4  37
BRANCH   5  39
HETATM   39  O6  UNL     1     -13.621   9.509  12.830  1.00  0.00    -0.370 OA
HETATM   40  H18 UNL     1     -13.326  10.452  12.934  1.00  0.00     0.212 HD
ENDBRANCH   5  39
BRANCH   7  41
HETATM   41  O7  UNL     1     -16.945  11.105  14.858  1.00  0.00    -0.395 OA
HETATM   42  H22 UNL     1     -16.410  11.920  14.932  1.00  0.00     0.210 HD
ENDBRANCH   7  41
BRANCH  10  43
HETATM   43  O8  UNL     1     -19.495   7.359  12.032  1.00  0.00    -0.396 OA
HETATM   44  H27 UNL     1     -18.705   7.127  11.517  1.00  0.00     0.210 HD
ENDBRANCH  10  43
TORSDOF 12
ENDMDL
