MODEL 1
REMARK minimizedAffinity -10.1411743
REMARK CNNscore 0.473570734
REMARK CNNaffinity 7.03820038
REMARK  11 active torsions:
REMARK  status: ('A' for Active; 'I' for Inactive)
REMARK    1  A    between atoms: O1_2  and  C2_3 
REMARK    2  A    between atoms: C16_18  and  C17_19 
REMARK    3  A    between atoms: C17_19  and  C19_21 
REMARK    4  A    between atoms: C23_25  and  C24_26 
REMARK    5  A    between atoms: C24_26  and  O3_27 
REMARK    6  A    between atoms: O3_27  and  C25_28 
REMARK    7  A    between atoms: C26_30  and  C27_31 
REMARK    8  A    between atoms: C27_31  and  O5_32 
REMARK    9  A    between atoms: C28_33  and  O6_34 
REMARK   10  A    between atoms: C29_35  and  O7_36 
REMARK   11  A    between atoms: C30_37  and  O8_38 
ROOT
HETATM    1  C19 UNL     1      -4.650  48.405 -25.860  1.00  0.00     0.140 C 
HETATM    2  C20 UNL     1      -4.725  48.545 -27.385  1.00  0.00     0.067 C 
HETATM    3  C21 UNL     1      -5.792  47.668 -27.981  1.00  0.00    -0.067 C 
HETATM    4  C22 UNL     1      -5.629  47.398 -29.453  1.00  0.00     0.044 C 
HETATM    5  C23 UNL     1      -6.828  47.242 -27.227  1.00  0.00     0.043 C 
HETATM    6  C31 UNL     1      -6.950  47.666 -25.808  1.00  0.00     0.292 C 
HETATM    7  O9  UNL     1      -7.906  47.336 -25.119  1.00  0.00    -0.260 OA
HETATM    8  O10 UNL     1      -5.986  48.489 -25.331  1.00  0.00    -0.311 OA
ENDROOT
BRANCH   1   9
HETATM    9  C17 UNL     1      -3.803  49.524 -25.183  1.00  0.00     0.016 C 
HETATM   10  C18 UNL     1      -2.288  49.275 -25.362  1.00  0.00     0.013 C 
BRANCH   9  11
HETATM   11  C16 UNL     1      -4.055  49.817 -23.671  1.00  0.00     0.000 C 
HETATM   12  C14 UNL     1      -4.158  51.250 -23.073  1.00  0.00    -0.036 C 
HETATM   13  C13 UNL     1      -2.899  52.113 -23.219  1.00  0.00     0.010 C 
HETATM   14  C15 UNL     1      -5.344  52.083 -23.627  1.00  0.00     0.016 C 
HETATM   15  C34 UNL     1      -4.459  50.889 -21.585  1.00  0.00     0.001 C 
HETATM   16  C12 UNL     1      -1.709  51.638 -22.406  1.00  0.00     0.007 C 
HETATM   17  C11 UNL     1      -2.032  51.514 -20.905  1.00  0.00     0.008 C 
HETATM   18  C9  UNL     1      -0.740  51.185 -20.040  1.00  0.00     0.025 C 
HETATM   19  C35 UNL     1      -3.233  50.531 -20.665  1.00  0.00     0.024 C 
HETATM   20  C4  UNL     1      -1.178  50.327 -18.828  1.00  0.00     0.004 C 
HETATM   21  C8  UNL     1      -0.117  52.493 -19.500  1.00  0.00     0.136 C 
HETATM   22  C10 UNL     1       0.386  50.491 -20.849  1.00  0.00     0.024 C 
HETATM   23  C3  UNL     1      -1.761  48.981 -19.291  1.00  0.00     0.038 C 
HETATM   24  C5  UNL     1      -0.083  50.130 -17.769  1.00  0.00     0.006 C 
HETATM   25  C2  UNL     1      -2.678  49.086 -20.538  1.00  0.00     0.126 C 
HETATM   26  C6  UNL     1       0.412  51.482 -17.259  1.00  0.00     0.008 C 
HETATM   27  C7  UNL     1       0.909  52.369 -18.388  1.00  0.00     0.079 C 
HETATM   28  O2  UNL     1      -0.345  53.595 -20.005  1.00  0.00    -0.297 OA
HETATM   29  C33 UNL     1      -5.553  49.818 -21.726  1.00  0.00     0.006 C 
HETATM   30  C32 UNL     1      -5.244  49.067 -23.030  1.00  0.00     0.006 C 
BRANCH  25  31
HETATM   31  O1  UNL     1      -3.713  48.114 -20.398  1.00  0.00    -0.390 OA
HETATM   32  C1  UNL     1      -3.268  46.774 -20.584  1.00  0.00     0.202 C 
ENDBRANCH  25  31
ENDBRANCH   9  11
ENDBRANCH   1   9
BRANCH   5  33
HETATM   33  C24 UNL     1      -7.982  46.423 -27.735  1.00  0.00     0.216 C 
BRANCH  33  34
HETATM   34  O3  UNL     1      -9.134  47.264 -27.768  1.00  0.00    -0.354 OA
BRANCH  34  35
HETATM   35  C25 UNL     1     -10.254  46.706 -27.079  1.00  0.00     0.291 C 
HETATM   36  O4  UNL     1     -10.912  45.725 -27.877  1.00  0.00    -0.348 OA
HETATM   37  C26 UNL     1     -11.557  46.213 -29.070  1.00  0.00     0.179 C 
HETATM   38  C28 UNL     1     -11.826  47.738 -29.090  1.00  0.00     0.180 C 
HETATM   39  C29 UNL     1     -12.273  48.185 -27.696  1.00  0.00     0.183 C 
HETATM   40  C30 UNL     1     -11.212  47.839 -26.630  1.00  0.00     0.204 C 
BRANCH  37  41
HETATM   41  C27 UNL     1     -10.825  45.705 -30.324  1.00  0.00     0.198 C 
BRANCH  41  42
HETATM   42  O5  UNL     1     -11.673  45.692 -31.470  1.00  0.00    -0.398 OA
HETATM   43  H42 UNL     1     -11.206  45.198 -32.165  1.00  0.00     0.209 HD
ENDBRANCH  41  42
ENDBRANCH  37  41
BRANCH  38  44
HETATM   44  O6  UNL     1     -10.706  48.526 -29.505  1.00  0.00    -0.390 OA
HETATM   45  H44 UNL     1      -9.939  47.912 -29.622  1.00  0.00     0.210 HD
ENDBRANCH  38  44
BRANCH  39  46
HETATM   46  O7  UNL     1     -13.539  47.576 -27.383  1.00  0.00    -0.390 OA
HETATM   47  H46 UNL     1     -13.376  46.688 -27.016  1.00  0.00     0.210 HD
ENDBRANCH  39  46
BRANCH  40  48
HETATM   48  O8  UNL     1     -10.452  49.005 -26.275  1.00  0.00    -0.388 OA
HETATM   49  H48 UNL     1      -9.813  49.119 -27.011  1.00  0.00     0.210 HD
ENDBRANCH  40  48
ENDBRANCH  34  35
ENDBRANCH  33  34
ENDBRANCH   5  33
TORSDOF 11
ENDMDL
MODEL 2
REMARK minimizedAffinity -9.96743202
REMARK CNNscore 0.426400274
REMARK CNNaffinity 6.60482931
REMARK  11 active torsions:
REMARK  status: ('A' for Active; 'I' for Inactive)
REMARK    1  A    between atoms: O1_2  and  C2_3 
REMARK    2  A    between atoms: C16_18  and  C17_19 
REMARK    3  A    between atoms: C17_19  and  C19_21 
REMARK    4  A    between atoms: C23_25  and  C24_26 
REMARK    5  A    between atoms: C24_26  and  O3_27 
REMARK    6  A    between atoms: O3_27  and  C25_28 
REMARK    7  A    between atoms: C26_30  and  C27_31 
REMARK    8  A    between atoms: C27_31  and  O5_32 
REMARK    9  A    between atoms: C28_33  and  O6_34 
REMARK   10  A    between atoms: C29_35  and  O7_36 
REMARK   11  A    between atoms: C30_37  and  O8_38 
ROOT
HETATM    1  C19 UNL     1      -4.814  49.635 -23.065  1.00  0.00     0.140 C 
HETATM    2  C20 UNL     1      -4.149  49.551 -24.445  1.00  0.00     0.067 C 
HETATM    3  C21 UNL     1      -4.907  48.654 -25.384  1.00  0.00    -0.067 C 
HETATM    4  C22 UNL     1      -4.107  48.160 -26.559  1.00  0.00     0.044 C 
HETATM    5  C23 UNL     1      -6.218  48.400 -25.180  1.00  0.00     0.043 C 
HETATM    6  C31 UNL     1      -6.939  49.035 -24.047  1.00  0.00     0.292 C 
HETATM    7  O9  UNL     1      -8.138  48.860 -23.870  1.00  0.00    -0.260 OA
HETATM    8  O10 UNL     1      -6.222  49.867 -23.255  1.00  0.00    -0.311 OA
ENDROOT
BRANCH   1   9
HETATM    9  C17 UNL     1      -4.258  50.796 -22.187  1.00  0.00     0.016 C 
HETATM   10  C18 UNL     1      -4.599  52.177 -22.789  1.00  0.00     0.013 C 
BRANCH   9  11
HETATM   11  C16 UNL     1      -2.734  50.792 -21.854  1.00  0.00     0.000 C 
HETATM   12  C14 UNL     1      -1.937  49.513 -21.460  1.00  0.00    -0.036 C 
HETATM   13  C13 UNL     1      -2.407  48.818 -20.176  1.00  0.00     0.010 C 
HETATM   14  C15 UNL     1      -1.891  48.430 -22.570  1.00  0.00     0.016 C 
HETATM   15  C34 UNL     1      -0.511  50.131 -21.312  1.00  0.00     0.001 C 
HETATM   16  C12 UNL     1      -2.165  49.609 -18.904  1.00  0.00     0.007 C 
HETATM   17  C11 UNL     1      -0.685  49.996 -18.724  1.00  0.00     0.008 C 
HETATM   18  C9  UNL     1      -0.411  50.671 -17.310  1.00  0.00     0.025 C 
HETATM   19  C35 UNL     1      -0.168  50.836 -19.946  1.00  0.00     0.024 C 
HETATM   20  C4  UNL     1       0.738  51.694 -17.480  1.00  0.00     0.004 C 
HETATM   21  C8  UNL     1       0.048  49.600 -16.293  1.00  0.00     0.136 C 
HETATM   22  C10 UNL     1      -1.668  51.328 -16.685  1.00  0.00     0.024 C 
HETATM   23  C3  UNL     1       0.330  52.823 -18.442  1.00  0.00     0.038 C 
HETATM   24  C5  UNL     1       1.281  52.253 -16.157  1.00  0.00     0.006 C 
HETATM   25  C2  UNL     1      -0.465  52.337 -19.684  1.00  0.00     0.126 C 
HETATM   26  C6  UNL     1       1.766  51.117 -15.259  1.00  0.00     0.008 C 
HETATM   27  C7  UNL     1       0.675  50.091 -15.001  1.00  0.00     0.079 C 
HETATM   28  O2  UNL     1      -0.172  48.397 -16.451  1.00  0.00    -0.297 OA
HETATM   29  C33 UNL     1      -0.397  50.991 -22.580  1.00  0.00     0.006 C 
HETATM   30  C32 UNL     1      -1.818  51.489 -22.884  1.00  0.00     0.006 C 
BRANCH  25  31
HETATM   31  O1  UNL     1      -0.098  53.167 -20.784  1.00  0.00    -0.390 OA
HETATM   32  C1  UNL     1       1.041  53.984 -20.531  1.00  0.00     0.202 C 
ENDBRANCH  25  31
ENDBRANCH   9  11
ENDBRANCH   1   9
BRANCH   5  33
HETATM   33  C24 UNL     1      -7.087  47.576 -26.090  1.00  0.00     0.216 C 
BRANCH  33  34
HETATM   34  O3  UNL     1      -8.433  47.694 -25.632  1.00  0.00    -0.354 OA
BRANCH  34  35
HETATM   35  C25 UNL     1      -9.219  46.533 -25.906  1.00  0.00     0.291 C 
HETATM   36  O4  UNL     1      -9.462  46.395 -27.304  1.00  0.00    -0.348 OA
HETATM   37  C26 UNL     1     -10.283  47.415 -27.906  1.00  0.00     0.179 C 
HETATM   38  C28 UNL     1     -11.133  48.241 -26.908  1.00  0.00     0.180 C 
HETATM   39  C29 UNL     1     -11.676  47.309 -25.822  1.00  0.00     0.183 C 
HETATM   40  C30 UNL     1     -10.532  46.583 -25.084  1.00  0.00     0.204 C 
BRANCH  37  41
HETATM   41  C27 UNL     1      -9.450  48.283 -28.863  1.00  0.00     0.198 C 
BRANCH  41  42
HETATM   42  O5  UNL     1      -8.732  49.304 -28.173  1.00  0.00    -0.398 OA
HETATM   43  H42 UNL     1      -8.383  49.913 -28.846  1.00  0.00     0.209 HD
ENDBRANCH  41  42
ENDBRANCH  37  41
BRANCH  38  44
HETATM   44  O6  UNL     1     -10.428  49.324 -26.294  1.00  0.00    -0.390 OA
HETATM   45  H44 UNL     1      -9.485  49.269 -26.589  1.00  0.00     0.210 HD
ENDBRANCH  38  44
BRANCH  39  46
HETATM   46  O7  UNL     1     -12.590  46.367 -26.416  1.00  0.00    -0.390 OA
HETATM   47  H46 UNL     1     -12.077  45.616 -26.767  1.00  0.00     0.210 HD
ENDBRANCH  39  46
BRANCH  40  48
HETATM   48  O8  UNL     1     -10.284  47.196 -23.809  1.00  0.00    -0.388 OA
HETATM   49  H48 UNL     1      -9.764  48.003 -24.018  1.00  0.00     0.210 HD
ENDBRANCH  40  48
ENDBRANCH  34  35
ENDBRANCH  33  34
ENDBRANCH   5  33
TORSDOF 11
ENDMDL
MODEL 3
REMARK minimizedAffinity -9.72235012
REMARK CNNscore 0.357492447
REMARK CNNaffinity 6.88306618
REMARK  11 active torsions:
REMARK  status: ('A' for Active; 'I' for Inactive)
REMARK    1  A    between atoms: O1_2  and  C2_3 
REMARK    2  A    between atoms: C16_18  and  C17_19 
REMARK    3  A    between atoms: C17_19  and  C19_21 
REMARK    4  A    between atoms: C23_25  and  C24_26 
REMARK    5  A    between atoms: C24_26  and  O3_27 
REMARK    6  A    between atoms: O3_27  and  C25_28 
REMARK    7  A    between atoms: C26_30  and  C27_31 
REMARK    8  A    between atoms: C27_31  and  O5_32 
REMARK    9  A    between atoms: C28_33  and  O6_34 
REMARK   10  A    between atoms: C29_35  and  O7_36 
REMARK   11  A    between atoms: C30_37  and  O8_38 
ROOT
HETATM    1  C19 UNL     1      -4.595  48.416 -25.913  1.00  0.00     0.140 C 
HETATM    2  C20 UNL     1      -4.687  48.600 -27.433  1.00  0.00     0.067 C 
HETATM    3  C21 UNL     1      -5.693  47.671 -28.055  1.00  0.00    -0.067 C 
HETATM    4  C22 UNL     1      -5.520  47.461 -29.535  1.00  0.00     0.044 C 
HETATM    5  C23 UNL     1      -6.695  47.150 -27.313  1.00  0.00     0.043 C 
HETATM    6  C31 UNL     1      -6.839  47.518 -25.881  1.00  0.00     0.292 C 
HETATM    7  O9  UNL     1      -7.766  47.100 -25.200  1.00  0.00    -0.260 OA
HETATM    8  O10 UNL     1      -5.931  48.390 -25.379  1.00  0.00    -0.311 OA
ENDROOT
BRANCH   1   9
HETATM    9  C17 UNL     1      -3.824  49.568 -25.202  1.00  0.00     0.016 C 
HETATM   10  C18 UNL     1      -2.297  49.430 -25.392  1.00  0.00     0.013 C 
BRANCH   9  11
HETATM   11  C16 UNL     1      -4.090  49.794 -23.681  1.00  0.00     0.000 C 
HETATM   12  C14 UNL     1      -4.220  51.200 -23.025  1.00  0.00    -0.036 C 
HETATM   13  C13 UNL     1      -2.975  52.089 -23.128  1.00  0.00     0.010 C 
HETATM   14  C15 UNL     1      -5.417  52.036 -23.552  1.00  0.00     0.016 C 
HETATM   15  C34 UNL     1      -4.524  50.773 -21.555  1.00  0.00     0.001 C 
HETATM   16  C12 UNL     1      -1.782  51.601 -22.328  1.00  0.00     0.007 C 
HETATM   17  C11 UNL     1      -2.112  51.410 -20.835  1.00  0.00     0.008 C 
HETATM   18  C9  UNL     1      -0.819  51.066 -19.976  1.00  0.00     0.025 C 
HETATM   19  C35 UNL     1      -3.297  50.398 -20.643  1.00  0.00     0.024 C 
HETATM   20  C4  UNL     1      -1.250  50.152 -18.803  1.00  0.00     0.004 C 
HETATM   21  C8  UNL     1      -0.221  52.361 -19.378  1.00  0.00     0.136 C 
HETATM   22  C10 UNL     1       0.323  50.425 -20.805  1.00  0.00     0.024 C 
HETATM   23  C3  UNL     1      -1.807  48.816 -19.324  1.00  0.00     0.038 C 
HETATM   24  C5  UNL     1      -0.157  49.930 -17.746  1.00  0.00     0.006 C 
HETATM   25  C2  UNL     1      -2.719  48.958 -20.572  1.00  0.00     0.126 C 
HETATM   26  C6  UNL     1       0.311  51.267 -17.178  1.00  0.00     0.008 C 
HETATM   27  C7  UNL     1       0.801  52.208 -18.266  1.00  0.00     0.079 C 
HETATM   28  O2  UNL     1      -0.464  53.479 -19.839  1.00  0.00    -0.297 OA
HETATM   29  C33 UNL     1      -5.599  49.691 -21.748  1.00  0.00     0.006 C 
HETATM   30  C32 UNL     1      -5.270  48.999 -23.079  1.00  0.00     0.006 C 
BRANCH  25  31
HETATM   31  O1  UNL     1      -3.738  47.964 -20.478  1.00  0.00    -0.390 OA
HETATM   32  C1  UNL     1      -3.326  46.678 -20.931  1.00  0.00     0.202 C 
ENDBRANCH  25  31
ENDBRANCH   9  11
ENDBRANCH   1   9
BRANCH   5  33
HETATM   33  C24 UNL     1      -7.792  46.270 -27.844  1.00  0.00     0.216 C 
BRANCH  33  34
HETATM   34  O3  UNL     1      -9.001  47.026 -27.834  1.00  0.00    -0.354 OA
BRANCH  34  35
HETATM   35  C25 UNL     1      -9.371  47.505 -29.129  1.00  0.00     0.291 C 
HETATM   36  O4  UNL     1     -10.518  48.348 -29.058  1.00  0.00    -0.348 OA
HETATM   37  C26 UNL     1     -11.746  47.709 -28.655  1.00  0.00     0.179 C 
HETATM   38  C28 UNL     1     -11.753  46.166 -28.787  1.00  0.00     0.180 C 
HETATM   39  C29 UNL     1     -11.027  45.771 -30.076  1.00  0.00     0.183 C 
HETATM   40  C30 UNL     1      -9.581  46.307 -30.090  1.00  0.00     0.204 C 
BRANCH  37  41
HETATM   41  C27 UNL     1     -12.181  48.205 -27.266  1.00  0.00     0.198 C 
BRANCH  41  42
HETATM   42  O5  UNL     1     -11.166  48.979 -26.631  1.00  0.00    -0.398 OA
HETATM   43  H42 UNL     1     -11.436  49.100 -25.704  1.00  0.00     0.209 HD
ENDBRANCH  41  42
ENDBRANCH  37  41
BRANCH  38  44
HETATM   44  O6  UNL     1     -11.161  45.480 -27.680  1.00  0.00    -0.390 OA
HETATM   45  H44 UNL     1     -10.786  46.165 -27.073  1.00  0.00     0.210 HD
ENDBRANCH  38  44
BRANCH  39  46
HETATM   46  O7  UNL     1     -11.771  46.257 -31.209  1.00  0.00    -0.390 OA
HETATM   47  H46 UNL     1     -11.512  47.181 -31.379  1.00  0.00     0.210 HD
ENDBRANCH  39  46
BRANCH  40  48
HETATM   48  O8  UNL     1      -8.651  45.260 -29.771  1.00  0.00    -0.388 OA
HETATM   49  H48 UNL     1      -8.706  45.166 -28.796  1.00  0.00     0.210 HD
ENDBRANCH  40  48
ENDBRANCH  34  35
ENDBRANCH  33  34
ENDBRANCH   5  33
TORSDOF 11
ENDMDL
MODEL 4
REMARK minimizedAffinity -9.64201164
REMARK CNNscore 0.298890084
REMARK CNNaffinity 6.53141832
REMARK  11 active torsions:
REMARK  status: ('A' for Active; 'I' for Inactive)
REMARK    1  A    between atoms: O1_2  and  C2_3 
REMARK    2  A    between atoms: C16_18  and  C17_19 
REMARK    3  A    between atoms: C17_19  and  C19_21 
REMARK    4  A    between atoms: C23_25  and  C24_26 
REMARK    5  A    between atoms: C24_26  and  O3_27 
REMARK    6  A    between atoms: O3_27  and  C25_28 
REMARK    7  A    between atoms: C26_30  and  C27_31 
REMARK    8  A    between atoms: C27_31  and  O5_32 
REMARK    9  A    between atoms: C28_33  and  O6_34 
REMARK   10  A    between atoms: C29_35  and  O7_36 
REMARK   11  A    between atoms: C30_37  and  O8_38 
ROOT
HETATM    1  C19 UNL     1      -6.293  47.403 -27.542  1.00  0.00     0.140 C 
HETATM    2  C20 UNL     1      -6.562  47.842 -26.097  1.00  0.00     0.067 C 
HETATM    3  C21 UNL     1      -5.293  48.171 -25.361  1.00  0.00    -0.067 C 
HETATM    4  C22 UNL     1      -5.420  48.159 -23.861  1.00  0.00     0.044 C 
HETATM    5  C23 UNL     1      -4.176  48.512 -26.039  1.00  0.00     0.043 C 
HETATM    6  C31 UNL     1      -4.196  48.604 -27.522  1.00  0.00     0.292 C 
HETATM    7  O9  UNL     1      -3.211  48.959 -28.157  1.00  0.00    -0.260 OA
HETATM    8  O10 UNL     1      -5.374  48.338 -28.135  1.00  0.00    -0.311 OA
ENDROOT
BRANCH   1   9
HETATM    9  C17 UNL     1      -7.577  47.377 -28.424  1.00  0.00     0.016 C 
HETATM   10  C18 UNL     1      -8.623  46.382 -27.874  1.00  0.00     0.013 C 
BRANCH   9  11
HETATM   11  C16 UNL     1      -7.408  47.086 -29.948  1.00  0.00     0.000 C 
HETATM   12  C14 UNL     1      -8.341  47.673 -31.048  1.00  0.00    -0.036 C 
HETATM   13  C13 UNL     1      -9.815  47.261 -30.945  1.00  0.00     0.010 C 
HETATM   14  C15 UNL     1      -8.310  49.221 -31.146  1.00  0.00     0.016 C 
HETATM   15  C34 UNL     1      -7.649  47.082 -32.317  1.00  0.00     0.001 C 
HETATM   16  C12 UNL     1     -10.082  45.792 -31.213  1.00  0.00     0.007 C 
HETATM   17  C11 UNL     1      -9.554  45.338 -32.587  1.00  0.00     0.008 C 
HETATM   18  C9  UNL     1      -9.989  43.848 -32.932  1.00  0.00     0.025 C 
HETATM   19  C35 UNL     1      -8.012  45.603 -32.715  1.00  0.00     0.024 C 
HETATM   20  C4  UNL     1      -8.875  43.211 -33.798  1.00  0.00     0.004 C 
HETATM   21  C8  UNL     1     -11.294  43.856 -33.762  1.00  0.00     0.136 C 
HETATM   22  C10 UNL     1     -10.296  42.987 -31.681  1.00  0.00     0.024 C 
HETATM   23  C3  UNL     1      -7.554  43.121 -33.015  1.00  0.00     0.038 C 
HETATM   24  C5  UNL     1      -9.256  41.856 -34.414  1.00  0.00     0.006 C 
HETATM   25  C2  UNL     1      -7.245  44.375 -32.154  1.00  0.00     0.126 C 
HETATM   26  C6  UNL     1     -10.517  41.994 -35.263  1.00  0.00     0.008 C 
HETATM   27  C7  UNL     1     -11.678  42.568 -34.468  1.00  0.00     0.079 C 
HETATM   28  O2  UNL     1     -12.064  44.819 -33.778  1.00  0.00    -0.297 OA
HETATM   29  C33 UNL     1      -6.166  47.381 -32.045  1.00  0.00     0.006 C 
HETATM   30  C32 UNL     1      -5.990  47.299 -30.522  1.00  0.00     0.006 C 
BRANCH  25  31
HETATM   31  O1  UNL     1      -5.831  44.565 -32.158  1.00  0.00    -0.390 OA
HETATM   32  C1  UNL     1      -5.104  43.441 -32.644  1.00  0.00     0.202 C 
ENDBRANCH  25  31
ENDBRANCH   9  11
ENDBRANCH   1   9
BRANCH   5  33
HETATM   33  C24 UNL     1      -2.877  48.925 -25.405  1.00  0.00     0.216 C 
BRANCH  33  34
HETATM   34  O3  UNL     1      -2.563  50.237 -25.869  1.00  0.00    -0.354 OA
BRANCH  34  35
HETATM   35  C25 UNL     1      -1.173  50.414 -26.148  1.00  0.00     0.291 C 
HETATM   36  O4  UNL     1      -0.439  50.676 -24.954  1.00  0.00    -0.348 OA
HETATM   37  C26 UNL     1      -0.733  51.923 -24.294  1.00  0.00     0.179 C 
HETATM   38  C28 UNL     1      -1.450  52.976 -25.176  1.00  0.00     0.180 C 
HETATM   39  C29 UNL     1      -0.855  52.935 -26.586  1.00  0.00     0.183 C 
HETATM   40  C30 UNL     1      -0.989  51.529 -27.209  1.00  0.00     0.204 C 
BRANCH  37  41
HETATM   41  C27 UNL     1      -1.439  51.668 -22.952  1.00  0.00     0.198 C 
BRANCH  41  42
HETATM   42  O5  UNL     1      -0.511  51.501 -21.882  1.00  0.00    -0.398 OA
HETATM   43  H42 UNL     1      -1.013  51.170 -21.117  1.00  0.00     0.209 HD
ENDBRANCH  41  42
ENDBRANCH  37  41
BRANCH  38  44
HETATM   44  O6  UNL     1      -2.868  52.808 -25.253  1.00  0.00    -0.390 OA
HETATM   45  H44 UNL     1      -3.095  51.975 -24.771  1.00  0.00     0.210 HD
ENDBRANCH  38  44
BRANCH  39  46
HETATM   46  O7  UNL     1       0.522  53.350 -26.535  1.00  0.00    -0.390 OA
HETATM   47  H46 UNL     1       1.072  52.578 -26.310  1.00  0.00     0.210 HD
ENDBRANCH  39  46
BRANCH  40  48
HETATM   48  O8  UNL     1      -2.076  51.493 -28.146  1.00  0.00    -0.388 OA
HETATM   49  H48 UNL     1      -2.882  51.426 -27.590  1.00  0.00     0.210 HD
ENDBRANCH  40  48
ENDBRANCH  34  35
ENDBRANCH  33  34
ENDBRANCH   5  33
TORSDOF 11
ENDMDL
MODEL 5
REMARK minimizedAffinity -9.35786247
REMARK CNNscore 0.275303632
REMARK CNNaffinity 6.35615873
REMARK  11 active torsions:
REMARK  status: ('A' for Active; 'I' for Inactive)
REMARK    1  A    between atoms: O1_2  and  C2_3 
REMARK    2  A    between atoms: C16_18  and  C17_19 
REMARK    3  A    between atoms: C17_19  and  C19_21 
REMARK    4  A    between atoms: C23_25  and  C24_26 
REMARK    5  A    between atoms: C24_26  and  O3_27 
REMARK    6  A    between atoms: O3_27  and  C25_28 
REMARK    7  A    between atoms: C26_30  and  C27_31 
REMARK    8  A    between atoms: C27_31  and  O5_32 
REMARK    9  A    between atoms: C28_33  and  O6_34 
REMARK   10  A    between atoms: C29_35  and  O7_36 
REMARK   11  A    between atoms: C30_37  and  O8_38 
ROOT
HETATM    1  C19 UNL     1      -4.878  49.193 -26.049  1.00  0.00     0.140 C 
HETATM    2  C20 UNL     1      -5.701  48.038 -25.464  1.00  0.00     0.067 C 
HETATM    3  C21 UNL     1      -6.691  47.491 -26.454  1.00  0.00    -0.067 C 
HETATM    4  C22 UNL     1      -7.818  46.703 -25.842  1.00  0.00     0.044 C 
HETATM    5  C23 UNL     1      -6.500  47.663 -27.780  1.00  0.00     0.043 C 
HETATM    6  C31 UNL     1      -5.288  48.361 -28.281  1.00  0.00     0.292 C 
HETATM    7  O9  UNL     1      -5.066  48.485 -29.478  1.00  0.00    -0.260 OA
HETATM    8  O10 UNL     1      -4.406  48.799 -27.350  1.00  0.00    -0.311 OA
ENDROOT
BRANCH   1   9
HETATM    9  C17 UNL     1      -3.634  49.558 -25.185  1.00  0.00     0.016 C 
HETATM   10  C18 UNL     1      -2.583  48.426 -25.197  1.00  0.00     0.013 C 
BRANCH   9  11
HETATM   11  C16 UNL     1      -3.873  49.961 -23.696  1.00  0.00     0.000 C 
HETATM   12  C14 UNL     1      -3.923  51.435 -23.197  1.00  0.00    -0.036 C 
HETATM   13  C13 UNL     1      -2.634  52.240 -23.400  1.00  0.00     0.010 C 
HETATM   14  C15 UNL     1      -5.079  52.271 -23.807  1.00  0.00     0.016 C 
HETATM   15  C34 UNL     1      -4.235  51.187 -21.687  1.00  0.00     0.001 C 
HETATM   16  C12 UNL     1      -1.460  51.779 -22.557  1.00  0.00     0.007 C 
HETATM   17  C11 UNL     1      -1.785  51.769 -21.051  1.00  0.00     0.008 C 
HETATM   18  C9  UNL     1      -0.504  51.453 -20.165  1.00  0.00     0.025 C 
HETATM   19  C35 UNL     1      -3.020  50.848 -20.746  1.00  0.00     0.024 C 
HETATM   20  C4  UNL     1      -0.970  50.696 -18.898  1.00  0.00     0.004 C 
HETATM   21  C8  UNL     1       0.167  52.772 -19.714  1.00  0.00     0.136 C 
HETATM   22  C10 UNL     1       0.595  50.666 -20.924  1.00  0.00     0.024 C 
HETATM   23  C3  UNL     1      -1.602  49.342 -19.268  1.00  0.00     0.038 C 
HETATM   24  C5  UNL     1       0.120  50.532 -17.828  1.00  0.00     0.006 C 
HETATM   25  C2  UNL     1      -2.517  49.396 -20.520  1.00  0.00     0.126 C 
HETATM   26  C6  UNL     1       0.663  51.896 -17.410  1.00  0.00     0.008 C 
HETATM   27  C7  UNL     1       1.190  52.686 -18.596  1.00  0.00     0.079 C 
HETATM   28  O2  UNL     1      -0.022  53.844 -20.293  1.00  0.00    -0.297 OA
HETATM   29  C33 UNL     1      -5.366  50.149 -21.757  1.00  0.00     0.006 C 
HETATM   30  C32 UNL     1      -5.087  49.301 -23.006  1.00  0.00     0.006 C 
BRANCH  25  31
HETATM   31  O1  UNL     1      -3.586  48.474 -20.315  1.00  0.00    -0.390 OA
HETATM   32  C1  UNL     1      -3.879  48.234 -18.942  1.00  0.00     0.202 C 
ENDBRANCH  25  31
ENDBRANCH   9  11
ENDBRANCH   1   9
BRANCH   5  33
HETATM   33  C24 UNL     1      -7.386  47.102 -28.858  1.00  0.00     0.216 C 
BRANCH  33  34
HETATM   34  O3  UNL     1      -6.563  46.793 -29.982  1.00  0.00    -0.354 OA
BRANCH  34  35
HETATM   35  C25 UNL     1      -6.832  45.502 -30.532  1.00  0.00     0.291 C 
HETATM   36  O4  UNL     1      -5.672  44.959 -31.160  1.00  0.00    -0.348 OA
HETATM   37  C26 UNL     1      -5.210  45.652 -32.335  1.00  0.00     0.179 C 
HETATM   38  C28 UNL     1      -6.253  46.587 -32.995  1.00  0.00     0.180 C 
HETATM   39  C29 UNL     1      -7.628  45.915 -32.948  1.00  0.00     0.183 C 
HETATM   40  C30 UNL     1      -8.040  45.585 -31.499  1.00  0.00     0.204 C 
BRANCH  37  41
HETATM   41  C27 UNL     1      -3.862  46.339 -32.060  1.00  0.00     0.198 C 
BRANCH  41  42
HETATM   42  O5  UNL     1      -3.457  47.176 -33.141  1.00  0.00    -0.398 OA
HETATM   43  H42 UNL     1      -2.531  47.426 -32.978  1.00  0.00     0.209 HD
ENDBRANCH  41  42
ENDBRANCH  37  41
BRANCH  38  44
HETATM   44  O6  UNL     1      -6.339  47.884 -32.398  1.00  0.00    -0.390 OA
HETATM   45  H44 UNL     1      -5.745  47.886 -31.607  1.00  0.00     0.210 HD
ENDBRANCH  38  44
BRANCH  39  46
HETATM   46  O7  UNL     1      -7.606  44.728 -33.764  1.00  0.00    -0.390 OA
HETATM   47  H46 UNL     1      -7.256  43.991 -33.231  1.00  0.00     0.210 HD
ENDBRANCH  39  46
BRANCH  40  48
HETATM   48  O8  UNL     1      -8.987  46.547 -31.011  1.00  0.00    -0.388 OA
HETATM   49  H48 UNL     1      -8.447  47.333 -30.778  1.00  0.00     0.210 HD
ENDBRANCH  40  48
ENDBRANCH  34  35
ENDBRANCH  33  34
ENDBRANCH   5  33
TORSDOF 11
ENDMDL
MODEL 6
REMARK minimizedAffinity -9.76576042
REMARK CNNscore 0.274369001
REMARK CNNaffinity 6.80181646
REMARK  11 active torsions:
REMARK  status: ('A' for Active; 'I' for Inactive)
REMARK    1  A    between atoms: O1_2  and  C2_3 
REMARK    2  A    between atoms: C16_18  and  C17_19 
REMARK    3  A    between atoms: C17_19  and  C19_21 
REMARK    4  A    between atoms: C23_25  and  C24_26 
REMARK    5  A    between atoms: C24_26  and  O3_27 
REMARK    6  A    between atoms: O3_27  and  C25_28 
REMARK    7  A    between atoms: C26_30  and  C27_31 
REMARK    8  A    between atoms: C27_31  and  O5_32 
REMARK    9  A    between atoms: C28_33  and  O6_34 
REMARK   10  A    between atoms: C29_35  and  O7_36 
REMARK   11  A    between atoms: C30_37  and  O8_38 
ROOT
HETATM    1  C19 UNL     1      -2.678  50.663 -18.400  1.00  0.00     0.140 C 
HETATM    2  C20 UNL     1      -1.495  51.489 -18.921  1.00  0.00     0.067 C 
HETATM    3  C21 UNL     1      -0.328  51.464 -17.972  1.00  0.00    -0.067 C 
HETATM    4  C22 UNL     1       0.662  52.581 -18.169  1.00  0.00     0.044 C 
HETATM    5  C23 UNL     1      -0.191  50.459 -17.081  1.00  0.00     0.043 C 
HETATM    6  C31 UNL     1      -1.169  49.341 -17.051  1.00  0.00     0.292 C 
HETATM    7  O9  UNL     1      -1.040  48.393 -16.288  1.00  0.00    -0.260 OA
HETATM    8  O10 UNL     1      -2.179  49.389 -17.953  1.00  0.00    -0.311 OA
ENDROOT
BRANCH   1   9
HETATM    9  C17 UNL     1      -3.761  50.392 -19.486  1.00  0.00     0.016 C 
HETATM   10  C18 UNL     1      -4.955  49.598 -18.911  1.00  0.00     0.013 C 
BRANCH   9  11
HETATM   11  C16 UNL     1      -3.314  49.681 -20.801  1.00  0.00     0.000 C 
HETATM   12  C14 UNL     1      -1.833  49.336 -21.137  1.00  0.00    -0.036 C 
HETATM   13  C13 UNL     1      -0.890  50.540 -21.251  1.00  0.00     0.010 C 
HETATM   14  C15 UNL     1      -1.175  48.338 -20.149  1.00  0.00     0.016 C 
HETATM   15  C34 UNL     1      -2.039  48.614 -22.506  1.00  0.00     0.001 C 
HETATM   16  C12 UNL     1      -1.162  51.448 -22.435  1.00  0.00     0.007 C 
HETATM   17  C11 UNL     1      -1.134  50.690 -23.776  1.00  0.00     0.008 C 
HETATM   18  C9  UNL     1      -1.247  51.673 -25.021  1.00  0.00     0.025 C 
HETATM   19  C35 UNL     1      -2.180  49.519 -23.786  1.00  0.00     0.024 C 
HETATM   20  C4  UNL     1      -1.989  50.927 -26.157  1.00  0.00     0.004 C 
HETATM   21  C8  UNL     1       0.165  52.043 -25.534  1.00  0.00     0.136 C 
HETATM   22  C10 UNL     1      -1.934  53.021 -24.684  1.00  0.00     0.024 C 
HETATM   23  C3  UNL     1      -3.425  50.574 -25.735  1.00  0.00     0.038 C 
HETATM   24  C5  UNL     1      -1.965  51.658 -27.508  1.00  0.00     0.006 C 
HETATM   25  C2  UNL     1      -3.547  50.074 -24.270  1.00  0.00     0.126 C 
HETATM   26  C6  UNL     1      -0.525  51.913 -27.948  1.00  0.00     0.008 C 
HETATM   27  C7  UNL     1       0.260  52.689 -26.904  1.00  0.00     0.079 C 
HETATM   28  O2  UNL     1       1.175  51.929 -24.836  1.00  0.00    -0.297 OA
HETATM   29  C33 UNL     1      -3.208  47.665 -22.199  1.00  0.00     0.006 C 
HETATM   30  C32 UNL     1      -4.080  48.388 -21.161  1.00  0.00     0.006 C 
BRANCH  25  31
HETATM   31  O1  UNL     1      -4.580  49.091 -24.233  1.00  0.00    -0.390 OA
HETATM   32  C1  UNL     1      -4.718  48.359 -25.447  1.00  0.00     0.202 C 
ENDBRANCH  25  31
ENDBRANCH   9  11
ENDBRANCH   1   9
BRANCH   5  33
HETATM   33  C24 UNL     1       0.969  50.298 -16.137  1.00  0.00     0.216 C 
BRANCH  33  34
HETATM   34  O3  UNL     1       0.543  50.732 -14.846  1.00  0.00    -0.354 OA
BRANCH  34  35
HETATM   35  C25 UNL     1       1.184  51.937 -14.423  1.00  0.00     0.291 C 
HETATM   36  O4  UNL     1       2.553  51.705 -14.100  1.00  0.00    -0.348 OA
HETATM   37  C26 UNL     1       2.796  50.865 -12.955  1.00  0.00     0.179 C 
HETATM   38  C28 UNL     1       1.590  50.701 -11.996  1.00  0.00     0.180 C 
HETATM   39  C29 UNL     1       0.869  52.045 -11.867  1.00  0.00     0.183 C 
HETATM   40  C30 UNL     1       0.398  52.562 -13.243  1.00  0.00     0.204 C 
BRANCH  37  41
HETATM   41  C27 UNL     1       3.415  49.526 -13.390  1.00  0.00     0.198 C 
BRANCH  41  42
HETATM   42  O5  UNL     1       4.776  49.670 -13.790  1.00  0.00    -0.398 OA
HETATM   43  H42 UNL     1       5.039  48.836 -14.216  1.00  0.00     0.209 HD
ENDBRANCH  41  42
ENDBRANCH  37  41
BRANCH  38  44
HETATM   44  O6  UNL     1       0.654  49.697 -12.398  1.00  0.00    -0.390 OA
HETATM   45  H44 UNL     1       0.945  49.357 -13.280  1.00  0.00     0.210 HD
ENDBRANCH  38  44
BRANCH  39  46
HETATM   46  O7  UNL     1       1.742  52.995 -11.227  1.00  0.00    -0.390 OA
HETATM   47  H46 UNL     1       2.314  53.398 -11.906  1.00  0.00     0.210 HD
ENDBRANCH  39  46
BRANCH  40  48
HETATM   48  O8  UNL     1      -1.008  52.328 -13.417  1.00  0.00    -0.388 OA
HETATM   49  H48 UNL     1      -1.075  51.376 -13.646  1.00  0.00     0.210 HD
ENDBRANCH  40  48
ENDBRANCH  34  35
ENDBRANCH  33  34
ENDBRANCH   5  33
TORSDOF 11
ENDMDL
MODEL 7
REMARK minimizedAffinity -9.25447273
REMARK CNNscore 0.244902164
REMARK CNNaffinity 6.21445704
REMARK  11 active torsions:
REMARK  status: ('A' for Active; 'I' for Inactive)
REMARK    1  A    between atoms: O1_2  and  C2_3 
REMARK    2  A    between atoms: C16_18  and  C17_19 
REMARK    3  A    between atoms: C17_19  and  C19_21 
REMARK    4  A    between atoms: C23_25  and  C24_26 
REMARK    5  A    between atoms: C24_26  and  O3_27 
REMARK    6  A    between atoms: O3_27  and  C25_28 
REMARK    7  A    between atoms: C26_30  and  C27_31 
REMARK    8  A    between atoms: C27_31  and  O5_32 
REMARK    9  A    between atoms: C28_33  and  O6_34 
REMARK   10  A    between atoms: C29_35  and  O7_36 
REMARK   11  A    between atoms: C30_37  and  O8_38 
ROOT
HETATM    1  C19 UNL     1      -6.874  46.608 -23.194  1.00  0.00     0.140 C 
HETATM    2  C20 UNL     1      -6.753  47.384 -24.511  1.00  0.00     0.067 C 
HETATM    3  C21 UNL     1      -8.062  47.455 -25.248  1.00  0.00    -0.067 C 
HETATM    4  C22 UNL     1      -7.939  47.777 -26.713  1.00  0.00     0.044 C 
HETATM    5  C23 UNL     1      -9.229  47.302 -24.586  1.00  0.00     0.043 C 
HETATM    6  C31 UNL     1      -9.238  47.101 -23.114  1.00  0.00     0.292 C 
HETATM    7  O9  UNL     1     -10.284  47.011 -22.483  1.00  0.00    -0.260 OA
HETATM    8  O10 UNL     1      -8.035  47.086 -22.491  1.00  0.00    -0.311 OA
ENDROOT
BRANCH   1   9
HETATM    9  C17 UNL     1      -5.644  46.796 -22.257  1.00  0.00     0.016 C 
HETATM   10  C18 UNL     1      -5.567  45.680 -21.190  1.00  0.00     0.013 C 
BRANCH   9  11
HETATM   11  C16 UNL     1      -5.491  48.162 -21.519  1.00  0.00     0.000 C 
HETATM   12  C14 UNL     1      -5.478  49.540 -22.244  1.00  0.00    -0.036 C 
HETATM   13  C13 UNL     1      -4.333  49.743 -23.244  1.00  0.00     0.010 C 
HETATM   14  C15 UNL     1      -6.796  49.875 -22.990  1.00  0.00     0.016 C 
HETATM   15  C34 UNL     1      -5.357  50.483 -21.005  1.00  0.00     0.001 C 
HETATM   16  C12 UNL     1      -2.954  49.829 -22.618  1.00  0.00     0.007 C 
HETATM   17  C11 UNL     1      -2.859  50.936 -21.551  1.00  0.00     0.008 C 
HETATM   18  C9  UNL     1      -1.371  51.134 -21.026  1.00  0.00     0.025 C 
HETATM   19  C35 UNL     1      -3.918  50.716 -20.412  1.00  0.00     0.024 C 
HETATM   20  C4  UNL     1      -1.440  51.580 -19.545  1.00  0.00     0.004 C 
HETATM   21  C8  UNL     1      -0.670  52.253 -21.831  1.00  0.00     0.136 C 
HETATM   22  C10 UNL     1      -0.481  49.877 -21.199  1.00  0.00     0.024 C 
HETATM   23  C3  UNL     1      -2.080  50.487 -18.671  1.00  0.00     0.038 C 
HETATM   24  C5  UNL     1      -0.094  52.045 -18.966  1.00  0.00     0.006 C 
HETATM   25  C2  UNL     1      -3.301  49.791 -19.328  1.00  0.00     0.126 C 
HETATM   26  C6  UNL     1       0.473  53.193 -19.798  1.00  0.00     0.008 C 
HETATM   27  C7  UNL     1       0.620  52.816 -21.262  1.00  0.00     0.079 C 
HETATM   28  O2  UNL     1      -1.062  52.617 -22.942  1.00  0.00    -0.297 OA
HETATM   29  C33 UNL     1      -6.412  49.901 -20.051  1.00  0.00     0.006 C 
HETATM   30  C32 UNL     1      -6.439  48.389 -20.320  1.00  0.00     0.006 C 
BRANCH  25  31
HETATM   31  O1  UNL     1      -4.227  49.472 -18.291  1.00  0.00    -0.390 OA
HETATM   32  C1  UNL     1      -3.653  49.484 -16.988  1.00  0.00     0.202 C 
ENDBRANCH  25  31
ENDBRANCH   9  11
ENDBRANCH   1   9
BRANCH   5  33
HETATM   33  C24 UNL     1     -10.594  47.422 -25.207  1.00  0.00     0.216 C 
BRANCH  33  34
HETATM   34  O3  UNL     1     -10.445  47.272 -26.618  1.00  0.00    -0.354 OA
BRANCH  34  35
HETATM   35  C25 UNL     1     -11.552  46.607 -27.229  1.00  0.00     0.291 C 
HETATM   36  O4  UNL     1     -11.111  45.599 -28.136  1.00  0.00    -0.348 OA
HETATM   37  C26 UNL     1     -10.411  46.067 -29.305  1.00  0.00     0.179 C 
HETATM   38  C28 UNL     1     -10.620  47.567 -29.635  1.00  0.00     0.180 C 
HETATM   39  C29 UNL     1     -12.081  47.937 -29.372  1.00  0.00     0.183 C 
HETATM   40  C30 UNL     1     -12.478  47.647 -27.909  1.00  0.00     0.204 C 
BRANCH  37  41
HETATM   41  C27 UNL     1      -8.930  45.656 -29.248  1.00  0.00     0.198 C 
BRANCH  41  42
HETATM   42  O5  UNL     1      -8.287  45.792 -30.514  1.00  0.00    -0.398 OA
HETATM   43  H42 UNL     1      -7.424  45.350 -30.445  1.00  0.00     0.209 HD
ENDBRANCH  41  42
ENDBRANCH  37  41
BRANCH  38  44
HETATM   44  O6  UNL     1      -9.767  48.452 -28.904  1.00  0.00    -0.390 OA
HETATM   45  H44 UNL     1      -9.255  47.905 -28.258  1.00  0.00     0.210 HD
ENDBRANCH  38  44
BRANCH  39  46
HETATM   46  O7  UNL     1     -12.928  47.221 -30.290  1.00  0.00    -0.390 OA
HETATM   47  H46 UNL     1     -13.113  46.338 -29.920  1.00  0.00     0.210 HD
ENDBRANCH  39  46
BRANCH  40  48
HETATM   48  O8  UNL     1     -12.495  48.859 -27.140  1.00  0.00    -0.388 OA
HETATM   49  H48 UNL     1     -11.551  49.045 -26.946  1.00  0.00     0.210 HD
ENDBRANCH  40  48
ENDBRANCH  34  35
ENDBRANCH  33  34
ENDBRANCH   5  33
TORSDOF 11
ENDMDL
MODEL 8
REMARK minimizedAffinity -9.15808964
REMARK CNNscore 0.227969527
REMARK CNNaffinity 5.72936869
REMARK  11 active torsions:
REMARK  status: ('A' for Active; 'I' for Inactive)
REMARK    1  A    between atoms: O1_2  and  C2_3 
REMARK    2  A    between atoms: C16_18  and  C17_19 
REMARK    3  A    between atoms: C17_19  and  C19_21 
REMARK    4  A    between atoms: C23_25  and  C24_26 
REMARK    5  A    between atoms: C24_26  and  O3_27 
REMARK    6  A    between atoms: O3_27  and  C25_28 
REMARK    7  A    between atoms: C26_30  and  C27_31 
REMARK    8  A    between atoms: C27_31  and  O5_32 
REMARK    9  A    between atoms: C28_33  and  O6_34 
REMARK   10  A    between atoms: C29_35  and  O7_36 
REMARK   11  A    between atoms: C30_37  and  O8_38 
ROOT
HETATM    1  C19 UNL     1      12.139  63.263 -36.005  1.00  0.00     0.140 C 
HETATM    2  C20 UNL     1      11.203  64.402 -36.426  1.00  0.00     0.067 C 
HETATM    3  C21 UNL     1       9.817  64.229 -35.870  1.00  0.00    -0.067 C 
HETATM    4  C22 UNL     1       8.752  65.016 -36.586  1.00  0.00     0.044 C 
HETATM    5  C23 UNL     1       9.609  63.470 -34.772  1.00  0.00     0.043 C 
HETATM    6  C31 UNL     1      10.753  62.828 -34.074  1.00  0.00     0.292 C 
HETATM    7  O9  UNL     1      10.597  62.178 -33.049  1.00  0.00    -0.260 OA
HETATM    8  O10 UNL     1      11.985  63.049 -34.590  1.00  0.00    -0.311 OA
ENDROOT
BRANCH   1   9
HETATM    9  C17 UNL     1      13.642  63.573 -36.276  1.00  0.00     0.016 C 
HETATM   10  C18 UNL     1      13.838  65.011 -36.805  1.00  0.00     0.013 C 
BRANCH   9  11
HETATM   11  C16 UNL     1      14.426  62.613 -37.225  1.00  0.00     0.000 C 
HETATM   12  C14 UNL     1      15.182  63.086 -38.501  1.00  0.00    -0.036 C 
HETATM   13  C13 UNL     1      14.306  63.734 -39.579  1.00  0.00     0.010 C 
HETATM   14  C15 UNL     1      16.350  64.066 -38.217  1.00  0.00     0.016 C 
HETATM   15  C34 UNL     1      15.783  61.722 -38.966  1.00  0.00     0.001 C 
HETATM   16  C12 UNL     1      13.333  62.788 -40.258  1.00  0.00     0.007 C 
HETATM   17  C11 UNL     1      14.037  61.568 -40.883  1.00  0.00     0.008 C 
HETATM   18  C9  UNL     1      13.038  60.674 -41.737  1.00  0.00     0.025 C 
HETATM   19  C35 UNL     1      14.849  60.769 -39.802  1.00  0.00     0.024 C 
HETATM   20  C4  UNL     1      13.509  59.202 -41.643  1.00  0.00     0.004 C 
HETATM   21  C8  UNL     1      13.088  61.097 -43.224  1.00  0.00     0.136 C 
HETATM   22  C10 UNL     1      11.555  60.823 -41.311  1.00  0.00     0.024 C 
HETATM   23  C3  UNL     1      13.434  58.694 -40.192  1.00  0.00     0.038 C 
HETATM   24  C5  UNL     1      12.789  58.249 -42.609  1.00  0.00     0.006 C 
HETATM   25  C2  UNL     1      13.908  59.729 -39.137  1.00  0.00     0.126 C 
HETATM   26  C6  UNL     1      12.959  58.726 -44.049  1.00  0.00     0.008 C 
HETATM   27  C7  UNL     1      12.470  60.152 -44.238  1.00  0.00     0.079 C 
HETATM   28  O2  UNL     1      13.508  62.198 -43.586  1.00  0.00    -0.297 OA
HETATM   29  C33 UNL     1      16.353  61.155 -37.656  1.00  0.00     0.006 C 
HETATM   30  C32 UNL     1      15.428  61.659 -36.538  1.00  0.00     0.006 C 
BRANCH  25  31
HETATM   31  O1  UNL     1      14.545  59.010 -38.082  1.00  0.00    -0.390 OA
HETATM   32  C1  UNL     1      15.086  57.757 -38.488  1.00  0.00     0.202 C 
ENDBRANCH  25  31
ENDBRANCH   9  11
ENDBRANCH   1   9
BRANCH   5  33
HETATM   33  C24 UNL     1       8.280  63.284 -34.093  1.00  0.00     0.216 C 
BRANCH  33  34
HETATM   34  O3  UNL     1       7.358  64.200 -34.682  1.00  0.00    -0.354 OA
BRANCH  34  35
HETATM   35  C25 UNL     1       6.242  63.552 -35.295  1.00  0.00     0.291 C 
HETATM   36  O4  UNL     1       5.348  64.501 -35.871  1.00  0.00    -0.348 OA
HETATM   37  C26 UNL     1       4.668  65.370 -34.944  1.00  0.00     0.179 C 
HETATM   38  C28 UNL     1       4.654  64.875 -33.476  1.00  0.00     0.180 C 
HETATM   39  C29 UNL     1       4.440  63.359 -33.461  1.00  0.00     0.183 C 
HETATM   40  C30 UNL     1       5.539  62.632 -34.265  1.00  0.00     0.204 C 
BRANCH  37  41
HETATM   41  C27 UNL     1       5.166  66.817 -35.096  1.00  0.00     0.198 C 
BRANCH  41  42
HETATM   42  O5  UNL     1       5.654  67.347 -33.866  1.00  0.00    -0.398 OA
HETATM   43  H42 UNL     1       5.778  68.303 -33.995  1.00  0.00     0.209 HD
ENDBRANCH  41  42
ENDBRANCH  37  41
BRANCH  38  44
HETATM   44  O6  UNL     1       5.837  65.195 -32.738  1.00  0.00    -0.390 OA
HETATM   45  H44 UNL     1       6.474  65.614 -33.368  1.00  0.00     0.210 HD
ENDBRANCH  38  44
BRANCH  39  46
HETATM   46  O7  UNL     1       3.132  63.057 -33.981  1.00  0.00    -0.390 OA
HETATM   47  H46 UNL     1       3.185  63.013 -34.953  1.00  0.00     0.210 HD
ENDBRANCH  39  46
BRANCH  40  48
HETATM   48  O8  UNL     1       6.514  62.056 -33.382  1.00  0.00    -0.388 OA
HETATM   49  H48 UNL     1       7.080  62.810 -33.111  1.00  0.00     0.210 HD
ENDBRANCH  40  48
ENDBRANCH  34  35
ENDBRANCH  33  34
ENDBRANCH   5  33
TORSDOF 11
ENDMDL
MODEL 9
REMARK minimizedAffinity -8.84213257
REMARK CNNscore 0.220254526
REMARK CNNaffinity 6.00124979
REMARK  11 active torsions:
REMARK  status: ('A' for Active; 'I' for Inactive)
REMARK    1  A    between atoms: O1_2  and  C2_3 
REMARK    2  A    between atoms: C16_18  and  C17_19 
REMARK    3  A    between atoms: C17_19  and  C19_21 
REMARK    4  A    between atoms: C23_25  and  C24_26 
REMARK    5  A    between atoms: C24_26  and  O3_27 
REMARK    6  A    between atoms: O3_27  and  C25_28 
REMARK    7  A    between atoms: C26_30  and  C27_31 
REMARK    8  A    between atoms: C27_31  and  O5_32 
REMARK    9  A    between atoms: C28_33  and  O6_34 
REMARK   10  A    between atoms: C29_35  and  O7_36 
REMARK   11  A    between atoms: C30_37  and  O8_38 
ROOT
HETATM    1  C19 UNL     1     -12.744  46.539 -27.096  1.00  0.00     0.140 C 
HETATM    2  C20 UNL     1     -13.685  46.043 -28.200  1.00  0.00     0.067 C 
HETATM    3  C21 UNL     1     -14.977  45.512 -27.644  1.00  0.00    -0.067 C 
HETATM    4  C22 UNL     1     -15.737  44.609 -28.579  1.00  0.00     0.044 C 
HETATM    5  C23 UNL     1     -15.410  45.901 -26.425  1.00  0.00     0.043 C 
HETATM    6  C31 UNL     1     -14.635  46.890 -25.632  1.00  0.00     0.292 C 
HETATM    7  O9  UNL     1     -15.031  47.297 -24.548  1.00  0.00    -0.260 OA
HETATM    8  O10 UNL     1     -13.499  47.369 -26.195  1.00  0.00    -0.311 OA
ENDROOT
BRANCH   1   9
HETATM    9  C17 UNL     1     -11.557  47.390 -27.639  1.00  0.00     0.016 C 
HETATM   10  C18 UNL     1     -11.826  47.886 -29.078  1.00  0.00     0.013 C 
BRANCH   9  11
HETATM   11  C16 UNL     1     -10.133  46.751 -27.622  1.00  0.00     0.000 C 
HETATM   12  C14 UNL     1      -8.834  47.542 -27.288  1.00  0.00    -0.036 C 
HETATM   13  C13 UNL     1      -8.506  48.696 -28.244  1.00  0.00     0.010 C 
HETATM   14  C15 UNL     1      -8.799  48.123 -25.850  1.00  0.00     0.016 C 
HETATM   15  C34 UNL     1      -7.794  46.382 -27.380  1.00  0.00     0.001 C 
HETATM   16  C12 UNL     1      -8.127  48.265 -29.648  1.00  0.00     0.007 C 
HETATM   17  C11 UNL     1      -6.943  47.280 -29.663  1.00  0.00     0.008 C 
HETATM   18  C9  UNL     1      -6.442  46.969 -31.140  1.00  0.00     0.025 C 
HETATM   19  C35 UNL     1      -7.262  46.000 -28.811  1.00  0.00     0.024 C 
HETATM   20  C4  UNL     1      -5.904  45.517 -31.170  1.00  0.00     0.004 C 
HETATM   21  C8  UNL     1      -5.280  47.917 -31.515  1.00  0.00     0.136 C 
HETATM   22  C10 UNL     1      -7.529  47.193 -32.222  1.00  0.00     0.024 C 
HETATM   23  C3  UNL     1      -7.025  44.510 -30.857  1.00  0.00     0.038 C 
HETATM   24  C5  UNL     1      -5.164  45.149 -32.464  1.00  0.00     0.006 C 
HETATM   25  C2  UNL     1      -7.977  44.961 -29.717  1.00  0.00     0.126 C 
HETATM   26  C6  UNL     1      -3.999  46.107 -32.700  1.00  0.00     0.008 C 
HETATM   27  C7  UNL     1      -4.453  47.557 -32.736  1.00  0.00     0.079 C 
HETATM   28  O2  UNL     1      -5.078  48.984 -30.930  1.00  0.00    -0.297 OA
HETATM   29  C33 UNL     1      -8.481  45.266 -26.577  1.00  0.00     0.006 C 
HETATM   30  C32 UNL     1      -9.989  45.450 -26.801  1.00  0.00     0.006 C 
BRANCH  25  31
HETATM   31  O1  UNL     1      -8.377  43.794 -29.001  1.00  0.00    -0.390 OA
HETATM   32  C1  UNL     1      -9.483  43.114 -29.586  1.00  0.00     0.202 C 
ENDBRANCH  25  31
ENDBRANCH   9  11
ENDBRANCH   1   9
BRANCH   5  33
HETATM   33  C24 UNL     1     -16.715  45.488 -25.802  1.00  0.00     0.216 C 
BRANCH  33  34
HETATM   34  O3  UNL     1     -16.602  45.669 -24.392  1.00  0.00    -0.354 OA
BRANCH  34  35
HETATM   35  C25 UNL     1     -16.901  44.485 -23.651  1.00  0.00     0.291 C 
HETATM   36  O4  UNL     1     -18.125  43.900 -24.088  1.00  0.00    -0.348 OA
HETATM   37  C26 UNL     1     -19.317  44.671 -23.838  1.00  0.00     0.179 C 
HETATM   38  C28 UNL     1     -19.164  45.779 -22.766  1.00  0.00     0.180 C 
HETATM   39  C29 UNL     1     -18.294  45.252 -21.622  1.00  0.00     0.183 C 
HETATM   40  C30 UNL     1     -16.909  44.803 -22.134  1.00  0.00     0.204 C 
BRANCH  37  41
HETATM   41  C27 UNL     1     -19.918  45.178 -25.159  1.00  0.00     0.198 C 
BRANCH  41  42
HETATM   42  O5  UNL     1     -20.382  46.523 -25.055  1.00  0.00    -0.398 OA
HETATM   43  H42 UNL     1     -20.903  46.708 -25.855  1.00  0.00     0.209 HD
ENDBRANCH  41  42
ENDBRANCH  37  41
BRANCH  38  44
HETATM   44  O6  UNL     1     -18.609  47.001 -23.261  1.00  0.00    -0.390 OA
HETATM   45  H44 UNL     1     -18.356  46.851 -24.205  1.00  0.00     0.210 HD
ENDBRANCH  38  44
BRANCH  39  46
HETATM   46  O7  UNL     1     -18.978  44.171 -20.962  1.00  0.00    -0.390 OA
HETATM   47  H46 UNL     1     -18.795  43.345 -21.446  1.00  0.00     0.210 HD
ENDBRANCH  39  46
BRANCH  40  48
HETATM   48  O8  UNL     1     -15.915  45.797 -21.841  1.00  0.00    -0.388 OA
HETATM   49  H48 UNL     1     -16.047  46.490 -22.523  1.00  0.00     0.210 HD
ENDBRANCH  40  48
ENDBRANCH  34  35
ENDBRANCH  33  34
ENDBRANCH   5  33
TORSDOF 11
ENDMDL
