MODEL 1
REMARK minimizedAffinity -6.9318676
REMARK CNNscore 0.635856509
REMARK CNNaffinity 7.00428534
REMARK  10 active torsions:
REMARK  status: ('A' for Active; 'I' for Inactive)
REMARK    1  A    between atoms: C2_2  and  O1_3 
REMARK    2  A    between atoms: O1_3  and  C3_4 
REMARK    3  A    between atoms: C3_4  and  C4_6 
REMARK    4  A    between atoms: C4_6  and  C5_7 
REMARK    5  A    between atoms: C5_7  and  C6_8 
REMARK    6  A    between atoms: C6_8  and  C8_10 
REMARK    7  A    between atoms: C13_15  and  O3_16 
REMARK    8  A    between atoms: C17_21  and  O4_22 
REMARK    9  A    between atoms: C24_29  and  O5_30 
REMARK   10  A    between atoms: O5_30  and  C25_31 
ROOT
HETATM    1  C8  UNL     1      -2.795  49.716 -21.695  1.00  0.00     0.000 C 
HETATM    2  C9  UNL     1      -2.854  48.645 -22.821  1.00  0.00     0.006 C 
HETATM    3  C10 UNL     1      -2.325  47.337 -22.262  1.00  0.00     0.006 C 
HETATM    4  C11 UNL     1      -2.472  47.456 -20.745  1.00  0.00     0.003 C 
HETATM    5  C12 UNL     1      -3.896  47.011 -20.278  1.00  0.00     0.025 C 
HETATM    6  C13 UNL     1      -4.061  45.476 -20.215  1.00  0.00     0.137 C 
HETATM    7  C14 UNL     1      -5.540  45.078 -20.089  1.00  0.00     0.092 C 
HETATM    8 BR1  UNL     1      -6.258  44.521 -21.841  1.00  0.00    -0.088 Br
HETATM    9  C15 UNL     1      -6.454  46.094 -19.348  1.00  0.00     0.013 C 
HETATM   10  C16 UNL     1      -7.387  46.986 -20.196  1.00  0.00     0.038 C 
HETATM   11  C17 UNL     1      -8.498  47.613 -19.339  1.00  0.00     0.118 C 
HETATM   12  C18 UNL     1      -8.070  47.863 -17.893  1.00  0.00     0.032 C 
HETATM   13  C19 UNL     1      -6.584  48.194 -17.844  1.00  0.00     0.012 C 
HETATM   14  C20 UNL     1      -5.672  47.010 -18.319  1.00  0.00    -0.035 C 
HETATM   15  C21 UNL     1      -5.392  46.140 -17.057  1.00  0.00     0.016 C 
HETATM   16  C22 UNL     1      -4.255  47.518 -18.858  1.00  0.00     0.003 C 
HETATM   17  C23 UNL     1      -3.999  49.023 -18.758  1.00  0.00     0.039 C 
HETATM   18  C24 UNL     1      -2.537  49.360 -19.059  1.00  0.00     0.141 C 
HETATM   19  C27 UNL     1      -2.093  48.963 -20.497  1.00  0.00    -0.009 C 
HETATM   20  C28 UNL     1      -0.551  49.111 -20.584  1.00  0.00     0.018 C 
ENDROOT
BRANCH   1  21
HETATM   21  C6  UNL     1      -2.220  51.050 -22.301  1.00  0.00    -0.013 C 
HETATM   22  C7  UNL     1      -1.495  51.853 -21.196  1.00  0.00     0.010 C 
BRANCH  21  23
HETATM   23  C5  UNL     1      -1.263  50.867 -23.498  1.00  0.00     0.014 C 
BRANCH  23  24
HETATM   24  C4  UNL     1      -0.072  51.831 -23.564  1.00  0.00     0.111 C 
BRANCH  24  25
HETATM   25  C3  UNL     1      -0.195  52.820 -24.700  1.00  0.00     0.258 C 
HETATM   26  O2  UNL     1      -1.197  53.478 -24.947  1.00  0.00    -0.265 OA
BRANCH  25  27
HETATM   27  O1  UNL     1       0.959  52.845 -25.423  1.00  0.00    -0.322 OA
BRANCH  27  28
HETATM   28  C2  UNL     1       1.056  51.799 -26.398  1.00  0.00     0.174 C 
HETATM   29  C1  UNL     1       2.520  51.454 -26.589  1.00  0.00     0.034 C 
ENDBRANCH  27  28
ENDBRANCH  25  27
ENDBRANCH  24  25
ENDBRANCH  23  24
ENDBRANCH  21  23
ENDBRANCH   1  21
BRANCH  18  30
HETATM   30  O5  UNL     1      -2.356  50.766 -18.827  1.00  0.00    -0.316 OA
BRANCH  30  31
HETATM   31  C25 UNL     1      -2.002  51.145 -17.567  1.00  0.00     0.255 C 
HETATM   32  C26 UNL     1      -0.507  51.167 -17.448  1.00  0.00     0.126 C 
HETATM   33  O6  UNL     1      -2.771  51.430 -16.660  1.00  0.00    -0.266 OA
ENDBRANCH  30  31
ENDBRANCH  18  30
BRANCH   6  34
HETATM   34  O3  UNL     1      -3.385  44.762 -21.241  1.00  0.00    -0.394 OA
HETATM   35  H22 UNL     1      -3.950  44.793 -22.035  1.00  0.00     0.210 HD
ENDBRANCH   6  34
BRANCH  11  36
HETATM   36  O4  UNL     1      -8.881  48.840 -19.955  1.00  0.00    -0.396 OA
HETATM   37  H28 UNL     1      -9.648  49.188 -19.468  1.00  0.00     0.210 HD
ENDBRANCH  11  36
TORSDOF 10
ENDMDL
MODEL 2
REMARK minimizedAffinity -7.19565392
REMARK CNNscore 0.587878108
REMARK CNNaffinity 7.17507029
REMARK  10 active torsions:
REMARK  status: ('A' for Active; 'I' for Inactive)
REMARK    1  A    between atoms: C2_2  and  O1_3 
REMARK    2  A    between atoms: O1_3  and  C3_4 
REMARK    3  A    between atoms: C3_4  and  C4_6 
REMARK    4  A    between atoms: C4_6  and  C5_7 
REMARK    5  A    between atoms: C5_7  and  C6_8 
REMARK    6  A    between atoms: C6_8  and  C8_10 
REMARK    7  A    between atoms: C13_15  and  O3_16 
REMARK    8  A    between atoms: C17_21  and  O4_22 
REMARK    9  A    between atoms: C24_29  and  O5_30 
REMARK   10  A    between atoms: O5_30  and  C25_31 
ROOT
HETATM    1  C8  UNL     1       0.662  51.036 -14.383  1.00  0.00     0.000 C 
HETATM    2  C9  UNL     1      -0.716  51.749 -14.284  1.00  0.00     0.006 C 
HETATM    3  C10 UNL     1      -1.402  51.288 -13.011  1.00  0.00     0.006 C 
HETATM    4  C11 UNL     1      -0.279  50.771 -12.110  1.00  0.00     0.003 C 
HETATM    5  C12 UNL     1       0.356  51.932 -11.277  1.00  0.00     0.025 C 
HETATM    6  C13 UNL     1      -0.496  52.335 -10.053  1.00  0.00     0.137 C 
HETATM    7  C14 UNL     1      -0.029  53.676  -9.466  1.00  0.00     0.092 C 
HETATM    8 BR1  UNL     1      -1.208  55.141 -10.064  1.00  0.00    -0.088 Br
HETATM    9  C15 UNL     1       1.482  53.999  -9.633  1.00  0.00     0.013 C 
HETATM   10  C16 UNL     1       1.892  55.018 -10.720  1.00  0.00     0.038 C 
HETATM   11  C17 UNL     1       3.319  55.541 -10.492  1.00  0.00     0.118 C 
HETATM   12  C18 UNL     1       4.232  54.517  -9.816  1.00  0.00     0.032 C 
HETATM   13  C19 UNL     1       3.834  53.110 -10.242  1.00  0.00     0.012 C 
HETATM   14  C20 UNL     1       2.390  52.709  -9.777  1.00  0.00    -0.035 C 
HETATM   15  C21 UNL     1       2.543  52.100  -8.351  1.00  0.00     0.016 C 
HETATM   16  C22 UNL     1       1.751  51.574 -10.703  1.00  0.00     0.003 C 
HETATM   17  C23 UNL     1       2.651  51.027 -11.813  1.00  0.00     0.039 C 
HETATM   18  C24 UNL     1       2.040  49.785 -12.465  1.00  0.00     0.141 C 
HETATM   19  C27 UNL     1       0.666  50.054 -13.146  1.00  0.00    -0.009 C 
HETATM   20  C28 UNL     1       0.041  48.686 -13.527  1.00  0.00     0.018 C 
ENDROOT
BRANCH   1  21
HETATM   21  C6  UNL     1       0.859  50.526 -15.859  1.00  0.00    -0.013 C 
HETATM   22  C7  UNL     1       0.044  49.231 -16.075  1.00  0.00     0.010 C 
BRANCH  21  23
HETATM   23  C5  UNL     1       0.487  51.544 -16.958  1.00  0.00     0.014 C 
BRANCH  23  24
HETATM   24  C4  UNL     1      -0.076  50.957 -18.259  1.00  0.00     0.111 C 
BRANCH  24  25
HETATM   25  C3  UNL     1      -1.099  51.863 -18.904  1.00  0.00     0.258 C 
HETATM   26  O2  UNL     1      -2.252  52.000 -18.519  1.00  0.00    -0.265 OA
BRANCH  25  27
HETATM   27  O1  UNL     1      -0.556  52.476 -19.993  1.00  0.00    -0.322 OA
BRANCH  27  28
HETATM   28  C2  UNL     1       0.173  53.671 -19.685  1.00  0.00     0.174 C 
HETATM   29  C1  UNL     1       1.407  53.721 -20.566  1.00  0.00     0.034 C 
ENDBRANCH  27  28
ENDBRANCH  25  27
ENDBRANCH  24  25
ENDBRANCH  23  24
ENDBRANCH  21  23
ENDBRANCH   1  21
BRANCH  18  30
HETATM   30  O5  UNL     1       2.995  49.269 -13.404  1.00  0.00    -0.316 OA
BRANCH  30  31
HETATM   31  C25 UNL     1       4.218  49.868 -13.438  1.00  0.00     0.255 C 
HETATM   32  C26 UNL     1       4.267  50.851 -14.570  1.00  0.00     0.126 C 
HETATM   33  O6  UNL     1       5.145  49.654 -12.671  1.00  0.00    -0.266 OA
ENDBRANCH  30  31
ENDBRANCH  18  30
BRANCH   6  34
HETATM   34  O3  UNL     1      -1.900  52.286 -10.263  1.00  0.00    -0.394 OA
HETATM   35  H22 UNL     1      -2.154  53.112 -10.715  1.00  0.00     0.210 HD
ENDBRANCH   6  34
BRANCH  11  36
HETATM   36  O4  UNL     1       3.854  55.911 -11.760  1.00  0.00    -0.396 OA
HETATM   37  H28 UNL     1       4.718  56.331 -11.605  1.00  0.00     0.210 HD
ENDBRANCH  11  36
TORSDOF 10
ENDMDL
MODEL 3
REMARK minimizedAffinity -6.22213316
REMARK CNNscore 0.453880697
REMARK CNNaffinity 6.16603851
REMARK  10 active torsions:
REMARK  status: ('A' for Active; 'I' for Inactive)
REMARK    1  A    between atoms: C2_2  and  O1_3 
REMARK    2  A    between atoms: O1_3  and  C3_4 
REMARK    3  A    between atoms: C3_4  and  C4_6 
REMARK    4  A    between atoms: C4_6  and  C5_7 
REMARK    5  A    between atoms: C5_7  and  C6_8 
REMARK    6  A    between atoms: C6_8  and  C8_10 
REMARK    7  A    between atoms: C13_15  and  O3_16 
REMARK    8  A    between atoms: C17_21  and  O4_22 
REMARK    9  A    between atoms: C24_29  and  O5_30 
REMARK   10  A    between atoms: O5_30  and  C25_31 
ROOT
HETATM    1  C8  UNL     1      -8.686  46.106 -27.533  1.00  0.00     0.000 C 
HETATM    2  C9  UNL     1     -10.125  45.779 -28.023  1.00  0.00     0.006 C 
HETATM    3  C10 UNL     1     -10.528  46.822 -29.050  1.00  0.00     0.006 C 
HETATM    4  C11 UNL     1      -9.214  47.407 -29.570  1.00  0.00     0.003 C 
HETATM    5  C12 UNL     1      -8.643  46.552 -30.749  1.00  0.00     0.025 C 
HETATM    6  C13 UNL     1      -9.348  46.831 -32.095  1.00  0.00     0.137 C 
HETATM    7  C14 UNL     1      -9.008  45.753 -33.137  1.00  0.00     0.092 C 
HETATM    8 BR1  UNL     1     -10.475  44.442 -33.281  1.00  0.00    -0.088 Br
HETATM    9  C15 UNL     1      -7.608  45.093 -32.995  1.00  0.00     0.013 C 
HETATM   10  C16 UNL     1      -7.531  43.676 -32.385  1.00  0.00     0.038 C 
HETATM   11  C17 UNL     1      -6.183  43.004 -32.692  1.00  0.00     0.118 C 
HETATM   12  C18 UNL     1      -5.031  44.002 -32.818  1.00  0.00     0.032 C 
HETATM   13  C19 UNL     1      -5.270  45.187 -31.891  1.00  0.00     0.012 C 
HETATM   14  C20 UNL     1      -6.547  46.017 -32.268  1.00  0.00    -0.035 C 
HETATM   15  C21 UNL     1      -6.084  47.083 -33.306  1.00  0.00     0.016 C 
HETATM   16  C22 UNL     1      -7.138  46.814 -31.015  1.00  0.00     0.003 C 
HETATM   17  C23 UNL     1      -6.348  46.699 -29.710  1.00  0.00     0.039 C 
HETATM   18  C24 UNL     1      -6.854  47.691 -28.662  1.00  0.00     0.141 C 
HETATM   19  C27 UNL     1      -8.341  47.465 -28.261  1.00  0.00    -0.009 C 
HETATM   20  C28 UNL     1      -8.801  48.677 -27.408  1.00  0.00     0.018 C 
ENDROOT
BRANCH   1  21
HETATM   21  C6  UNL     1      -8.643  45.959 -25.967  1.00  0.00    -0.013 C 
HETATM   22  C7  UNL     1      -9.617  46.971 -25.322  1.00  0.00     0.010 C 
BRANCH  21  23
HETATM   23  C5  UNL     1      -8.960  44.546 -25.433  1.00  0.00     0.014 C 
BRANCH  23  24
HETATM   24  C4  UNL     1      -7.885  43.477 -25.670  1.00  0.00     0.111 C 
BRANCH  24  25
HETATM   25  C3  UNL     1      -7.566  42.696 -24.416  1.00  0.00     0.258 C 
HETATM   26  O2  UNL     1      -7.213  43.192 -23.354  1.00  0.00    -0.265 OA
BRANCH  25  27
HETATM   27  O1  UNL     1      -7.695  41.361 -24.655  1.00  0.00    -0.322 OA
BRANCH  27  28
HETATM   28  C2  UNL     1      -8.456  40.664 -23.660  1.00  0.00     0.174 C 
HETATM   29  C1  UNL     1      -7.620  39.513 -23.134  1.00  0.00     0.034 C 
ENDBRANCH  27  28
ENDBRANCH  25  27
ENDBRANCH  24  25
ENDBRANCH  23  24
ENDBRANCH  21  23
ENDBRANCH   1  21
BRANCH  18  30
HETATM   30  O5  UNL     1      -5.987  47.603 -27.521  1.00  0.00    -0.316 OA
BRANCH  30  31
HETATM   31  C25 UNL     1      -4.814  48.292 -27.579  1.00  0.00     0.255 C 
HETATM   32  C26 UNL     1      -4.185  48.334 -26.218  1.00  0.00     0.126 C 
HETATM   33  O6  UNL     1      -4.329  48.802 -28.579  1.00  0.00    -0.266 OA
ENDBRANCH  30  31
ENDBRANCH  18  30
BRANCH   6  34
HETATM   34  O3  UNL     1     -10.744  47.078 -31.996  1.00  0.00    -0.394 OA
HETATM   35  H22 UNL     1     -11.188  46.212 -31.940  1.00  0.00     0.210 HD
ENDBRANCH   6  34
BRANCH  11  36
HETATM   36  O4  UNL     1      -5.912  42.076 -31.644  1.00  0.00    -0.396 OA
HETATM   37  H28 UNL     1      -5.110  41.583 -31.886  1.00  0.00     0.210 HD
ENDBRANCH  11  36
TORSDOF 10
ENDMDL
MODEL 4
REMARK minimizedAffinity -6.96278811
REMARK CNNscore 0.339134514
REMARK CNNaffinity 6.33372116
REMARK  10 active torsions:
REMARK  status: ('A' for Active; 'I' for Inactive)
REMARK    1  A    between atoms: C2_2  and  O1_3 
REMARK    2  A    between atoms: O1_3  and  C3_4 
REMARK    3  A    between atoms: C3_4  and  C4_6 
REMARK    4  A    between atoms: C4_6  and  C5_7 
REMARK    5  A    between atoms: C5_7  and  C6_8 
REMARK    6  A    between atoms: C6_8  and  C8_10 
REMARK    7  A    between atoms: C13_15  and  O3_16 
REMARK    8  A    between atoms: C17_21  and  O4_22 
REMARK    9  A    between atoms: C24_29  and  O5_30 
REMARK   10  A    between atoms: O5_30  and  C25_31 
ROOT
HETATM    1  C8  UNL     1      -4.150  48.470 -24.213  1.00  0.00     0.000 C 
HETATM    2  C9  UNL     1      -2.921  48.563 -23.265  1.00  0.00     0.006 C 
HETATM    3  C10 UNL     1      -3.329  49.345 -22.031  1.00  0.00     0.006 C 
HETATM    4  C11 UNL     1      -4.854  49.241 -21.971  1.00  0.00     0.003 C 
HETATM    5  C12 UNL     1      -5.303  47.942 -21.224  1.00  0.00     0.025 C 
HETATM    6  C13 UNL     1      -5.210  48.065 -19.687  1.00  0.00     0.137 C 
HETATM    7  C14 UNL     1      -5.325  46.690 -19.009  1.00  0.00     0.092 C 
HETATM    8 BR1  UNL     1      -3.542  46.017 -18.502  1.00  0.00    -0.088 Br
HETATM    9  C15 UNL     1      -6.188  45.637 -19.759  1.00  0.00     0.013 C 
HETATM   10  C16 UNL     1      -5.456  44.522 -20.540  1.00  0.00     0.038 C 
HETATM   11  C17 UNL     1      -6.398  43.350 -20.861  1.00  0.00     0.118 C 
HETATM   12  C18 UNL     1      -7.853  43.783 -21.044  1.00  0.00     0.032 C 
HETATM   13  C19 UNL     1      -7.904  45.184 -21.641  1.00  0.00     0.012 C 
HETATM   14  C20 UNL     1      -7.289  46.278 -20.699  1.00  0.00    -0.035 C 
HETATM   15  C21 UNL     1      -8.447  46.763 -19.778  1.00  0.00     0.016 C 
HETATM   16  C22 UNL     1      -6.775  47.554 -21.514  1.00  0.00     0.003 C 
HETATM   17  C23 UNL     1      -7.025  47.533 -23.023  1.00  0.00     0.039 C 
HETATM   18  C24 UNL     1      -6.728  48.895 -23.656  1.00  0.00     0.141 C 
HETATM   19  C27 UNL     1      -5.248  49.346 -23.491  1.00  0.00    -0.009 C 
HETATM   20  C28 UNL     1      -5.144  50.830 -23.932  1.00  0.00     0.018 C 
ENDROOT
BRANCH   1  21
HETATM   21  C6  UNL     1      -3.673  48.765 -25.684  1.00  0.00    -0.013 C 
HETATM   22  C7  UNL     1      -4.710  48.212 -26.688  1.00  0.00     0.010 C 
BRANCH  21  23
HETATM   23  C5  UNL     1      -3.411  50.253 -26.001  1.00  0.00     0.014 C 
BRANCH  23  24
HETATM   24  C4  UNL     1      -2.838  50.556 -27.392  1.00  0.00     0.111 C 
BRANCH  24  25
HETATM   25  C3  UNL     1      -1.983  51.801 -27.402  1.00  0.00     0.258 C 
HETATM   26  O2  UNL     1      -2.374  52.920 -27.098  1.00  0.00    -0.265 OA
BRANCH  25  27
HETATM   27  O1  UNL     1      -0.726  51.498 -27.832  1.00  0.00    -0.322 OA
BRANCH  27  28
HETATM   28  C2  UNL     1       0.298  52.326 -27.265  1.00  0.00     0.174 C 
HETATM   29  C1  UNL     1       1.231  51.448 -26.454  1.00  0.00     0.034 C 
ENDBRANCH  27  28
ENDBRANCH  25  27
ENDBRANCH  24  25
ENDBRANCH  23  24
ENDBRANCH  21  23
ENDBRANCH   1  21
BRANCH  18  30
HETATM   30  O5  UNL     1      -7.102  48.824 -25.041  1.00  0.00    -0.316 OA
BRANCH  30  31
HETATM   31  C25 UNL     1      -8.420  48.626 -25.318  1.00  0.00     0.255 C 
HETATM   32  C26 UNL     1      -8.581  47.387 -26.147  1.00  0.00     0.126 C 
HETATM   33  O6  UNL     1      -9.346  49.337 -24.954  1.00  0.00    -0.266 OA
ENDBRANCH  30  31
ENDBRANCH  18  30
BRANCH   6  34
HETATM   34  O3  UNL     1      -4.100  48.818 -19.216  1.00  0.00    -0.394 OA
HETATM   35  H22 UNL     1      -3.326  48.226 -19.218  1.00  0.00     0.210 HD
ENDBRANCH   6  34
BRANCH  11  36
HETATM   36  O4  UNL     1      -5.921  42.723 -22.049  1.00  0.00    -0.396 OA
HETATM   37  H28 UNL     1      -6.458  41.927 -22.198  1.00  0.00     0.210 HD
ENDBRANCH  11  36
TORSDOF 10
ENDMDL
MODEL 5
REMARK minimizedAffinity -7.2716732
REMARK CNNscore 0.336158186
REMARK CNNaffinity 6.40008497
REMARK  10 active torsions:
REMARK  status: ('A' for Active; 'I' for Inactive)
REMARK    1  A    between atoms: C2_2  and  O1_3 
REMARK    2  A    between atoms: O1_3  and  C3_4 
REMARK    3  A    between atoms: C3_4  and  C4_6 
REMARK    4  A    between atoms: C4_6  and  C5_7 
REMARK    5  A    between atoms: C5_7  and  C6_8 
REMARK    6  A    between atoms: C6_8  and  C8_10 
REMARK    7  A    between atoms: C13_15  and  O3_16 
REMARK    8  A    between atoms: C17_21  and  O4_22 
REMARK    9  A    between atoms: C24_29  and  O5_30 
REMARK   10  A    between atoms: O5_30  and  C25_31 
ROOT
HETATM    1  C8  UNL     1      -3.364  49.836 -23.927  1.00  0.00     0.000 C 
HETATM    2  C9  UNL     1      -2.075  50.357 -23.229  1.00  0.00     0.006 C 
HETATM    3  C10 UNL     1      -2.484  51.328 -22.137  1.00  0.00     0.006 C 
HETATM    4  C11 UNL     1      -3.939  50.986 -21.814  1.00  0.00     0.003 C 
HETATM    5  C12 UNL     1      -4.027  49.844 -20.749  1.00  0.00     0.025 C 
HETATM    6  C13 UNL     1      -3.781  50.341 -19.307  1.00  0.00     0.137 C 
HETATM    7  C14 UNL     1      -3.538  49.165 -18.346  1.00  0.00     0.092 C 
HETATM    8 BR1  UNL     1      -1.608  48.942 -18.000  1.00  0.00    -0.088 Br
HETATM    9  C15 UNL     1      -4.253  47.835 -18.710  1.00  0.00     0.013 C 
HETATM   10  C16 UNL     1      -3.410  46.707 -19.346  1.00  0.00     0.038 C 
HETATM   11  C17 UNL     1      -4.129  45.351 -19.259  1.00  0.00     0.118 C 
HETATM   12  C18 UNL     1      -5.652  45.476 -19.294  1.00  0.00     0.032 C 
HETATM   13  C19 UNL     1      -6.053  46.667 -20.156  1.00  0.00     0.012 C 
HETATM   14  C20 UNL     1      -5.563  48.040 -19.576  1.00  0.00    -0.035 C 
HETATM   15  C21 UNL     1      -6.679  48.526 -18.604  1.00  0.00     0.016 C 
HETATM   16  C22 UNL     1      -5.416  49.155 -20.712  1.00  0.00     0.003 C 
HETATM   17  C23 UNL     1      -5.832  48.736 -22.123  1.00  0.00     0.039 C 
HETATM   18  C24 UNL     1      -5.891  49.940 -23.066  1.00  0.00     0.141 C 
HETATM   19  C27 UNL     1      -4.522  50.660 -23.239  1.00  0.00    -0.009 C 
HETATM   20  C28 UNL     1      -4.771  51.994 -23.993  1.00  0.00     0.018 C 
ENDROOT
BRANCH   1  21
HETATM   21  C6  UNL     1      -3.132  49.852 -25.484  1.00  0.00    -0.013 C 
HETATM   22  C7  UNL     1      -1.741  50.450 -25.797  1.00  0.00     0.010 C 
BRANCH  21  23
HETATM   23  C5  UNL     1      -3.257  48.480 -26.179  1.00  0.00     0.014 C 
BRANCH  23  24
HETATM   24  C4  UNL     1      -4.586  48.204 -26.893  1.00  0.00     0.111 C 
BRANCH  24  25
HETATM   25  C3  UNL     1      -4.580  48.684 -28.326  1.00  0.00     0.258 C 
HETATM   26  O2  UNL     1      -3.770  49.473 -28.795  1.00  0.00    -0.265 OA
BRANCH  25  27
HETATM   27  O1  UNL     1      -5.626  48.135 -29.005  1.00  0.00    -0.322 OA
BRANCH  27  28
HETATM   28  C2  UNL     1      -5.544  48.296 -30.427  1.00  0.00     0.174 C 
HETATM   29  C1  UNL     1      -5.104  46.978 -31.035  1.00  0.00     0.034 C 
ENDBRANCH  27  28
ENDBRANCH  25  27
ENDBRANCH  24  25
ENDBRANCH  23  24
ENDBRANCH  21  23
ENDBRANCH   1  21
BRANCH  18  30
HETATM   30  O5  UNL     1      -6.403  49.482 -24.328  1.00  0.00    -0.316 OA
BRANCH  30  31
HETATM   31  C25 UNL     1      -7.618  48.867 -24.317  1.00  0.00     0.255 C 
HETATM   32  C26 UNL     1      -7.468  47.445 -24.770  1.00  0.00     0.126 C 
HETATM   33  O6  UNL     1      -8.679  49.379 -23.991  1.00  0.00    -0.266 OA
ENDBRANCH  30  31
ENDBRANCH  18  30
BRANCH   6  34
HETATM   34  O3  UNL     1      -2.798  51.360 -19.188  1.00  0.00    -0.394 OA
HETATM   35  H22 UNL     1      -1.926  50.923 -19.189  1.00  0.00     0.210 HD
ENDBRANCH   6  34
BRANCH  11  36
HETATM   36  O4  UNL     1      -3.679  44.550 -20.350  1.00  0.00    -0.396 OA
HETATM   37  H28 UNL     1      -4.059  43.662 -20.240  1.00  0.00     0.210 HD
ENDBRANCH  11  36
TORSDOF 10
ENDMDL
MODEL 6
REMARK minimizedAffinity -8.46269321
REMARK CNNscore 0.328182489
REMARK CNNaffinity 6.90785074
REMARK  10 active torsions:
REMARK  status: ('A' for Active; 'I' for Inactive)
REMARK    1  A    between atoms: C2_2  and  O1_3 
REMARK    2  A    between atoms: O1_3  and  C3_4 
REMARK    3  A    between atoms: C3_4  and  C4_6 
REMARK    4  A    between atoms: C4_6  and  C5_7 
REMARK    5  A    between atoms: C5_7  and  C6_8 
REMARK    6  A    between atoms: C6_8  and  C8_10 
REMARK    7  A    between atoms: C13_15  and  O3_16 
REMARK    8  A    between atoms: C17_21  and  O4_22 
REMARK    9  A    between atoms: C24_29  and  O5_30 
REMARK   10  A    between atoms: O5_30  and  C25_31 
ROOT
HETATM    1  C8  UNL     1      -4.160  50.736 -23.827  1.00  0.00     0.000 C 
HETATM    2  C9  UNL     1      -3.781  51.646 -22.624  1.00  0.00     0.006 C 
HETATM    3  C10 UNL     1      -2.471  51.147 -22.044  1.00  0.00     0.006 C 
HETATM    4  C11 UNL     1      -1.808  50.347 -23.166  1.00  0.00     0.003 C 
HETATM    5  C12 UNL     1      -0.970  51.277 -24.104  1.00  0.00     0.025 C 
HETATM    6  C13 UNL     1       0.404  51.658 -23.508  1.00  0.00     0.137 C 
HETATM    7  C14 UNL     1       1.043  52.822 -24.282  1.00  0.00     0.092 C 
HETATM    8 BR1  UNL     1       0.781  54.522 -23.314  1.00  0.00    -0.088 Br
HETATM    9  C15 UNL     1       0.680  52.914 -25.790  1.00  0.00     0.013 C 
HETATM   10  C16 UNL     1      -0.351  53.979 -26.226  1.00  0.00     0.038 C 
HETATM   11  C17 UNL     1      -0.292  54.231 -27.741  1.00  0.00     0.118 C 
HETATM   12  C18 UNL     1       0.131  52.997 -28.538  1.00  0.00     0.032 C 
HETATM   13  C19 UNL     1      -0.367  51.737 -27.842  1.00  0.00     0.012 C 
HETATM   14  C20 UNL     1       0.271  51.522 -26.425  1.00  0.00    -0.035 C 
HETATM   15  C21 UNL     1       1.589  50.723 -26.656  1.00  0.00     0.016 C 
HETATM   16  C22 UNL     1      -0.655  50.629 -25.476  1.00  0.00     0.003 C 
HETATM   17  C23 UNL     1      -1.938  50.086 -26.107  1.00  0.00     0.039 C 
HETATM   18  C24 UNL     1      -2.609  49.050 -25.203  1.00  0.00     0.141 C 
HETATM   19  C27 UNL     1      -3.042  49.621 -23.821  1.00  0.00    -0.009 C 
HETATM   20  C28 UNL     1      -3.458  48.431 -22.916  1.00  0.00     0.018 C 
ENDROOT
BRANCH   1  21
HETATM   21  C6  UNL     1      -5.692  50.389 -23.731  1.00  0.00    -0.013 C 
HETATM   22  C7  UNL     1      -5.953  49.005 -24.368  1.00  0.00     0.010 C 
BRANCH  21  23
HETATM   23  C5  UNL     1      -6.279  50.405 -22.304  1.00  0.00     0.014 C 
BRANCH  23  24
HETATM   24  C4  UNL     1      -7.497  49.502 -22.065  1.00  0.00     0.111 C 
BRANCH  24  25
HETATM   25  C3  UNL     1      -7.325  48.615 -20.854  1.00  0.00     0.258 C 
HETATM   26  O2  UNL     1      -7.465  47.399 -20.853  1.00  0.00    -0.265 OA
BRANCH  25  27
HETATM   27  O1  UNL     1      -7.027  49.372 -19.761  1.00  0.00    -0.322 OA
BRANCH  27  28
HETATM   28  C2  UNL     1      -7.361  48.749 -18.514  1.00  0.00     0.174 C 
HETATM   29  C1  UNL     1      -8.748  49.207 -18.104  1.00  0.00     0.034 C 
ENDBRANCH  27  28
ENDBRANCH  25  27
ENDBRANCH  24  25
ENDBRANCH  23  24
ENDBRANCH  21  23
ENDBRANCH   1  21
BRANCH  18  30
HETATM   30  O5  UNL     1      -3.730  48.506 -25.917  1.00  0.00    -0.316 OA
BRANCH  30  31
HETATM   31  C25 UNL     1      -3.819  48.796 -27.244  1.00  0.00     0.255 C 
HETATM   32  C26 UNL     1      -4.986  48.068 -27.843  1.00  0.00     0.126 C 
HETATM   33  O6  UNL     1      -3.073  49.535 -27.870  1.00  0.00    -0.266 OA
ENDBRANCH  30  31
ENDBRANCH  18  30
BRANCH   6  34
HETATM   34  O3  UNL     1       0.406  51.864 -22.103  1.00  0.00    -0.394 OA
HETATM   35  H22 UNL     1       0.083  52.770 -21.942  1.00  0.00     0.210 HD
ENDBRANCH   6  34
BRANCH  11  36
HETATM   36  O4  UNL     1      -1.584  54.664 -28.160  1.00  0.00    -0.396 OA
HETATM   37  H28 UNL     1      -1.522  54.915 -29.097  1.00  0.00     0.210 HD
ENDBRANCH  11  36
TORSDOF 10
ENDMDL
MODEL 7
REMARK minimizedAffinity -6.50301027
REMARK CNNscore 0.319585234
REMARK CNNaffinity 5.85882759
REMARK  10 active torsions:
REMARK  status: ('A' for Active; 'I' for Inactive)
REMARK    1  A    between atoms: C2_2  and  O1_3 
REMARK    2  A    between atoms: O1_3  and  C3_4 
REMARK    3  A    between atoms: C3_4  and  C4_6 
REMARK    4  A    between atoms: C4_6  and  C5_7 
REMARK    5  A    between atoms: C5_7  and  C6_8 
REMARK    6  A    between atoms: C6_8  and  C8_10 
REMARK    7  A    between atoms: C13_15  and  O3_16 
REMARK    8  A    between atoms: C17_21  and  O4_22 
REMARK    9  A    between atoms: C24_29  and  O5_30 
REMARK   10  A    between atoms: O5_30  and  C25_31 
ROOT
HETATM    1  C8  UNL     1      -6.610  45.843 -31.579  1.00  0.00     0.000 C 
HETATM    2  C9  UNL     1      -5.924  46.663 -30.451  1.00  0.00     0.006 C 
HETATM    3  C10 UNL     1      -6.622  48.007 -30.346  1.00  0.00     0.006 C 
HETATM    4  C11 UNL     1      -8.001  47.797 -30.974  1.00  0.00     0.003 C 
HETATM    5  C12 UNL     1      -9.022  47.251 -29.924  1.00  0.00     0.025 C 
HETATM    6  C13 UNL     1      -9.572  48.349 -28.986  1.00  0.00     0.137 C 
HETATM    7  C14 UNL     1     -10.292  47.737 -27.774  1.00  0.00     0.092 C 
HETATM    8 BR1  UNL     1      -9.117  47.756 -26.188  1.00  0.00    -0.088 Br
HETATM    9  C15 UNL     1     -10.973  46.361 -28.014  1.00  0.00     0.013 C 
HETATM   10  C16 UNL     1     -10.268  45.097 -27.475  1.00  0.00     0.038 C 
HETATM   11  C17 UNL     1     -11.231  43.900 -27.411  1.00  0.00     0.118 C 
HETATM   12  C18 UNL     1     -12.316  43.945 -28.487  1.00  0.00     0.032 C 
HETATM   13  C19 UNL     1     -11.769  44.610 -29.744  1.00  0.00     0.012 C 
HETATM   14  C20 UNL     1     -11.375  46.113 -29.526  1.00  0.00    -0.035 C 
HETATM   15  C21 UNL     1     -12.664  46.946 -29.796  1.00  0.00     0.016 C 
HETATM   16  C22 UNL     1     -10.274  46.606 -30.574  1.00  0.00     0.003 C 
HETATM   17  C23 UNL     1      -9.849  45.586 -31.632  1.00  0.00     0.039 C 
HETATM   18  C24 UNL     1      -8.994  46.236 -32.721  1.00  0.00     0.141 C 
HETATM   19  C27 UNL     1      -7.666  46.848 -32.185  1.00  0.00    -0.009 C 
HETATM   20  C28 UNL     1      -7.032  47.694 -33.321  1.00  0.00     0.018 C 
ENDROOT
BRANCH   1  21
HETATM   21  C6  UNL     1      -5.493  45.167 -32.459  1.00  0.00    -0.013 C 
HETATM   22  C7  UNL     1      -4.111  45.748 -32.080  1.00  0.00     0.010 C 
BRANCH  21  23
HETATM   23  C5  UNL     1      -5.433  43.628 -32.372  1.00  0.00     0.014 C 
BRANCH  23  24
HETATM   24  C4  UNL     1      -4.127  42.976 -32.845  1.00  0.00     0.111 C 
BRANCH  24  25
HETATM   25  C3  UNL     1      -4.353  41.611 -33.454  1.00  0.00     0.258 C 
HETATM   26  O2  UNL     1      -5.159  40.787 -33.042  1.00  0.00    -0.265 OA
BRANCH  25  27
HETATM   27  O1  UNL     1      -3.505  41.424 -34.504  1.00  0.00    -0.322 OA
BRANCH  27  28
HETATM   28  C2  UNL     1      -4.160  41.376 -35.778  1.00  0.00     0.174 C 
HETATM   29  C1  UNL     1      -3.870  40.031 -36.417  1.00  0.00     0.034 C 
ENDBRANCH  27  28
ENDBRANCH  25  27
ENDBRANCH  24  25
ENDBRANCH  23  24
ENDBRANCH  21  23
ENDBRANCH   1  21
BRANCH  18  30
HETATM   30  O5  UNL     1      -8.741  45.245 -33.729  1.00  0.00    -0.316 OA
BRANCH  30  31
HETATM   31  C25 UNL     1      -9.336  45.428 -34.941  1.00  0.00     0.255 C 
HETATM   32  C26 UNL     1     -10.499  44.491 -35.079  1.00  0.00     0.126 C 
HETATM   33  O6  UNL     1      -8.990  46.229 -35.797  1.00  0.00    -0.266 OA
ENDBRANCH  30  31
ENDBRANCH  18  30
BRANCH   6  34
HETATM   34  O3  UNL     1      -8.627  49.345 -28.619  1.00  0.00    -0.394 OA
HETATM   35  H22 UNL     1      -8.094  48.983 -27.888  1.00  0.00     0.210 HD
ENDBRANCH   6  34
BRANCH  11  36
HETATM   36  O4  UNL     1     -10.455  42.711 -27.548  1.00  0.00    -0.396 OA
HETATM   37  H28 UNL     1     -11.050  41.954 -27.412  1.00  0.00     0.210 HD
ENDBRANCH  11  36
TORSDOF 10
ENDMDL
MODEL 8
REMARK minimizedAffinity -6.58218861
REMARK CNNscore 0.306445718
REMARK CNNaffinity 6.06346369
REMARK  10 active torsions:
REMARK  status: ('A' for Active; 'I' for Inactive)
REMARK    1  A    between atoms: C2_2  and  O1_3 
REMARK    2  A    between atoms: O1_3  and  C3_4 
REMARK    3  A    between atoms: C3_4  and  C4_6 
REMARK    4  A    between atoms: C4_6  and  C5_7 
REMARK    5  A    between atoms: C5_7  and  C6_8 
REMARK    6  A    between atoms: C6_8  and  C8_10 
REMARK    7  A    between atoms: C13_15  and  O3_16 
REMARK    8  A    between atoms: C17_21  and  O4_22 
REMARK    9  A    between atoms: C24_29  and  O5_30 
REMARK   10  A    between atoms: O5_30  and  C25_31 
ROOT
HETATM    1  C8  UNL     1     -14.882  44.943 -23.931  1.00  0.00     0.000 C 
HETATM    2  C9  UNL     1     -13.574  45.130 -23.111  1.00  0.00     0.006 C 
HETATM    3  C10 UNL     1     -13.555  46.544 -22.560  1.00  0.00     0.006 C 
HETATM    4  C11 UNL     1     -15.014  47.000 -22.564  1.00  0.00     0.003 C 
HETATM    5  C12 UNL     1     -15.747  46.563 -21.253  1.00  0.00     0.025 C 
HETATM    6  C13 UNL     1     -15.423  47.472 -20.047  1.00  0.00     0.137 C 
HETATM    7  C14 UNL     1     -15.875  46.827 -18.726  1.00  0.00     0.092 C 
HETATM    8 BR1  UNL     1     -14.342  46.000 -17.799  1.00  0.00    -0.088 Br
HETATM    9  C15 UNL     1     -17.112  45.892 -18.818  1.00  0.00     0.013 C 
HETATM   10  C16 UNL     1     -16.873  44.365 -18.785  1.00  0.00     0.038 C 
HETATM   11  C17 UNL     1     -18.168  43.601 -18.463  1.00  0.00     0.118 C 
HETATM   12  C18 UNL     1     -19.425  44.312 -18.963  1.00  0.00     0.032 C 
HETATM   13  C19 UNL     1     -19.111  45.076 -20.244  1.00  0.00     0.012 C 
HETATM   14  C20 UNL     1     -18.069  46.230 -20.034  1.00  0.00    -0.035 C 
HETATM   15  C21 UNL     1     -18.889  47.492 -19.630  1.00  0.00     0.016 C 
HETATM   16  C22 UNL     1     -17.291  46.591 -21.383  1.00  0.00     0.003 C 
HETATM   17  C23 UNL     1     -17.727  45.829 -22.636  1.00  0.00     0.039 C 
HETATM   18  C24 UNL     1     -17.103  46.427 -23.898  1.00  0.00     0.141 C 
HETATM   19  C27 UNL     1     -15.548  46.375 -23.906  1.00  0.00    -0.009 C 
HETATM   20  C28 UNL     1     -15.042  47.237 -25.094  1.00  0.00     0.018 C 
ENDROOT
BRANCH   1  21
HETATM   21  C6  UNL     1     -14.530  44.204 -25.276  1.00  0.00    -0.013 C 
HETATM   22  C7  UNL     1     -13.431  43.147 -25.016  1.00  0.00     0.010 C 
BRANCH  21  23
HETATM   23  C5  UNL     1     -15.722  43.526 -25.982  1.00  0.00     0.014 C 
BRANCH  23  24
HETATM   24  C4  UNL     1     -15.517  43.170 -27.460  1.00  0.00     0.111 C 
BRANCH  24  25
HETATM   25  C3  UNL     1     -16.077  44.222 -28.389  1.00  0.00     0.258 C 
HETATM   26  O2  UNL     1     -16.943  44.023 -29.231  1.00  0.00    -0.265 OA
BRANCH  25  27
HETATM   27  O1  UNL     1     -15.453  45.414 -28.172  1.00  0.00    -0.322 OA
BRANCH  27  28
HETATM   28  C2  UNL     1     -14.185  45.534 -28.830  1.00  0.00     0.174 C 
HETATM   29  C1  UNL     1     -13.372  46.598 -28.117  1.00  0.00     0.034 C 
ENDBRANCH  27  28
ENDBRANCH  25  27
ENDBRANCH  24  25
ENDBRANCH  23  24
ENDBRANCH  21  23
ENDBRANCH   1  21
BRANCH  18  30
HETATM   30  O5  UNL     1     -17.655  45.735 -25.029  1.00  0.00    -0.316 OA
BRANCH  30  31
HETATM   31  C25 UNL     1     -18.938  46.033 -25.373  1.00  0.00     0.255 C 
HETATM   32  C26 UNL     1     -19.516  44.914 -26.186  1.00  0.00     0.126 C 
HETATM   33  O6  UNL     1     -19.545  47.051 -25.072  1.00  0.00    -0.266 OA
ENDBRANCH  30  31
ENDBRANCH  18  30
BRANCH   6  34
HETATM   34  O3  UNL     1     -14.083  47.942 -19.998  1.00  0.00    -0.394 OA
HETATM   35  H22 UNL     1     -13.540  47.231 -19.612  1.00  0.00     0.210 HD
ENDBRANCH   6  34
BRANCH  11  36
HETATM   36  O4  UNL     1     -18.068  42.309 -19.058  1.00  0.00    -0.396 OA
HETATM   37  H28 UNL     1     -18.842  41.793 -18.774  1.00  0.00     0.210 HD
ENDBRANCH  11  36
TORSDOF 10
ENDMDL
MODEL 9
REMARK minimizedAffinity -7.71319675
REMARK CNNscore 0.303592324
REMARK CNNaffinity 6.41944647
REMARK  10 active torsions:
REMARK  status: ('A' for Active; 'I' for Inactive)
REMARK    1  A    between atoms: C2_2  and  O1_3 
REMARK    2  A    between atoms: O1_3  and  C3_4 
REMARK    3  A    between atoms: C3_4  and  C4_6 
REMARK    4  A    between atoms: C4_6  and  C5_7 
REMARK    5  A    between atoms: C5_7  and  C6_8 
REMARK    6  A    between atoms: C6_8  and  C8_10 
REMARK    7  A    between atoms: C13_15  and  O3_16 
REMARK    8  A    between atoms: C17_21  and  O4_22 
REMARK    9  A    between atoms: C24_29  and  O5_30 
REMARK   10  A    between atoms: O5_30  and  C25_31 
ROOT
HETATM    1  C8  UNL     1      -3.062  49.447 -24.026  1.00  0.00     0.000 C 
HETATM    2  C9  UNL     1      -1.798  49.995 -23.306  1.00  0.00     0.006 C 
HETATM    3  C10 UNL     1      -2.237  51.054 -22.312  1.00  0.00     0.006 C 
HETATM    4  C11 UNL     1      -3.712  50.764 -22.036  1.00  0.00     0.003 C 
HETATM    5  C12 UNL     1      -3.876  49.708 -20.894  1.00  0.00     0.025 C 
HETATM    6  C13 UNL     1      -3.688  50.308 -19.482  1.00  0.00     0.137 C 
HETATM    7  C14 UNL     1      -3.516  49.205 -18.426  1.00  0.00     0.092 C 
HETATM    8 BR1  UNL     1      -1.611  48.973 -17.970  1.00  0.00    -0.088 Br
HETATM    9  C15 UNL     1      -4.243  47.864 -18.723  1.00  0.00     0.013 C 
HETATM   10  C16 UNL     1      -3.396  46.676 -19.231  1.00  0.00     0.038 C 
HETATM   11  C17 UNL     1      -4.147  45.343 -19.078  1.00  0.00     0.118 C 
HETATM   12  C18 UNL     1      -5.664  45.493 -19.197  1.00  0.00     0.032 C 
HETATM   13  C19 UNL     1      -5.997  46.623 -20.164  1.00  0.00     0.012 C 
HETATM   14  C20 UNL     1      -5.505  48.027 -19.665  1.00  0.00    -0.035 C 
HETATM   15  C21 UNL     1      -6.655  48.606 -18.788  1.00  0.00     0.016 C 
HETATM   16  C22 UNL     1      -5.279  49.049 -20.873  1.00  0.00     0.003 C 
HETATM   17  C23 UNL     1      -5.637  48.533 -22.268  1.00  0.00     0.039 C 
HETATM   18  C24 UNL     1      -5.625  49.661 -23.300  1.00  0.00     0.141 C 
HETATM   19  C27 UNL     1      -4.234  50.341 -23.459  1.00  0.00    -0.009 C 
HETATM   20  C28 UNL     1      -4.417  51.618 -24.323  1.00  0.00     0.018 C 
ENDROOT
BRANCH   1  21
HETATM   21  C6  UNL     1      -2.757  49.340 -25.566  1.00  0.00    -0.013 C 
HETATM   22  C7  UNL     1      -3.756  48.363 -26.228  1.00  0.00     0.010 C 
BRANCH  21  23
HETATM   23  C5  UNL     1      -2.781  50.679 -26.333  1.00  0.00     0.014 C 
BRANCH  23  24
HETATM   24  C4  UNL     1      -1.535  51.001 -27.169  1.00  0.00     0.111 C 
BRANCH  24  25
HETATM   25  C3  UNL     1      -1.210  52.477 -27.171  1.00  0.00     0.258 C 
HETATM   26  O2  UNL     1      -2.020  53.370 -27.381  1.00  0.00    -0.265 OA
BRANCH  25  27
HETATM   27  O1  UNL     1       0.120  52.660 -26.940  1.00  0.00    -0.322 OA
BRANCH  27  28
HETATM   28  C2  UNL     1       0.693  51.697 -26.046  1.00  0.00     0.174 C 
HETATM   29  C1  UNL     1       2.144  51.488 -26.432  1.00  0.00     0.034 C 
ENDBRANCH  27  28
ENDBRANCH  25  27
ENDBRANCH  24  25
ENDBRANCH  23  24
ENDBRANCH  21  23
ENDBRANCH   1  21
BRANCH  18  30
HETATM   30  O5  UNL     1      -6.086  49.119 -24.547  1.00  0.00    -0.316 OA
BRANCH  30  31
HETATM   31  C25 UNL     1      -7.358  48.633 -24.579  1.00  0.00     0.255 C 
HETATM   32  C26 UNL     1      -7.357  47.255 -25.172  1.00  0.00     0.126 C 
HETATM   33  O6  UNL     1      -8.359  49.214 -24.188  1.00  0.00    -0.266 OA
ENDBRANCH  30  31
ENDBRANCH  18  30
BRANCH   6  34
HETATM   34  O3  UNL     1      -2.689  51.315 -19.393  1.00  0.00    -0.394 OA
HETATM   35  H22 UNL     1      -1.828  50.864 -19.318  1.00  0.00     0.210 HD
ENDBRANCH   6  34
BRANCH  11  36
HETATM   36  O4  UNL     1      -3.664  44.454 -20.082  1.00  0.00    -0.396 OA
HETATM   37  H28 UNL     1      -4.067  43.584 -19.925  1.00  0.00     0.210 HD
ENDBRANCH  11  36
TORSDOF 10
ENDMDL
