MODEL 1
REMARK minimizedAffinity -9.24802399
REMARK  6 active torsions:
REMARK  status: ('A' for Active; 'I' for Inactive)
REMARK    1  A    between atoms: C2_2  and  C30_31 
REMARK    2  A    between atoms: C3_3  and  C4_4 
REMARK    3  A    between atoms: C4_4  and  C5_5 
REMARK    4  A    between atoms: C5_5  and  C6_6 
REMARK    5  A    between atoms: C6_6  and  C8_8 
REMARK    6  A    between atoms: C30_31  and  O2_32 
ROOT
HETATM    1  C8  UNL     1      -2.573   8.562  15.226  1.00  0.00    -0.002 C 
HETATM    2  C9  UNL     1      -1.676   8.005  16.381  1.00  0.00     0.006 C 
HETATM    3  C10 UNL     1      -0.320   7.602  15.770  1.00  0.00     0.011 C 
HETATM    4  C11 UNL     1      -0.681   7.274  14.320  1.00  0.00    -0.032 C 
HETATM    5  C12 UNL     1      -1.405   5.876  14.355  1.00  0.00     0.016 C 
HETATM    6  C13 UNL     1       0.483   7.083  13.314  1.00  0.00     0.004 C 
HETATM    7  C14 UNL     1       1.621   8.160  13.260  1.00  0.00     0.007 C 
HETATM    8  C15 UNL     1       1.983   8.674  11.826  1.00  0.00     0.007 C 
HETATM    9  C16 UNL     1       2.154   7.499  10.853  1.00  0.00     0.010 C 
HETATM   10  C17 UNL     1       2.391   7.646   9.349  1.00  0.00     0.018 C 
HETATM   11  C18 UNL     1       3.674   8.439   9.070  1.00  0.00     0.023 C 
HETATM   12  C19 UNL     1       1.215   8.321   8.637  1.00  0.00     0.023 C 
HETATM   13  C20 UNL     1       2.579   6.202   8.805  1.00  0.00     0.135 C 
HETATM   14  O1  UNL     1       2.571   5.972   7.592  1.00  0.00    -0.297 OA
HETATM   15  C21 UNL     1       2.891   5.062   9.801  1.00  0.00     0.080 C 
HETATM   16  C22 UNL     1       2.072   5.093  11.117  1.00  0.00     0.018 C 
HETATM   17  C23 UNL     1       1.205   6.342  11.101  1.00  0.00    -0.026 A 
HETATM   18  C24 UNL     1      -0.189   5.840  10.901  1.00  0.00     0.021 A 
HETATM   19  C25 UNL     1      -0.063   6.919  11.903  1.00  0.00    -0.027 A 
HETATM   20  C26 UNL     1      -1.099   8.001  11.505  1.00  0.00     0.011 C 
HETATM   21  C27 UNL     1      -2.217   8.191  12.559  1.00  0.00     0.011 C 
HETATM   22  C28 UNL     1      -1.638   8.468  13.958  1.00  0.00    -0.032 C 
HETATM   23  C29 UNL     1      -0.980   9.884  13.891  1.00  0.00     0.016 C 
ENDROOT
BRANCH   1  24
HETATM   24  C6  UNL     1      -4.014   7.978  15.110  1.00  0.00    -0.014 C 
HETATM   25  C7  UNL     1      -4.858   8.742  14.075  1.00  0.00     0.010 C 
BRANCH  24  26
HETATM   26  C5  UNL     1      -3.961   6.479  14.695  1.00  0.00     0.008 C 
BRANCH  26  27
HETATM   27  C4  UNL     1      -4.667   6.157  13.369  1.00  0.00     0.028 C 
BRANCH  27  28
HETATM   28  C3  UNL     1      -5.398   4.844  13.359  1.00  0.00    -0.022 C 
HETATM   29  C2  UNL     1      -6.715   4.644  13.148  1.00  0.00    -0.064 C 
HETATM   30  C1  UNL     1      -7.723   5.742  12.931  1.00  0.00     0.045 C 
BRANCH  29  31
HETATM   31  C30 UNL     1      -7.295   3.253  13.147  1.00  0.00     0.197 C 
BRANCH  31  32
HETATM   32  O2  UNL     1      -8.712   3.336  13.179  1.00  0.00    -0.397 OA
HETATM   33  H48 UNL     1      -8.965   3.975  12.490  1.00  0.00     0.209 HD
ENDBRANCH  31  32
ENDBRANCH  29  31
ENDBRANCH  27  28
ENDBRANCH  26  27
ENDBRANCH  24  26
ENDBRANCH   1  24
TORSDOF 6
ENDMDL
MODEL 2
REMARK minimizedAffinity -9.06142807
REMARK  6 active torsions:
REMARK  status: ('A' for Active; 'I' for Inactive)
REMARK    1  A    between atoms: C2_2  and  C30_31 
REMARK    2  A    between atoms: C3_3  and  C4_4 
REMARK    3  A    between atoms: C4_4  and  C5_5 
REMARK    4  A    between atoms: C5_5  and  C6_6 
REMARK    5  A    between atoms: C6_6  and  C8_8 
REMARK    6  A    between atoms: C30_31  and  O2_32 
ROOT
HETATM    1  C8  UNL     1      -2.732   8.627  15.188  1.00  0.00    -0.002 C 
HETATM    2  C9  UNL     1      -1.826   8.138  16.367  1.00  0.00     0.006 C 
HETATM    3  C10 UNL     1      -0.457   7.752  15.777  1.00  0.00     0.011 C 
HETATM    4  C11 UNL     1      -0.799   7.361  14.338  1.00  0.00    -0.032 C 
HETATM    5  C12 UNL     1      -1.483   5.946  14.421  1.00  0.00     0.016 C 
HETATM    6  C13 UNL     1       0.377   7.168  13.346  1.00  0.00     0.004 C 
HETATM    7  C14 UNL     1       1.484   8.275  13.258  1.00  0.00     0.007 C 
HETATM    8  C15 UNL     1       1.839   8.747  11.809  1.00  0.00     0.007 C 
HETATM    9  C16 UNL     1       2.050   7.542  10.880  1.00  0.00     0.010 C 
HETATM   10  C17 UNL     1       2.292   7.642   9.373  1.00  0.00     0.018 C 
HETATM   11  C18 UNL     1       3.554   8.460   9.072  1.00  0.00     0.023 C 
HETATM   12  C19 UNL     1       1.102   8.257   8.631  1.00  0.00     0.023 C 
HETATM   13  C20 UNL     1       2.524   6.185   8.883  1.00  0.00     0.135 C 
HETATM   14  O1  UNL     1       2.530   5.911   7.679  1.00  0.00    -0.297 OA
HETATM   15  C21 UNL     1       2.863   5.091   9.921  1.00  0.00     0.080 C 
HETATM   16  C22 UNL     1       2.034   5.146  11.231  1.00  0.00     0.018 C 
HETATM   17  C23 UNL     1       1.133   6.368  11.165  1.00  0.00    -0.026 A 
HETATM   18  C24 UNL     1      -0.245   5.820  10.976  1.00  0.00     0.021 A 
HETATM   19  C25 UNL     1      -0.156   6.938  11.939  1.00  0.00    -0.027 A 
HETATM   20  C26 UNL     1      -1.219   7.974  11.497  1.00  0.00     0.011 C 
HETATM   21  C27 UNL     1      -2.350   8.171  12.537  1.00  0.00     0.011 C 
HETATM   22  C28 UNL     1      -1.787   8.514  13.928  1.00  0.00    -0.032 C 
HETATM   23  C29 UNL     1      -1.169   9.945  13.813  1.00  0.00     0.016 C 
ENDROOT
BRANCH   1  24
HETATM   24  C6  UNL     1      -4.155   7.998  15.085  1.00  0.00    -0.014 C 
HETATM   25  C7  UNL     1      -4.883   8.439  13.803  1.00  0.00     0.010 C 
BRANCH  24  26
HETATM   26  C5  UNL     1      -4.065   6.445  15.093  1.00  0.00     0.008 C 
BRANCH  26  27
HETATM   27  C4  UNL     1      -5.092   5.739  14.196  1.00  0.00     0.028 C 
BRANCH  27  28
HETATM   28  C3  UNL     1      -4.489   4.903  13.102  1.00  0.00    -0.022 C 
HETATM   29  C2  UNL     1      -5.113   3.984  12.338  1.00  0.00    -0.064 C 
HETATM   30  C1  UNL     1      -6.557   3.584  12.489  1.00  0.00     0.045 C 
BRANCH  29  31
HETATM   31  C30 UNL     1      -4.367   3.241  11.259  1.00  0.00     0.197 C 
BRANCH  31  32
HETATM   32  O2  UNL     1      -5.290   2.778  10.285  1.00  0.00    -0.397 OA
HETATM   33  H48 UNL     1      -5.855   3.538  10.058  1.00  0.00     0.209 HD
ENDBRANCH  31  32
ENDBRANCH  29  31
ENDBRANCH  27  28
ENDBRANCH  26  27
ENDBRANCH  24  26
ENDBRANCH   1  24
TORSDOF 6
ENDMDL
MODEL 3
REMARK minimizedAffinity -8.79211903
REMARK  6 active torsions:
REMARK  status: ('A' for Active; 'I' for Inactive)
REMARK    1  A    between atoms: C2_2  and  C30_31 
REMARK    2  A    between atoms: C3_3  and  C4_4 
REMARK    3  A    between atoms: C4_4  and  C5_5 
REMARK    4  A    between atoms: C5_5  and  C6_6 
REMARK    5  A    between atoms: C6_6  and  C8_8 
REMARK    6  A    between atoms: C30_31  and  O2_32 
ROOT
HETATM    1  C8  UNL     1       0.046   8.949  14.095  1.00  0.00    -0.002 C 
HETATM    2  C9  UNL     1       0.035   9.254  12.559  1.00  0.00     0.006 C 
HETATM    3  C10 UNL     1      -1.335   8.820  12.005  1.00  0.00     0.011 C 
HETATM    4  C11 UNL     1      -1.764   7.715  12.972  1.00  0.00    -0.032 C 
HETATM    5  C12 UNL     1      -0.896   6.453  12.605  1.00  0.00     0.016 C 
HETATM    6  C13 UNL     1      -3.230   7.216  12.890  1.00  0.00     0.004 C 
HETATM    7  C14 UNL     1      -4.389   8.272  12.874  1.00  0.00     0.007 C 
HETATM    8  C15 UNL     1      -5.555   7.995  13.881  1.00  0.00     0.007 C 
HETATM    9  C16 UNL     1      -6.009   6.530  13.801  1.00  0.00     0.010 C 
HETATM   10  C17 UNL     1      -7.044   5.891  14.727  1.00  0.00     0.018 C 
HETATM   11  C18 UNL     1      -8.392   6.614  14.627  1.00  0.00     0.023 C 
HETATM   12  C19 UNL     1      -6.586   5.874  16.188  1.00  0.00     0.023 C 
HETATM   13  C20 UNL     1      -7.230   4.434  14.215  1.00  0.00     0.135 C 
HETATM   14  O1  UNL     1      -7.838   3.596  14.888  1.00  0.00    -0.297 OA
HETATM   15  C21 UNL     1      -6.741   4.072  12.795  1.00  0.00     0.080 C 
HETATM   16  C22 UNL     1      -5.361   4.661  12.402  1.00  0.00     0.018 C 
HETATM   17  C23 UNL     1      -4.885   5.544  13.545  1.00  0.00    -0.026 A 
HETATM   18  C24 UNL     1      -3.758   4.787  14.171  1.00  0.00     0.021 A 
HETATM   19  C25 UNL     1      -3.515   6.237  14.020  1.00  0.00    -0.027 A 
HETATM   20  C26 UNL     1      -3.076   6.749  15.415  1.00  0.00     0.011 C 
HETATM   21  C27 UNL     1      -1.622   7.280  15.441  1.00  0.00     0.011 C 
HETATM   22  C28 UNL     1      -1.391   8.352  14.360  1.00  0.00    -0.032 C 
HETATM   23  C29 UNL     1      -2.225   9.602  14.793  1.00  0.00     0.016 C 
ENDROOT
BRANCH   1  24
HETATM   24  C6  UNL     1       1.273   8.161  14.648  1.00  0.00    -0.014 C 
HETATM   25  C7  UNL     1       1.006   7.609  16.059  1.00  0.00     0.010 C 
BRANCH  24  26
HETATM   26  C5  UNL     1       1.622   6.971  13.709  1.00  0.00     0.008 C 
BRANCH  26  27
HETATM   27  C4  UNL     1       2.643   7.302  12.610  1.00  0.00     0.028 C 
BRANCH  27  28
HETATM   28  C3  UNL     1       2.732   6.275  11.517  1.00  0.00    -0.022 C 
HETATM   29  C2  UNL     1       3.470   6.342  10.390  1.00  0.00    -0.064 C 
HETATM   30  C1  UNL     1       4.320   7.521   9.993  1.00  0.00     0.045 C 
BRANCH  29  31
HETATM   31  C30 UNL     1       3.468   5.209   9.396  1.00  0.00     0.197 C 
BRANCH  31  32
HETATM   32  O2  UNL     1       2.996   4.030  10.029  1.00  0.00    -0.397 OA
HETATM   33  H48 UNL     1       2.178   4.277  10.495  1.00  0.00     0.209 HD
ENDBRANCH  31  32
ENDBRANCH  29  31
ENDBRANCH  27  28
ENDBRANCH  26  27
ENDBRANCH  24  26
ENDBRANCH   1  24
TORSDOF 6
ENDMDL
MODEL 4
REMARK minimizedAffinity -8.77952385
REMARK  6 active torsions:
REMARK  status: ('A' for Active; 'I' for Inactive)
REMARK    1  A    between atoms: C2_2  and  C30_31 
REMARK    2  A    between atoms: C3_3  and  C4_4 
REMARK    3  A    between atoms: C4_4  and  C5_5 
REMARK    4  A    between atoms: C5_5  and  C6_6 
REMARK    5  A    between atoms: C6_6  and  C8_8 
REMARK    6  A    between atoms: C30_31  and  O2_32 
ROOT
HETATM    1  C8  UNL     1      -6.266   6.866  14.415  1.00  0.00    -0.002 C 
HETATM    2  C9  UNL     1      -6.145   7.849  15.627  1.00  0.00     0.006 C 
HETATM    3  C10 UNL     1      -4.719   8.433  15.617  1.00  0.00     0.011 C 
HETATM    4  C11 UNL     1      -3.904   7.340  14.923  1.00  0.00    -0.032 C 
HETATM    5  C12 UNL     1      -3.732   6.186  15.980  1.00  0.00     0.016 C 
HETATM    6  C13 UNL     1      -2.457   7.688  14.487  1.00  0.00     0.004 C 
HETATM    7  C14 UNL     1      -2.206   9.012  13.686  1.00  0.00     0.007 C 
HETATM    8  C15 UNL     1      -1.336   8.852  12.394  1.00  0.00     0.007 C 
HETATM    9  C16 UNL     1      -0.080   8.018  12.682  1.00  0.00     0.010 C 
HETATM   10  C17 UNL     1       0.926   7.570  11.621  1.00  0.00     0.018 C 
HETATM   11  C18 UNL     1       1.542   8.776  10.902  1.00  0.00     0.023 C 
HETATM   12  C19 UNL     1       0.300   6.630  10.586  1.00  0.00     0.023 C 
HETATM   13  C20 UNL     1       2.056   6.829  12.391  1.00  0.00     0.135 C 
HETATM   14  O1  UNL     1       2.903   6.161  11.792  1.00  0.00    -0.297 OA
HETATM   15  C21 UNL     1       2.176   7.031  13.919  1.00  0.00     0.080 C 
HETATM   16  C22 UNL     1       0.833   7.023  14.693  1.00  0.00     0.018 C 
HETATM   17  C23 UNL     1      -0.293   6.895  13.680  1.00  0.00    -0.026 A 
HETATM   18  C24 UNL     1      -0.821   5.508  13.863  1.00  0.00     0.021 A 
HETATM   19  C25 UNL     1      -1.862   6.542  13.683  1.00  0.00    -0.027 A 
HETATM   20  C26 UNL     1      -2.781   6.034  12.544  1.00  0.00     0.011 C 
HETATM   21  C27 UNL     1      -4.228   5.743  13.013  1.00  0.00     0.011 C 
HETATM   22  C28 UNL     1      -4.849   6.958  13.725  1.00  0.00    -0.032 C 
HETATM   23  C29 UNL     1      -5.053   8.055  12.630  1.00  0.00     0.016 C 
ENDROOT
BRANCH   1  24
HETATM   24  C6  UNL     1      -6.837   5.446  14.713  1.00  0.00    -0.014 C 
HETATM   25  C7  UNL     1      -7.642   5.419  16.024  1.00  0.00     0.010 C 
BRANCH  24  26
HETATM   26  C5  UNL     1      -7.763   4.979  13.553  1.00  0.00     0.008 C 
BRANCH  26  27
HETATM   27  C4  UNL     1      -7.429   3.590  12.988  1.00  0.00     0.028 C 
BRANCH  27  28
HETATM   28  C3  UNL     1      -6.002   3.428  12.547  1.00  0.00    -0.022 C 
HETATM   29  C2  UNL     1      -5.490   2.439  11.785  1.00  0.00    -0.064 C 
HETATM   30  C1  UNL     1      -6.275   1.260  11.272  1.00  0.00     0.045 C 
BRANCH  29  31
HETATM   31  C30 UNL     1      -4.031   2.431  11.408  1.00  0.00     0.197 C 
BRANCH  31  32
HETATM   32  O2  UNL     1      -3.519   1.114  11.541  1.00  0.00    -0.397 OA
HETATM   33  H48 UNL     1      -4.148   0.527  11.086  1.00  0.00     0.209 HD
ENDBRANCH  31  32
ENDBRANCH  29  31
ENDBRANCH  27  28
ENDBRANCH  26  27
ENDBRANCH  24  26
ENDBRANCH   1  24
TORSDOF 6
ENDMDL
MODEL 5
REMARK minimizedAffinity -8.779356
REMARK  6 active torsions:
REMARK  status: ('A' for Active; 'I' for Inactive)
REMARK    1  A    between atoms: C2_2  and  C30_31 
REMARK    2  A    between atoms: C3_3  and  C4_4 
REMARK    3  A    between atoms: C4_4  and  C5_5 
REMARK    4  A    between atoms: C5_5  and  C6_6 
REMARK    5  A    between atoms: C6_6  and  C8_8 
REMARK    6  A    between atoms: C30_31  and  O2_32 
ROOT
HETATM    1  C8  UNL     1      -3.534   7.747  15.392  1.00  0.00    -0.002 C 
HETATM    2  C9  UNL     1      -3.732   6.197  15.490  1.00  0.00     0.006 C 
HETATM    3  C10 UNL     1      -2.501   5.525  14.852  1.00  0.00     0.011 C 
HETATM    4  C11 UNL     1      -2.020   6.572  13.846  1.00  0.00    -0.032 C 
HETATM    5  C12 UNL     1      -3.032   6.516  12.640  1.00  0.00     0.016 C 
HETATM    6  C13 UNL     1      -0.628   6.360  13.196  1.00  0.00     0.004 C 
HETATM    7  C14 UNL     1       0.596   6.029  14.118  1.00  0.00     0.007 C 
HETATM    8  C15 UNL     1       1.875   6.894  13.860  1.00  0.00     0.007 C 
HETATM    9  C16 UNL     1       2.192   6.962  12.359  1.00  0.00     0.010 C 
HETATM   10  C17 UNL     1       3.302   7.817  11.746  1.00  0.00     0.018 C 
HETATM   11  C18 UNL     1       4.673   7.427  12.311  1.00  0.00     0.023 C 
HETATM   12  C19 UNL     1       3.072   9.315  11.966  1.00  0.00     0.023 C 
HETATM   13  C20 UNL     1       3.291   7.500  10.224  1.00  0.00     0.135 C 
HETATM   14  O1  UNL     1       3.925   8.195   9.424  1.00  0.00    -0.297 OA
HETATM   15  C21 UNL     1       2.564   6.229   9.729  1.00  0.00     0.080 C 
HETATM   16  C22 UNL     1       1.192   5.952  10.398  1.00  0.00     0.018 C 
HETATM   17  C23 UNL     1       0.967   7.011  11.466  1.00  0.00    -0.026 A 
HETATM   18  C24 UNL     1      -0.109   7.891  10.914  1.00  0.00     0.021 A 
HETATM   19  C25 UNL     1      -0.255   7.567  12.350  1.00  0.00    -0.027 A 
HETATM   20  C26 UNL     1      -0.433   8.922  13.080  1.00  0.00     0.011 C 
HETATM   21  C27 UNL     1      -1.819   9.073  13.754  1.00  0.00     0.011 C 
HETATM   22  C28 UNL     1      -2.126   7.893  14.693  1.00  0.00    -0.032 C 
HETATM   23  C29 UNL     1      -1.138   8.020  15.898  1.00  0.00     0.016 C 
ENDROOT
BRANCH   1  24
HETATM   24  C6  UNL     1      -4.721   8.574  14.810  1.00  0.00    -0.014 C 
HETATM   25  C7  UNL     1      -4.844   8.400  13.286  1.00  0.00     0.010 C 
BRANCH  24  26
HETATM   26  C5  UNL     1      -6.061   8.136  15.468  1.00  0.00     0.008 C 
BRANCH  26  27
HETATM   27  C4  UNL     1      -7.066   7.488  14.504  1.00  0.00     0.028 C 
BRANCH  27  28
HETATM   28  C3  UNL     1      -7.058   5.986  14.517  1.00  0.00    -0.022 C 
HETATM   29  C2  UNL     1      -7.681   5.157  13.654  1.00  0.00    -0.064 C 
HETATM   30  C1  UNL     1      -8.566   5.609  12.522  1.00  0.00     0.045 C 
BRANCH  29  31
HETATM   31  C30 UNL     1      -7.555   3.662  13.791  1.00  0.00     0.197 C 
BRANCH  31  32
HETATM   32  O2  UNL     1      -8.587   3.034  13.045  1.00  0.00    -0.397 OA
HETATM   33  H48 UNL     1      -8.582   3.449  12.166  1.00  0.00     0.209 HD
ENDBRANCH  31  32
ENDBRANCH  29  31
ENDBRANCH  27  28
ENDBRANCH  26  27
ENDBRANCH  24  26
ENDBRANCH   1  24
TORSDOF 6
ENDMDL
MODEL 6
REMARK minimizedAffinity -8.6313448
REMARK  6 active torsions:
REMARK  status: ('A' for Active; 'I' for Inactive)
REMARK    1  A    between atoms: C2_2  and  C30_31 
REMARK    2  A    between atoms: C3_3  and  C4_4 
REMARK    3  A    between atoms: C4_4  and  C5_5 
REMARK    4  A    between atoms: C5_5  and  C6_6 
REMARK    5  A    between atoms: C6_6  and  C8_8 
REMARK    6  A    between atoms: C30_31  and  O2_32 
ROOT
HETATM    1  C8  UNL     1       0.901   7.045  13.375  1.00  0.00    -0.002 C 
HETATM    2  C9  UNL     1       1.257   7.900  14.636  1.00  0.00     0.006 C 
HETATM    3  C10 UNL     1      -0.027   8.060  15.473  1.00  0.00     0.011 C 
HETATM    4  C11 UNL     1      -1.137   7.943  14.427  1.00  0.00    -0.032 C 
HETATM    5  C12 UNL     1      -1.140   9.305  13.637  1.00  0.00     0.016 C 
HETATM    6  C13 UNL     1      -2.593   7.785  14.936  1.00  0.00     0.004 C 
HETATM    7  C14 UNL     1      -2.898   6.710  16.036  1.00  0.00     0.007 C 
HETATM    8  C15 UNL     1      -4.116   5.775  15.731  1.00  0.00     0.007 C 
HETATM    9  C16 UNL     1      -5.330   6.593  15.268  1.00  0.00     0.010 C 
HETATM   10  C17 UNL     1      -6.646   5.989  14.776  1.00  0.00     0.018 C 
HETATM   11  C18 UNL     1      -7.288   5.113  15.859  1.00  0.00     0.023 C 
HETATM   12  C19 UNL     1      -6.467   5.164  13.499  1.00  0.00     0.023 C 
HETATM   13  C20 UNL     1      -7.589   7.194  14.498  1.00  0.00     0.135 C 
HETATM   14  O1  UNL     1      -8.649   7.044  13.884  1.00  0.00    -0.297 OA
HETATM   15  C21 UNL     1      -7.238   8.573  15.101  1.00  0.00     0.080 C 
HETATM   16  C22 UNL     1      -5.740   8.967  15.019  1.00  0.00     0.018 C 
HETATM   17  C23 UNL     1      -4.979   7.797  14.415  1.00  0.00    -0.026 A 
HETATM   18  C24 UNL     1      -4.598   8.254  13.044  1.00  0.00     0.021 A 
HETATM   19  C25 UNL     1      -3.533   7.527  13.767  1.00  0.00    -0.027 A 
HETATM   20  C26 UNL     1      -3.051   6.406  12.813  1.00  0.00     0.011 C 
HETATM   21  C27 UNL     1      -1.578   6.577  12.366  1.00  0.00     0.011 C 
HETATM   22  C28 UNL     1      -0.632   6.722  13.572  1.00  0.00    -0.032 C 
HETATM   23  C29 UNL     1      -0.618   5.335  14.291  1.00  0.00     0.016 C 
ENDROOT
BRANCH   1  24
HETATM   24  C6  UNL     1       1.352   7.607  11.992  1.00  0.00    -0.014 C 
HETATM   25  C7  UNL     1       2.644   6.933  11.497  1.00  0.00     0.010 C 
BRANCH  24  26
HETATM   26  C5  UNL     1       0.239   7.386  10.927  1.00  0.00     0.008 C 
BRANCH  26  27
HETATM   27  C4  UNL     1       0.197   8.446   9.816  1.00  0.00     0.028 C 
BRANCH  27  28
HETATM   28  C3  UNL     1       0.380   7.898   8.429  1.00  0.00    -0.022 C 
HETATM   29  C2  UNL     1       1.532   7.797   7.735  1.00  0.00    -0.064 C 
HETATM   30  C1  UNL     1       2.871   8.281   8.225  1.00  0.00     0.045 C 
BRANCH  29  31
HETATM   31  C30 UNL     1       1.551   7.197   6.352  1.00  0.00     0.197 C 
BRANCH  31  32
HETATM   32  O2  UNL     1       2.351   6.025   6.360  1.00  0.00    -0.397 OA
HETATM   33  H48 UNL     1       2.056   5.496   7.121  1.00  0.00     0.209 HD
ENDBRANCH  31  32
ENDBRANCH  29  31
ENDBRANCH  27  28
ENDBRANCH  26  27
ENDBRANCH  24  26
ENDBRANCH   1  24
TORSDOF 6
ENDMDL
MODEL 7
REMARK minimizedAffinity -8.48913956
REMARK  6 active torsions:
REMARK  status: ('A' for Active; 'I' for Inactive)
REMARK    1  A    between atoms: C2_2  and  C30_31 
REMARK    2  A    between atoms: C3_3  and  C4_4 
REMARK    3  A    between atoms: C4_4  and  C5_5 
REMARK    4  A    between atoms: C5_5  and  C6_6 
REMARK    5  A    between atoms: C6_6  and  C8_8 
REMARK    6  A    between atoms: C30_31  and  O2_32 
ROOT
HETATM    1  C8  UNL     1      -1.110   6.442  12.704  1.00  0.00    -0.002 C 
HETATM    2  C9  UNL     1      -0.746   7.441  11.555  1.00  0.00     0.006 C 
HETATM    3  C10 UNL     1      -0.825   8.868  12.131  1.00  0.00     0.011 C 
HETATM    4  C11 UNL     1      -1.841   8.726  13.265  1.00  0.00    -0.032 C 
HETATM    5  C12 UNL     1      -3.253   8.618  12.577  1.00  0.00     0.016 C 
HETATM    6  C13 UNL     1      -1.982   9.909  14.258  1.00  0.00     0.004 C 
HETATM    7  C14 UNL     1      -0.686  10.524  14.891  1.00  0.00     0.007 C 
HETATM    8  C15 UNL     1      -0.728  10.707  16.445  1.00  0.00     0.007 C 
HETATM    9  C16 UNL     1      -2.042  11.371  16.881  1.00  0.00     0.010 C 
HETATM   10  C17 UNL     1      -2.463  11.590  18.335  1.00  0.00     0.018 C 
HETATM   11  C18 UNL     1      -1.442  12.461  19.078  1.00  0.00     0.023 C 
HETATM   12  C19 UNL     1      -2.648  10.271  19.092  1.00  0.00     0.023 C 
HETATM   13  C20 UNL     1      -3.813  12.359  18.276  1.00  0.00     0.135 C 
HETATM   14  O1  UNL     1      -4.515  12.491  19.283  1.00  0.00    -0.297 OA
HETATM   15  C21 UNL     1      -4.218  13.060  16.959  1.00  0.00     0.080 C 
HETATM   16  C22 UNL     1      -3.948  12.244  15.668  1.00  0.00     0.018 C 
HETATM   17  C23 UNL     1      -3.250  10.953  16.065  1.00  0.00    -0.026 A 
HETATM   18  C24 UNL     1      -4.275   9.883  15.858  1.00  0.00     0.021 A 
HETATM   19  C25 UNL     1      -2.915   9.529  15.398  1.00  0.00    -0.027 A 
HETATM   20  C26 UNL     1      -2.580   8.165  16.052  1.00  0.00     0.011 C 
HETATM   21  C27 UNL     1      -2.403   7.022  15.022  1.00  0.00     0.011 C 
HETATM   22  C28 UNL     1      -1.368   7.387  13.943  1.00  0.00    -0.032 C 
HETATM   23  C29 UNL     1       0.021   7.429  14.658  1.00  0.00     0.016 C 
ENDROOT
BRANCH   1  24
HETATM   24  C6  UNL     1      -2.185   5.359  12.382  1.00  0.00    -0.014 C 
HETATM   25  C7  UNL     1      -1.543   4.034  11.936  1.00  0.00     0.010 C 
BRANCH  24  26
HETATM   26  C5  UNL     1      -3.070   5.084  13.632  1.00  0.00     0.008 C 
BRANCH  26  27
HETATM   27  C4  UNL     1      -4.582   5.121  13.366  1.00  0.00     0.028 C 
BRANCH  27  28
HETATM   28  C3  UNL     1      -5.130   3.875  12.729  1.00  0.00    -0.022 C 
HETATM   29  C2  UNL     1      -6.413   3.458  12.719  1.00  0.00    -0.064 C 
HETATM   30  C1  UNL     1      -7.547   4.166  13.412  1.00  0.00     0.045 C 
BRANCH  29  31
HETATM   31  C30 UNL     1      -6.807   2.187  12.012  1.00  0.00     0.197 C 
BRANCH  31  32
HETATM   32  O2  UNL     1      -7.931   1.617  12.665  1.00  0.00    -0.397 OA
HETATM   33  H48 UNL     1      -8.577   2.336  12.780  1.00  0.00     0.209 HD
ENDBRANCH  31  32
ENDBRANCH  29  31
ENDBRANCH  27  28
ENDBRANCH  26  27
ENDBRANCH  24  26
ENDBRANCH   1  24
TORSDOF 6
ENDMDL
MODEL 8
REMARK minimizedAffinity -8.45538712
REMARK  6 active torsions:
REMARK  status: ('A' for Active; 'I' for Inactive)
REMARK    1  A    between atoms: C2_2  and  C30_31 
REMARK    2  A    between atoms: C3_3  and  C4_4 
REMARK    3  A    between atoms: C4_4  and  C5_5 
REMARK    4  A    between atoms: C5_5  and  C6_6 
REMARK    5  A    between atoms: C6_6  and  C8_8 
REMARK    6  A    between atoms: C30_31  and  O2_32 
ROOT
HETATM    1  C8  UNL     1       3.964   7.898  11.508  1.00  0.00    -0.002 C 
HETATM    2  C9  UNL     1       3.647   7.724   9.986  1.00  0.00     0.006 C 
HETATM    3  C10 UNL     1       2.116   7.637   9.832  1.00  0.00     0.011 C 
HETATM    4  C11 UNL     1       1.665   7.078  11.182  1.00  0.00    -0.032 C 
HETATM    5  C12 UNL     1       2.040   5.548  11.169  1.00  0.00     0.016 C 
HETATM    6  C13 UNL     1       0.148   7.104  11.502  1.00  0.00     0.004 C 
HETATM    7  C14 UNL     1      -0.650   8.435  11.279  1.00  0.00     0.007 C 
HETATM    8  C15 UNL     1      -1.553   8.878  12.479  1.00  0.00     0.007 C 
HETATM    9  C16 UNL     1      -2.389   7.698  12.996  1.00  0.00     0.010 C 
HETATM   10  C17 UNL     1      -3.288   7.749  14.231  1.00  0.00     0.018 C 
HETATM   11  C18 UNL     1      -4.372   8.823  14.079  1.00  0.00     0.023 C 
HETATM   12  C19 UNL     1      -2.497   8.007  15.518  1.00  0.00     0.023 C 
HETATM   13  C20 UNL     1      -3.982   6.360  14.309  1.00  0.00     0.135 C 
HETATM   14  O1  UNL     1      -4.603   6.013  15.319  1.00  0.00    -0.297 OA
HETATM   15  C21 UNL     1      -3.984   5.453  13.058  1.00  0.00     0.080 C 
HETATM   16  C22 UNL     1      -2.643   5.398  12.281  1.00  0.00     0.018 C 
HETATM   17  C23 UNL     1      -1.674   6.361  12.948  1.00  0.00    -0.026 A 
HETATM   18  C24 UNL     1      -0.671   5.487  13.630  1.00  0.00     0.021 A 
HETATM   19  C25 UNL     1      -0.094   6.657  12.936  1.00  0.00    -0.027 A 
HETATM   20  C26 UNL     1       0.804   7.375  13.975  1.00  0.00     0.011 C 
HETATM   21  C27 UNL     1       2.305   7.365  13.593  1.00  0.00     0.011 C 
HETATM   22  C28 UNL     1       2.535   7.929  12.179  1.00  0.00    -0.032 C 
HETATM   23  C29 UNL     1       2.205   9.455  12.253  1.00  0.00     0.016 C 
ENDROOT
BRANCH   1  24
HETATM   24  C6  UNL     1       5.031   6.941  12.120  1.00  0.00    -0.014 C 
HETATM   25  C7  UNL     1       5.837   6.214  11.029  1.00  0.00     0.010 C 
BRANCH  24  26
HETATM   26  C5  UNL     1       6.022   7.736  13.020  1.00  0.00     0.008 C 
BRANCH  26  27
HETATM   27  C4  UNL     1       7.493   7.643  12.589  1.00  0.00     0.028 C 
BRANCH  27  28
HETATM   28  C3  UNL     1       8.477   7.753  13.719  1.00  0.00    -0.022 C 
HETATM   29  C2  UNL     1       8.219   8.094  14.998  1.00  0.00    -0.064 C 
HETATM   30  C1  UNL     1       6.862   8.488  15.521  1.00  0.00     0.045 C 
BRANCH  29  31
HETATM   31  C30 UNL     1       9.322   8.137  16.024  1.00  0.00     0.197 C 
BRANCH  31  32
HETATM   32  O2  UNL     1       8.932   7.384  17.163  1.00  0.00    -0.397 OA
HETATM   33  H48 UNL     1       8.604   6.530  16.829  1.00  0.00     0.209 HD
ENDBRANCH  31  32
ENDBRANCH  29  31
ENDBRANCH  27  28
ENDBRANCH  26  27
ENDBRANCH  24  26
ENDBRANCH   1  24
TORSDOF 6
ENDMDL
MODEL 9
REMARK minimizedAffinity -8.44087791
REMARK  6 active torsions:
REMARK  status: ('A' for Active; 'I' for Inactive)
REMARK    1  A    between atoms: C2_2  and  C30_31 
REMARK    2  A    between atoms: C3_3  and  C4_4 
REMARK    3  A    between atoms: C4_4  and  C5_5 
REMARK    4  A    between atoms: C5_5  and  C6_6 
REMARK    5  A    between atoms: C6_6  and  C8_8 
REMARK    6  A    between atoms: C30_31  and  O2_32 
ROOT
HETATM    1  C8  UNL     1      -3.015   6.520  15.113  1.00  0.00    -0.002 C 
HETATM    2  C9  UNL     1      -4.048   5.936  14.093  1.00  0.00     0.006 C 
HETATM    3  C10 UNL     1      -3.307   5.688  12.765  1.00  0.00     0.011 C 
HETATM    4  C11 UNL     1      -2.170   6.710  12.808  1.00  0.00    -0.032 C 
HETATM    5  C12 UNL     1      -2.829   8.109  12.510  1.00  0.00     0.016 C 
HETATM    6  C13 UNL     1      -1.042   6.578  11.752  1.00  0.00     0.004 C 
HETATM    7  C14 UNL     1      -0.376   5.177  11.527  1.00  0.00     0.007 C 
HETATM    8  C15 UNL     1       1.189   5.177  11.528  1.00  0.00     0.007 C 
HETATM    9  C16 UNL     1       1.734   6.306  10.641  1.00  0.00     0.010 C 
HETATM   10  C17 UNL     1       3.214   6.667  10.508  1.00  0.00     0.018 C 
HETATM   11  C18 UNL     1       4.027   5.475   9.988  1.00  0.00     0.023 C 
HETATM   12  C19 UNL     1       3.817   7.149  11.832  1.00  0.00     0.023 C 
HETATM   13  C20 UNL     1       3.282   7.806   9.452  1.00  0.00     0.135 C 
HETATM   14  O1  UNL     1       4.316   8.460   9.286  1.00  0.00    -0.297 OA
HETATM   15  C21 UNL     1       2.068   8.039   8.525  1.00  0.00     0.080 C 
HETATM   16  C22 UNL     1       0.683   7.961   9.219  1.00  0.00     0.018 C 
HETATM   17  C23 UNL     1       0.907   7.577  10.673  1.00  0.00    -0.026 A 
HETATM   18  C24 UNL     1       0.604   8.818  11.450  1.00  0.00     0.021 A 
HETATM   19  C25 UNL     1       0.069   7.575  12.045  1.00  0.00    -0.027 A 
HETATM   20  C26 UNL     1       0.550   7.561  13.518  1.00  0.00     0.011 C 
HETATM   21  C27 UNL     1      -0.611   7.648  14.539  1.00  0.00     0.011 C 
HETATM   22  C28 UNL     1      -1.668   6.556  14.291  1.00  0.00    -0.032 C 
HETATM   23  C29 UNL     1      -0.989   5.195  14.651  1.00  0.00     0.016 C 
ENDROOT
BRANCH   1  24
HETATM   24  C6  UNL     1      -3.433   7.813  15.878  1.00  0.00    -0.014 C 
HETATM   25  C7  UNL     1      -2.255   8.419  16.660  1.00  0.00     0.010 C 
BRANCH  24  26
HETATM   26  C5  UNL     1      -3.969   8.883  14.883  1.00  0.00     0.008 C 
BRANCH  26  27
HETATM   27  C4  UNL     1      -5.383   8.610  14.351  1.00  0.00     0.028 C 
BRANCH  27  28
HETATM   28  C3  UNL     1      -6.388   8.263  15.413  1.00  0.00    -0.022 C 
HETATM   29  C2  UNL     1      -7.398   7.373  15.322  1.00  0.00    -0.064 C 
HETATM   30  C1  UNL     1      -7.737   6.587  14.083  1.00  0.00     0.045 C 
BRANCH  29  31
HETATM   31  C30 UNL     1      -8.312   7.120  16.494  1.00  0.00     0.197 C 
BRANCH  31  32
HETATM   32  O2  UNL     1      -9.352   6.239  16.095  1.00  0.00    -0.397 OA
HETATM   33  H48 UNL     1      -8.922   5.495  15.637  1.00  0.00     0.209 HD
ENDBRANCH  31  32
ENDBRANCH  29  31
ENDBRANCH  27  28
ENDBRANCH  26  27
ENDBRANCH  24  26
ENDBRANCH   1  24
TORSDOF 6
ENDMDL
