MODEL 1
REMARK minimizedAffinity -6.96677685
REMARK CNNscore 0.824461639
REMARK CNNaffinity 8.02003956
REMARK  12 active torsions:
REMARK  status: ('A' for Active; 'I' for Inactive)
REMARK    1  A    between atoms: C2_2  and  O2_4 
REMARK    2  A    between atoms: O2_4  and  C3_5 
REMARK    3  A    between atoms: C4_6  and  O3_7 
REMARK    4  A    between atoms: O3_7  and  C5_8 
REMARK    5  A    between atoms: C5_8  and  C6_10 
REMARK    6  A    between atoms: C12_16  and  C13_17 
REMARK    7  A    between atoms: C13_17  and  O5_18 
REMARK    8  A    between atoms: O5_18  and  C14_19 
REMARK    9  A    between atoms: C14_19  and  C15_21 
REMARK   10  A    between atoms: C20_28  and  O7_29 
REMARK   11  A    between atoms: O7_29  and  C21_30 
REMARK   12  A    between atoms: C21_30  and  C22_32 
ROOT
HETATM    1  C3  UNL     1       0.966  53.904  -9.036  1.00  0.00     0.169 C 
HETATM    2  C4  UNL     1       1.598  53.639 -10.432  1.00  0.00     0.178 C 
HETATM    3  C12 UNL     1       1.285  52.201 -11.003  1.00  0.00     0.069 C 
HETATM    4  C20 UNL     1       1.335  52.310 -12.583  1.00  0.00     0.148 C 
HETATM    5  C25 UNL     1       0.339  51.410 -13.339  1.00  0.00     0.034 C 
HETATM    6  C26 UNL     1      -0.004  50.146 -12.572  1.00  0.00     0.010 C 
HETATM    7  C27 UNL     1      -0.665  50.446 -11.212  1.00  0.00     0.017 C 
HETATM    8  C28 UNL     1      -0.528  49.213 -10.311  1.00  0.00     0.013 C 
HETATM    9  C29 UNL     1      -0.176  51.789 -10.586  1.00  0.00     0.080 C 
HETATM   10  C30 UNL     1      -0.420  51.880  -9.076  1.00  0.00     0.050 C 
HETATM   11  C31 UNL     1      -0.482  53.384  -8.905  1.00  0.00     0.054 C 
HETATM   12  C32 UNL     1      -1.440  53.745 -10.057  1.00  0.00     0.061 C 
HETATM   13  C33 UNL     1      -1.412  55.202 -10.532  1.00  0.00     0.046 C 
HETATM   14  C34 UNL     1      -2.911  53.420  -9.714  1.00  0.00     0.046 C 
HETATM   15  O9  UNL     1      -1.044  52.856 -11.128  1.00  0.00    -0.368 OA
ENDROOT
BRANCH   3  16
HETATM   16  C13 UNL     1       2.379  51.195 -10.514  1.00  0.00     0.197 C 
BRANCH  16  17
HETATM   17  O5  UNL     1       3.721  51.630 -10.785  1.00  0.00    -0.316 OA
BRANCH  17  18
HETATM   18  C14 UNL     1       4.646  50.639 -10.655  1.00  0.00     0.294 C 
HETATM   19  O6  UNL     1       4.744  49.659 -11.377  1.00  0.00    -0.259 OA
BRANCH  18  20
HETATM   20  C15 UNL     1       5.532  50.870  -9.496  1.00  0.00     0.054 A 
HETATM   21  C16 UNL     1       5.090  51.312  -8.246  1.00  0.00     0.020 A 
HETATM   22  C17 UNL     1       6.015  51.502  -7.219  1.00  0.00     0.018 A 
HETATM   23  C18 UNL     1       7.353  51.244  -7.479  1.00  0.00     0.087 A 
HETATM   24  N1  UNL     1       7.816  50.827  -8.676  1.00  0.00    -0.374 N 
HETATM   25  C19 UNL     1       6.895  50.652  -9.658  1.00  0.00     0.105 A 
ATOM     26  H1  UNL     1       8.809  50.654  -8.835  1.00  0.00     0.164 HD
ENDBRANCH  18  20
ENDBRANCH  17  18
ENDBRANCH  16  17
ENDBRANCH   3  16
BRANCH   2  27
HETATM   27  O3  UNL     1       3.035  53.822 -10.374  1.00  0.00    -0.308 OA
BRANCH  27  28
HETATM   28  C5  UNL     1       3.513  55.090 -10.414  1.00  0.00     0.293 C 
HETATM   29  O4  UNL     1       3.083  56.000 -11.106  1.00  0.00    -0.259 OA
BRANCH  28  30
HETATM   30  C6  UNL     1       4.657  55.242  -9.478  1.00  0.00     0.039 A 
HETATM   31  C7  UNL     1       5.841  54.549  -9.766  1.00  0.00     0.017 A 
HETATM   32  C8  UNL     1       6.950  54.671  -8.926  1.00  0.00     0.001 A 
HETATM   33  C9  UNL     1       6.880  55.483  -7.793  1.00  0.00     0.000 A 
HETATM   34  C10 UNL     1       5.705  56.174  -7.498  1.00  0.00     0.001 A 
HETATM   35  C11 UNL     1       4.594  56.057  -8.338  1.00  0.00     0.017 A 
ENDBRANCH  28  30
ENDBRANCH  27  28
ENDBRANCH   2  27
BRANCH   4  36
HETATM   36  O7  UNL     1       2.653  51.958 -13.062  1.00  0.00    -0.315 OA
BRANCH  36  37
HETATM   37  C21 UNL     1       2.752  51.304 -14.254  1.00  0.00     0.262 C 
HETATM   38  O8  UNL     1       2.783  50.089 -14.393  1.00  0.00    -0.265 OA
BRANCH  37  39
HETATM   39  C22 UNL     1       2.842  52.318 -15.381  1.00  0.00     0.077 C 
HETATM   40  C23 UNL     1       1.821  52.016 -16.474  1.00  0.00     0.020 C 
HETATM   41  C24 UNL     1       4.261  52.318 -15.940  1.00  0.00     0.020 C 
ENDBRANCH  37  39
ENDBRANCH  36  37
ENDBRANCH   4  36
BRANCH   1  42
HETATM   42  O2  UNL     1       0.957  55.315  -8.730  1.00  0.00    -0.313 OA
BRANCH  42  43
HETATM   43  C2  UNL     1       1.056  55.664  -7.420  1.00  0.00     0.255 C 
HETATM   44  C1  UNL     1       0.312  56.940  -7.167  1.00  0.00     0.126 C 
HETATM   45  O1  UNL     1       1.635  55.021  -6.553  1.00  0.00    -0.266 OA
ENDBRANCH  42  43
ENDBRANCH   1  42
TORSDOF 12
ENDMDL
MODEL 2
REMARK minimizedAffinity -6.92054987
REMARK CNNscore 0.502355695
REMARK CNNaffinity 7.46615458
REMARK  12 active torsions:
REMARK  status: ('A' for Active; 'I' for Inactive)
REMARK    1  A    between atoms: C2_2  and  O2_4 
REMARK    2  A    between atoms: O2_4  and  C3_5 
REMARK    3  A    between atoms: C4_6  and  O3_7 
REMARK    4  A    between atoms: O3_7  and  C5_8 
REMARK    5  A    between atoms: C5_8  and  C6_10 
REMARK    6  A    between atoms: C12_16  and  C13_17 
REMARK    7  A    between atoms: C13_17  and  O5_18 
REMARK    8  A    between atoms: O5_18  and  C14_19 
REMARK    9  A    between atoms: C14_19  and  C15_21 
REMARK   10  A    between atoms: C20_28  and  O7_29 
REMARK   11  A    between atoms: O7_29  and  C21_30 
REMARK   12  A    between atoms: C21_30  and  C22_32 
ROOT
HETATM    1  C3  UNL     1      -0.442  52.196 -12.107  1.00  0.00     0.169 C 
HETATM    2  C4  UNL     1       0.929  51.968 -11.407  1.00  0.00     0.178 C 
HETATM    3  C12 UNL     1       1.189  52.947 -10.196  1.00  0.00     0.069 C 
HETATM    4  C20 UNL     1       2.168  52.199  -9.200  1.00  0.00     0.148 C 
HETATM    5  C25 UNL     1       1.939  52.492  -7.705  1.00  0.00     0.034 C 
HETATM    6  C26 UNL     1       1.351  53.871  -7.464  1.00  0.00     0.010 C 
HETATM    7  C27 UNL     1      -0.025  54.047  -8.137  1.00  0.00     0.017 C 
HETATM    8  C28 UNL     1      -0.319  55.544  -8.281  1.00  0.00     0.013 C 
HETATM    9  C29 UNL     1      -0.169  53.208  -9.445  1.00  0.00     0.080 C 
HETATM   10  C30 UNL     1      -1.281  53.712 -10.371  1.00  0.00     0.050 C 
HETATM   11  C31 UNL     1      -1.605  52.436 -11.121  1.00  0.00     0.054 C 
HETATM   12  C32 UNL     1      -1.709  51.451  -9.939  1.00  0.00     0.061 C 
HETATM   13  C33 UNL     1      -1.567  49.964 -10.281  1.00  0.00     0.046 C 
HETATM   14  C34 UNL     1      -3.041  51.603  -9.171  1.00  0.00     0.046 C 
HETATM   15  O9  UNL     1      -0.650  51.869  -9.047  1.00  0.00    -0.368 OA
ENDROOT
BRANCH   3  16
HETATM   16  C13 UNL     1       1.874  54.253 -10.719  1.00  0.00     0.197 C 
BRANCH  16  17
HETATM   17  O5  UNL     1       2.447  55.058  -9.676  1.00  0.00    -0.316 OA
BRANCH  17  18
HETATM   18  C14 UNL     1       3.427  55.895 -10.116  1.00  0.00     0.294 C 
HETATM   19  O6  UNL     1       3.341  56.648 -11.074  1.00  0.00    -0.259 OA
BRANCH  18  20
HETATM   20  C15 UNL     1       4.652  55.775  -9.300  1.00  0.00     0.054 A 
HETATM   21  C16 UNL     1       4.751  56.183  -7.967  1.00  0.00     0.020 A 
HETATM   22  C17 UNL     1       5.960  56.027  -7.289  1.00  0.00     0.018 A 
HETATM   23  C18 UNL     1       7.031  55.467  -7.969  1.00  0.00     0.087 A 
HETATM   24  N1  UNL     1       6.975  55.072  -9.259  1.00  0.00    -0.374 N 
HETATM   25  C19 UNL     1       5.787  55.237  -9.895  1.00  0.00     0.105 A 
ATOM     26  H1  UNL     1       7.785  54.671  -9.732  1.00  0.00     0.164 HD
ENDBRANCH  18  20
ENDBRANCH  17  18
ENDBRANCH  16  17
ENDBRANCH   3  16
BRANCH   2  27
HETATM   27  O3  UNL     1       2.008  52.104 -12.366  1.00  0.00    -0.308 OA
BRANCH  27  28
HETATM   28  C5  UNL     1       2.203  51.092 -13.247  1.00  0.00     0.293 C 
HETATM   29  O4  UNL     1       2.113  49.898 -13.003  1.00  0.00    -0.259 OA
BRANCH  28  30
HETATM   30  C6  UNL     1       2.543  51.631 -14.589  1.00  0.00     0.039 A 
HETATM   31  C7  UNL     1       1.490  51.965 -15.451  1.00  0.00     0.017 A 
HETATM   32  C8  UNL     1       1.757  52.490 -16.717  1.00  0.00     0.001 A 
HETATM   33  C9  UNL     1       3.077  52.681 -17.128  1.00  0.00     0.000 A 
HETATM   34  C10 UNL     1       4.131  52.349 -16.277  1.00  0.00     0.001 A 
HETATM   35  C11 UNL     1       3.868  51.826 -15.009  1.00  0.00     0.017 A 
ENDBRANCH  28  30
ENDBRANCH  27  28
ENDBRANCH   2  27
BRANCH   4  36
HETATM   36  O7  UNL     1       3.539  52.562  -9.486  1.00  0.00    -0.315 OA
BRANCH  36  37
HETATM   37  C21 UNL     1       4.506  52.164  -8.612  1.00  0.00     0.262 C 
HETATM   38  O8  UNL     1       4.706  52.650  -7.508  1.00  0.00    -0.265 OA
BRANCH  37  39
HETATM   39  C22 UNL     1       5.315  51.038  -9.233  1.00  0.00     0.077 C 
HETATM   40  C23 UNL     1       6.772  51.449  -9.426  1.00  0.00     0.020 C 
HETATM   41  C24 UNL     1       4.677  50.639 -10.560  1.00  0.00     0.020 C 
ENDBRANCH  37  39
ENDBRANCH  36  37
ENDBRANCH   4  36
BRANCH   1  42
HETATM   42  O2  UNL     1      -0.793  51.069 -12.937  1.00  0.00    -0.313 OA
BRANCH  42  43
HETATM   43  C2  UNL     1      -1.762  51.267 -13.870  1.00  0.00     0.255 C 
HETATM   44  C1  UNL     1      -1.701  50.196 -14.916  1.00  0.00     0.126 C 
HETATM   45  O1  UNL     1      -2.594  52.166 -13.854  1.00  0.00    -0.266 OA
ENDBRANCH  42  43
ENDBRANCH   1  42
TORSDOF 12
ENDMDL
MODEL 3
REMARK minimizedAffinity -6.64058495
REMARK CNNscore 0.422471613
REMARK CNNaffinity 6.98331881
REMARK  12 active torsions:
REMARK  status: ('A' for Active; 'I' for Inactive)
REMARK    1  A    between atoms: C2_2  and  O2_4 
REMARK    2  A    between atoms: O2_4  and  C3_5 
REMARK    3  A    between atoms: C4_6  and  O3_7 
REMARK    4  A    between atoms: O3_7  and  C5_8 
REMARK    5  A    between atoms: C5_8  and  C6_10 
REMARK    6  A    between atoms: C12_16  and  C13_17 
REMARK    7  A    between atoms: C13_17  and  O5_18 
REMARK    8  A    between atoms: O5_18  and  C14_19 
REMARK    9  A    between atoms: C14_19  and  C15_21 
REMARK   10  A    between atoms: C20_28  and  O7_29 
REMARK   11  A    between atoms: O7_29  and  C21_30 
REMARK   12  A    between atoms: C21_30  and  C22_32 
ROOT
HETATM    1  C3  UNL     1      -0.045  53.530  -9.251  1.00  0.00     0.169 C 
HETATM    2  C4  UNL     1       0.608  53.322 -10.647  1.00  0.00     0.178 C 
HETATM    3  C12 UNL     1       0.083  52.041 -11.405  1.00  0.00     0.069 C 
HETATM    4  C20 UNL     1       0.239  52.325 -12.956  1.00  0.00     0.148 C 
HETATM    5  C25 UNL     1      -0.854  51.713 -13.852  1.00  0.00     0.034 C 
HETATM    6  C26 UNL     1      -1.453  50.449 -13.263  1.00  0.00     0.010 C 
HETATM    7  C27 UNL     1      -2.127  50.700 -11.900  1.00  0.00     0.017 C 
HETATM    8  C28 UNL     1      -2.257  49.366 -11.157  1.00  0.00     0.013 C 
HETATM    9  C29 UNL     1      -1.448  51.851 -11.093  1.00  0.00     0.080 C 
HETATM   10  C30 UNL     1      -1.757  51.806  -9.593  1.00  0.00     0.050 C 
HETATM   11  C31 UNL     1      -1.567  53.266  -9.236  1.00  0.00     0.054 C 
HETATM   12  C32 UNL     1      -2.382  53.926 -10.366  1.00  0.00     0.061 C 
HETATM   13  C33 UNL     1      -2.075  55.400 -10.653  1.00  0.00     0.046 C 
HETATM   14  C34 UNL     1      -3.903  53.832 -10.117  1.00  0.00     0.046 C 
HETATM   15  O9  UNL     1      -2.086  53.112 -11.526  1.00  0.00    -0.368 OA
ENDROOT
BRANCH   3  16
HETATM   16  C13 UNL     1       0.956  50.805 -11.009  1.00  0.00     0.197 C 
BRANCH  16  17
HETATM   17  O5  UNL     1       1.059  49.817 -12.047  1.00  0.00    -0.316 OA
BRANCH  17  18
HETATM   18  C14 UNL     1       1.309  48.564 -11.578  1.00  0.00     0.294 C 
HETATM   19  O6  UNL     1       1.267  48.222 -10.406  1.00  0.00    -0.259 OA
BRANCH  18  20
HETATM   20  C15 UNL     1       1.673  47.637 -12.669  1.00  0.00     0.054 A 
HETATM   21  C16 UNL     1       2.608  46.606 -12.543  1.00  0.00     0.020 A 
HETATM   22  C17 UNL     1       2.879  45.788 -13.641  1.00  0.00     0.018 A 
HETATM   23  C18 UNL     1       2.206  46.032 -14.829  1.00  0.00     0.087 A 
HETATM   24  N1  UNL     1       1.306  47.026 -14.989  1.00  0.00    -0.374 N 
HETATM   25  C19 UNL     1       1.061  47.806 -13.905  1.00  0.00     0.105 A 
ATOM     26  H1  UNL     1       0.833  47.182 -15.879  1.00  0.00     0.164 HD
ENDBRANCH  18  20
ENDBRANCH  17  18
ENDBRANCH  16  17
ENDBRANCH   3  16
BRANCH   2  27
HETATM   27  O3  UNL     1       2.049  53.237 -10.517  1.00  0.00    -0.308 OA
BRANCH  27  28
HETATM   28  C5  UNL     1       2.760  54.389 -10.587  1.00  0.00     0.293 C 
HETATM   29  O4  UNL     1       2.350  55.464 -10.997  1.00  0.00    -0.259 OA
BRANCH  28  30
HETATM   30  C6  UNL     1       4.142  54.178 -10.081  1.00  0.00     0.039 A 
HETATM   31  C7  UNL     1       4.506  52.885  -9.683  1.00  0.00     0.017 A 
HETATM   32  C8  UNL     1       5.797  52.630  -9.215  1.00  0.00     0.001 A 
HETATM   33  C9  UNL     1       6.728  53.667  -9.140  1.00  0.00     0.000 A 
HETATM   34  C10 UNL     1       6.373  54.958  -9.533  1.00  0.00     0.001 A 
HETATM   35  C11 UNL     1       5.083  55.215 -10.004  1.00  0.00     0.017 A 
ENDBRANCH  28  30
ENDBRANCH  27  28
ENDBRANCH   2  27
BRANCH   4  36
HETATM   36  O7  UNL     1       1.501  51.802 -13.430  1.00  0.00    -0.315 OA
BRANCH  36  37
HETATM   37  C21 UNL     1       1.867  52.068 -14.716  1.00  0.00     0.262 C 
HETATM   38  O8  UNL     1       1.264  52.804 -15.484  1.00  0.00    -0.265 OA
BRANCH  37  39
HETATM   39  C22 UNL     1       3.127  51.290 -15.054  1.00  0.00     0.077 C 
HETATM   40  C23 UNL     1       3.744  50.673 -13.801  1.00  0.00     0.020 C 
HETATM   41  C24 UNL     1       4.116  52.219 -15.751  1.00  0.00     0.020 C 
ENDBRANCH  37  39
ENDBRANCH  36  37
ENDBRANCH   4  36
BRANCH   1  42
HETATM   42  O2  UNL     1       0.174  54.874  -8.771  1.00  0.00    -0.313 OA
BRANCH  42  43
HETATM   43  C2  UNL     1       0.357  55.029  -7.432  1.00  0.00     0.255 C 
HETATM   44  C1  UNL     1       1.690  54.482  -7.025  1.00  0.00     0.126 C 
HETATM   45  O1  UNL     1      -0.430  55.569  -6.664  1.00  0.00    -0.266 OA
ENDBRANCH  42  43
ENDBRANCH   1  42
TORSDOF 12
ENDMDL
MODEL 4
REMARK minimizedAffinity -7.1107645
REMARK CNNscore 0.37466386
REMARK CNNaffinity 6.59108686
REMARK  12 active torsions:
REMARK  status: ('A' for Active; 'I' for Inactive)
REMARK    1  A    between atoms: C2_2  and  O2_4 
REMARK    2  A    between atoms: O2_4  and  C3_5 
REMARK    3  A    between atoms: C4_6  and  O3_7 
REMARK    4  A    between atoms: O3_7  and  C5_8 
REMARK    5  A    between atoms: C5_8  and  C6_10 
REMARK    6  A    between atoms: C12_16  and  C13_17 
REMARK    7  A    between atoms: C13_17  and  O5_18 
REMARK    8  A    between atoms: O5_18  and  C14_19 
REMARK    9  A    between atoms: C14_19  and  C15_21 
REMARK   10  A    between atoms: C20_28  and  O7_29 
REMARK   11  A    between atoms: O7_29  and  C21_30 
REMARK   12  A    between atoms: C21_30  and  C22_32 
ROOT
HETATM    1  C3  UNL     1       4.326  52.824  -9.503  1.00  0.00     0.169 C 
HETATM    2  C4  UNL     1       2.780  52.978  -9.424  1.00  0.00     0.178 C 
HETATM    3  C12 UNL     1       1.994  51.692  -9.893  1.00  0.00     0.069 C 
HETATM    4  C20 UNL     1       0.604  51.696  -9.133  1.00  0.00     0.148 C 
HETATM    5  C25 UNL     1       0.056  50.308  -8.751  1.00  0.00     0.034 C 
HETATM    6  C26 UNL     1       0.515  49.217  -9.702  1.00  0.00     0.010 C 
HETATM    7  C27 UNL     1       2.049  49.066  -9.723  1.00  0.00     0.017 C 
HETATM    8  C28 UNL     1       2.458  48.341 -11.010  1.00  0.00     0.013 C 
HETATM    9  C29 UNL     1       2.792  50.410  -9.448  1.00  0.00     0.080 C 
HETATM   10  C30 UNL     1       4.247  50.410  -9.929  1.00  0.00     0.050 C 
HETATM   11  C31 UNL     1       4.836  51.455  -9.004  1.00  0.00     0.054 C 
HETATM   12  C32 UNL     1       4.269  50.969  -7.656  1.00  0.00     0.061 C 
HETATM   13  C33 UNL     1       4.238  51.998  -6.521  1.00  0.00     0.046 C 
HETATM   14  C34 UNL     1       5.030  49.738  -7.115  1.00  0.00     0.046 C 
HETATM   15  O9  UNL     1       2.928  50.534  -7.982  1.00  0.00    -0.368 OA
ENDROOT
BRANCH   3  16
HETATM   16  C13 UNL     1       1.745  51.765 -11.436  1.00  0.00     0.197 C 
BRANCH  16  17
HETATM   17  O5  UNL     1       2.334  50.677 -12.166  1.00  0.00    -0.316 OA
BRANCH  17  18
HETATM   18  C14 UNL     1       1.738  50.448 -13.368  1.00  0.00     0.294 C 
HETATM   19  O6  UNL     1       0.858  49.627 -13.580  1.00  0.00    -0.259 OA
BRANCH  18  20
HETATM   20  C15 UNL     1       2.301  51.308 -14.429  1.00  0.00     0.054 A 
HETATM   21  C16 UNL     1       3.657  51.354 -14.764  1.00  0.00     0.020 A 
HETATM   22  C17 UNL     1       4.084  52.207 -15.782  1.00  0.00     0.018 A 
HETATM   23  C18 UNL     1       3.138  52.987 -16.430  1.00  0.00     0.087 A 
HETATM   24  N1  UNL     1       1.823  52.977 -16.125  1.00  0.00    -0.374 N 
HETATM   25  C19 UNL     1       1.435  52.138 -15.130  1.00  0.00     0.105 A 
ATOM     26  H1  UNL     1       1.154  53.570 -16.617  1.00  0.00     0.164 HD
ENDBRANCH  18  20
ENDBRANCH  17  18
ENDBRANCH  16  17
ENDBRANCH   3  16
BRANCH   2  27
HETATM   27  O3  UNL     1       2.349  54.111 -10.219  1.00  0.00    -0.308 OA
BRANCH  27  28
HETATM   28  C5  UNL     1       3.111  55.232 -10.187  1.00  0.00     0.293 C 
HETATM   29  O4  UNL     1       3.971  55.541 -10.997  1.00  0.00    -0.259 OA
BRANCH  28  30
HETATM   30  C6  UNL     1       2.753  56.069  -9.012  1.00  0.00     0.039 A 
HETATM   31  C7  UNL     1       1.526  55.827  -8.380  1.00  0.00     0.017 A 
HETATM   32  C8  UNL     1       1.151  56.575  -7.262  1.00  0.00     0.001 A 
HETATM   33  C9  UNL     1       1.998  57.570  -6.773  1.00  0.00     0.000 A 
HETATM   34  C10 UNL     1       3.220  57.818  -7.397  1.00  0.00     0.001 A 
HETATM   35  C11 UNL     1       3.601  57.070  -8.514  1.00  0.00     0.017 A 
ENDBRANCH  28  30
ENDBRANCH  27  28
ENDBRANCH   2  27
BRANCH   4  36
HETATM   36  O7  UNL     1      -0.407  52.328  -9.951  1.00  0.00    -0.315 OA
BRANCH  36  37
HETATM   37  C21 UNL     1      -1.200  53.277  -9.379  1.00  0.00     0.262 C 
HETATM   38  O8  UNL     1      -1.418  53.386  -8.181  1.00  0.00    -0.265 OA
BRANCH  37  39
HETATM   39  C22 UNL     1      -1.790  54.163 -10.462  1.00  0.00     0.077 C 
HETATM   40  C23 UNL     1      -1.401  55.623 -10.249  1.00  0.00     0.020 C 
HETATM   41  C24 UNL     1      -3.305  53.994 -10.475  1.00  0.00     0.020 C 
ENDBRANCH  37  39
ENDBRANCH  36  37
ENDBRANCH   4  36
BRANCH   1  42
HETATM   42  O2  UNL     1       4.988  53.849  -8.731  1.00  0.00    -0.313 OA
BRANCH  42  43
HETATM   43  C2  UNL     1       6.318  54.028  -8.954  1.00  0.00     0.255 C 
HETATM   44  C1  UNL     1       6.770  55.330  -8.366  1.00  0.00     0.126 C 
HETATM   45  O1  UNL     1       7.058  53.234  -9.521  1.00  0.00    -0.266 OA
ENDBRANCH  42  43
ENDBRANCH   1  42
TORSDOF 12
ENDMDL
MODEL 5
REMARK minimizedAffinity -6.72232246
REMARK CNNscore 0.331828922
REMARK CNNaffinity 7.277143
REMARK  12 active torsions:
REMARK  status: ('A' for Active; 'I' for Inactive)
REMARK    1  A    between atoms: C2_2  and  O2_4 
REMARK    2  A    between atoms: O2_4  and  C3_5 
REMARK    3  A    between atoms: C4_6  and  O3_7 
REMARK    4  A    between atoms: O3_7  and  C5_8 
REMARK    5  A    between atoms: C5_8  and  C6_10 
REMARK    6  A    between atoms: C12_16  and  C13_17 
REMARK    7  A    between atoms: C13_17  and  O5_18 
REMARK    8  A    between atoms: O5_18  and  C14_19 
REMARK    9  A    between atoms: C14_19  and  C15_21 
REMARK   10  A    between atoms: C20_28  and  O7_29 
REMARK   11  A    between atoms: O7_29  and  C21_30 
REMARK   12  A    between atoms: C21_30  and  C22_32 
ROOT
HETATM    1  C3  UNL     1      -0.858  52.592 -10.144  1.00  0.00     0.169 C 
HETATM    2  C4  UNL     1      -0.277  52.582 -11.587  1.00  0.00     0.178 C 
HETATM    3  C12 UNL     1      -0.361  51.173 -12.292  1.00  0.00     0.069 C 
HETATM    4  C20 UNL     1      -0.430  51.439 -13.852  1.00  0.00     0.148 C 
HETATM    5  C25 UNL     1      -1.293  50.446 -14.653  1.00  0.00     0.034 C 
HETATM    6  C26 UNL     1      -1.354  49.073 -14.010  1.00  0.00     0.010 C 
HETATM    7  C27 UNL     1      -1.972  49.114 -12.598  1.00  0.00     0.017 C 
HETATM    8  C28 UNL     1      -1.559  47.848 -11.839  1.00  0.00     0.013 C 
HETATM    9  C29 UNL     1      -1.695  50.459 -11.856  1.00  0.00     0.080 C 
HETATM   10  C30 UNL     1      -1.857  50.360 -10.336  1.00  0.00     0.050 C 
HETATM   11  C31 UNL     1      -2.178  51.802 -10.005  1.00  0.00     0.054 C 
HETATM   12  C32 UNL     1      -3.255  52.087 -11.070  1.00  0.00     0.061 C 
HETATM   13  C33 UNL     1      -3.519  53.562 -11.390  1.00  0.00     0.046 C 
HETATM   14  C34 UNL     1      -4.619  51.464 -10.698  1.00  0.00     0.046 C 
HETATM   15  O9  UNL     1      -2.773  51.393 -12.244  1.00  0.00    -0.368 OA
ENDROOT
BRANCH   3  16
HETATM   16  C13 UNL     1       0.924  50.345 -11.960  1.00  0.00     0.197 C 
BRANCH  16  17
HETATM   17  O5  UNL     1       1.271  49.390 -12.975  1.00  0.00    -0.316 OA
BRANCH  17  18
HETATM   18  C14 UNL     1       2.281  48.553 -12.607  1.00  0.00     0.294 C 
HETATM   19  O6  UNL     1       3.259  48.867 -11.947  1.00  0.00    -0.259 OA
BRANCH  18  20
HETATM   20  C15 UNL     1       2.071  47.187 -13.127  1.00  0.00     0.054 A 
HETATM   21  C16 UNL     1       1.740  46.086 -12.332  1.00  0.00     0.020 A 
HETATM   22  C17 UNL     1       1.568  44.836 -12.927  1.00  0.00     0.018 A 
HETATM   23  C18 UNL     1       1.736  44.729 -14.300  1.00  0.00     0.087 A 
HETATM   24  N1  UNL     1       2.067  45.768 -15.096  1.00  0.00    -0.374 N 
HETATM   25  C19 UNL     1       2.228  46.972 -14.491  1.00  0.00     0.105 A 
ATOM     26  H1  UNL     1       2.189  45.653 -16.103  1.00  0.00     0.164 HD
ENDBRANCH  18  20
ENDBRANCH  17  18
ENDBRANCH  16  17
ENDBRANCH   3  16
BRANCH   2  27
HETATM   27  O3  UNL     1       1.104  53.023 -11.573  1.00  0.00    -0.308 OA
BRANCH  27  28
HETATM   28  C5  UNL     1       1.828  52.800 -10.448  1.00  0.00     0.293 C 
HETATM   29  O4  UNL     1       1.614  51.934  -9.614  1.00  0.00    -0.259 OA
BRANCH  28  30
HETATM   30  C6  UNL     1       2.954  53.765 -10.357  1.00  0.00     0.039 A 
HETATM   31  C7  UNL     1       2.755  55.059 -10.856  1.00  0.00     0.017 A 
HETATM   32  C8  UNL     1       3.776  56.008 -10.780  1.00  0.00     0.001 A 
HETATM   33  C9  UNL     1       5.003  55.667 -10.208  1.00  0.00     0.000 A 
HETATM   34  C10 UNL     1       5.211  54.380  -9.711  1.00  0.00     0.001 A 
HETATM   35  C11 UNL     1       4.190  53.429  -9.783  1.00  0.00     0.017 A 
ENDBRANCH  28  30
ENDBRANCH  27  28
ENDBRANCH   2  27
BRANCH   4  36
HETATM   36  O7  UNL     1       0.897  51.385 -14.423  1.00  0.00    -0.315 OA
BRANCH  36  37
HETATM   37  C21 UNL     1       1.014  51.151 -15.760  1.00  0.00     0.262 C 
HETATM   38  O8  UNL     1       0.909  50.059 -16.299  1.00  0.00    -0.265 OA
BRANCH  37  39
HETATM   39  C22 UNL     1       1.320  52.456 -16.476  1.00  0.00     0.077 C 
HETATM   40  C23 UNL     1       0.748  52.453 -17.892  1.00  0.00     0.020 C 
HETATM   41  C24 UNL     1       2.829  52.673 -16.495  1.00  0.00     0.020 C 
ENDBRANCH  37  39
ENDBRANCH  36  37
ENDBRANCH   4  36
BRANCH   1  42
HETATM   42  O2  UNL     1      -1.102  53.941  -9.692  1.00  0.00    -0.313 OA
BRANCH  42  43
HETATM   43  C2  UNL     1      -0.686  54.256  -8.436  1.00  0.00     0.255 C 
HETATM   44  C1  UNL     1       0.103  55.530  -8.456  1.00  0.00     0.126 C 
HETATM   45  O1  UNL     1      -0.942  53.621  -7.421  1.00  0.00    -0.266 OA
ENDBRANCH  42  43
ENDBRANCH   1  42
TORSDOF 12
ENDMDL
MODEL 6
REMARK minimizedAffinity -7.65884256
REMARK CNNscore 0.249814019
REMARK CNNaffinity 6.96549225
REMARK  12 active torsions:
REMARK  status: ('A' for Active; 'I' for Inactive)
REMARK    1  A    between atoms: C2_2  and  O2_4 
REMARK    2  A    between atoms: O2_4  and  C3_5 
REMARK    3  A    between atoms: C4_6  and  O3_7 
REMARK    4  A    between atoms: O3_7  and  C5_8 
REMARK    5  A    between atoms: C5_8  and  C6_10 
REMARK    6  A    between atoms: C12_16  and  C13_17 
REMARK    7  A    between atoms: C13_17  and  O5_18 
REMARK    8  A    between atoms: O5_18  and  C14_19 
REMARK    9  A    between atoms: C14_19  and  C15_21 
REMARK   10  A    between atoms: C20_28  and  O7_29 
REMARK   11  A    between atoms: O7_29  and  C21_30 
REMARK   12  A    between atoms: C21_30  and  C22_32 
ROOT
HETATM    1  C3  UNL     1      -6.362  48.072 -20.010  1.00  0.00     0.169 C 
HETATM    2  C4  UNL     1      -5.562  48.671 -21.201  1.00  0.00     0.178 C 
HETATM    3  C12 UNL     1      -4.027  48.870 -20.893  1.00  0.00     0.069 C 
HETATM    4  C20 UNL     1      -3.262  48.782 -22.278  1.00  0.00     0.148 C 
HETATM    5  C25 UNL     1      -1.863  48.139 -22.219  1.00  0.00     0.034 C 
HETATM    6  C26 UNL     1      -1.189  48.328 -20.873  1.00  0.00     0.010 C 
HETATM    7  C27 UNL     1      -1.989  47.687 -19.722  1.00  0.00     0.017 C 
HETATM    8  C28 UNL     1      -1.545  48.318 -18.397  1.00  0.00     0.013 C 
HETATM    9  C29 UNL     1      -3.528  47.689 -19.981  1.00  0.00     0.080 C 
HETATM   10  C30 UNL     1      -4.359  47.520 -18.705  1.00  0.00     0.050 C 
HETATM   11  C31 UNL     1      -5.625  46.924 -19.286  1.00  0.00     0.054 C 
HETATM   12  C32 UNL     1      -5.016  45.832 -20.189  1.00  0.00     0.061 C 
HETATM   13  C33 UNL     1      -5.915  45.299 -21.309  1.00  0.00     0.046 C 
HETATM   14  C34 UNL     1      -4.543  44.605 -19.379  1.00  0.00     0.046 C 
HETATM   15  O9  UNL     1      -3.836  46.461 -20.743  1.00  0.00    -0.368 OA
ENDROOT
BRANCH   3  16
HETATM   16  C13 UNL     1      -3.800  50.283 -20.261  1.00  0.00     0.197 C 
BRANCH  16  17
HETATM   17  O5  UNL     1      -2.537  50.873 -20.610  1.00  0.00    -0.316 OA
BRANCH  17  18
HETATM   18  C14 UNL     1      -2.023  51.668 -19.631  1.00  0.00     0.294 C 
HETATM   19  O6  UNL     1      -2.538  51.880 -18.544  1.00  0.00    -0.259 OA
BRANCH  18  20
HETATM   20  C15 UNL     1      -0.748  52.286 -20.045  1.00  0.00     0.054 A 
HETATM   21  C16 UNL     1      -0.179  52.137 -21.313  1.00  0.00     0.020 A 
HETATM   22  C17 UNL     1       1.035  52.763 -21.599  1.00  0.00     0.018 A 
HETATM   23  C18 UNL     1       1.640  53.517 -20.604  1.00  0.00     0.087 A 
HETATM   24  N1  UNL     1       1.125  53.673 -19.366  1.00  0.00    -0.374 N 
HETATM   25  C19 UNL     1      -0.056  53.053 -19.115  1.00  0.00     0.105 A 
ATOM     26  H1  UNL     1       1.600  54.229 -18.655  1.00  0.00     0.164 HD
ENDBRANCH  18  20
ENDBRANCH  17  18
ENDBRANCH  16  17
ENDBRANCH   3  16
BRANCH   2  27
HETATM   27  O3  UNL     1      -6.133  49.943 -21.598  1.00  0.00    -0.308 OA
BRANCH  27  28
HETATM   28  C5  UNL     1      -6.268  50.190 -22.925  1.00  0.00     0.293 C 
HETATM   29  O4  UNL     1      -5.860  51.176 -23.518  1.00  0.00    -0.259 OA
BRANCH  28  30
HETATM   30  C6  UNL     1      -6.989  49.073 -23.589  1.00  0.00     0.039 A 
HETATM   31  C7  UNL     1      -6.270  48.261 -24.478  1.00  0.00     0.017 A 
HETATM   32  C8  UNL     1      -6.898  47.190 -25.116  1.00  0.00     0.001 A 
HETATM   33  C9  UNL     1      -8.247  46.927 -24.872  1.00  0.00     0.000 A 
HETATM   34  C10 UNL     1      -8.969  47.731 -23.992  1.00  0.00     0.001 A 
HETATM   35  C11 UNL     1      -8.344  48.802 -23.349  1.00  0.00     0.017 A 
ENDBRANCH  28  30
ENDBRANCH  27  28
ENDBRANCH   2  27
BRANCH   4  36
HETATM   36  O7  UNL     1      -3.084  50.106 -22.831  1.00  0.00    -0.315 OA
BRANCH  36  37
HETATM   37  C21 UNL     1      -2.388  50.229 -23.997  1.00  0.00     0.262 C 
HETATM   38  O8  UNL     1      -1.219  50.574 -24.089  1.00  0.00    -0.265 OA
BRANCH  37  39
HETATM   39  C22 UNL     1      -3.299  49.895 -25.166  1.00  0.00     0.077 C 
HETATM   40  C23 UNL     1      -2.794  48.670 -25.923  1.00  0.00     0.020 C 
HETATM   41  C24 UNL     1      -3.396  51.108 -26.086  1.00  0.00     0.020 C 
ENDBRANCH  37  39
ENDBRANCH  36  37
ENDBRANCH   4  36
BRANCH   1  42
HETATM   42  O2  UNL     1      -7.642  47.567 -20.447  1.00  0.00    -0.313 OA
BRANCH  42  43
HETATM   43  C2  UNL     1      -8.749  48.105 -19.867  1.00  0.00     0.255 C 
HETATM   44  C1  UNL     1      -8.352  49.088 -18.808  1.00  0.00     0.126 C 
HETATM   45  O1  UNL     1      -9.907  47.858 -20.179  1.00  0.00    -0.266 OA
ENDBRANCH  42  43
ENDBRANCH   1  42
TORSDOF 12
ENDMDL
MODEL 7
REMARK minimizedAffinity -6.66842604
REMARK CNNscore 0.232644945
REMARK CNNaffinity 6.19177055
REMARK  12 active torsions:
REMARK  status: ('A' for Active; 'I' for Inactive)
REMARK    1  A    between atoms: C2_2  and  O2_4 
REMARK    2  A    between atoms: O2_4  and  C3_5 
REMARK    3  A    between atoms: C4_6  and  O3_7 
REMARK    4  A    between atoms: O3_7  and  C5_8 
REMARK    5  A    between atoms: C5_8  and  C6_10 
REMARK    6  A    between atoms: C12_16  and  C13_17 
REMARK    7  A    between atoms: C13_17  and  O5_18 
REMARK    8  A    between atoms: O5_18  and  C14_19 
REMARK    9  A    between atoms: C14_19  and  C15_21 
REMARK   10  A    between atoms: C20_28  and  O7_29 
REMARK   11  A    between atoms: O7_29  and  C21_30 
REMARK   12  A    between atoms: C21_30  and  C22_32 
ROOT
HETATM    1  C3  UNL     1     -10.498  43.979 -27.992  1.00  0.00     0.169 C 
HETATM    2  C4  UNL     1      -9.287  44.890 -27.641  1.00  0.00     0.178 C 
HETATM    3  C12 UNL     1      -8.864  45.857 -28.814  1.00  0.00     0.069 C 
HETATM    4  C20 UNL     1      -8.187  47.125 -28.147  1.00  0.00     0.148 C 
HETATM    5  C25 UNL     1      -8.435  48.463 -28.869  1.00  0.00     0.034 C 
HETATM    6  C26 UNL     1      -8.657  48.289 -30.361  1.00  0.00     0.010 C 
HETATM    7  C27 UNL     1      -9.888  47.415 -30.672  1.00  0.00     0.017 C 
HETATM    8  C28 UNL     1      -9.770  46.882 -32.104  1.00  0.00     0.013 C 
HETATM    9  C29 UNL     1     -10.155  46.336 -29.576  1.00  0.00     0.080 C 
HETATM   10  C30 UNL     1     -11.030  45.177 -30.065  1.00  0.00     0.050 C 
HETATM   11  C31 UNL     1     -11.623  44.715 -28.751  1.00  0.00     0.054 C 
HETATM   12  C32 UNL     1     -12.064  46.071 -28.165  1.00  0.00     0.061 C 
HETATM   13  C33 UNL     1     -12.292  46.114 -26.650  1.00  0.00     0.046 C 
HETATM   14  C34 UNL     1     -13.359  46.595 -28.822  1.00  0.00     0.046 C 
HETATM   15  O9  UNL     1     -10.996  46.973 -28.542  1.00  0.00    -0.368 OA
ENDROOT
BRANCH   3  16
HETATM   16  C13 UNL     1      -7.827  45.137 -29.738  1.00  0.00     0.197 C 
BRANCH  16  17
HETATM   17  O5  UNL     1      -7.176  46.017 -30.668  1.00  0.00    -0.316 OA
BRANCH  17  18
HETATM   18  C14 UNL     1      -6.386  45.366 -31.566  1.00  0.00     0.294 C 
HETATM   19  O6  UNL     1      -6.156  44.167 -31.572  1.00  0.00    -0.259 OA
BRANCH  18  20
HETATM   20  C15 UNL     1      -5.801  46.298 -32.551  1.00  0.00     0.054 A 
HETATM   21  C16 UNL     1      -4.431  46.547 -32.678  1.00  0.00     0.020 A 
HETATM   22  C17 UNL     1      -3.985  47.451 -33.642  1.00  0.00     0.018 A 
HETATM   23  C18 UNL     1      -4.925  48.077 -34.447  1.00  0.00     0.087 A 
HETATM   24  N1  UNL     1      -6.255  47.869 -34.344  1.00  0.00    -0.374 N 
HETATM   25  C19 UNL     1      -6.662  46.985 -33.397  1.00  0.00     0.105 A 
ATOM     26  H1  UNL     1      -6.921  48.352 -34.948  1.00  0.00     0.164 HD
ENDBRANCH  18  20
ENDBRANCH  17  18
ENDBRANCH  16  17
ENDBRANCH   3  16
BRANCH   2  27
HETATM   27  O3  UNL     1      -8.145  44.080 -27.261  1.00  0.00    -0.308 OA
BRANCH  27  28
HETATM   28  C5  UNL     1      -8.062  43.669 -25.972  1.00  0.00     0.293 C 
HETATM   29  O4  UNL     1      -7.547  42.634 -25.578  1.00  0.00    -0.259 OA
BRANCH  28  30
HETATM   30  C6  UNL     1      -8.690  44.667 -25.068  1.00  0.00     0.039 A 
HETATM   31  C7  UNL     1      -9.720  44.234 -24.222  1.00  0.00     0.017 A 
HETATM   32  C8  UNL     1     -10.331  45.130 -23.342  1.00  0.00     0.001 A 
HETATM   33  C9  UNL     1      -9.919  46.463 -23.307  1.00  0.00     0.000 A 
HETATM   34  C10 UNL     1      -8.897  46.902 -24.147  1.00  0.00     0.001 A 
HETATM   35  C11 UNL     1      -8.280  46.008 -25.026  1.00  0.00     0.017 A 
ENDBRANCH  28  30
ENDBRANCH  27  28
ENDBRANCH   2  27
BRANCH   4  36
HETATM   36  O7  UNL     1      -6.752  46.947 -28.089  1.00  0.00    -0.315 OA
BRANCH  36  37
HETATM   37  C21 UNL     1      -6.039  47.738 -27.238  1.00  0.00     0.262 C 
HETATM   38  O8  UNL     1      -6.250  47.856 -26.040  1.00  0.00    -0.265 OA
BRANCH  37  39
HETATM   39  C22 UNL     1      -4.956  48.467 -28.015  1.00  0.00     0.077 C 
HETATM   40  C23 UNL     1      -4.780  47.866 -29.407  1.00  0.00     0.020 C 
HETATM   41  C24 UNL     1      -3.653  48.414 -27.225  1.00  0.00     0.020 C 
ENDBRANCH  37  39
ENDBRANCH  36  37
ENDBRANCH   4  36
BRANCH   1  42
HETATM   42  O2  UNL     1     -11.073  43.400 -26.801  1.00  0.00    -0.313 OA
BRANCH  42  43
HETATM   43  C2  UNL     1     -11.441  42.092 -26.866  1.00  0.00     0.255 C 
HETATM   44  C1  UNL     1     -10.946  41.356 -25.659  1.00  0.00     0.126 C 
HETATM   45  O1  UNL     1     -12.110  41.584 -27.756  1.00  0.00    -0.266 OA
ENDBRANCH  42  43
ENDBRANCH   1  42
TORSDOF 12
ENDMDL
MODEL 8
REMARK minimizedAffinity -7.00318146
REMARK CNNscore 0.197029606
REMARK CNNaffinity 6.35179186
REMARK  12 active torsions:
REMARK  status: ('A' for Active; 'I' for Inactive)
REMARK    1  A    between atoms: C2_2  and  O2_4 
REMARK    2  A    between atoms: O2_4  and  C3_5 
REMARK    3  A    between atoms: C4_6  and  O3_7 
REMARK    4  A    between atoms: O3_7  and  C5_8 
REMARK    5  A    between atoms: C5_8  and  C6_10 
REMARK    6  A    between atoms: C12_16  and  C13_17 
REMARK    7  A    between atoms: C13_17  and  O5_18 
REMARK    8  A    between atoms: O5_18  and  C14_19 
REMARK    9  A    between atoms: C14_19  and  C15_21 
REMARK   10  A    between atoms: C20_28  and  O7_29 
REMARK   11  A    between atoms: O7_29  and  C21_30 
REMARK   12  A    between atoms: C21_30  and  C22_32 
ROOT
HETATM    1  C3  UNL     1      -3.674  49.237 -24.230  1.00  0.00     0.169 C 
HETATM    2  C4  UNL     1      -4.770  49.062 -23.141  1.00  0.00     0.178 C 
HETATM    3  C12 UNL     1      -4.192  48.714 -21.714  1.00  0.00     0.069 C 
HETATM    4  C20 UNL     1      -5.235  49.252 -20.649  1.00  0.00     0.148 C 
HETATM    5  C25 UNL     1      -4.624  49.785 -19.339  1.00  0.00     0.034 C 
HETATM    6  C26 UNL     1      -3.307  49.116 -18.993  1.00  0.00     0.010 C 
HETATM    7  C27 UNL     1      -2.232  49.344 -20.075  1.00  0.00     0.017 C 
HETATM    8  C28 UNL     1      -1.143  48.276 -19.925  1.00  0.00     0.013 C 
HETATM    9  C29 UNL     1      -2.837  49.487 -21.507  1.00  0.00     0.080 C 
HETATM   10  C30 UNL     1      -1.820  49.230 -22.624  1.00  0.00     0.050 C 
HETATM   11  C31 UNL     1      -2.444  50.035 -23.745  1.00  0.00     0.054 C 
HETATM   12  C32 UNL     1      -2.739  51.350 -22.997  1.00  0.00     0.061 C 
HETATM   13  C33 UNL     1      -3.786  52.271 -23.632  1.00  0.00     0.046 C 
HETATM   14  C34 UNL     1      -1.467  52.201 -22.793  1.00  0.00     0.046 C 
HETATM   15  O9  UNL     1      -3.177  50.913 -21.689  1.00  0.00    -0.368 OA
ENDROOT
BRANCH   3  16
HETATM   16  C13 UNL     1      -4.053  47.163 -21.570  1.00  0.00     0.197 C 
BRANCH  16  17
HETATM   17  O5  UNL     1      -4.311  46.683 -20.241  1.00  0.00    -0.316 OA
BRANCH  17  18
HETATM   18  C14 UNL     1      -4.518  45.338 -20.183  1.00  0.00     0.294 C 
HETATM   19  O6  UNL     1      -5.182  44.687 -20.973  1.00  0.00    -0.259 OA
BRANCH  18  20
HETATM   20  C15 UNL     1      -3.851  44.735 -19.011  1.00  0.00     0.054 A 
HETATM   21  C16 UNL     1      -3.771  43.360 -18.775  1.00  0.00     0.020 A 
HETATM   22  C17 UNL     1      -3.119  42.897 -17.632  1.00  0.00     0.018 A 
HETATM   23  C18 UNL     1      -2.569  43.827 -16.762  1.00  0.00     0.087 A 
HETATM   24  N1  UNL     1      -2.638  45.162 -16.953  1.00  0.00    -0.374 N 
HETATM   25  C19 UNL     1      -3.278  45.585 -18.072  1.00  0.00     0.105 A 
ATOM     26  H1  UNL     1      -2.228  45.820 -16.289  1.00  0.00     0.164 HD
ENDBRANCH  18  20
ENDBRANCH  17  18
ENDBRANCH  16  17
ENDBRANCH   3  16
BRANCH   2  27
HETATM   27  O3  UNL     1      -5.708  48.029 -23.536  1.00  0.00    -0.308 OA
BRANCH  27  28
HETATM   28  C5  UNL     1      -6.856  48.415 -24.144  1.00  0.00     0.293 C 
HETATM   29  O4  UNL     1      -7.479  49.441 -23.921  1.00  0.00    -0.259 OA
BRANCH  28  30
HETATM   30  C6  UNL     1      -7.273  47.407 -25.153  1.00  0.00     0.039 A 
HETATM   31  C7  UNL     1      -6.948  47.645 -26.496  1.00  0.00     0.017 A 
HETATM   32  C8  UNL     1      -7.304  46.721 -27.480  1.00  0.00     0.001 A 
HETATM   33  C9  UNL     1      -7.988  45.557 -27.129  1.00  0.00     0.000 A 
HETATM   34  C10 UNL     1      -8.316  45.313 -25.796  1.00  0.00     0.001 A 
HETATM   35  C11 UNL     1      -7.960  46.234 -24.807  1.00  0.00     0.017 A 
ENDBRANCH  28  30
ENDBRANCH  27  28
ENDBRANCH   2  27
BRANCH   4  36
HETATM   36  O7  UNL     1      -6.152  48.198 -20.277  1.00  0.00    -0.315 OA
BRANCH  36  37
HETATM   37  C21 UNL     1      -7.448  48.532 -20.021  1.00  0.00     0.262 C 
HETATM   38  O8  UNL     1      -8.311  48.718 -20.867  1.00  0.00    -0.265 OA
BRANCH  37  39
HETATM   39  C22 UNL     1      -7.649  48.662 -18.521  1.00  0.00     0.077 C 
HETATM   40  C23 UNL     1      -7.211  47.393 -17.796  1.00  0.00     0.020 C 
HETATM   41  C24 UNL     1      -9.114  48.978 -18.239  1.00  0.00     0.020 C 
ENDBRANCH  37  39
ENDBRANCH  36  37
ENDBRANCH   4  36
BRANCH   1  42
HETATM   42  O2  UNL     1      -4.203  49.907 -25.395  1.00  0.00    -0.313 OA
BRANCH  42  43
HETATM   43  C2  UNL     1      -3.458  49.850 -26.531  1.00  0.00     0.255 C 
HETATM   44  C1  UNL     1      -3.304  48.428 -26.978  1.00  0.00     0.126 C 
HETATM   45  O1  UNL     1      -3.003  50.814 -27.133  1.00  0.00    -0.266 OA
ENDBRANCH  42  43
ENDBRANCH   1  42
TORSDOF 12
ENDMDL
MODEL 9
REMARK minimizedAffinity -7.08917475
REMARK CNNscore 0.185045972
REMARK CNNaffinity 6.89658022
REMARK  12 active torsions:
REMARK  status: ('A' for Active; 'I' for Inactive)
REMARK    1  A    between atoms: C2_2  and  O2_4 
REMARK    2  A    between atoms: O2_4  and  C3_5 
REMARK    3  A    between atoms: C4_6  and  O3_7 
REMARK    4  A    between atoms: O3_7  and  C5_8 
REMARK    5  A    between atoms: C5_8  and  C6_10 
REMARK    6  A    between atoms: C12_16  and  C13_17 
REMARK    7  A    between atoms: C13_17  and  O5_18 
REMARK    8  A    between atoms: O5_18  and  C14_19 
REMARK    9  A    between atoms: C14_19  and  C15_21 
REMARK   10  A    between atoms: C20_28  and  O7_29 
REMARK   11  A    between atoms: O7_29  and  C21_30 
REMARK   12  A    between atoms: C21_30  and  C22_32 
ROOT
HETATM    1  C3  UNL     1       2.527  50.104 -12.457  1.00  0.00     0.169 C 
HETATM    2  C4  UNL     1       1.200  50.894 -12.274  1.00  0.00     0.178 C 
HETATM    3  C12 UNL     1       0.138  50.616 -13.408  1.00  0.00     0.069 C 
HETATM    4  C20 UNL     1      -1.293  50.862 -12.772  1.00  0.00     0.148 C 
HETATM    5  C25 UNL     1      -2.413  49.942 -13.294  1.00  0.00     0.034 C 
HETATM    6  C26 UNL     1      -2.171  49.475 -14.717  1.00  0.00     0.010 C 
HETATM    7  C27 UNL     1      -0.869  48.661 -14.854  1.00  0.00     0.017 C 
HETATM    8  C28 UNL     1      -0.440  48.654 -16.325  1.00  0.00     0.013 C 
HETATM    9  C29 UNL     1       0.230  49.105 -13.839  1.00  0.00     0.080 C 
HETATM   10  C30 UNL     1       1.643  48.681 -14.250  1.00  0.00     0.050 C 
HETATM   11  C31 UNL     1       2.316  48.638 -12.893  1.00  0.00     0.054 C 
HETATM   12  C32 UNL     1       1.265  47.837 -12.099  1.00  0.00     0.061 C 
HETATM   13  C33 UNL     1       1.327  47.961 -10.573  1.00  0.00     0.046 C 
HETATM   14  C34 UNL     1       1.317  46.328 -12.422  1.00  0.00     0.046 C 
HETATM   15  O9  UNL     1       0.001  48.338 -12.596  1.00  0.00    -0.368 OA
ENDROOT
BRANCH   3  16
HETATM   16  C13 UNL     1       0.362  51.615 -14.591  1.00  0.00     0.197 C 
BRANCH  16  17
HETATM   17  O5  UNL     1       1.360  51.181 -15.529  1.00  0.00    -0.316 OA
BRANCH  17  18
HETATM   18  C14 UNL     1       1.765  52.164 -16.379  1.00  0.00     0.294 C 
HETATM   19  O6  UNL     1       2.672  52.955 -16.171  1.00  0.00    -0.259 OA
BRANCH  18  20
HETATM   20  C15 UNL     1       0.951  52.188 -17.611  1.00  0.00     0.054 A 
HETATM   21  C16 UNL     1      -0.215  51.439 -17.795  1.00  0.00     0.020 A 
HETATM   22  C17 UNL     1      -0.908  51.534 -19.003  1.00  0.00     0.018 A 
HETATM   23  C18 UNL     1      -0.409  52.375 -19.987  1.00  0.00     0.087 A 
HETATM   24  N1  UNL     1       0.720  53.103 -19.847  1.00  0.00    -0.374 N 
HETATM   25  C19 UNL     1       1.374  52.991 -18.663  1.00  0.00     0.105 A 
ATOM     26  H1  UNL     1       1.063  53.707 -20.594  1.00  0.00     0.164 HD
ENDBRANCH  18  20
ENDBRANCH  17  18
ENDBRANCH  16  17
ENDBRANCH   3  16
BRANCH   2  27
HETATM   27  O3  UNL     1       1.469  52.318 -12.218  1.00  0.00    -0.308 OA
BRANCH  27  28
HETATM   28  C5  UNL     1       1.243  52.958 -11.044  1.00  0.00     0.293 C 
HETATM   29  O4  UNL     1       0.289  52.786 -10.302  1.00  0.00    -0.259 OA
BRANCH  28  30
HETATM   30  C6  UNL     1       2.338  53.923 -10.761  1.00  0.00     0.039 A 
HETATM   31  C7  UNL     1       3.588  53.410 -10.388  1.00  0.00     0.017 A 
HETATM   32  C8  UNL     1       4.653  54.273 -10.126  1.00  0.00     0.001 A 
HETATM   33  C9  UNL     1       4.474  55.653 -10.233  1.00  0.00     0.000 A 
HETATM   34  C10 UNL     1       3.233  56.172 -10.601  1.00  0.00     0.001 A 
HETATM   35  C11 UNL     1       2.165  55.311 -10.867  1.00  0.00     0.017 A 
ENDBRANCH  28  30
ENDBRANCH  27  28
ENDBRANCH   2  27
BRANCH   4  36
HETATM   36  O7  UNL     1      -1.722  52.219 -13.027  1.00  0.00    -0.315 OA
BRANCH  36  37
HETATM   37  C21 UNL     1      -2.999  52.564 -12.698  1.00  0.00     0.262 C 
HETATM   38  O8  UNL     1      -3.880  52.855 -13.494  1.00  0.00    -0.265 OA
BRANCH  37  39
HETATM   39  C22 UNL     1      -3.150  52.553 -11.186  1.00  0.00     0.077 C 
HETATM   40  C23 UNL     1      -4.338  51.695 -10.759  1.00  0.00     0.020 C 
HETATM   41  C24 UNL     1      -3.302  53.987 -10.690  1.00  0.00     0.020 C 
ENDBRANCH  37  39
ENDBRANCH  36  37
ENDBRANCH   4  36
BRANCH   1  42
HETATM   42  O2  UNL     1       3.297  50.095 -11.237  1.00  0.00    -0.313 OA
BRANCH  42  43
HETATM   43  C2  UNL     1       4.642  49.929 -11.356  1.00  0.00     0.255 C 
HETATM   44  C1  UNL     1       5.285  49.930 -10.003  1.00  0.00     0.126 C 
HETATM   45  O1  UNL     1       5.248  49.765 -12.407  1.00  0.00    -0.266 OA
ENDBRANCH  42  43
ENDBRANCH   1  42
TORSDOF 12
ENDMDL
