MODEL 1
REMARK minimizedAffinity -9.51881409
REMARK  7 active torsions:
REMARK  status: ('A' for Active; 'I' for Inactive)
REMARK    1  A    between atoms: C2_2  and  C3_3 
REMARK    2  A    between atoms: C2_2  and  C4_5 
REMARK    3  A    between atoms: C3_3  and  O1_4 
REMARK    4  A    between atoms: C4_5  and  C5_7 
REMARK    5  A    between atoms: C5_7  and  C6_8 
REMARK    6  A    between atoms: C6_8  and  C7_9 
REMARK    7  A    between atoms: C7_9  and  C9_11 
ROOT
HETATM    1  C9  UNL     1      -3.461  50.660 -24.970  1.00  0.00    -0.002 C 
HETATM    2  C10 UNL     1      -4.978  50.491 -24.667  1.00  0.00     0.007 C 
HETATM    3  C11 UNL     1      -5.141  50.396 -23.139  1.00  0.00     0.015 C 
HETATM    4  C12 UNL     1      -3.787  50.844 -22.562  1.00  0.00    -0.005 C 
HETATM    5  C13 UNL     1      -3.806  52.404 -22.515  1.00  0.00     0.021 C 
HETATM    6  C14 UNL     1      -3.373  50.417 -21.159  1.00  0.00    -0.000 C 
HETATM    7  C15 UNL     1      -2.065  50.268 -20.823  1.00  0.00    -0.060 C 
HETATM    8  C16 UNL     1      -0.968  50.474 -21.880  1.00  0.00     0.036 C 
HETATM    9  C17 UNL     1      -1.405  50.764 -23.331  1.00  0.00     0.015 C 
HETATM   10  C18 UNL     1      -2.805  50.215 -23.628  1.00  0.00    -0.028 C 
HETATM   11  C19 UNL     1      -2.756  48.655 -23.571  1.00  0.00     0.016 C 
HETATM   12  C20 UNL     1      -1.583  49.860 -19.402  1.00  0.00    -0.014 C 
HETATM   13  C21 UNL     1      -1.182  48.371 -19.464  1.00  0.00     0.020 C 
HETATM   14  C22 UNL     1      -0.370  50.721 -18.977  1.00  0.00     0.021 C 
HETATM   15  C23 UNL     1       0.073  50.585 -17.526  1.00  0.00     0.080 C 
HETATM   16  C24 UNL     1      -0.826  49.766 -16.632  1.00  0.00     0.135 C 
HETATM   17  O3  UNL     1      -0.330  49.179 -15.666  1.00  0.00    -0.297 OA
HETATM   18  C25 UNL     1      -2.340  49.772 -16.872  1.00  0.00     0.018 C 
HETATM   19  C26 UNL     1      -2.898  48.394 -16.447  1.00  0.00     0.023 C 
HETATM   20  C27 UNL     1      -2.929  50.829 -15.915  1.00  0.00     0.023 C 
HETATM   21  C28 UNL     1      -2.698  50.153 -18.350  1.00  0.00     0.020 C 
HETATM   22  C29 UNL     1      -4.044  49.593 -18.813  1.00  0.00     0.090 C 
HETATM   23  C30 UNL     1      -4.439  50.202 -20.132  1.00  0.00     0.157 C 
HETATM   24  O4  UNL     1      -5.615  50.483 -20.356  1.00  0.00    -0.293 OA
ENDROOT
BRANCH   1  25
HETATM   25  C7  UNL     1      -3.058  49.972 -26.313  1.00  0.00    -0.013 C 
HETATM   26  C8  UNL     1      -3.419  48.484 -26.331  1.00  0.00     0.010 C 
BRANCH  25  27
HETATM   27  C6  UNL     1      -1.538  50.163 -26.575  1.00  0.00     0.012 C 
BRANCH  27  28
HETATM   28  C5  UNL     1      -1.191  51.447 -27.342  1.00  0.00     0.084 C 
BRANCH  28  29
HETATM   29  C4  UNL     1       0.311  51.646 -27.497  1.00  0.00     0.157 C 
HETATM   30  O2  UNL     1       0.870  51.601 -28.595  1.00  0.00    -0.293 OA
BRANCH  29  31
HETATM   31  C2  UNL     1       1.145  51.921 -26.276  1.00  0.00     0.002 C 
HETATM   32  C1  UNL     1       0.763  52.791 -25.326  1.00  0.00     0.025 C 
BRANCH  31  33
HETATM   33  C3  UNL     1       2.427  51.141 -26.186  1.00  0.00     0.205 C 
BRANCH  33  34
HETATM   34  O1  UNL     1       3.276  51.464 -27.278  1.00  0.00    -0.396 OA
HETATM   35  H5  UNL     1       2.810  51.142 -28.077  1.00  0.00     0.209 HD
ENDBRANCH  33  34
ENDBRANCH  31  33
ENDBRANCH  29  31
ENDBRANCH  28  29
ENDBRANCH  27  28
ENDBRANCH  25  27
ENDBRANCH   1  25
TORSDOF 7
ENDMDL
MODEL 2
REMARK minimizedAffinity -9.48530197
REMARK  7 active torsions:
REMARK  status: ('A' for Active; 'I' for Inactive)
REMARK    1  A    between atoms: C2_2  and  C3_3 
REMARK    2  A    between atoms: C2_2  and  C4_5 
REMARK    3  A    between atoms: C3_3  and  O1_4 
REMARK    4  A    between atoms: C4_5  and  C5_7 
REMARK    5  A    between atoms: C5_7  and  C6_8 
REMARK    6  A    between atoms: C6_8  and  C7_9 
REMARK    7  A    between atoms: C7_9  and  C9_11 
ROOT
HETATM    1  C9  UNL     1      -0.404  50.593 -21.849  1.00  0.00    -0.002 C 
HETATM    2  C10 UNL     1      -0.416  50.347 -20.313  1.00  0.00     0.007 C 
HETATM    3  C11 UNL     1      -1.707  49.582 -19.972  1.00  0.00     0.015 C 
HETATM    4  C12 UNL     1      -2.257  49.099 -21.325  1.00  0.00    -0.005 C 
HETATM    5  C13 UNL     1      -1.508  47.775 -21.675  1.00  0.00     0.021 C 
HETATM    6  C14 UNL     1      -3.736  48.761 -21.475  1.00  0.00    -0.000 C 
HETATM    7  C15 UNL     1      -4.373  48.897 -22.666  1.00  0.00    -0.060 C 
HETATM    8  C16 UNL     1      -3.622  49.454 -23.886  1.00  0.00     0.036 C 
HETATM    9  C17 UNL     1      -2.167  49.929 -23.687  1.00  0.00     0.015 C 
HETATM   10  C18 UNL     1      -1.894  50.339 -22.235  1.00  0.00    -0.028 C 
HETATM   11  C19 UNL     1      -2.736  51.611 -21.903  1.00  0.00     0.016 C 
HETATM   12  C20 UNL     1      -5.872  48.543 -22.885  1.00  0.00    -0.014 C 
HETATM   13  C21 UNL     1      -6.656  49.873 -22.922  1.00  0.00     0.020 C 
HETATM   14  C22 UNL     1      -6.057  47.779 -24.217  1.00  0.00     0.021 C 
HETATM   15  C23 UNL     1      -7.435  47.177 -24.459  1.00  0.00     0.080 C 
HETATM   16  C24 UNL     1      -8.401  47.245 -23.301  1.00  0.00     0.135 C 
HETATM   17  O3  UNL     1      -9.612  47.287 -23.538  1.00  0.00    -0.297 OA
HETATM   18  C25 UNL     1      -7.870  47.146 -21.866  1.00  0.00     0.018 C 
HETATM   19  C26 UNL     1      -8.799  47.981 -20.954  1.00  0.00     0.023 C 
HETATM   20  C27 UNL     1      -8.013  45.667 -21.450  1.00  0.00     0.023 C 
HETATM   21  C28 UNL     1      -6.365  47.571 -21.768  1.00  0.00     0.020 C 
HETATM   22  C29 UNL     1      -5.968  48.087 -20.383  1.00  0.00     0.090 C 
HETATM   23  C30 UNL     1      -4.472  48.231 -20.286  1.00  0.00     0.157 C 
HETATM   24  O4  UNL     1      -3.890  47.945 -19.242  1.00  0.00    -0.293 OA
ENDROOT
BRANCH   1  25
HETATM   25  C7  UNL     1       0.286  51.945 -22.215  1.00  0.00    -0.013 C 
HETATM   26  C8  UNL     1       0.218  52.958 -21.069  1.00  0.00     0.010 C 
BRANCH  25  27
HETATM   27  C6  UNL     1      -0.352  52.539 -23.501  1.00  0.00     0.012 C 
BRANCH  27  28
HETATM   28  C5  UNL     1       0.666  53.058 -24.525  1.00  0.00     0.084 C 
BRANCH  28  29
HETATM   29  C4  UNL     1       0.194  52.878 -25.962  1.00  0.00     0.157 C 
HETATM   30  O2  UNL     1      -0.823  53.424 -26.393  1.00  0.00    -0.293 OA
BRANCH  29  31
HETATM   31  C2  UNL     1       1.000  52.017 -26.896  1.00  0.00     0.002 C 
HETATM   32  C1  UNL     1       0.619  51.779 -28.163  1.00  0.00     0.025 C 
BRANCH  31  33
HETATM   33  C3  UNL     1       2.270  51.458 -26.318  1.00  0.00     0.205 C 
BRANCH  33  34
HETATM   34  O1  UNL     1       3.296  51.457 -27.300  1.00  0.00    -0.396 OA
HETATM   35  H5  UNL     1       3.002  50.824 -27.987  1.00  0.00     0.209 HD
ENDBRANCH  33  34
ENDBRANCH  31  33
ENDBRANCH  29  31
ENDBRANCH  28  29
ENDBRANCH  27  28
ENDBRANCH  25  27
ENDBRANCH   1  25
TORSDOF 7
ENDMDL
MODEL 3
REMARK minimizedAffinity -9.29378605
REMARK  7 active torsions:
REMARK  status: ('A' for Active; 'I' for Inactive)
REMARK    1  A    between atoms: C2_2  and  C3_3 
REMARK    2  A    between atoms: C2_2  and  C4_5 
REMARK    3  A    between atoms: C3_3  and  O1_4 
REMARK    4  A    between atoms: C4_5  and  C5_7 
REMARK    5  A    between atoms: C5_7  and  C6_8 
REMARK    6  A    between atoms: C6_8  and  C7_9 
REMARK    7  A    between atoms: C7_9  and  C9_11 
ROOT
HETATM    1  C9  UNL     1      -0.522  50.126 -21.153  1.00  0.00    -0.002 C 
HETATM    2  C10 UNL     1      -0.787  49.483 -19.761  1.00  0.00     0.007 C 
HETATM    3  C11 UNL     1      -2.091  48.672 -19.862  1.00  0.00     0.015 C 
HETATM    4  C12 UNL     1      -2.386  48.571 -21.369  1.00  0.00    -0.005 C 
HETATM    5  C13 UNL     1      -1.545  47.377 -21.920  1.00  0.00     0.021 C 
HETATM    6  C14 UNL     1      -3.806  48.305 -21.856  1.00  0.00    -0.000 C 
HETATM    7  C15 UNL     1      -4.235  48.760 -23.061  1.00  0.00    -0.060 C 
HETATM    8  C16 UNL     1      -3.306  49.610 -23.942  1.00  0.00     0.036 C 
HETATM    9  C17 UNL     1      -1.923  49.996 -23.376  1.00  0.00     0.015 C 
HETATM   10  C18 UNL     1      -1.914  50.003 -21.843  1.00  0.00    -0.028 C 
HETATM   11  C19 UNL     1      -2.843  51.153 -21.340  1.00  0.00     0.016 C 
HETATM   12  C20 UNL     1      -5.662  48.497 -23.621  1.00  0.00    -0.014 C 
HETATM   13  C21 UNL     1      -6.472  49.799 -23.443  1.00  0.00     0.020 C 
HETATM   14  C22 UNL     1      -5.592  48.115 -25.118  1.00  0.00     0.021 C 
HETATM   15  C23 UNL     1      -6.888  47.617 -25.745  1.00  0.00     0.080 C 
HETATM   16  C24 UNL     1      -8.039  47.389 -24.795  1.00  0.00     0.135 C 
HETATM   17  O3  UNL     1      -9.192  47.508 -25.218  1.00  0.00    -0.297 OA
HETATM   18  C25 UNL     1      -7.757  46.907 -23.367  1.00  0.00     0.018 C 
HETATM   19  C26 UNL     1      -8.855  47.482 -22.443  1.00  0.00     0.023 C 
HETATM   20  C27 UNL     1      -7.920  45.372 -23.385  1.00  0.00     0.023 C 
HETATM   21  C28 UNL     1      -6.306  47.270 -22.902  1.00  0.00     0.020 C 
HETATM   22  C29 UNL     1      -6.168  47.396 -21.383  1.00  0.00     0.090 C 
HETATM   23  C30 UNL     1      -4.716  47.489 -20.994  1.00  0.00     0.157 C 
HETATM   24  O4  UNL     1      -4.311  46.929 -19.978  1.00  0.00    -0.293 OA
ENDROOT
BRANCH   1  25
HETATM   25  C7  UNL     1       0.176  51.517 -21.025  1.00  0.00    -0.013 C 
HETATM   26  C8  UNL     1       0.016  52.118 -19.626  1.00  0.00     0.010 C 
BRANCH  25  27
HETATM   27  C6  UNL     1      -0.379  52.493 -22.100  1.00  0.00     0.012 C 
BRANCH  27  28
HETATM   28  C5  UNL     1       0.528  52.657 -23.327  1.00  0.00     0.084 C 
BRANCH  28  29
HETATM   29  C4  UNL     1      -0.260  52.908 -24.606  1.00  0.00     0.157 C 
HETATM   30  O2  UNL     1      -1.442  53.257 -24.593  1.00  0.00    -0.293 OA
BRANCH  29  31
HETATM   31  C2  UNL     1       0.426  52.742 -25.935  1.00  0.00     0.002 C 
HETATM   32  C1  UNL     1       1.254  51.715 -26.193  1.00  0.00     0.025 C 
BRANCH  31  33
HETATM   33  C3  UNL     1       0.105  53.795 -26.958  1.00  0.00     0.205 C 
BRANCH  33  34
HETATM   34  O1  UNL     1       0.124  55.082 -26.359  1.00  0.00    -0.396 OA
HETATM   35  H5  UNL     1      -0.616  55.084 -25.717  1.00  0.00     0.209 HD
ENDBRANCH  33  34
ENDBRANCH  31  33
ENDBRANCH  29  31
ENDBRANCH  28  29
ENDBRANCH  27  28
ENDBRANCH  25  27
ENDBRANCH   1  25
TORSDOF 7
ENDMDL
MODEL 4
REMARK minimizedAffinity -8.92805576
REMARK  7 active torsions:
REMARK  status: ('A' for Active; 'I' for Inactive)
REMARK    1  A    between atoms: C2_2  and  C3_3 
REMARK    2  A    between atoms: C2_2  and  C4_5 
REMARK    3  A    between atoms: C3_3  and  O1_4 
REMARK    4  A    between atoms: C4_5  and  C5_7 
REMARK    5  A    between atoms: C5_7  and  C6_8 
REMARK    6  A    between atoms: C6_8  and  C7_9 
REMARK    7  A    between atoms: C7_9  and  C9_11 
ROOT
HETATM    1  C9  UNL     1      -1.656  51.508 -23.221  1.00  0.00    -0.002 C 
HETATM    2  C10 UNL     1      -1.651  50.725 -24.566  1.00  0.00     0.007 C 
HETATM    3  C11 UNL     1      -2.878  49.796 -24.569  1.00  0.00     0.015 C 
HETATM    4  C12 UNL     1      -3.756  50.285 -23.404  1.00  0.00    -0.005 C 
HETATM    5  C13 UNL     1      -4.601  51.483 -23.940  1.00  0.00     0.021 C 
HETATM    6  C14 UNL     1      -4.772  49.347 -22.763  1.00  0.00    -0.000 C 
HETATM    7  C15 UNL     1      -5.130  49.478 -21.459  1.00  0.00    -0.060 C 
HETATM    8  C16 UNL     1      -4.467  50.550 -20.580  1.00  0.00     0.036 C 
HETATM    9  C17 UNL     1      -3.336  51.398 -21.199  1.00  0.00     0.015 C 
HETATM   10  C18 UNL     1      -2.639  50.666 -22.352  1.00  0.00    -0.028 C 
HETATM   11  C19 UNL     1      -1.886  49.424 -21.780  1.00  0.00     0.016 C 
HETATM   12  C20 UNL     1      -6.179  48.568 -20.760  1.00  0.00    -0.014 C 
HETATM   13  C21 UNL     1      -5.403  47.557 -19.889  1.00  0.00     0.020 C 
HETATM   14  C22 UNL     1      -7.125  49.416 -19.877  1.00  0.00     0.021 C 
HETATM   15  C23 UNL     1      -8.336  48.692 -19.303  1.00  0.00     0.080 C 
HETATM   16  C24 UNL     1      -8.567  47.287 -19.804  1.00  0.00     0.135 C 
HETATM   17  O3  UNL     1      -9.140  46.479 -19.067  1.00  0.00    -0.297 OA
HETATM   18  C25 UNL     1      -8.192  46.927 -21.246  1.00  0.00     0.018 C 
HETATM   19  C26 UNL     1      -7.776  45.438 -21.275  1.00  0.00     0.023 C 
HETATM   20  C27 UNL     1      -9.484  47.066 -22.080  1.00  0.00     0.023 C 
HETATM   21  C28 UNL     1      -7.095  47.886 -21.824  1.00  0.00     0.020 C 
HETATM   22  C29 UNL     1      -6.258  47.251 -22.936  1.00  0.00     0.090 C 
HETATM   23  C30 UNL     1      -5.409  48.294 -23.613  1.00  0.00     0.157 C 
HETATM   24  O4  UNL     1      -5.229  48.252 -24.828  1.00  0.00    -0.293 OA
ENDROOT
BRANCH   1  25
HETATM   25  C7  UNL     1      -0.207  51.801 -22.716  1.00  0.00    -0.013 C 
HETATM   26  C8  UNL     1      -0.168  52.100 -21.215  1.00  0.00     0.010 C 
BRANCH  25  27
HETATM   27  C6  UNL     1       0.410  52.979 -23.519  1.00  0.00     0.012 C 
BRANCH  27  28
HETATM   28  C5  UNL     1       0.968  52.580 -24.891  1.00  0.00     0.084 C 
BRANCH  28  29
HETATM   29  C4  UNL     1       0.394  53.421 -26.024  1.00  0.00     0.157 C 
HETATM   30  O2  UNL     1       0.113  54.613 -25.880  1.00  0.00    -0.293 OA
BRANCH  29  31
HETATM   31  C2  UNL     1       0.172  52.787 -27.370  1.00  0.00     0.002 C 
HETATM   32  C1  UNL     1       0.500  51.509 -27.625  1.00  0.00     0.025 C 
BRANCH  31  33
HETATM   33  C3  UNL     1      -0.459  53.679 -28.402  1.00  0.00     0.205 C 
BRANCH  33  34
HETATM   34  O1  UNL     1      -1.841  53.848 -28.124  1.00  0.00    -0.396 OA
HETATM   35  H5  UNL     1      -2.242  52.963 -28.240  1.00  0.00     0.209 HD
ENDBRANCH  33  34
ENDBRANCH  31  33
ENDBRANCH  29  31
ENDBRANCH  28  29
ENDBRANCH  27  28
ENDBRANCH  25  27
ENDBRANCH   1  25
TORSDOF 7
ENDMDL
MODEL 5
REMARK minimizedAffinity -8.88555145
REMARK  7 active torsions:
REMARK  status: ('A' for Active; 'I' for Inactive)
REMARK    1  A    between atoms: C2_2  and  C3_3 
REMARK    2  A    between atoms: C2_2  and  C4_5 
REMARK    3  A    between atoms: C3_3  and  O1_4 
REMARK    4  A    between atoms: C4_5  and  C5_7 
REMARK    5  A    between atoms: C5_7  and  C6_8 
REMARK    6  A    between atoms: C6_8  and  C7_9 
REMARK    7  A    between atoms: C7_9  and  C9_11 
ROOT
HETATM    1  C9  UNL     1      -4.698  48.152 -20.372  1.00  0.00    -0.002 C 
HETATM    2  C10 UNL     1      -5.336  47.304 -21.510  1.00  0.00     0.007 C 
HETATM    3  C11 UNL     1      -4.675  47.727 -22.834  1.00  0.00     0.015 C 
HETATM    4  C12 UNL     1      -3.444  48.553 -22.423  1.00  0.00    -0.005 C 
HETATM    5  C13 UNL     1      -2.296  47.540 -22.118  1.00  0.00     0.021 C 
HETATM    6  C14 UNL     1      -2.832  49.553 -23.397  1.00  0.00    -0.000 C 
HETATM    7  C15 UNL     1      -2.181  50.660 -22.956  1.00  0.00    -0.060 C 
HETATM    8  C16 UNL     1      -2.098  50.959 -21.450  1.00  0.00     0.036 C 
HETATM    9  C17 UNL     1      -2.846  50.018 -20.482  1.00  0.00     0.015 C 
HETATM   10  C18 UNL     1      -4.023  49.313 -21.165  1.00  0.00    -0.028 C 
HETATM   11  C19 UNL     1      -5.102  50.379 -21.535  1.00  0.00     0.016 C 
HETATM   12  C20 UNL     1      -1.515  51.700 -23.900  1.00  0.00    -0.014 C 
HETATM   13  C21 UNL     1      -2.449  52.929 -23.962  1.00  0.00     0.020 C 
HETATM   14  C22 UNL     1      -0.128  52.113 -23.355  1.00  0.00     0.021 C 
HETATM   15  C23 UNL     1       0.733  52.959 -24.285  1.00  0.00     0.080 C 
HETATM   16  C24 UNL     1       0.210  53.145 -25.688  1.00  0.00     0.135 C 
HETATM   17  O3  UNL     1       0.512  54.170 -26.305  1.00  0.00    -0.297 OA
HETATM   18  C25 UNL     1      -0.587  52.017 -26.354  1.00  0.00     0.018 C 
HETATM   19  C26 UNL     1      -1.611  52.659 -27.319  1.00  0.00     0.023 C 
HETATM   20  C27 UNL     1       0.421  51.218 -27.207  1.00  0.00     0.023 C 
HETATM   21  C28 UNL     1      -1.246  51.063 -25.299  1.00  0.00     0.020 C 
HETATM   22  C29 UNL     1      -2.495  50.350 -25.822  1.00  0.00     0.090 C 
HETATM   23  C30 UNL     1      -2.923  49.271 -24.863  1.00  0.00     0.157 C 
HETATM   24  O4  UNL     1      -3.360  48.204 -25.288  1.00  0.00    -0.293 OA
ENDROOT
BRANCH   1  25
HETATM   25  C7  UNL     1      -5.723  48.463 -19.236  1.00  0.00    -0.013 C 
HETATM   26  C8  UNL     1      -5.147  48.182 -17.845  1.00  0.00     0.010 C 
BRANCH  25  27
HETATM   27  C6  UNL     1      -7.027  47.648 -19.457  1.00  0.00     0.012 C 
BRANCH  27  28
HETATM   28  C5  UNL     1      -8.244  48.501 -19.837  1.00  0.00     0.084 C 
BRANCH  28  29
HETATM   29  C4  UNL     1      -9.110  48.853 -18.634  1.00  0.00     0.157 C 
HETATM   30  O2  UNL     1      -8.850  49.801 -17.891  1.00  0.00    -0.293 OA
BRANCH  29  31
HETATM   31  C2  UNL     1     -10.335  48.029 -18.346  1.00  0.00     0.002 C 
HETATM   32  C1  UNL     1     -11.366  47.948 -19.205  1.00  0.00     0.025 C 
BRANCH  31  33
HETATM   33  C3  UNL     1     -10.317  47.288 -17.038  1.00  0.00     0.205 C 
BRANCH  33  34
HETATM   34  O1  UNL     1     -10.347  48.206 -15.955  1.00  0.00    -0.396 OA
HETATM   35  H5  UNL     1      -9.503  48.700 -16.006  1.00  0.00     0.209 HD
ENDBRANCH  33  34
ENDBRANCH  31  33
ENDBRANCH  29  31
ENDBRANCH  28  29
ENDBRANCH  27  28
ENDBRANCH  25  27
ENDBRANCH   1  25
TORSDOF 7
ENDMDL
MODEL 6
REMARK minimizedAffinity -8.8004446
REMARK  7 active torsions:
REMARK  status: ('A' for Active; 'I' for Inactive)
REMARK    1  A    between atoms: C2_2  and  C3_3 
REMARK    2  A    between atoms: C2_2  and  C4_5 
REMARK    3  A    between atoms: C3_3  and  O1_4 
REMARK    4  A    between atoms: C4_5  and  C5_7 
REMARK    5  A    between atoms: C5_7  and  C6_8 
REMARK    6  A    between atoms: C6_8  and  C7_9 
REMARK    7  A    between atoms: C7_9  and  C9_11 
ROOT
HETATM    1  C9  UNL     1      -1.843  50.000 -23.663  1.00  0.00    -0.002 C 
HETATM    2  C10 UNL     1      -1.333  50.571 -22.308  1.00  0.00     0.007 C 
HETATM    3  C11 UNL     1      -2.311  50.114 -21.212  1.00  0.00     0.015 C 
HETATM    4  C12 UNL     1      -3.171  49.021 -21.870  1.00  0.00    -0.005 C 
HETATM    5  C13 UNL     1      -2.366  47.688 -21.774  1.00  0.00     0.021 C 
HETATM    6  C14 UNL     1      -4.548  48.686 -21.307  1.00  0.00    -0.000 C 
HETATM    7  C15 UNL     1      -5.539  48.211 -22.104  1.00  0.00    -0.060 C 
HETATM    8  C16 UNL     1      -5.308  48.053 -23.616  1.00  0.00     0.036 C 
HETATM    9  C17 UNL     1      -3.960  48.532 -24.196  1.00  0.00     0.015 C 
HETATM   10  C18 UNL     1      -3.316  49.617 -23.326  1.00  0.00    -0.028 C 
HETATM   11  C19 UNL     1      -4.206  50.899 -23.379  1.00  0.00     0.016 C 
HETATM   12  C20 UNL     1      -6.953  47.827 -21.582  1.00  0.00    -0.014 C 
HETATM   13  C21 UNL     1      -7.914  48.969 -21.979  1.00  0.00     0.020 C 
HETATM   14  C22 UNL     1      -7.419  46.495 -22.216  1.00  0.00     0.021 C 
HETATM   15  C23 UNL     1      -8.688  45.884 -21.636  1.00  0.00     0.080 C 
HETATM   16  C24 UNL     1      -9.241  46.553 -20.400  1.00  0.00     0.135 C 
HETATM   17  O3  UNL     1     -10.455  46.494 -20.185  1.00  0.00    -0.297 OA
HETATM   18  C25 UNL     1      -8.279  47.187 -19.389  1.00  0.00     0.018 C 
HETATM   19  C26 UNL     1      -8.998  48.389 -18.734  1.00  0.00     0.023 C 
HETATM   20  C27 UNL     1      -8.043  46.129 -18.290  1.00  0.00     0.023 C 
HETATM   21  C28 UNL     1      -6.908  47.570 -20.044  1.00  0.00     0.020 C 
HETATM   22  C29 UNL     1      -6.187  48.710 -19.322  1.00  0.00     0.090 C 
HETATM   23  C30 UNL     1      -4.780  48.851 -19.839  1.00  0.00     0.157 C 
HETATM   24  O4  UNL     1      -3.862  49.124 -19.069  1.00  0.00    -0.293 OA
ENDROOT
BRANCH   1  25
HETATM   25  C7  UNL     1      -1.529  50.963 -24.852  1.00  0.00    -0.013 C 
HETATM   26  C8  UNL     1      -1.644  50.262 -26.209  1.00  0.00     0.010 C 
BRANCH  25  27
HETATM   27  C6  UNL     1      -0.113  51.580 -24.680  1.00  0.00     0.012 C 
BRANCH  27  28
HETATM   28  C5  UNL     1      -0.036  53.075 -25.015  1.00  0.00     0.084 C 
BRANCH  28  29
HETATM   29  C4  UNL     1       0.286  53.329 -26.483  1.00  0.00     0.157 C 
HETATM   30  O2  UNL     1      -0.078  54.351 -27.068  1.00  0.00    -0.293 OA
BRANCH  29  31
HETATM   31  C2  UNL     1       1.087  52.310 -27.245  1.00  0.00     0.002 C 
HETATM   32  C1  UNL     1       0.722  51.872 -28.462  1.00  0.00     0.025 C 
BRANCH  31  33
HETATM   33  C3  UNL     1       2.335  51.830 -26.557  1.00  0.00     0.205 C 
BRANCH  33  34
HETATM   34  O1  UNL     1       3.359  51.589 -27.511  1.00  0.00    -0.396 OA
HETATM   35  H5  UNL     1       3.038  50.842 -28.057  1.00  0.00     0.209 HD
ENDBRANCH  33  34
ENDBRANCH  31  33
ENDBRANCH  29  31
ENDBRANCH  28  29
ENDBRANCH  27  28
ENDBRANCH  25  27
ENDBRANCH   1  25
TORSDOF 7
ENDMDL
MODEL 7
REMARK minimizedAffinity -8.687644
REMARK  7 active torsions:
REMARK  status: ('A' for Active; 'I' for Inactive)
REMARK    1  A    between atoms: C2_2  and  C3_3 
REMARK    2  A    between atoms: C2_2  and  C4_5 
REMARK    3  A    between atoms: C3_3  and  O1_4 
REMARK    4  A    between atoms: C4_5  and  C5_7 
REMARK    5  A    between atoms: C5_7  and  C6_8 
REMARK    6  A    between atoms: C6_8  and  C7_9 
REMARK    7  A    between atoms: C7_9  and  C9_11 
ROOT
HETATM    1  C9  UNL     1      -1.585  51.470 -22.139  1.00  0.00    -0.002 C 
HETATM    2  C10 UNL     1      -2.934  52.103 -22.589  1.00  0.00     0.007 C 
HETATM    3  C11 UNL     1      -4.070  51.257 -21.988  1.00  0.00     0.015 C 
HETATM    4  C12 UNL     1      -3.393  50.362 -20.936  1.00  0.00    -0.005 C 
HETATM    5  C13 UNL     1      -3.267  51.207 -19.630  1.00  0.00     0.021 C 
HETATM    6  C14 UNL     1      -4.053  49.061 -20.496  1.00  0.00    -0.000 C 
HETATM    7  C15 UNL     1      -3.316  48.004 -20.067  1.00  0.00    -0.060 C 
HETATM    8  C16 UNL     1      -1.781  48.081 -20.071  1.00  0.00     0.036 C 
HETATM    9  C17 UNL     1      -1.120  49.347 -20.655  1.00  0.00     0.015 C 
HETATM   10  C18 UNL     1      -2.028  50.050 -21.670  1.00  0.00    -0.028 C 
HETATM   11  C19 UNL     1      -2.200  49.126 -22.917  1.00  0.00     0.016 C 
HETATM   12  C20 UNL     1      -3.935  46.663 -19.581  1.00  0.00    -0.014 C 
HETATM   13  C21 UNL     1      -3.759  45.637 -20.721  1.00  0.00     0.020 C 
HETATM   14  C22 UNL     1      -3.217  46.169 -18.304  1.00  0.00     0.021 C 
HETATM   15  C23 UNL     1      -3.856  44.983 -17.591  1.00  0.00     0.080 C 
HETATM   16  C24 UNL     1      -5.204  44.545 -18.111  1.00  0.00     0.135 C 
HETATM   17  O3  UNL     1      -5.534  43.362 -17.987  1.00  0.00    -0.297 OA
HETATM   18  C25 UNL     1      -6.173  45.591 -18.675  1.00  0.00     0.018 C 
HETATM   19  C26 UNL     1      -7.019  44.913 -19.778  1.00  0.00     0.023 C 
HETATM   20  C27 UNL     1      -7.127  45.967 -17.521  1.00  0.00     0.023 C 
HETATM   21  C28 UNL     1      -5.426  46.875 -19.172  1.00  0.00     0.020 C 
HETATM   22  C29 UNL     1      -6.186  47.638 -20.259  1.00  0.00     0.090 C 
HETATM   23  C30 UNL     1      -5.547  48.979 -20.503  1.00  0.00     0.157 C 
HETATM   24  O4  UNL     1      -6.245  49.965 -20.731  1.00  0.00    -0.293 OA
ENDROOT
BRANCH   1  25
HETATM   25  C7  UNL     1      -0.477  51.632 -23.227  1.00  0.00    -0.013 C 
HETATM   26  C8  UNL     1       0.770  52.333 -22.683  1.00  0.00     0.010 C 
BRANCH  25  27
HETATM   27  C6  UNL     1      -1.041  52.405 -24.452  1.00  0.00     0.012 C 
BRANCH  27  28
HETATM   28  C5  UNL     1      -0.199  53.617 -24.871  1.00  0.00     0.084 C 
BRANCH  28  29
HETATM   29  C4  UNL     1       0.199  53.573 -26.341  1.00  0.00     0.157 C 
HETATM   30  O2  UNL     1       0.084  54.550 -27.083  1.00  0.00    -0.293 OA
BRANCH  29  31
HETATM   31  C2  UNL     1       0.766  52.301 -26.909  1.00  0.00     0.002 C 
HETATM   32  C1  UNL     1       0.191  51.653 -27.936  1.00  0.00     0.025 C 
BRANCH  31  33
HETATM   33  C3  UNL     1       2.031  51.816 -26.258  1.00  0.00     0.205 C 
BRANCH  33  34
HETATM   34  O1  UNL     1       3.121  51.928 -27.161  1.00  0.00    -0.396 OA
HETATM   35  H5  UNL     1       2.925  51.301 -27.887  1.00  0.00     0.209 HD
ENDBRANCH  33  34
ENDBRANCH  31  33
ENDBRANCH  29  31
ENDBRANCH  28  29
ENDBRANCH  27  28
ENDBRANCH  25  27
ENDBRANCH   1  25
TORSDOF 7
ENDMDL
MODEL 8
REMARK minimizedAffinity -8.56496048
REMARK  7 active torsions:
REMARK  status: ('A' for Active; 'I' for Inactive)
REMARK    1  A    between atoms: C2_2  and  C3_3 
REMARK    2  A    between atoms: C2_2  and  C4_5 
REMARK    3  A    between atoms: C3_3  and  O1_4 
REMARK    4  A    between atoms: C4_5  and  C5_7 
REMARK    5  A    between atoms: C5_7  and  C6_8 
REMARK    6  A    between atoms: C6_8  and  C7_9 
REMARK    7  A    between atoms: C7_9  and  C9_11 
ROOT
HETATM    1  C9  UNL     1      -1.675  51.564 -21.948  1.00  0.00    -0.002 C 
HETATM    2  C10 UNL     1      -2.570  50.387 -22.432  1.00  0.00     0.007 C 
HETATM    3  C11 UNL     1      -2.918  49.528 -21.202  1.00  0.00     0.015 C 
HETATM    4  C12 UNL     1      -2.517  50.384 -19.988  1.00  0.00    -0.005 C 
HETATM    5  C13 UNL     1      -3.704  51.358 -19.705  1.00  0.00     0.021 C 
HETATM    6  C14 UNL     1      -2.226  49.723 -18.646  1.00  0.00    -0.000 C 
HETATM    7  C15 UNL     1      -1.358  50.276 -17.760  1.00  0.00    -0.060 C 
HETATM    8  C16 UNL     1      -0.601  51.563 -18.121  1.00  0.00     0.036 C 
HETATM    9  C17 UNL     1      -0.793  52.145 -19.538  1.00  0.00     0.015 C 
HETATM   10  C18 UNL     1      -1.206  51.067 -20.546  1.00  0.00    -0.028 C 
HETATM   11  C19 UNL     1      -0.021  50.065 -20.726  1.00  0.00     0.016 C 
HETATM   12  C20 UNL     1      -1.043  49.661 -16.367  1.00  0.00    -0.014 C 
HETATM   13  C21 UNL     1       0.336  48.974 -16.470  1.00  0.00     0.020 C 
HETATM   14  C22 UNL     1      -1.008  50.766 -15.285  1.00  0.00     0.021 C 
HETATM   15  C23 UNL     1      -0.927  50.287 -13.841  1.00  0.00     0.080 C 
HETATM   16  C24 UNL     1      -1.068  48.800 -13.625  1.00  0.00     0.135 C 
HETATM   17  O3  UNL     1      -0.516  48.286 -12.649  1.00  0.00    -0.297 OA
HETATM   18  C25 UNL     1      -1.979  47.985 -14.551  1.00  0.00     0.018 C 
HETATM   19  C26 UNL     1      -1.390  46.561 -14.669  1.00  0.00     0.023 C 
HETATM   20  C27 UNL     1      -3.339  47.869 -13.831  1.00  0.00     0.023 C 
HETATM   21  C28 UNL     1      -2.184  48.686 -15.938  1.00  0.00     0.020 C 
HETATM   22  C29 UNL     1      -2.520  47.710 -17.067  1.00  0.00     0.090 C 
HETATM   23  C30 UNL     1      -2.952  48.462 -18.298  1.00  0.00     0.157 C 
HETATM   24  O4  UNL     1      -3.858  48.025 -19.004  1.00  0.00    -0.293 OA
ENDROOT
BRANCH   1  25
HETATM   25  C7  UNL     1      -0.629  51.980 -23.030  1.00  0.00    -0.013 C 
HETATM   26  C8  UNL     1       0.482  52.860 -22.451  1.00  0.00     0.010 C 
BRANCH  25  27
HETATM   27  C6  UNL     1      -1.338  52.706 -24.206  1.00  0.00     0.012 C 
BRANCH  27  28
HETATM   28  C5  UNL     1      -1.044  52.101 -25.586  1.00  0.00     0.084 C 
BRANCH  28  29
HETATM   29  C4  UNL     1       0.063  52.842 -26.324  1.00  0.00     0.157 C 
HETATM   30  O2  UNL     1       0.187  54.067 -26.266  1.00  0.00    -0.293 OA
BRANCH  29  31
HETATM   31  C2  UNL     1       1.052  52.058 -27.143  1.00  0.00     0.002 C 
HETATM   32  C1  UNL     1       0.844  51.771 -28.439  1.00  0.00     0.025 C 
BRANCH  31  33
HETATM   33  C3  UNL     1       2.295  51.634 -26.413  1.00  0.00     0.205 C 
BRANCH  33  34
HETATM   34  O1  UNL     1       3.372  51.482 -27.327  1.00  0.00    -0.396 OA
HETATM   35  H5  UNL     1       3.122  50.734 -27.906  1.00  0.00     0.209 HD
ENDBRANCH  33  34
ENDBRANCH  31  33
ENDBRANCH  29  31
ENDBRANCH  28  29
ENDBRANCH  27  28
ENDBRANCH  25  27
ENDBRANCH   1  25
TORSDOF 7
ENDMDL
MODEL 9
REMARK minimizedAffinity -8.55039215
REMARK  7 active torsions:
REMARK  status: ('A' for Active; 'I' for Inactive)
REMARK    1  A    between atoms: C2_2  and  C3_3 
REMARK    2  A    between atoms: C2_2  and  C4_5 
REMARK    3  A    between atoms: C3_3  and  O1_4 
REMARK    4  A    between atoms: C4_5  and  C5_7 
REMARK    5  A    between atoms: C5_7  and  C6_8 
REMARK    6  A    between atoms: C6_8  and  C7_9 
REMARK    7  A    between atoms: C7_9  and  C9_11 
ROOT
HETATM    1  C9  UNL     1      -2.085  50.567 -22.403  1.00  0.00    -0.002 C 
HETATM    2  C10 UNL     1      -1.580  52.023 -22.622  1.00  0.00     0.007 C 
HETATM    3  C11 UNL     1      -0.768  52.428 -21.379  1.00  0.00     0.015 C 
HETATM    4  C12 UNL     1      -0.524  51.116 -20.614  1.00  0.00    -0.005 C 
HETATM    5  C13 UNL     1       0.721  50.433 -21.263  1.00  0.00     0.021 C 
HETATM    6  C14 UNL     1      -0.217  51.145 -19.121  1.00  0.00    -0.000 C 
HETATM    7  C15 UNL     1      -0.555  50.109 -18.310  1.00  0.00    -0.060 C 
HETATM    8  C16 UNL     1      -1.313  48.899 -18.879  1.00  0.00     0.036 C 
HETATM    9  C17 UNL     1      -1.746  48.944 -20.359  1.00  0.00     0.015 C 
HETATM   10  C18 UNL     1      -1.901  50.383 -20.865  1.00  0.00    -0.028 C 
HETATM   11  C19 UNL     1      -3.098  51.054 -20.119  1.00  0.00     0.016 C 
HETATM   12  C20 UNL     1      -0.245  50.072 -16.787  1.00  0.00    -0.014 C 
HETATM   13  C21 UNL     1      -1.561  50.384 -16.043  1.00  0.00     0.020 C 
HETATM   14  C22 UNL     1       0.281  48.676 -16.378  1.00  0.00     0.021 C 
HETATM   15  C23 UNL     1       0.831  48.555 -14.962  1.00  0.00     0.080 C 
HETATM   16  C24 UNL     1       0.963  49.844 -14.189  1.00  0.00     0.135 C 
HETATM   17  O3  UNL     1       0.880  49.811 -12.959  1.00  0.00    -0.297 OA
HETATM   18  C25 UNL     1       1.306  51.140 -14.933  1.00  0.00     0.018 C 
HETATM   19  C26 UNL     1       0.640  52.315 -14.180  1.00  0.00     0.023 C 
HETATM   20  C27 UNL     1       2.834  51.318 -14.817  1.00  0.00     0.023 C 
HETATM   21  C28 UNL     1       0.904  51.072 -16.447  1.00  0.00     0.020 C 
HETATM   22  C29 UNL     1       0.634  52.444 -17.067  1.00  0.00     0.090 C 
HETATM   23  C30 UNL     1       0.508  52.328 -18.563  1.00  0.00     0.157 C 
HETATM   24  O4  UNL     1       0.969  53.204 -19.292  1.00  0.00    -0.293 OA
ENDROOT
BRANCH   1  25
HETATM   25  C7  UNL     1      -3.480  50.332 -23.065  1.00  0.00    -0.013 C 
HETATM   26  C8  UNL     1      -3.665  48.882 -23.522  1.00  0.00     0.010 C 
BRANCH  25  27
HETATM   27  C6  UNL     1      -3.674  51.306 -24.260  1.00  0.00     0.012 C 
BRANCH  27  28
HETATM   28  C5  UNL     1      -2.980  50.859 -25.553  1.00  0.00     0.084 C 
BRANCH  28  29
HETATM   29  C4  UNL     1      -2.233  51.997 -26.238  1.00  0.00     0.157 C 
HETATM   30  O2  UNL     1      -2.788  53.051 -26.554  1.00  0.00    -0.293 OA
BRANCH  29  31
HETATM   31  C2  UNL     1      -0.766  51.841 -26.529  1.00  0.00     0.002 C 
HETATM   32  C1  UNL     1      -0.091  50.715 -26.242  1.00  0.00     0.025 C 
BRANCH  31  33
HETATM   33  C3  UNL     1      -0.112  53.028 -27.179  1.00  0.00     0.205 C 
BRANCH  33  34
HETATM   34  O1  UNL     1      -0.394  53.042 -28.571  1.00  0.00    -0.396 OA
HETATM   35  H5  UNL     1       0.046  52.248 -28.936  1.00  0.00     0.209 HD
ENDBRANCH  33  34
ENDBRANCH  31  33
ENDBRANCH  29  31
ENDBRANCH  28  29
ENDBRANCH  27  28
ENDBRANCH  25  27
ENDBRANCH   1  25
TORSDOF 7
ENDMDL
