MODEL 1
REMARK minimizedAffinity -9.52186394
REMARK CNNscore 0.355546951
REMARK CNNaffinity 6.90849304
REMARK  7 active torsions:
REMARK  status: ('A' for Active; 'I' for Inactive)
REMARK    1  A    between atoms: C6_7  and  O2_8 
REMARK    2  A    between atoms: C11_15  and  C13_17 
REMARK    3  A    between atoms: C26_34  and  C27_35 
REMARK    4  A    between atoms: C27_35  and  C28_36 
REMARK    5  A    between atoms: C32_40  and  C33_41 
REMARK    6  A    between atoms: C33_41  and  N2_42 
REMARK    7  A    between atoms: C33_41  and  N3_43 
ROOT
HETATM    1  C1  UNL     1       3.941  60.340  -2.542  1.00  0.00     0.077 C 
HETATM    2  C2  UNL     1       3.121  59.406  -3.377  1.00  0.00     0.053 A 
HETATM    3  C3  UNL     1       1.882  59.030  -3.014  1.00  0.00     0.088 A 
HETATM    4  C4  UNL     1       1.121  58.124  -3.884  1.00  0.00     0.190 A 
HETATM    5  O1  UNL     1      -0.003  57.739  -3.580  1.00  0.00    -0.287 OA
HETATM    6  C5  UNL     1       1.762  57.712  -5.141  1.00  0.00     0.082 A 
HETATM    7  C6  UNL     1       1.103  56.885  -6.069  1.00  0.00     0.092 A 
HETATM    8  C7  UNL     1       1.702  56.574  -7.298  1.00  0.00     0.016 A 
HETATM    9  C8  UNL     1       3.036  56.986  -7.502  1.00  0.00     0.082 A 
HETATM   10  C9  UNL     1       3.695  57.802  -6.578  1.00  0.00     0.075 A 
HETATM   11  C10 UNL     1       3.050  58.175  -5.404  1.00  0.00     0.095 A 
HETATM   12  O3  UNL     1       3.743  58.995  -4.545  1.00  0.00    -0.314 OA
HETATM   13  O4  UNL     1       3.792  56.622  -8.587  1.00  0.00    -0.337 OA
HETATM   14  C11 UNL     1       3.404  55.450  -9.350  1.00  0.00     0.095 C 
HETATM   15  C12 UNL     1       3.175  55.948 -10.799  1.00  0.00     0.050 C 
HETATM   16  C18 UNL     1       2.106  54.753  -8.812  1.00  0.00     0.175 C 
HETATM   17  O5  UNL     1       1.608  53.813  -9.768  1.00  0.00    -0.310 OA
HETATM   18  C19 UNL     1       0.990  52.717  -9.249  1.00  0.00     0.297 C 
HETATM   19  O6  UNL     1       1.165  52.258  -8.134  1.00  0.00    -0.262 OA
HETATM   20  C20 UNL     1      -0.033  52.208 -10.197  1.00  0.00     0.175 A 
HETATM   21  C21 UNL     1      -1.262  53.056 -10.467  1.00  0.00     0.051 C 
HETATM   22  C22 UNL     1      -0.960  54.506 -10.861  1.00  0.00     0.004 C 
HETATM   23  C23 UNL     1      -1.202  55.520  -9.741  1.00  0.00     0.001 C 
HETATM   24  C24 UNL     1      -0.420  55.417  -8.413  1.00  0.00     0.012 C 
HETATM   25  C25 UNL     1       1.065  55.851  -8.480  1.00  0.00     0.057 C 
HETATM   26  O7  UNL     1      -0.430  50.838  -9.974  1.00  0.00    -0.358 OA
HETATM   27  C26 UNL     1       0.329  51.083 -11.161  1.00  0.00     0.172 A 
ENDROOT
BRANCH  27  28
HETATM   28  C27 UNL     1       1.648  50.360 -11.165  1.00  0.00     0.074 C 
BRANCH  28  29
HETATM   29  C28 UNL     1       2.367  50.582 -12.482  1.00  0.00    -0.055 A 
HETATM   30  C29 UNL     1       3.642  50.044 -12.695  1.00  0.00     0.007 A 
HETATM   31  C30 UNL     1       4.300  50.276 -13.904  1.00  0.00     0.001 A 
HETATM   32  C31 UNL     1       3.703  51.045 -14.909  1.00  0.00     0.011 A 
HETATM   33  C32 UNL     1       2.417  51.582 -14.738  1.00  0.00     0.004 A 
HETATM   34  C34 UNL     1       1.758  51.318 -13.519  1.00  0.00     0.018 A 
BRANCH  33  35
HETATM   35  C33 UNL     1       1.710  52.434 -15.778  1.00  0.00     0.479 C 
BRANCH  35  36
HETATM   36  N2  UNL     1       2.646  53.241 -16.514  1.00  0.00     0.116 N 
HETATM   37  H37 UNL     1       2.948  54.006 -15.911  1.00  0.00     0.316 HD
HETATM   38  H38 UNL     1       2.114  53.669 -17.272  1.00  0.00     0.316 HD
ENDBRANCH  35  36
BRANCH  35  39
HETATM   39  N3  UNL     1       1.062  51.738 -16.856  1.00  0.00     0.116 N 
HETATM   40  H39 UNL     1       1.794  51.253 -17.373  1.00  0.00     0.316 HD
HETATM   41  H40 UNL     1       0.443  51.028 -16.476  1.00  0.00     0.316 HD
ENDBRANCH  35  39
ENDBRANCH  33  35
ENDBRANCH  28  29
ENDBRANCH  27  28
BRANCH  14  42
HETATM   42  C13 UNL     1       4.634  54.467  -9.355  1.00  0.00     0.026 C 
HETATM   43  C14 UNL     1       6.007  55.188  -9.460  1.00  0.00     0.037 C 
HETATM   44  C15 UNL     1       6.772  55.212  -8.141  1.00  0.00     0.270 C 
HETATM   45  N1  UNL     1       7.074  53.867  -7.664  1.00  0.00     0.083 N 
HETATM   46  C16 UNL     1       6.034  52.887  -7.955  1.00  0.00     0.270 C 
HETATM   47  H15 UNL     1       7.254  53.910  -6.660  1.00  0.00     0.315 HD
HETATM   48  C17 UNL     1       4.654  53.503  -8.150  1.00  0.00     0.037 C 
ENDBRANCH  14  42
BRANCH   7  49
HETATM   49  O2  UNL     1      -0.099  56.326  -5.756  1.00  0.00    -0.359 OA
HETATM   50  H5  UNL     1      -0.398  56.640  -4.872  1.00  0.00     0.217 HD
ENDBRANCH   7  49
TORSDOF 7
ENDMDL
MODEL 2
REMARK minimizedAffinity -8.0480051
REMARK CNNscore 0.340407968
REMARK CNNaffinity 6.58458519
REMARK  7 active torsions:
REMARK  status: ('A' for Active; 'I' for Inactive)
REMARK    1  A    between atoms: C6_7  and  O2_8 
REMARK    2  A    between atoms: C11_15  and  C13_17 
REMARK    3  A    between atoms: C26_34  and  C27_35 
REMARK    4  A    between atoms: C27_35  and  C28_36 
REMARK    5  A    between atoms: C32_40  and  C33_41 
REMARK    6  A    between atoms: C33_41  and  N2_42 
REMARK    7  A    between atoms: C33_41  and  N3_43 
ROOT
HETATM    1  C1  UNL     1       3.207  60.176  -2.495  1.00  0.00     0.077 C 
HETATM    2  C2  UNL     1       2.488  59.202  -3.375  1.00  0.00     0.053 A 
HETATM    3  C3  UNL     1       1.269  58.728  -3.063  1.00  0.00     0.088 A 
HETATM    4  C4  UNL     1       0.608  57.788  -3.977  1.00  0.00     0.190 A 
HETATM    5  O1  UNL     1      -0.495  57.315  -3.721  1.00  0.00    -0.287 OA
HETATM    6  C5  UNL     1       1.320  57.451  -5.218  1.00  0.00     0.082 A 
HETATM    7  C6  UNL     1       0.756  56.597  -6.184  1.00  0.00     0.092 A 
HETATM    8  C7  UNL     1       1.419  56.357  -7.396  1.00  0.00     0.016 A 
HETATM    9  C8  UNL     1       2.725  56.870  -7.545  1.00  0.00     0.082 A 
HETATM   10  C9  UNL     1       3.289  57.712  -6.583  1.00  0.00     0.075 A 
HETATM   11  C10 UNL     1       2.579  58.012  -5.426  1.00  0.00     0.095 A 
HETATM   12  O3  UNL     1       3.178  58.862  -4.528  1.00  0.00    -0.314 OA
HETATM   13  O4  UNL     1       3.542  56.585  -8.609  1.00  0.00    -0.337 OA
HETATM   14  C11 UNL     1       3.268  55.405  -9.406  1.00  0.00     0.095 C 
HETATM   15  C12 UNL     1       3.053  55.915 -10.854  1.00  0.00     0.050 C 
HETATM   16  C18 UNL     1       2.008  54.603  -8.929  1.00  0.00     0.175 C 
HETATM   17  O5  UNL     1       1.614  53.649  -9.919  1.00  0.00    -0.310 OA
HETATM   18  C19 UNL     1       1.062  52.500  -9.443  1.00  0.00     0.297 C 
HETATM   19  O6  UNL     1       1.231  52.032  -8.331  1.00  0.00    -0.262 OA
HETATM   20  C20 UNL     1       0.112  51.938 -10.436  1.00  0.00     0.175 A 
HETATM   21  C21 UNL     1      -1.166  52.698 -10.734  1.00  0.00     0.051 C 
HETATM   22  C22 UNL     1      -0.959  54.175 -11.091  1.00  0.00     0.004 C 
HETATM   23  C23 UNL     1      -1.314  55.144  -9.961  1.00  0.00     0.001 C 
HETATM   24  C24 UNL     1      -0.572  55.071  -8.608  1.00  0.00     0.012 C 
HETATM   25  C25 UNL     1       0.877  55.614  -8.614  1.00  0.00     0.057 C 
HETATM   26  O7  UNL     1      -0.189  50.537 -10.252  1.00  0.00    -0.358 OA
HETATM   27  C26 UNL     1       0.589  50.863 -11.407  1.00  0.00     0.172 A 
ENDROOT
BRANCH  27  28
HETATM   28  C27 UNL     1       1.958  50.239 -11.378  1.00  0.00     0.074 C 
BRANCH  28  29
HETATM   29  C28 UNL     1       2.022  49.063 -12.333  1.00  0.00    -0.055 A 
HETATM   30  C29 UNL     1       1.647  49.215 -13.673  1.00  0.00     0.007 A 
HETATM   31  C30 UNL     1       1.691  48.117 -14.535  1.00  0.00     0.001 A 
HETATM   32  C31 UNL     1       2.103  46.862 -14.076  1.00  0.00     0.011 A 
HETATM   33  C32 UNL     1       2.506  46.678 -12.744  1.00  0.00     0.004 A 
HETATM   34  C34 UNL     1       2.477  47.803 -11.893  1.00  0.00     0.018 A 
BRANCH  33  35
HETATM   35  C33 UNL     1       2.955  45.345 -12.171  1.00  0.00     0.479 C 
BRANCH  35  36
HETATM   36  N2  UNL     1       1.831  44.485 -11.911  1.00  0.00     0.116 N 
HETATM   37  H37 UNL     1       1.357  44.827 -11.074  1.00  0.00     0.316 HD
HETATM   38  H38 UNL     1       2.223  43.576 -11.664  1.00  0.00     0.316 HD
ENDBRANCH  35  36
BRANCH  35  39
HETATM   39  N3  UNL     1       3.736  44.498 -13.031  1.00  0.00     0.116 N 
HETATM   40  H39 UNL     1       3.141  44.253 -13.820  1.00  0.00     0.316 HD
HETATM   41  H40 UNL     1       4.522  45.025 -13.400  1.00  0.00     0.316 HD
ENDBRANCH  35  39
ENDBRANCH  33  35
ENDBRANCH  28  29
ENDBRANCH  27  28
BRANCH  14  42
HETATM   42  C13 UNL     1       4.568  54.515  -9.386  1.00  0.00     0.026 C 
HETATM   43  C14 UNL     1       5.886  55.335  -9.463  1.00  0.00     0.037 C 
HETATM   44  C15 UNL     1       6.619  55.414  -8.129  1.00  0.00     0.270 C 
HETATM   45  N1  UNL     1       7.010  54.095  -7.645  1.00  0.00     0.083 N 
HETATM   46  C16 UNL     1       6.051  53.041  -7.956  1.00  0.00     0.270 C 
HETATM   47  H15 UNL     1       7.165  54.150  -6.638  1.00  0.00     0.315 HD
HETATM   48  C17 UNL     1       4.634  53.554  -8.179  1.00  0.00     0.037 C 
ENDBRANCH  14  42
BRANCH   7  49
HETATM   49  O2  UNL     1      -0.411  55.945  -5.925  1.00  0.00    -0.359 OA
HETATM   50  H5  UNL     1      -0.763  56.217  -5.046  1.00  0.00     0.217 HD
ENDBRANCH   7  49
TORSDOF 7
ENDMDL
MODEL 3
REMARK minimizedAffinity -7.96347809
REMARK CNNscore 0.244735062
REMARK CNNaffinity 6.11886072
REMARK  7 active torsions:
REMARK  status: ('A' for Active; 'I' for Inactive)
REMARK    1  A    between atoms: C6_7  and  O2_8 
REMARK    2  A    between atoms: C11_15  and  C13_17 
REMARK    3  A    between atoms: C26_34  and  C27_35 
REMARK    4  A    between atoms: C27_35  and  C28_36 
REMARK    5  A    between atoms: C32_40  and  C33_41 
REMARK    6  A    between atoms: C33_41  and  N2_42 
REMARK    7  A    between atoms: C33_41  and  N3_43 
ROOT
HETATM    1  C1  UNL     1      -0.967  49.972 -26.295  1.00  0.00     0.077 C 
HETATM    2  C2  UNL     1      -2.343  49.421 -26.086  1.00  0.00     0.053 A 
HETATM    3  C3  UNL     1      -2.883  49.306 -24.860  1.00  0.00     0.088 A 
HETATM    4  C4  UNL     1      -4.245  48.774 -24.721  1.00  0.00     0.190 A 
HETATM    5  O1  UNL     1      -4.768  48.632 -23.620  1.00  0.00    -0.287 OA
HETATM    6  C5  UNL     1      -4.957  48.432 -25.960  1.00  0.00     0.082 A 
HETATM    7  C6  UNL     1      -6.283  47.959 -25.944  1.00  0.00     0.092 A 
HETATM    8  C7  UNL     1      -6.969  47.718 -27.142  1.00  0.00     0.016 A 
HETATM    9  C8  UNL     1      -6.241  47.817 -28.348  1.00  0.00     0.082 A 
HETATM   10  C9  UNL     1      -4.922  48.280 -28.365  1.00  0.00     0.075 A 
HETATM   11  C10 UNL     1      -4.287  48.600 -27.171  1.00  0.00     0.095 A 
HETATM   12  O3  UNL     1      -2.998  49.069 -27.255  1.00  0.00    -0.314 OA
HETATM   13  O4  UNL     1      -6.742  47.464 -29.575  1.00  0.00    -0.337 OA
HETATM   14  C11 UNL     1      -7.881  46.568 -29.635  1.00  0.00     0.095 C 
HETATM   15  C12 UNL     1      -8.985  47.341 -30.401  1.00  0.00     0.050 C 
HETATM   16  C18 UNL     1      -8.412  46.133 -28.225  1.00  0.00     0.175 C 
HETATM   17  O5  UNL     1      -9.698  45.517 -28.341  1.00  0.00    -0.310 OA
HETATM   18  C19 UNL     1      -9.965  44.536 -27.435  1.00  0.00     0.297 C 
HETATM   19  O6  UNL     1      -9.138  43.870 -26.838  1.00  0.00    -0.262 OA
HETATM   20  C20 UNL     1     -11.425  44.460 -27.177  1.00  0.00     0.175 A 
HETATM   21  C21 UNL     1     -12.100  45.617 -26.465  1.00  0.00     0.051 C 
HETATM   22  C22 UNL     1     -11.819  46.993 -27.080  1.00  0.00     0.004 C 
HETATM   23  C23 UNL     1     -10.812  47.834 -26.292  1.00  0.00     0.001 C 
HETATM   24  C24 UNL     1      -9.373  47.322 -26.070  1.00  0.00     0.012 C 
HETATM   25  C25 UNL     1      -8.447  47.382 -27.310  1.00  0.00     0.057 C 
HETATM   26  O7  UNL     1     -11.869  43.212 -26.601  1.00  0.00    -0.358 OA
HETATM   27  C26 UNL     1     -12.275  43.457 -27.951  1.00  0.00     0.172 A 
ENDROOT
BRANCH  27  28
HETATM   28  C27 UNL     1     -11.722  42.443 -28.915  1.00  0.00     0.074 C 
BRANCH  28  29
HETATM   29  C28 UNL     1     -12.116  41.041 -28.489  1.00  0.00    -0.055 A 
HETATM   30  C29 UNL     1     -13.457  40.640 -28.521  1.00  0.00     0.007 A 
HETATM   31  C30 UNL     1     -13.806  39.354 -28.105  1.00  0.00     0.001 A 
HETATM   32  C31 UNL     1     -12.832  38.458 -27.651  1.00  0.00     0.011 A 
HETATM   33  C32 UNL     1     -11.476  38.820 -27.626  1.00  0.00     0.004 A 
HETATM   34  C34 UNL     1     -11.138  40.116 -28.072  1.00  0.00     0.018 A 
BRANCH  33  35
HETATM   35  C33 UNL     1     -10.364  37.907 -27.137  1.00  0.00     0.479 C 
BRANCH  35  36
HETATM   36  N2  UNL     1     -10.801  37.102 -26.028  1.00  0.00     0.116 N 
HETATM   37  H37 UNL     1     -10.845  37.699 -25.201  1.00  0.00     0.316 HD
HETATM   38  H38 UNL     1     -10.053  36.431 -25.855  1.00  0.00     0.316 HD
ENDBRANCH  35  36
BRANCH  35  39
HETATM   39  N3  UNL     1      -9.920  36.882 -28.043  1.00  0.00     0.116 N 
HETATM   40  H39 UNL     1     -10.714  36.263 -28.196  1.00  0.00     0.316 HD
HETATM   41  H40 UNL     1      -9.688  37.301 -28.939  1.00  0.00     0.316 HD
ENDBRANCH  35  39
ENDBRANCH  33  35
ENDBRANCH  28  29
ENDBRANCH  27  28
BRANCH  14  42
HETATM   42  C13 UNL     1      -7.454  45.327 -30.506  1.00  0.00     0.026 C 
HETATM   43  C14 UNL     1      -8.491  44.947 -31.599  1.00  0.00     0.037 C 
HETATM   44  C15 UNL     1      -8.054  45.350 -33.003  1.00  0.00     0.270 C 
HETATM   45  N1  UNL     1      -6.814  44.689 -33.396  1.00  0.00     0.083 N 
HETATM   46  C16 UNL     1      -5.871  44.497 -32.300  1.00  0.00     0.270 C 
HETATM   47  H15 UNL     1      -6.383  45.225 -34.149  1.00  0.00     0.315 HD
HETATM   48  C17 UNL     1      -6.062  45.482 -31.154  1.00  0.00     0.037 C 
ENDBRANCH  14  42
BRANCH   7  49
HETATM   49  O2  UNL     1      -6.892  47.670 -24.761  1.00  0.00    -0.359 OA
HETATM   50  H5  UNL     1      -6.297  47.896 -24.009  1.00  0.00     0.217 HD
ENDBRANCH   7  49
TORSDOF 7
ENDMDL
MODEL 4
REMARK minimizedAffinity -7.85378695
REMARK CNNscore 0.238981307
REMARK CNNaffinity 6.20049334
REMARK  7 active torsions:
REMARK  status: ('A' for Active; 'I' for Inactive)
REMARK    1  A    between atoms: C6_7  and  O2_8 
REMARK    2  A    between atoms: C11_15  and  C13_17 
REMARK    3  A    between atoms: C26_34  and  C27_35 
REMARK    4  A    between atoms: C27_35  and  C28_36 
REMARK    5  A    between atoms: C32_40  and  C33_41 
REMARK    6  A    between atoms: C33_41  and  N2_42 
REMARK    7  A    between atoms: C33_41  and  N3_43 
ROOT
HETATM    1  C1  UNL     1      -5.181  49.480 -10.688  1.00  0.00     0.077 C 
HETATM    2  C2  UNL     1      -4.329  50.678 -10.402  1.00  0.00     0.053 A 
HETATM    3  C3  UNL     1      -4.526  51.854 -11.023  1.00  0.00     0.088 A 
HETATM    4  C4  UNL     1      -3.669  52.998 -10.687  1.00  0.00     0.190 A 
HETATM    5  O1  UNL     1      -3.800  54.082 -11.244  1.00  0.00    -0.287 OA
HETATM    6  C5  UNL     1      -2.657  52.788  -9.642  1.00  0.00     0.082 A 
HETATM    7  C6  UNL     1      -1.815  53.830  -9.210  1.00  0.00     0.092 A 
HETATM    8  C7  UNL     1      -0.914  53.627  -8.154  1.00  0.00     0.016 A 
HETATM    9  C8  UNL     1      -0.774  52.315  -7.652  1.00  0.00     0.082 A 
HETATM   10  C9  UNL     1      -1.605  51.278  -8.085  1.00  0.00     0.075 A 
HETATM   11  C10 UNL     1      -2.555  51.520  -9.071  1.00  0.00     0.095 A 
HETATM   12  O3  UNL     1      -3.356  50.466  -9.440  1.00  0.00    -0.314 OA
HETATM   13  O4  UNL     1       0.173  51.946  -6.731  1.00  0.00    -0.337 OA
HETATM   14  C11 UNL     1       1.345  52.781  -6.558  1.00  0.00     0.095 C 
HETATM   15  C12 UNL     1       1.347  53.203  -5.067  1.00  0.00     0.050 C 
HETATM   16  C18 UNL     1       1.350  54.054  -7.474  1.00  0.00     0.175 C 
HETATM   17  O5  UNL     1       2.353  54.979  -7.045  1.00  0.00    -0.310 OA
HETATM   18  C19 UNL     1       2.933  55.718  -8.030  1.00  0.00     0.297 C 
HETATM   19  O6  UNL     1       2.998  55.414  -9.208  1.00  0.00    -0.262 OA
HETATM   20  C20 UNL     1       3.385  57.025  -7.491  1.00  0.00     0.175 A 
HETATM   21  C21 UNL     1       2.340  58.028  -7.040  1.00  0.00     0.051 C 
HETATM   22  C22 UNL     1       1.303  57.468  -6.060  1.00  0.00     0.004 C 
HETATM   23  C23 UNL     1      -0.062  57.183  -6.692  1.00  0.00     0.001 C 
HETATM   24  C24 UNL     1      -0.188  56.169  -7.850  1.00  0.00     0.012 C 
HETATM   25  C25 UNL     1      -0.067  54.680  -7.447  1.00  0.00     0.057 C 
HETATM   26  O7  UNL     1       4.382  57.694  -8.295  1.00  0.00    -0.358 OA
HETATM   27  C26 UNL     1       4.830  57.191  -7.033  1.00  0.00     0.172 A 
ENDROOT
BRANCH  27  28
HETATM   28  C27 UNL     1       5.892  56.134  -7.174  1.00  0.00     0.074 C 
BRANCH  28  29
HETATM   29  C28 UNL     1       7.095  56.477  -6.316  1.00  0.00    -0.055 A 
HETATM   30  C29 UNL     1       8.181  55.597  -6.233  1.00  0.00     0.007 A 
HETATM   31  C30 UNL     1       9.271  55.916  -5.421  1.00  0.00     0.001 A 
HETATM   32  C31 UNL     1       9.293  57.105  -4.685  1.00  0.00     0.011 A 
HETATM   33  C32 UNL     1       8.231  58.020  -4.761  1.00  0.00     0.004 A 
HETATM   34  C34 UNL     1       7.147  57.692  -5.604  1.00  0.00     0.018 A 
BRANCH  33  35
HETATM   35  C33 UNL     1       8.178  59.324  -3.984  1.00  0.00     0.479 C 
BRANCH  35  36
HETATM   36  N2  UNL     1       9.187  60.242  -4.440  1.00  0.00     0.116 N 
HETATM   37  H37 UNL     1      10.090  59.923  -4.086  1.00  0.00     0.316 HD
HETATM   38  H38 UNL     1       8.995  61.127  -3.970  1.00  0.00     0.316 HD
ENDBRANCH  35  36
BRANCH  35  39
HETATM   39  N3  UNL     1       6.999  60.130  -4.147  1.00  0.00     0.116 N 
HETATM   40  H39 UNL     1       6.970  60.411  -5.126  1.00  0.00     0.316 HD
HETATM   41  H40 UNL     1       6.175  59.562  -3.973  1.00  0.00     0.316 HD
ENDBRANCH  35  39
ENDBRANCH  33  35
ENDBRANCH  28  29
ENDBRANCH  27  28
BRANCH  14  42
HETATM   42  C13 UNL     1       2.607  51.874  -6.815  1.00  0.00     0.026 C 
HETATM   43  C14 UNL     1       2.773  51.441  -8.298  1.00  0.00     0.037 C 
HETATM   44  C15 UNL     1       3.886  52.192  -9.019  1.00  0.00     0.270 C 
HETATM   45  N1  UNL     1       5.186  51.960  -8.399  1.00  0.00     0.083 N 
HETATM   46  C16 UNL     1       5.137  51.827  -6.948  1.00  0.00     0.270 C 
HETATM   47  H15 UNL     1       5.815  52.718  -8.667  1.00  0.00     0.315 HD
HETATM   48  C17 UNL     1       3.926  52.503  -6.316  1.00  0.00     0.037 C 
ENDBRANCH  14  42
BRANCH   7  49
HETATM   49  O2  UNL     1      -1.822  55.028  -9.855  1.00  0.00    -0.359 OA
HETATM   50  H5  UNL     1      -2.506  55.028 -10.563  1.00  0.00     0.217 HD
ENDBRANCH   7  49
TORSDOF 7
ENDMDL
MODEL 5
REMARK minimizedAffinity -8.21244907
REMARK CNNscore 0.229017437
REMARK CNNaffinity 6.34066248
REMARK  7 active torsions:
REMARK  status: ('A' for Active; 'I' for Inactive)
REMARK    1  A    between atoms: C6_7  and  O2_8 
REMARK    2  A    between atoms: C11_15  and  C13_17 
REMARK    3  A    between atoms: C26_34  and  C27_35 
REMARK    4  A    between atoms: C27_35  and  C28_36 
REMARK    5  A    between atoms: C32_40  and  C33_41 
REMARK    6  A    between atoms: C33_41  and  N2_42 
REMARK    7  A    between atoms: C33_41  and  N3_43 
ROOT
HETATM    1  C1  UNL     1      -3.246  45.602 -18.349  1.00  0.00     0.077 C 
HETATM    2  C2  UNL     1      -3.142  46.868 -17.557  1.00  0.00     0.053 A 
HETATM    3  C3  UNL     1      -3.395  48.070 -18.103  1.00  0.00     0.088 A 
HETATM    4  C4  UNL     1      -3.292  49.275 -17.269  1.00  0.00     0.190 A 
HETATM    5  O1  UNL     1      -3.492  50.393 -17.732  1.00  0.00    -0.287 OA
HETATM    6  C5  UNL     1      -2.952  49.079 -15.852  1.00  0.00     0.082 A 
HETATM    7  C6  UNL     1      -2.874  50.160 -14.955  1.00  0.00     0.092 A 
HETATM    8  C7  UNL     1      -2.630  49.939 -13.592  1.00  0.00     0.016 A 
HETATM    9  C8  UNL     1      -2.315  48.625 -13.185  1.00  0.00     0.082 A 
HETATM   10  C9  UNL     1      -2.384  47.551 -14.077  1.00  0.00     0.075 A 
HETATM   11  C10 UNL     1      -2.717  47.779 -15.408  1.00  0.00     0.095 A 
HETATM   12  O3  UNL     1      -2.790  46.680 -16.230  1.00  0.00    -0.314 OA
HETATM   13  O4  UNL     1      -1.908  48.293 -11.918  1.00  0.00    -0.337 OA
HETATM   14  C11 UNL     1      -1.366  49.332 -11.062  1.00  0.00     0.095 C 
HETATM   15  C12 UNL     1      -2.270  49.355  -9.804  1.00  0.00     0.050 C 
HETATM   16  C18 UNL     1      -1.344  50.750 -11.732  1.00  0.00     0.175 C 
HETATM   17  O5  UNL     1      -1.097  51.764 -10.754  1.00  0.00    -0.310 OA
HETATM   18  C19 UNL     1      -0.400  52.847 -11.193  1.00  0.00     0.297 C 
HETATM   19  O6  UNL     1       0.356  52.873 -12.148  1.00  0.00    -0.262 OA
HETATM   20  C20 UNL     1      -0.777  54.051 -10.409  1.00  0.00     0.175 A 
HETATM   21  C21 UNL     1      -2.180  54.607 -10.558  1.00  0.00     0.051 C 
HETATM   22  C22 UNL     1      -3.297  53.575 -10.368  1.00  0.00     0.004 C 
HETATM   23  C23 UNL     1      -3.950  53.116 -11.675  1.00  0.00     0.001 C 
HETATM   24  C24 UNL     1      -3.106  52.425 -12.767  1.00  0.00     0.012 C 
HETATM   25  C25 UNL     1      -2.692  50.964 -12.464  1.00  0.00     0.057 C 
HETATM   26  O7  UNL     1       0.181  55.130 -10.469  1.00  0.00    -0.358 OA
HETATM   27  C26 UNL     1       0.070  54.462  -9.209  1.00  0.00     0.172 A 
ENDROOT
BRANCH  27  28
HETATM   28  C27 UNL     1       1.347  53.782  -8.799  1.00  0.00     0.074 C 
BRANCH  28  29
HETATM   29  C28 UNL     1       2.449  54.805  -8.598  1.00  0.00    -0.055 A 
HETATM   30  C29 UNL     1       2.165  56.051  -8.025  1.00  0.00     0.007 A 
HETATM   31  C30 UNL     1       3.186  56.991  -7.867  1.00  0.00     0.001 A 
HETATM   32  C31 UNL     1       4.492  56.706  -8.279  1.00  0.00     0.011 A 
HETATM   33  C32 UNL     1       4.816  55.460  -8.838  1.00  0.00     0.004 A 
HETATM   34  C34 UNL     1       3.777  54.513  -8.968  1.00  0.00     0.018 A 
BRANCH  33  35
HETATM   35  C33 UNL     1       6.208  55.082  -9.317  1.00  0.00     0.479 C 
BRANCH  35  36
HETATM   36  N2  UNL     1       7.210  55.471  -8.362  1.00  0.00     0.116 N 
HETATM   37  H37 UNL     1       7.329  56.483  -8.420  1.00  0.00     0.316 HD
HETATM   38  H38 UNL     1       8.085  55.063  -8.691  1.00  0.00     0.316 HD
ENDBRANCH  35  36
BRANCH  35  39
HETATM   39  N3  UNL     1       6.494  53.679  -9.439  1.00  0.00     0.116 N 
HETATM   40  H39 UNL     1       6.428  53.284  -8.502  1.00  0.00     0.316 HD
HETATM   41  H40 UNL     1       5.775  53.235 -10.002  1.00  0.00     0.316 HD
ENDBRANCH  35  39
ENDBRANCH  33  35
ENDBRANCH  28  29
ENDBRANCH  27  28
BRANCH  14  42
HETATM   42  C13 UNL     1       0.075  48.872 -10.625  1.00  0.00     0.026 C 
HETATM   43  C14 UNL     1       0.188  47.344 -10.359  1.00  0.00     0.037 C 
HETATM   44  C15 UNL     1       0.917  46.597 -11.469  1.00  0.00     0.270 C 
HETATM   45  N1  UNL     1       2.289  47.066 -11.629  1.00  0.00     0.083 N 
HETATM   46  C16 UNL     1       2.458  48.496 -11.398  1.00  0.00     0.270 C 
HETATM   47  H15 UNL     1       2.614  46.814 -12.563  1.00  0.00     0.315 HD
HETATM   48  C17 UNL     1       1.182  49.302 -11.611  1.00  0.00     0.037 C 
ENDBRANCH  14  42
BRANCH   7  49
HETATM   49  O2  UNL     1      -2.973  51.438 -15.413  1.00  0.00    -0.359 OA
HETATM   50  H5  UNL     1      -3.152  51.438 -16.381  1.00  0.00     0.217 HD
ENDBRANCH   7  49
TORSDOF 7
ENDMDL
MODEL 6
REMARK minimizedAffinity -7.8341217
REMARK CNNscore 0.159919754
REMARK CNNaffinity 5.63592339
REMARK  7 active torsions:
REMARK  status: ('A' for Active; 'I' for Inactive)
REMARK    1  A    between atoms: C6_7  and  O2_8 
REMARK    2  A    between atoms: C11_15  and  C13_17 
REMARK    3  A    between atoms: C26_34  and  C27_35 
REMARK    4  A    between atoms: C27_35  and  C28_36 
REMARK    5  A    between atoms: C32_40  and  C33_41 
REMARK    6  A    between atoms: C33_41  and  N2_42 
REMARK    7  A    between atoms: C33_41  and  N3_43 
ROOT
HETATM    1  C1  UNL     1      -8.512  48.841 -29.748  1.00  0.00     0.077 C 
HETATM    2  C2  UNL     1      -7.626  47.866 -30.459  1.00  0.00     0.053 A 
HETATM    3  C3  UNL     1      -6.428  48.224 -30.953  1.00  0.00     0.088 A 
HETATM    4  C4  UNL     1      -5.597  47.218 -31.626  1.00  0.00     0.190 A 
HETATM    5  O1  UNL     1      -4.507  47.505 -32.109  1.00  0.00    -0.287 OA
HETATM    6  C5  UNL     1      -6.124  45.846 -31.681  1.00  0.00     0.082 A 
HETATM    7  C6  UNL     1      -5.389  44.795 -32.260  1.00  0.00     0.092 A 
HETATM    8  C7  UNL     1      -5.877  43.481 -32.226  1.00  0.00     0.016 A 
HETATM    9  C8  UNL     1      -7.184  43.278 -31.736  1.00  0.00     0.082 A 
HETATM   10  C9  UNL     1      -7.919  44.322 -31.167  1.00  0.00     0.075 A 
HETATM   11  C10 UNL     1      -7.380  45.603 -31.128  1.00  0.00     0.095 A 
HETATM   12  O3  UNL     1      -8.142  46.583 -30.537  1.00  0.00    -0.314 OA
HETATM   13  O4  UNL     1      -7.841  42.075 -31.786  1.00  0.00    -0.337 OA
HETATM   14  C11 UNL     1      -7.393  41.070 -32.732  1.00  0.00     0.095 C 
HETATM   15  C12 UNL     1      -7.032  39.824 -31.884  1.00  0.00     0.050 C 
HETATM   16  C18 UNL     1      -6.153  41.518 -33.582  1.00  0.00     0.175 C 
HETATM   17  O5  UNL     1      -5.577  40.397 -34.258  1.00  0.00    -0.310 OA
HETATM   18  C19 UNL     1      -5.016  40.665 -35.469  1.00  0.00     0.297 C 
HETATM   19  O6  UNL     1      -5.293  41.603 -36.194  1.00  0.00    -0.262 OA
HETATM   20  C20 UNL     1      -3.914  39.708 -35.746  1.00  0.00     0.175 A 
HETATM   21  C21 UNL     1      -2.661  39.773 -34.894  1.00  0.00     0.051 C 
HETATM   22  C22 UNL     1      -2.917  39.744 -33.383  1.00  0.00     0.004 C 
HETATM   23  C23 UNL     1      -2.770  41.107 -32.699  1.00  0.00     0.001 C 
HETATM   24  C24 UNL     1      -3.670  42.290 -33.118  1.00  0.00     0.012 C 
HETATM   25  C25 UNL     1      -5.140  42.211 -32.638  1.00  0.00     0.057 C 
HETATM   26  O7  UNL     1      -3.548  39.602 -37.138  1.00  0.00    -0.358 OA
HETATM   27  C26 UNL     1      -4.194  38.458 -36.573  1.00  0.00     0.172 A 
ENDROOT
BRANCH  27  28
HETATM   28  C27 UNL     1      -5.513  38.154 -37.231  1.00  0.00     0.074 C 
BRANCH  28  29
HETATM   29  C28 UNL     1      -5.293  37.659 -38.648  1.00  0.00    -0.055 A 
HETATM   30  C29 UNL     1      -4.261  36.757 -38.934  1.00  0.00     0.007 A 
HETATM   31  C30 UNL     1      -4.057  36.328 -40.246  1.00  0.00     0.001 A 
HETATM   32  C31 UNL     1      -4.872  36.790 -41.285  1.00  0.00     0.011 A 
HETATM   33  C32 UNL     1      -5.930  37.677 -41.032  1.00  0.00     0.004 A 
HETATM   34  C34 UNL     1      -6.135  38.083 -39.696  1.00  0.00     0.018 A 
BRANCH  33  35
HETATM   35  C33 UNL     1      -6.849  38.230 -42.108  1.00  0.00     0.479 C 
BRANCH  35  36
HETATM   36  N2  UNL     1      -8.080  38.713 -41.544  1.00  0.00     0.116 N 
HETATM   37  H37 UNL     1      -8.653  37.906 -41.294  1.00  0.00     0.316 HD
HETATM   38  H38 UNL     1      -8.571  39.186 -42.302  1.00  0.00     0.316 HD
ENDBRANCH  35  36
BRANCH  35  39
HETATM   39  N3  UNL     1      -6.401  39.407 -42.802  1.00  0.00     0.116 N 
HETATM   40  H39 UNL     1      -6.340  40.150 -42.109  1.00  0.00     0.316 HD
HETATM   41  H40 UNL     1      -5.463  39.252 -43.160  1.00  0.00     0.316 HD
ENDBRANCH  35  39
ENDBRANCH  33  35
ENDBRANCH  28  29
ENDBRANCH  27  28
BRANCH  14  42
HETATM   42  C13 UNL     1      -8.624  40.705 -33.643  1.00  0.00     0.026 C 
HETATM   43  C14 UNL     1      -9.978  40.676 -32.880  1.00  0.00     0.037 C 
HETATM   44  C15 UNL     1     -10.857  41.885 -33.176  1.00  0.00     0.270 C 
HETATM   45  N1  UNL     1     -11.209  41.969 -34.589  1.00  0.00     0.083 N 
HETATM   46  C16 UNL     1     -10.153  41.521 -35.491  1.00  0.00     0.270 C 
HETATM   47  H15 UNL     1     -11.477  42.929 -34.803  1.00  0.00     0.315 HD
HETATM   48  C17 UNL     1      -8.758  41.611 -34.886  1.00  0.00     0.037 C 
ENDBRANCH  14  42
BRANCH   7  49
HETATM   49  O2  UNL     1      -4.224  45.054 -32.915  1.00  0.00    -0.359 OA
HETATM   50  H5  UNL     1      -4.004  46.012 -32.849  1.00  0.00     0.217 HD
ENDBRANCH   7  49
TORSDOF 7
ENDMDL
MODEL 7
REMARK minimizedAffinity -8.53195667
REMARK CNNscore 0.153517544
REMARK CNNaffinity 5.63086653
REMARK  7 active torsions:
REMARK  status: ('A' for Active; 'I' for Inactive)
REMARK    1  A    between atoms: C6_7  and  O2_8 
REMARK    2  A    between atoms: C11_15  and  C13_17 
REMARK    3  A    between atoms: C26_34  and  C27_35 
REMARK    4  A    between atoms: C27_35  and  C28_36 
REMARK    5  A    between atoms: C32_40  and  C33_41 
REMARK    6  A    between atoms: C33_41  and  N2_42 
REMARK    7  A    between atoms: C33_41  and  N3_43 
ROOT
HETATM    1  C1  UNL     1      -2.500  48.863 -21.804  1.00  0.00     0.077 C 
HETATM    2  C2  UNL     1      -3.644  48.526 -22.708  1.00  0.00     0.053 A 
HETATM    3  C3  UNL     1      -3.633  48.839 -24.016  1.00  0.00     0.088 A 
HETATM    4  C4  UNL     1      -4.779  48.466 -24.855  1.00  0.00     0.190 A 
HETATM    5  O1  UNL     1      -4.819  48.751 -26.047  1.00  0.00    -0.287 OA
HETATM    6  C5  UNL     1      -5.868  47.723 -24.205  1.00  0.00     0.082 A 
HETATM    7  C6  UNL     1      -6.990  47.276 -24.926  1.00  0.00     0.092 A 
HETATM    8  C7  UNL     1      -7.975  46.498 -24.302  1.00  0.00     0.016 A 
HETATM    9  C8  UNL     1      -7.881  46.314 -22.906  1.00  0.00     0.082 A 
HETATM   10  C9  UNL     1      -6.770  46.764 -22.186  1.00  0.00     0.075 A 
HETATM   11  C10 UNL     1      -5.758  47.457 -22.841  1.00  0.00     0.095 A 
HETATM   12  O3  UNL     1      -4.682  47.855 -22.083  1.00  0.00    -0.314 OA
HETATM   13  O4  UNL     1      -8.850  45.709 -22.146  1.00  0.00    -0.337 OA
HETATM   14  C11 UNL     1     -10.199  45.621 -22.672  1.00  0.00     0.095 C 
HETATM   15  C12 UNL     1     -10.540  44.110 -22.708  1.00  0.00     0.050 C 
HETATM   16  C18 UNL     1     -10.356  46.239 -24.105  1.00  0.00     0.175 C 
HETATM   17  O5  UNL     1     -11.604  45.852 -24.685  1.00  0.00    -0.310 OA
HETATM   18  C19 UNL     1     -12.176  46.766 -25.516  1.00  0.00     0.297 C 
HETATM   19  O6  UNL     1     -11.977  47.968 -25.503  1.00  0.00    -0.262 OA
HETATM   20  C20 UNL     1     -13.004  46.081 -26.540  1.00  0.00     0.175 A 
HETATM   21  C21 UNL     1     -12.313  45.225 -27.584  1.00  0.00     0.051 C 
HETATM   22  C22 UNL     1     -11.345  44.183 -27.012  1.00  0.00     0.004 C 
HETATM   23  C23 UNL     1      -9.868  44.557 -27.159  1.00  0.00     0.001 C 
HETATM   24  C24 UNL     1      -9.321  45.844 -26.503  1.00  0.00     0.012 C 
HETATM   25  C25 UNL     1      -9.150  45.787 -24.966  1.00  0.00     0.057 C 
HETATM   26  O7  UNL     1     -13.988  46.924 -27.179  1.00  0.00    -0.358 OA
HETATM   27  C26 UNL     1     -14.503  45.914 -26.306  1.00  0.00     0.172 A 
ENDROOT
BRANCH  27  28
HETATM   28  C27 UNL     1     -15.247  46.488 -25.132  1.00  0.00     0.074 C 
BRANCH  28  29
HETATM   29  C28 UNL     1     -16.736  46.237 -25.277  1.00  0.00    -0.055 A 
HETATM   30  C29 UNL     1     -17.656  46.954 -24.504  1.00  0.00     0.007 A 
HETATM   31  C30 UNL     1     -19.022  46.696 -24.633  1.00  0.00     0.001 A 
HETATM   32  C31 UNL     1     -19.486  45.724 -25.525  1.00  0.00     0.011 A 
HETATM   33  C32 UNL     1     -18.593  45.001 -26.332  1.00  0.00     0.004 A 
HETATM   34  C34 UNL     1     -17.218  45.291 -26.204  1.00  0.00     0.018 A 
BRANCH  33  35
HETATM   35  C33 UNL     1     -19.021  43.924 -27.314  1.00  0.00     0.479 C 
BRANCH  35  36
HETATM   36  N2  UNL     1     -18.810  44.346 -28.673  1.00  0.00     0.116 N 
HETATM   37  H37 UNL     1     -19.533  45.025 -28.910  1.00  0.00     0.316 HD
HETATM   38  H38 UNL     1     -18.988  43.526 -29.253  1.00  0.00     0.316 HD
ENDBRANCH  35  36
BRANCH  35  39
HETATM   39  N3  UNL     1     -18.269  42.699 -27.302  1.00  0.00     0.116 N 
HETATM   40  H39 UNL     1     -17.318  42.936 -27.578  1.00  0.00     0.316 HD
HETATM   41  H40 UNL     1     -18.226  42.338 -26.354  1.00  0.00     0.316 HD
ENDBRANCH  35  39
ENDBRANCH  33  35
ENDBRANCH  28  29
ENDBRANCH  27  28
BRANCH  14  42
HETATM   42  C13 UNL     1     -11.152  46.317 -21.629  1.00  0.00     0.026 C 
HETATM   43  C14 UNL     1     -11.920  45.315 -20.723  1.00  0.00     0.037 C 
HETATM   44  C15 UNL     1     -11.369  45.251 -19.303  1.00  0.00     0.270 C 
HETATM   45  N1  UNL     1     -11.462  46.539 -18.625  1.00  0.00     0.083 N 
HETATM   46  C16 UNL     1     -11.253  47.687 -19.501  1.00  0.00     0.270 C 
HETATM   47  H15 UNL     1     -10.793  46.552 -17.855  1.00  0.00     0.315 HD
HETATM   48  C17 UNL     1     -10.437  47.362 -20.746  1.00  0.00     0.037 C 
ENDBRANCH  14  42
BRANCH   7  49
HETATM   49  O2  UNL     1      -7.162  47.648 -26.225  1.00  0.00    -0.359 OA
HETATM   50  H5  UNL     1      -6.392  48.181 -26.529  1.00  0.00     0.217 HD
ENDBRANCH   7  49
TORSDOF 7
ENDMDL
MODEL 8
REMARK minimizedAffinity -7.82105446
REMARK CNNscore 0.142230675
REMARK CNNaffinity 5.98477697
REMARK  7 active torsions:
REMARK  status: ('A' for Active; 'I' for Inactive)
REMARK    1  A    between atoms: C6_7  and  O2_8 
REMARK    2  A    between atoms: C11_15  and  C13_17 
REMARK    3  A    between atoms: C26_34  and  C27_35 
REMARK    4  A    between atoms: C27_35  and  C28_36 
REMARK    5  A    between atoms: C32_40  and  C33_41 
REMARK    6  A    between atoms: C33_41  and  N2_42 
REMARK    7  A    between atoms: C33_41  and  N3_43 
ROOT
HETATM    1  C1  UNL     1      -1.203  50.614 -22.015  1.00  0.00     0.077 C 
HETATM    2  C2  UNL     1      -2.282  49.576 -22.008  1.00  0.00     0.053 A 
HETATM    3  C3  UNL     1      -2.345  48.624 -21.060  1.00  0.00     0.088 A 
HETATM    4  C4  UNL     1      -3.438  47.644 -21.097  1.00  0.00     0.190 A 
HETATM    5  O1  UNL     1      -3.522  46.746 -20.266  1.00  0.00    -0.287 OA
HETATM    6  C5  UNL     1      -4.435  47.796 -22.166  1.00  0.00     0.082 A 
HETATM    7  C6  UNL     1      -5.549  46.941 -22.265  1.00  0.00     0.092 A 
HETATM    8  C7  UNL     1      -6.529  47.158 -23.244  1.00  0.00     0.016 A 
HETATM    9  C8  UNL     1      -6.284  48.157 -24.210  1.00  0.00     0.082 A 
HETATM   10  C9  UNL     1      -5.175  49.002 -24.118  1.00  0.00     0.075 A 
HETATM   11  C10 UNL     1      -4.259  48.829 -23.086  1.00  0.00     0.095 A 
HETATM   12  O3  UNL     1      -3.201  49.705 -23.037  1.00  0.00    -0.314 OA
HETATM   13  O4  UNL     1      -7.080  48.372 -25.307  1.00  0.00    -0.337 OA
HETATM   14  C11 UNL     1      -7.959  47.309 -25.754  1.00  0.00     0.095 C 
HETATM   15  C12 UNL     1      -9.391  47.899 -25.710  1.00  0.00     0.050 C 
HETATM   16  C18 UNL     1      -7.885  46.018 -24.866  1.00  0.00     0.175 C 
HETATM   17  O5  UNL     1      -8.976  45.141 -25.161  1.00  0.00    -0.310 OA
HETATM   18  C19 UNL     1      -8.713  43.812 -25.038  1.00  0.00     0.297 C 
HETATM   19  O6  UNL     1      -7.614  43.290 -25.108  1.00  0.00    -0.262 OA
HETATM   20  C20 UNL     1      -9.953  43.075 -24.685  1.00  0.00     0.175 A 
HETATM   21  C21 UNL     1     -10.578  43.311 -23.324  1.00  0.00     0.051 C 
HETATM   22  C22 UNL     1     -10.814  44.785 -22.979  1.00  0.00     0.004 C 
HETATM   23  C23 UNL     1      -9.801  45.363 -21.986  1.00  0.00     0.001 C 
HETATM   24  C24 UNL     1      -8.297  45.389 -22.333  1.00  0.00     0.012 C 
HETATM   25  C25 UNL     1      -7.873  46.450 -23.378  1.00  0.00     0.057 C 
HETATM   26  O7  UNL     1      -9.907  41.658 -24.958  1.00  0.00    -0.358 OA
HETATM   27  C26 UNL     1     -10.782  42.426 -25.789  1.00  0.00     0.172 A 
ENDROOT
BRANCH  27  28
HETATM   28  C27 UNL     1     -10.384  42.389 -27.239  1.00  0.00     0.074 C 
BRANCH  28  29
HETATM   29  C28 UNL     1     -10.956  43.587 -27.973  1.00  0.00    -0.055 A 
HETATM   30  C29 UNL     1     -10.850  43.683 -29.366  1.00  0.00     0.007 A 
HETATM   31  C30 UNL     1     -11.362  44.802 -30.026  1.00  0.00     0.001 A 
HETATM   32  C31 UNL     1     -11.979  45.835 -29.311  1.00  0.00     0.011 A 
HETATM   33  C32 UNL     1     -12.122  45.761 -27.916  1.00  0.00     0.004 A 
HETATM   34  C34 UNL     1     -11.619  44.612 -27.269  1.00  0.00     0.018 A 
BRANCH  33  35
HETATM   35  C33 UNL     1     -12.769  46.846 -27.073  1.00  0.00     0.479 C 
BRANCH  35  36
HETATM   36  N2  UNL     1     -12.673  48.131 -27.713  1.00  0.00     0.116 N 
HETATM   37  H37 UNL     1     -11.711  48.459 -27.621  1.00  0.00     0.316 HD
HETATM   38  H38 UNL     1     -13.244  48.766 -27.157  1.00  0.00     0.316 HD
ENDBRANCH  35  36
BRANCH  35  39
HETATM   39  N3  UNL     1     -14.191  46.757 -26.881  1.00  0.00     0.116 N 
HETATM   40  H39 UNL     1     -14.617  46.856 -27.800  1.00  0.00     0.316 HD
HETATM   41  H40 UNL     1     -14.429  45.831 -26.538  1.00  0.00     0.316 HD
ENDBRANCH  35  39
ENDBRANCH  33  35
ENDBRANCH  28  29
ENDBRANCH  27  28
BRANCH  14  42
HETATM   42  C13 UNL     1      -7.598  47.005 -27.256  1.00  0.00     0.026 C 
HETATM   43  C14 UNL     1      -8.748  47.326 -28.251  1.00  0.00     0.037 C 
HETATM   44  C15 UNL     1      -8.504  48.598 -29.055  1.00  0.00     0.270 C 
HETATM   45  N1  UNL     1      -7.298  48.501 -29.872  1.00  0.00     0.083 N 
HETATM   46  C16 UNL     1      -6.220  47.742 -29.250  1.00  0.00     0.270 C 
HETATM   47  H15 UNL     1      -6.984  49.444 -30.103  1.00  0.00     0.315 HD
HETATM   48  C17 UNL     1      -6.303  47.700 -27.729  1.00  0.00     0.037 C 
ENDBRANCH  14  42
BRANCH   7  49
HETATM   49  O2  UNL     1      -5.652  45.855 -21.451  1.00  0.00    -0.359 OA
HETATM   50  H5  UNL     1      -4.902  45.837 -20.813  1.00  0.00     0.217 HD
ENDBRANCH   7  49
TORSDOF 7
ENDMDL
MODEL 9
REMARK minimizedAffinity -9.05155373
REMARK CNNscore 0.13945812
REMARK CNNaffinity 6.77910185
REMARK  7 active torsions:
REMARK  status: ('A' for Active; 'I' for Inactive)
REMARK    1  A    between atoms: C6_7  and  O2_8 
REMARK    2  A    between atoms: C11_15  and  C13_17 
REMARK    3  A    between atoms: C26_34  and  C27_35 
REMARK    4  A    between atoms: C27_35  and  C28_36 
REMARK    5  A    between atoms: C32_40  and  C33_41 
REMARK    6  A    between atoms: C33_41  and  N2_42 
REMARK    7  A    between atoms: C33_41  and  N3_43 
ROOT
HETATM    1  C1  UNL     1      -6.862  48.088  -9.007  1.00  0.00     0.077 C 
HETATM    2  C2  UNL     1      -5.954  48.828  -9.940  1.00  0.00     0.053 A 
HETATM    3  C3  UNL     1      -5.717  50.144  -9.805  1.00  0.00     0.088 A 
HETATM    4  C4  UNL     1      -4.802  50.810 -10.741  1.00  0.00     0.190 A 
HETATM    5  O1  UNL     1      -4.574  52.013 -10.668  1.00  0.00    -0.287 OA
HETATM    6  C5  UNL     1      -4.161  49.967 -11.760  1.00  0.00     0.082 A 
HETATM    7  C6  UNL     1      -3.231  50.493 -12.677  1.00  0.00     0.092 A 
HETATM    8  C7  UNL     1      -2.571  49.654 -13.585  1.00  0.00     0.016 A 
HETATM    9  C8  UNL     1      -2.982  48.305 -13.651  1.00  0.00     0.082 A 
HETATM   10  C9  UNL     1      -3.910  47.782 -12.747  1.00  0.00     0.075 A 
HETATM   11  C10 UNL     1      -4.488  48.612 -11.792  1.00  0.00     0.095 A 
HETATM   12  O3  UNL     1      -5.377  48.034 -10.918  1.00  0.00    -0.314 OA
HETATM   13  O4  UNL     1      -2.532  47.414 -14.592  1.00  0.00    -0.337 OA
HETATM   14  C11 UNL     1      -1.952  47.924 -15.819  1.00  0.00     0.095 C 
HETATM   15  C12 UNL     1      -0.516  47.345 -15.880  1.00  0.00     0.050 C 
HETATM   16  C18 UNL     1      -1.900  49.490 -15.886  1.00  0.00     0.175 C 
HETATM   17  O5  UNL     1      -1.053  49.921 -16.955  1.00  0.00    -0.310 OA
HETATM   18  C19 UNL     1      -1.415  51.085 -17.560  1.00  0.00     0.297 C 
HETATM   19  O6  UNL     1      -2.535  51.563 -17.580  1.00  0.00    -0.262 OA
HETATM   20  C20 UNL     1      -0.217  51.771 -18.106  1.00  0.00     0.175 A 
HETATM   21  C21 UNL     1       0.810  52.327 -17.138  1.00  0.00     0.051 C 
HETATM   22  C22 UNL     1       1.302  51.324 -16.088  1.00  0.00     0.004 C 
HETATM   23  C23 UNL     1       0.705  51.536 -14.695  1.00  0.00     0.001 C 
HETATM   24  C24 UNL     1      -0.821  51.449 -14.479  1.00  0.00     0.012 C 
HETATM   25  C25 UNL     1      -1.418  50.021 -14.513  1.00  0.00     0.057 C 
HETATM   26  O7  UNL     1      -0.501  52.753 -19.126  1.00  0.00    -0.358 OA
HETATM   27  C26 UNL     1       0.165  51.567 -19.569  1.00  0.00     0.172 A 
ENDROOT
BRANCH  27  28
HETATM   28  C27 UNL     1      -0.651  50.779 -20.557  1.00  0.00     0.074 C 
BRANCH  28  29
HETATM   29  C28 UNL     1      -0.606  51.438 -21.923  1.00  0.00    -0.055 A 
HETATM   30  C29 UNL     1       0.498  52.211 -22.302  1.00  0.00     0.007 A 
HETATM   31  C30 UNL     1       0.515  52.829 -23.554  1.00  0.00     0.001 A 
HETATM   32  C31 UNL     1      -0.561  52.688 -24.437  1.00  0.00     0.011 A 
HETATM   33  C32 UNL     1      -1.674  51.903 -24.098  1.00  0.00     0.004 A 
HETATM   34  C34 UNL     1      -1.664  51.268 -22.837  1.00  0.00     0.018 A 
BRANCH  33  35
HETATM   35  C33 UNL     1      -2.883  51.713 -24.998  1.00  0.00     0.479 C 
BRANCH  35  36
HETATM   36  N2  UNL     1      -4.106  51.992 -24.293  1.00  0.00     0.116 N 
HETATM   37  H37 UNL     1      -4.295  51.211 -23.664  1.00  0.00     0.316 HD
HETATM   38  H38 UNL     1      -4.845  51.977 -24.995  1.00  0.00     0.316 HD
ENDBRANCH  35  36
BRANCH  35  39
HETATM   39  N3  UNL     1      -3.012  52.615 -26.110  1.00  0.00     0.116 N 
HETATM   40  H39 UNL     1      -3.126  53.548 -25.718  1.00  0.00     0.316 HD
HETATM   41  H40 UNL     1      -2.149  52.617 -26.645  1.00  0.00     0.316 HD
ENDBRANCH  35  39
ENDBRANCH  33  35
ENDBRANCH  28  29
ENDBRANCH  27  28
BRANCH  14  42
HETATM   42  C13 UNL     1      -2.779  47.317 -17.014  1.00  0.00     0.026 C 
HETATM   43  C14 UNL     1      -4.280  47.717 -17.000  1.00  0.00     0.037 C 
HETATM   44  C15 UNL     1      -4.630  48.764 -18.051  1.00  0.00     0.270 C 
HETATM   45  N1  UNL     1      -4.368  48.284 -19.404  1.00  0.00     0.083 N 
HETATM   46  C16 UNL     1      -3.198  47.419 -19.511  1.00  0.00     0.270 C 
HETATM   47  H15 UNL     1      -4.274  49.089 -20.024  1.00  0.00     0.315 HD
HETATM   48  C17 UNL     1      -2.178  47.636 -18.400  1.00  0.00     0.037 C 
ENDBRANCH  14  42
BRANCH   7  49
HETATM   49  O2  UNL     1      -3.010  51.836 -12.732  1.00  0.00    -0.359 OA
HETATM   50  H5  UNL     1      -3.532  52.294 -12.035  1.00  0.00     0.217 HD
ENDBRANCH   7  49
TORSDOF 7
ENDMDL
