MODEL 1
REMARK minimizedAffinity -8.05196285
REMARK CNNscore 0.312246114
REMARK CNNaffinity 6.55190229
REMARK  13 active torsions:
REMARK  status: ('A' for Active; 'I' for Inactive)
REMARK    1  A    between atoms: O1_2  and  C2_3 
REMARK    2  A    between atoms: C8_9  and  O2_10 
REMARK    3  A    between atoms: O2_10  and  C9_11 
REMARK    4  A    between atoms: C10_13  and  C11_14 
REMARK    5  A    between atoms: C11_14  and  O4_15 
REMARK    6  A    between atoms: C12_16  and  O5_17 
REMARK    7  A    between atoms: C13_18  and  O6_19 
REMARK    8  A    between atoms: C14_20  and  O7_21 
REMARK    9  A    between atoms: C24_31  and  C25_32 
REMARK   10  A    between atoms: C25_32  and  C27_34 
REMARK   11  A    between atoms: C27_34  and  C28_35 
REMARK   12  A    between atoms: C29_36  and  C30_37 
REMARK   13  A    between atoms: C30_37  and  O8_40 
ROOT
HETATM    1  C2  UNL     1      -0.767   9.864  15.014  1.00  0.00     0.149 C 
HETATM    2  C3  UNL     1       0.451  10.631  15.436  1.00  0.00     0.009 C 
HETATM    3  C4  UNL     1       1.638  10.558  14.799  1.00  0.00    -0.066 C 
HETATM    4  C5  UNL     1       1.742   9.583  13.626  1.00  0.00     0.024 C 
HETATM    5  C6  UNL     1       3.183   9.427  13.100  1.00  0.00     0.012 C 
HETATM    6  C7  UNL     1       3.930  10.740  12.875  1.00  0.00     0.034 C 
HETATM    7  C8  UNL     1       3.445  11.928  13.715  1.00  0.00     0.136 C 
HETATM    8  C15 UNL     1       2.824  11.498  15.084  1.00  0.00     0.002 C 
HETATM    9  C16 UNL     1       2.390  12.793  15.827  1.00  0.00     0.022 C 
HETATM   10  C17 UNL     1       3.854  10.805  16.003  1.00  0.00     0.022 C 
HETATM   11  C18 UNL     1       1.036   8.198  13.955  1.00  0.00    -0.030 C 
HETATM   12  C19 UNL     1       1.839   7.473  15.079  1.00  0.00     0.016 C 
HETATM   13  C20 UNL     1       1.079   7.275  12.690  1.00  0.00     0.011 C 
HETATM   14  C21 UNL     1       0.095   6.087  12.611  1.00  0.00     0.011 C 
HETATM   15  C22 UNL     1      -1.252   6.285  13.332  1.00  0.00    -0.032 C 
HETATM   16  C23 UNL     1      -1.213   5.456  14.658  1.00  0.00     0.016 C 
HETATM   17  C24 UNL     1      -2.550   5.850  12.559  1.00  0.00    -0.002 C 
HETATM   18  C33 UNL     1      -3.658   6.677  13.277  1.00  0.00     0.006 C 
HETATM   19  C34 UNL     1      -2.957   7.799  14.065  1.00  0.00     0.011 C 
HETATM   20  C35 UNL     1      -1.521   7.828  13.516  1.00  0.00    -0.029 C 
HETATM   21  C36 UNL     1      -1.567   8.604  12.152  1.00  0.00     0.016 C 
HETATM   22  C37 UNL     1      -0.450   8.433  14.478  1.00  0.00     0.036 C 
ENDROOT
BRANCH   7  23
HETATM   23  O2  UNL     1       4.513  12.865  13.946  1.00  0.00    -0.352 OA
BRANCH  23  24
HETATM   24  C9  UNL     1       4.408  14.087  13.197  1.00  0.00     0.292 C 
HETATM   25  O3  UNL     1       3.108  14.207  12.621  1.00  0.00    -0.348 OA
HETATM   26  C10 UNL     1       2.958  15.393  11.822  1.00  0.00     0.179 C 
HETATM   27  C12 UNL     1       3.976  15.426  10.663  1.00  0.00     0.180 C 
HETATM   28  C13 UNL     1       5.397  15.255  11.211  1.00  0.00     0.183 C 
HETATM   29  C14 UNL     1       5.466  13.996  12.076  1.00  0.00     0.204 C 
BRANCH  26  30
HETATM   30  C11 UNL     1       1.513  15.450  11.298  1.00  0.00     0.198 C 
BRANCH  30  31
HETATM   31  O4  UNL     1       0.579  15.079  12.311  1.00  0.00    -0.398 OA
HETATM   32  H16 UNL     1      -0.294  15.016  11.886  1.00  0.00     0.209 HD
ENDBRANCH  30  31
ENDBRANCH  26  30
BRANCH  27  33
HETATM   33  O5  UNL     1       3.903  16.678   9.963  1.00  0.00    -0.390 OA
HETATM   34  H18 UNL     1       4.356  16.547   9.108  1.00  0.00     0.210 HD
ENDBRANCH  27  33
BRANCH  28  35
HETATM   35  O6  UNL     1       5.738  16.427  11.975  1.00  0.00    -0.390 OA
HETATM   36  H20 UNL     1       5.486  17.192  11.420  1.00  0.00     0.210 HD
ENDBRANCH  28  35
BRANCH  29  37
HETATM   37  O7  UNL     1       6.787  13.810  12.604  1.00  0.00    -0.388 OA
HETATM   38  H22 UNL     1       6.685  13.158  13.321  1.00  0.00     0.210 HD
ENDBRANCH  29  37
ENDBRANCH  23  24
ENDBRANCH   7  23
BRANCH   1  39
HETATM   39  O1  UNL     1      -1.454  10.657  14.043  1.00  0.00    -0.386 OA
HETATM   40  C1  UNL     1      -1.716  11.988  14.468  1.00  0.00     0.202 C 
ENDBRANCH   1  39
BRANCH  17  41
HETATM   41  C25 UNL     1      -2.905   4.337  12.445  1.00  0.00    -0.010 C 
HETATM   42  C26 UNL     1      -1.818   3.541  11.714  1.00  0.00     0.010 C 
BRANCH  41  43
HETATM   43  C27 UNL     1      -4.283   4.084  11.776  1.00  0.00     0.031 C 
BRANCH  43  44
HETATM   44  C28 UNL     1      -5.451   3.988  12.724  1.00  0.00    -0.027 C 
HETATM   45  C29 UNL     1      -6.618   4.630  12.539  1.00  0.00     0.006 C 
BRANCH  45  46
HETATM   46  C30 UNL     1      -7.842   4.594  13.430  1.00  0.00     0.068 C 
HETATM   47  C31 UNL     1      -7.417   4.723  14.897  1.00  0.00     0.050 C 
HETATM   48  C32 UNL     1      -8.920   5.634  13.111  1.00  0.00     0.050 C 
BRANCH  46  49
HETATM   49  O8  UNL     1      -8.454   3.313  13.255  1.00  0.00    -0.387 OA
HETATM   50  H54 UNL     1      -7.774   2.635  13.403  1.00  0.00     0.211 HD
ENDBRANCH  46  49
ENDBRANCH  45  46
ENDBRANCH  43  44
ENDBRANCH  41  43
ENDBRANCH  17  41
TORSDOF 13
ENDMDL
MODEL 2
REMARK minimizedAffinity -9.77941418
REMARK CNNscore 0.305802196
REMARK CNNaffinity 6.97619247
REMARK  13 active torsions:
REMARK  status: ('A' for Active; 'I' for Inactive)
REMARK    1  A    between atoms: O1_2  and  C2_3 
REMARK    2  A    between atoms: C8_9  and  O2_10 
REMARK    3  A    between atoms: O2_10  and  C9_11 
REMARK    4  A    between atoms: C10_13  and  C11_14 
REMARK    5  A    between atoms: C11_14  and  O4_15 
REMARK    6  A    between atoms: C12_16  and  O5_17 
REMARK    7  A    between atoms: C13_18  and  O6_19 
REMARK    8  A    between atoms: C14_20  and  O7_21 
REMARK    9  A    between atoms: C24_31  and  C25_32 
REMARK   10  A    between atoms: C25_32  and  C27_34 
REMARK   11  A    between atoms: C27_34  and  C28_35 
REMARK   12  A    between atoms: C29_36  and  C30_37 
REMARK   13  A    between atoms: C30_37  and  O8_40 
ROOT
HETATM    1  C2  UNL     1      -1.943   9.725  15.322  1.00  0.00     0.149 C 
HETATM    2  C3  UNL     1      -0.450   9.786  15.456  1.00  0.00     0.009 C 
HETATM    3  C4  UNL     1       0.401   9.147  14.628  1.00  0.00    -0.066 C 
HETATM    4  C5  UNL     1      -0.213   8.265  13.541  1.00  0.00     0.024 C 
HETATM    5  C6  UNL     1       0.836   7.426  12.783  1.00  0.00     0.012 C 
HETATM    6  C7  UNL     1       2.066   8.204  12.320  1.00  0.00     0.034 C 
HETATM    7  C8  UNL     1       2.395   9.464  13.130  1.00  0.00     0.136 C 
HETATM    8  C15 UNL     1       1.924   9.376  14.618  1.00  0.00     0.002 C 
HETATM    9  C16 UNL     1       2.328  10.706  15.314  1.00  0.00     0.022 C 
HETATM   10  C17 UNL     1       2.645   8.253  15.396  1.00  0.00     0.022 C 
HETATM   11  C18 UNL     1      -1.424   7.403  14.104  1.00  0.00    -0.030 C 
HETATM   12  C19 UNL     1      -0.872   6.360  15.126  1.00  0.00     0.016 C 
HETATM   13  C20 UNL     1      -2.082   6.596  12.934  1.00  0.00     0.011 C 
HETATM   14  C21 UNL     1      -3.513   6.049  13.131  1.00  0.00     0.011 C 
HETATM   15  C22 UNL     1      -4.424   6.874  14.060  1.00  0.00    -0.032 C 
HETATM   16  C23 UNL     1      -4.534   6.116  15.422  1.00  0.00     0.016 C 
HETATM   17  C24 UNL     1      -5.891   7.147  13.568  1.00  0.00    -0.002 C 
HETATM   18  C33 UNL     1      -6.294   8.402  14.398  1.00  0.00     0.006 C 
HETATM   19  C34 UNL     1      -4.997   9.022  14.953  1.00  0.00     0.011 C 
HETATM   20  C35 UNL     1      -3.867   8.347  14.157  1.00  0.00    -0.029 C 
HETATM   21  C36 UNL     1      -3.795   9.065  12.763  1.00  0.00     0.016 C 
HETATM   22  C37 UNL     1      -2.473   8.332  14.861  1.00  0.00     0.036 C 
ENDROOT
BRANCH   7  23
HETATM   23  O2  UNL     1       3.804   9.750  13.089  1.00  0.00    -0.352 OA
BRANCH  23  24
HETATM   24  C9  UNL     1       4.579   9.087  14.102  1.00  0.00     0.292 C 
HETATM   25  O3  UNL     1       5.317  10.041  14.865  1.00  0.00    -0.348 OA
HETATM   26  C10 UNL     1       6.146   9.431  15.870  1.00  0.00     0.179 C 
HETATM   27  C12 UNL     1       7.167   8.457  15.244  1.00  0.00     0.180 C 
HETATM   28  C13 UNL     1       6.440   7.429  14.370  1.00  0.00     0.183 C 
HETATM   29  C14 UNL     1       5.554   8.153  13.355  1.00  0.00     0.204 C 
BRANCH  26  30
HETATM   30  C11 UNL     1       6.851  10.544  16.664  1.00  0.00     0.198 C 
BRANCH  30  31
HETATM   31  O4  UNL     1       7.246  10.087  17.957  1.00  0.00    -0.398 OA
HETATM   32  H16 UNL     1       7.569  10.862  18.448  1.00  0.00     0.209 HD
ENDBRANCH  30  31
ENDBRANCH  26  30
BRANCH  27  33
HETATM   33  O5  UNL     1       7.889   7.757  16.269  1.00  0.00    -0.390 OA
HETATM   34  H18 UNL     1       8.677   7.371  15.842  1.00  0.00     0.210 HD
ENDBRANCH  27  33
BRANCH  28  35
HETATM   35  O6  UNL     1       5.656   6.573  15.224  1.00  0.00    -0.390 OA
HETATM   36  H20 UNL     1       6.251   6.306  15.952  1.00  0.00     0.210 HD
ENDBRANCH  28  35
BRANCH  29  37
HETATM   37  O7  UNL     1       4.860   7.214  12.521  1.00  0.00    -0.388 OA
HETATM   38  H22 UNL     1       4.152   7.729  12.093  1.00  0.00     0.210 HD
ENDBRANCH  29  37
ENDBRANCH  23  24
ENDBRANCH   7  23
BRANCH   1  39
HETATM   39  O1  UNL     1      -2.333  10.767  14.425  1.00  0.00    -0.386 OA
HETATM   40  C1  UNL     1      -2.023  12.075  14.890  1.00  0.00     0.202 C 
ENDBRANCH   1  39
BRANCH  17  41
HETATM   41  C25 UNL     1      -6.951   6.007  13.646  1.00  0.00    -0.010 C 
HETATM   42  C26 UNL     1      -8.130   6.376  14.555  1.00  0.00     0.010 C 
BRANCH  41  43
HETATM   43  C27 UNL     1      -6.350   4.646  14.090  1.00  0.00     0.031 C 
BRANCH  43  44
HETATM   44  C28 UNL     1      -6.251   3.603  13.007  1.00  0.00    -0.027 C 
HETATM   45  C29 UNL     1      -5.092   3.217  12.445  1.00  0.00     0.006 C 
BRANCH  45  46
HETATM   46  C30 UNL     1      -4.893   2.182  11.358  1.00  0.00     0.068 C 
HETATM   47  C31 UNL     1      -3.561   1.456  11.573  1.00  0.00     0.050 C 
HETATM   48  C32 UNL     1      -6.023   1.157  11.211  1.00  0.00     0.050 C 
BRANCH  46  49
HETATM   49  O8  UNL     1      -4.823   2.884  10.113  1.00  0.00    -0.387 OA
HETATM   50  H54 UNL     1      -4.146   3.575  10.200  1.00  0.00     0.211 HD
ENDBRANCH  46  49
ENDBRANCH  45  46
ENDBRANCH  43  44
ENDBRANCH  41  43
ENDBRANCH  17  41
TORSDOF 13
ENDMDL
MODEL 3
REMARK minimizedAffinity -9.05644035
REMARK CNNscore 0.25459522
REMARK CNNaffinity 7.48268557
REMARK  13 active torsions:
REMARK  status: ('A' for Active; 'I' for Inactive)
REMARK    1  A    between atoms: O1_2  and  C2_3 
REMARK    2  A    between atoms: C8_9  and  O2_10 
REMARK    3  A    between atoms: O2_10  and  C9_11 
REMARK    4  A    between atoms: C10_13  and  C11_14 
REMARK    5  A    between atoms: C11_14  and  O4_15 
REMARK    6  A    between atoms: C12_16  and  O5_17 
REMARK    7  A    between atoms: C13_18  and  O6_19 
REMARK    8  A    between atoms: C14_20  and  O7_21 
REMARK    9  A    between atoms: C24_31  and  C25_32 
REMARK   10  A    between atoms: C25_32  and  C27_34 
REMARK   11  A    between atoms: C27_34  and  C28_35 
REMARK   12  A    between atoms: C29_36  and  C30_37 
REMARK   13  A    between atoms: C30_37  and  O8_40 
ROOT
HETATM    1  C2  UNL     1      -3.480   4.160  12.907  1.00  0.00     0.149 C 
HETATM    2  C3  UNL     1      -4.863   4.088  13.484  1.00  0.00     0.009 C 
HETATM    3  C4  UNL     1      -5.564   5.169  13.883  1.00  0.00    -0.066 C 
HETATM    4  C5  UNL     1      -4.864   6.526  13.794  1.00  0.00     0.024 C 
HETATM    5  C6  UNL     1      -5.668   7.662  14.458  1.00  0.00     0.012 C 
HETATM    6  C7  UNL     1      -7.147   7.708  14.078  1.00  0.00     0.034 C 
HETATM    7  C8  UNL     1      -7.755   6.374  13.626  1.00  0.00     0.136 C 
HETATM    8  C15 UNL     1      -7.054   5.133  14.268  1.00  0.00     0.002 C 
HETATM    9  C16 UNL     1      -7.774   3.862  13.734  1.00  0.00     0.022 C 
HETATM   10  C17 UNL     1      -7.215   5.097  15.804  1.00  0.00     0.022 C 
HETATM   11  C18 UNL     1      -3.359   6.440  14.298  1.00  0.00    -0.030 C 
HETATM   12  C19 UNL     1      -3.353   6.148  15.830  1.00  0.00     0.016 C 
HETATM   13  C20 UNL     1      -2.658   7.825  14.091  1.00  0.00     0.011 C 
HETATM   14  C21 UNL     1      -1.114   7.875  14.083  1.00  0.00     0.011 C 
HETATM   15  C22 UNL     1      -0.406   6.608  13.567  1.00  0.00    -0.032 C 
HETATM   16  C23 UNL     1       0.170   5.843  14.803  1.00  0.00     0.016 C 
HETATM   17  C24 UNL     1       0.783   6.810  12.559  1.00  0.00    -0.002 C 
HETATM   18  C33 UNL     1       0.857   5.425  11.848  1.00  0.00     0.006 C 
HETATM   19  C34 UNL     1      -0.468   4.693  12.129  1.00  0.00     0.011 C 
HETATM   20  C35 UNL     1      -1.410   5.779  12.677  1.00  0.00    -0.029 C 
HETATM   21  C36 UNL     1      -1.942   6.590  11.442  1.00  0.00     0.016 C 
HETATM   22  C37 UNL     1      -2.585   5.258  13.563  1.00  0.00     0.036 C 
ENDROOT
BRANCH   7  23
HETATM   23  O2  UNL     1      -9.165   6.328  13.909  1.00  0.00    -0.352 OA
BRANCH  23  24
HETATM   24  C9  UNL     1      -9.762   7.606  14.182  1.00  0.00     0.292 C 
HETATM   25  O3  UNL     1      -9.911   7.794  15.590  1.00  0.00    -0.348 OA
HETATM   26  C10 UNL     1     -10.544   9.042  15.923  1.00  0.00     0.179 C 
HETATM   27  C12 UNL     1     -11.950   9.147  15.296  1.00  0.00     0.180 C 
HETATM   28  C13 UNL     1     -11.867   8.908  13.784  1.00  0.00     0.183 C 
HETATM   29  C14 UNL     1     -11.151   7.585  13.511  1.00  0.00     0.204 C 
BRANCH  26  30
HETATM   30  C11 UNL     1     -10.605   9.165  17.455  1.00  0.00     0.198 C 
BRANCH  30  31
HETATM   31  O4  UNL     1     -10.972  10.486  17.854  1.00  0.00    -0.398 OA
HETATM   32  H16 UNL     1     -10.873  10.530  18.821  1.00  0.00     0.209 HD
ENDBRANCH  30  31
ENDBRANCH  26  30
BRANCH  27  33
HETATM   33  O5  UNL     1     -12.507  10.451  15.523  1.00  0.00    -0.390 OA
HETATM   34  H18 UNL     1     -13.466  10.379  15.352  1.00  0.00     0.210 HD
ENDBRANCH  27  33
BRANCH  28  35
HETATM   35  O6  UNL     1     -11.161  10.012  13.184  1.00  0.00    -0.390 OA
HETATM   36  H20 UNL     1     -11.561  10.821  13.559  1.00  0.00     0.210 HD
ENDBRANCH  28  35
BRANCH  29  37
HETATM   37  O7  UNL     1     -11.059   7.335  12.101  1.00  0.00    -0.388 OA
HETATM   38  H22 UNL     1     -10.391   6.631  12.011  1.00  0.00     0.210 HD
ENDBRANCH  29  37
ENDBRANCH  23  24
ENDBRANCH   7  23
BRANCH   1  39
HETATM   39  O1  UNL     1      -3.617   4.355  11.498  1.00  0.00    -0.386 OA
HETATM   40  C1  UNL     1      -3.484   3.163  10.735  1.00  0.00     0.202 C 
ENDBRANCH   1  39
BRANCH  17  41
HETATM   41  C25 UNL     1       2.167   7.290  13.091  1.00  0.00    -0.010 C 
HETATM   42  C26 UNL     1       2.045   8.526  13.990  1.00  0.00     0.010 C 
BRANCH  41  43
HETATM   43  C27 UNL     1       3.193   7.563  11.958  1.00  0.00     0.031 C 
BRANCH  43  44
HETATM   44  C28 UNL     1       2.601   8.028  10.652  1.00  0.00    -0.027 C 
HETATM   45  C29 UNL     1       2.758   7.375   9.487  1.00  0.00     0.006 C 
BRANCH  45  46
HETATM   46  C30 UNL     1       2.203   7.762   8.132  1.00  0.00     0.068 C 
HETATM   47  C31 UNL     1       2.337   6.583   7.163  1.00  0.00     0.050 C 
HETATM   48  C32 UNL     1       0.757   8.270   8.132  1.00  0.00     0.050 C 
BRANCH  46  49
HETATM   49  O8  UNL     1       3.007   8.838   7.639  1.00  0.00    -0.387 OA
HETATM   50  H54 UNL     1       3.936   8.558   7.677  1.00  0.00     0.211 HD
ENDBRANCH  46  49
ENDBRANCH  45  46
ENDBRANCH  43  44
ENDBRANCH  41  43
ENDBRANCH  17  41
TORSDOF 13
ENDMDL
MODEL 4
REMARK minimizedAffinity -9.18315411
REMARK CNNscore 0.248893872
REMARK CNNaffinity 7.2310462
REMARK  13 active torsions:
REMARK  status: ('A' for Active; 'I' for Inactive)
REMARK    1  A    between atoms: O1_2  and  C2_3 
REMARK    2  A    between atoms: C8_9  and  O2_10 
REMARK    3  A    between atoms: O2_10  and  C9_11 
REMARK    4  A    between atoms: C10_13  and  C11_14 
REMARK    5  A    between atoms: C11_14  and  O4_15 
REMARK    6  A    between atoms: C12_16  and  O5_17 
REMARK    7  A    between atoms: C13_18  and  O6_19 
REMARK    8  A    between atoms: C14_20  and  O7_21 
REMARK    9  A    between atoms: C24_31  and  C25_32 
REMARK   10  A    between atoms: C25_32  and  C27_34 
REMARK   11  A    between atoms: C27_34  and  C28_35 
REMARK   12  A    between atoms: C29_36  and  C30_37 
REMARK   13  A    between atoms: C30_37  and  O8_40 
ROOT
HETATM    1  C2  UNL     1      -0.357   5.506  11.600  1.00  0.00     0.149 C 
HETATM    2  C3  UNL     1       0.957   5.931  11.013  1.00  0.00     0.009 C 
HETATM    3  C4  UNL     1       1.786   6.817  11.600  1.00  0.00    -0.066 C 
HETATM    4  C5  UNL     1       1.311   7.461  12.903  1.00  0.00     0.024 C 
HETATM    5  C6  UNL     1       2.233   8.600  13.383  1.00  0.00     0.012 C 
HETATM    6  C7  UNL     1       3.723   8.266  13.372  1.00  0.00     0.034 C 
HETATM    7  C8  UNL     1       4.149   7.175  12.382  1.00  0.00     0.136 C 
HETATM    8  C15 UNL     1       3.224   7.094  11.124  1.00  0.00     0.002 C 
HETATM    9  C16 UNL     1       3.775   5.962  10.212  1.00  0.00     0.022 C 
HETATM   10  C17 UNL     1       3.274   8.384  10.276  1.00  0.00     0.022 C 
HETATM   11  C18 UNL     1      -0.220   7.880  12.821  1.00  0.00    -0.030 C 
HETATM   12  C19 UNL     1      -0.375   9.037  11.787  1.00  0.00     0.016 C 
HETATM   13  C20 UNL     1      -0.685   8.438  14.209  1.00  0.00     0.011 C 
HETATM   14  C21 UNL     1      -2.200   8.491  14.511  1.00  0.00     0.011 C 
HETATM   15  C22 UNL     1      -3.057   7.408  13.829  1.00  0.00    -0.032 C 
HETATM   16  C23 UNL     1      -3.825   8.080  12.644  1.00  0.00     0.016 C 
HETATM   17  C24 UNL     1      -4.130   6.678  14.715  1.00  0.00    -0.002 C 
HETATM   18  C33 UNL     1      -4.367   5.354  13.929  1.00  0.00     0.006 C 
HETATM   19  C34 UNL     1      -3.191   5.184  12.949  1.00  0.00     0.011 C 
HETATM   20  C35 UNL     1      -2.134   6.195  13.424  1.00  0.00    -0.029 C 
HETATM   21  C36 UNL     1      -1.402   5.549  14.654  1.00  0.00     0.016 C 
HETATM   22  C37 UNL     1      -1.114   6.655  12.334  1.00  0.00     0.036 C 
ENDROOT
BRANCH   7  23
HETATM   23  O2  UNL     1       5.513   7.361  11.964  1.00  0.00    -0.352 OA
BRANCH  23  24
HETATM   24  C9  UNL     1       6.254   8.310  12.748  1.00  0.00     0.292 C 
HETATM   25  O3  UNL     1       6.929   9.238  11.899  1.00  0.00    -0.348 OA
HETATM   26  C10 UNL     1       7.724  10.188  12.629  1.00  0.00     0.179 C 
HETATM   27  C12 UNL     1       8.799   9.486  13.484  1.00  0.00     0.180 C 
HETATM   28  C13 UNL     1       8.144   8.439  14.391  1.00  0.00     0.183 C 
HETATM   29  C14 UNL     1       7.290   7.491  13.548  1.00  0.00     0.204 C 
BRANCH  26  30
HETATM   30  C11 UNL     1       8.359  11.167  11.626  1.00  0.00     0.198 C 
BRANCH  30  31
HETATM   31  O4  UNL     1       7.837  12.486  11.789  1.00  0.00    -0.398 OA
HETATM   32  H16 UNL     1       8.182  13.022  11.054  1.00  0.00     0.209 HD
ENDBRANCH  30  31
ENDBRANCH  26  30
BRANCH  27  33
HETATM   33  O5  UNL     1       9.489  10.438  14.308  1.00  0.00    -0.390 OA
HETATM   34  H18 UNL     1      10.307  10.003  14.615  1.00  0.00     0.210 HD
ENDBRANCH  27  33
BRANCH  28  35
HETATM   35  O6  UNL     1       7.342   9.121  15.375  1.00  0.00    -0.390 OA
HETATM   36  H20 UNL     1       7.907   9.835  15.732  1.00  0.00     0.210 HD
ENDBRANCH  28  35
BRANCH  29  37
HETATM   37  O7  UNL     1       6.662   6.498  14.373  1.00  0.00    -0.388 OA
HETATM   38  H22 UNL     1       5.962   6.110  13.816  1.00  0.00     0.210 HD
ENDBRANCH  29  37
ENDBRANCH  23  24
ENDBRANCH   7  23
BRANCH   1  39
HETATM   39  O1  UNL     1      -0.097   4.400  12.468  1.00  0.00    -0.386 OA
HETATM   40  C1  UNL     1      -0.262   3.130  11.849  1.00  0.00     0.202 C 
ENDBRANCH   1  39
BRANCH  17  41
HETATM   41  C25 UNL     1      -5.456   7.412  15.074  1.00  0.00    -0.010 C 
HETATM   42  C26 UNL     1      -5.212   8.672  15.913  1.00  0.00     0.010 C 
BRANCH  41  43
HETATM   43  C27 UNL     1      -6.485   6.495  15.789  1.00  0.00     0.031 C 
BRANCH  43  44
HETATM   44  C28 UNL     1      -7.251   5.561  14.888  1.00  0.00    -0.027 C 
HETATM   45  C29 UNL     1      -7.256   5.656  13.546  1.00  0.00     0.006 C 
BRANCH  45  46
HETATM   46  C30 UNL     1      -7.989   4.768  12.562  1.00  0.00     0.068 C 
HETATM   47  C31 UNL     1      -8.839   5.630  11.623  1.00  0.00     0.050 C 
HETATM   48  C32 UNL     1      -7.104   3.826  11.740  1.00  0.00     0.050 C 
BRANCH  46  49
HETATM   49  O8  UNL     1      -8.869   3.934  13.321  1.00  0.00    -0.387 OA
HETATM   50  H54 UNL     1      -9.407   4.509  13.890  1.00  0.00     0.211 HD
ENDBRANCH  46  49
ENDBRANCH  45  46
ENDBRANCH  43  44
ENDBRANCH  41  43
ENDBRANCH  17  41
TORSDOF 13
ENDMDL
MODEL 5
REMARK minimizedAffinity -8.76373386
REMARK CNNscore 0.210186347
REMARK CNNaffinity 6.24232912
REMARK  13 active torsions:
REMARK  status: ('A' for Active; 'I' for Inactive)
REMARK    1  A    between atoms: O1_2  and  C2_3 
REMARK    2  A    between atoms: C8_9  and  O2_10 
REMARK    3  A    between atoms: O2_10  and  C9_11 
REMARK    4  A    between atoms: C10_13  and  C11_14 
REMARK    5  A    between atoms: C11_14  and  O4_15 
REMARK    6  A    between atoms: C12_16  and  O5_17 
REMARK    7  A    between atoms: C13_18  and  O6_19 
REMARK    8  A    between atoms: C14_20  and  O7_21 
REMARK    9  A    between atoms: C24_31  and  C25_32 
REMARK   10  A    between atoms: C25_32  and  C27_34 
REMARK   11  A    between atoms: C27_34  and  C28_35 
REMARK   12  A    between atoms: C29_36  and  C30_37 
REMARK   13  A    between atoms: C30_37  and  O8_40 
ROOT
HETATM    1  C2  UNL     1      -0.447   8.439  16.563  1.00  0.00     0.149 C 
HETATM    2  C3  UNL     1      -0.428   7.425  15.457  1.00  0.00     0.009 C 
HETATM    3  C4  UNL     1      -0.749   7.708  14.178  1.00  0.00    -0.066 C 
HETATM    4  C5  UNL     1      -1.218   9.131  13.875  1.00  0.00     0.024 C 
HETATM    5  C6  UNL     1      -1.749   9.296  12.437  1.00  0.00     0.012 C 
HETATM    6  C7  UNL     1      -0.856   8.699  11.351  1.00  0.00     0.034 C 
HETATM    7  C8  UNL     1       0.060   7.556  11.803  1.00  0.00     0.136 C 
HETATM    8  C15 UNL     1      -0.524   6.740  13.002  1.00  0.00     0.002 C 
HETATM    9  C16 UNL     1       0.497   5.618  13.345  1.00  0.00     0.022 C 
HETATM   10  C17 UNL     1      -1.840   6.020  12.635  1.00  0.00     0.022 C 
HETATM   11  C18 UNL     1      -2.224   9.663  14.984  1.00  0.00    -0.030 C 
HETATM   12  C19 UNL     1      -3.546   8.840  14.907  1.00  0.00     0.016 C 
HETATM   13  C20 UNL     1      -2.593  11.155  14.685  1.00  0.00     0.011 C 
HETATM   14  C21 UNL     1      -3.180  12.013  15.828  1.00  0.00     0.011 C 
HETATM   15  C22 UNL     1      -2.718  11.640  17.250  1.00  0.00    -0.032 C 
HETATM   16  C23 UNL     1      -3.891  10.880  17.952  1.00  0.00     0.016 C 
HETATM   17  C24 UNL     1      -2.302  12.820  18.201  1.00  0.00    -0.002 C 
HETATM   18  C33 UNL     1      -1.400  12.102  19.249  1.00  0.00     0.006 C 
HETATM   19  C34 UNL     1      -0.997  10.739  18.652  1.00  0.00     0.011 C 
HETATM   20  C35 UNL     1      -1.362  10.840  17.161  1.00  0.00    -0.029 C 
HETATM   21  C36 UNL     1      -0.217  11.657  16.463  1.00  0.00     0.016 C 
HETATM   22  C37 UNL     1      -1.607   9.476  16.441  1.00  0.00     0.036 C 
ENDROOT
BRANCH   7  23
HETATM   23  O2  UNL     1       0.349   6.664  10.712  1.00  0.00    -0.352 OA
BRANCH  23  24
HETATM   24  C9  UNL     1       1.710   6.702  10.252  1.00  0.00     0.292 C 
HETATM   25  O3  UNL     1       2.194   5.379  10.022  1.00  0.00    -0.348 OA
HETATM   26  C10 UNL     1       3.569   5.353   9.600  1.00  0.00     0.179 C 
HETATM   27  C12 UNL     1       4.494   6.003  10.650  1.00  0.00     0.180 C 
HETATM   28  C13 UNL     1       4.002   7.416  10.978  1.00  0.00     0.183 C 
HETATM   29  C14 UNL     1       2.527   7.365  11.381  1.00  0.00     0.204 C 
BRANCH  26  30
HETATM   30  C11 UNL     1       3.969   3.892   9.330  1.00  0.00     0.198 C 
BRANCH  30  31
HETATM   31  O4  UNL     1       5.329   3.652   9.696  1.00  0.00    -0.398 OA
HETATM   32  H16 UNL     1       5.552   2.756   9.389  1.00  0.00     0.209 HD
ENDBRANCH  30  31
ENDBRANCH  26  30
BRANCH  27  33
HETATM   33  O5  UNL     1       5.838   6.091  10.151  1.00  0.00    -0.390 OA
HETATM   34  H18 UNL     1       6.414   6.252  10.924  1.00  0.00     0.210 HD
ENDBRANCH  27  33
BRANCH  28  35
HETATM   35  O6  UNL     1       4.192   8.249   9.817  1.00  0.00    -0.390 OA
HETATM   36  H20 UNL     1       5.104   8.077   9.512  1.00  0.00     0.210 HD
ENDBRANCH  28  35
BRANCH  29  37
HETATM   37  O7  UNL     1       2.037   8.677  11.694  1.00  0.00    -0.388 OA
HETATM   38  H22 UNL     1       1.066   8.594  11.691  1.00  0.00     0.210 HD
ENDBRANCH  29  37
ENDBRANCH  23  24
ENDBRANCH   7  23
BRANCH   1  39
HETATM   39  O1  UNL     1       0.835   9.072  16.581  1.00  0.00    -0.386 OA
HETATM   40  C1  UNL     1       1.910   8.207  16.239  1.00  0.00     0.202 C 
ENDBRANCH   1  39
BRANCH  17  41
HETATM   41  C25 UNL     1      -3.406  13.701  18.859  1.00  0.00    -0.010 C 
HETATM   42  C26 UNL     1      -2.813  14.841  19.696  1.00  0.00     0.010 C 
BRANCH  41  43
HETATM   43  C27 UNL     1      -4.406  12.881  19.720  1.00  0.00     0.031 C 
BRANCH  43  44
HETATM   44  C28 UNL     1      -5.400  13.698  20.503  1.00  0.00    -0.027 C 
HETATM   45  C29 UNL     1      -5.888  13.332  21.702  1.00  0.00     0.006 C 
BRANCH  45  46
HETATM   46  C30 UNL     1      -6.883  14.084  22.561  1.00  0.00     0.068 C 
HETATM   47  C31 UNL     1      -7.726  13.088  23.365  1.00  0.00     0.050 C 
HETATM   48  C32 UNL     1      -6.281  15.131  23.504  1.00  0.00     0.050 C 
BRANCH  46  49
HETATM   49  O8  UNL     1      -7.754  14.793  21.676  1.00  0.00    -0.387 OA
HETATM   50  H54 UNL     1      -8.110  14.156  21.035  1.00  0.00     0.211 HD
ENDBRANCH  46  49
ENDBRANCH  45  46
ENDBRANCH  43  44
ENDBRANCH  41  43
ENDBRANCH  17  41
TORSDOF 13
ENDMDL
MODEL 6
REMARK minimizedAffinity -8.06005001
REMARK CNNscore 0.209435254
REMARK CNNaffinity 5.74512482
REMARK  13 active torsions:
REMARK  status: ('A' for Active; 'I' for Inactive)
REMARK    1  A    between atoms: O1_2  and  C2_3 
REMARK    2  A    between atoms: C8_9  and  O2_10 
REMARK    3  A    between atoms: O2_10  and  C9_11 
REMARK    4  A    between atoms: C10_13  and  C11_14 
REMARK    5  A    between atoms: C11_14  and  O4_15 
REMARK    6  A    between atoms: C12_16  and  O5_17 
REMARK    7  A    between atoms: C13_18  and  O6_19 
REMARK    8  A    between atoms: C14_20  and  O7_21 
REMARK    9  A    between atoms: C24_31  and  C25_32 
REMARK   10  A    between atoms: C25_32  and  C27_34 
REMARK   11  A    between atoms: C27_34  and  C28_35 
REMARK   12  A    between atoms: C29_36  and  C30_37 
REMARK   13  A    between atoms: C30_37  and  O8_40 
ROOT
HETATM    1  C2  UNL     1       1.906  11.066  21.188  1.00  0.00     0.149 C 
HETATM    2  C3  UNL     1       0.669  11.024  20.340  1.00  0.00     0.009 C 
HETATM    3  C4  UNL     1       0.673  11.206  19.004  1.00  0.00    -0.066 C 
HETATM    4  C5  UNL     1       2.014  11.538  18.348  1.00  0.00     0.024 C 
HETATM    5  C6  UNL     1       1.878  11.924  16.862  1.00  0.00     0.012 C 
HETATM    6  C7  UNL     1       1.005  10.984  16.032  1.00  0.00     0.034 C 
HETATM    7  C8  UNL     1      -0.053  10.200  16.817  1.00  0.00     0.136 C 
HETATM    8  C15 UNL     1      -0.545  10.949  18.098  1.00  0.00     0.002 C 
HETATM    9  C16 UNL     1      -1.613  10.050  18.783  1.00  0.00     0.022 C 
HETATM   10  C17 UNL     1      -1.260  12.277  17.763  1.00  0.00     0.022 C 
HETATM   11  C18 UNL     1       2.835  12.597  19.203  1.00  0.00    -0.030 C 
HETATM   12  C19 UNL     1       2.085  13.965  19.170  1.00  0.00     0.016 C 
HETATM   13  C20 UNL     1       4.238  12.825  18.546  1.00  0.00     0.011 C 
HETATM   14  C21 UNL     1       5.361  13.448  19.406  1.00  0.00     0.011 C 
HETATM   15  C22 UNL     1       5.295  13.145  20.915  1.00  0.00    -0.032 C 
HETATM   16  C23 UNL     1       4.776  14.430  21.640  1.00  0.00     0.016 C 
HETATM   17  C24 UNL     1       6.635  12.730  21.623  1.00  0.00    -0.002 C 
HETATM   18  C33 UNL     1       6.125  11.981  22.891  1.00  0.00     0.006 C 
HETATM   19  C34 UNL     1       4.644  11.629  22.653  1.00  0.00     0.011 C 
HETATM   20  C35 UNL     1       4.425  11.850  21.146  1.00  0.00    -0.029 C 
HETATM   21  C36 UNL     1       5.002  10.589  20.410  1.00  0.00     0.016 C 
HETATM   22  C37 UNL     1       2.948  12.130  20.721  1.00  0.00     0.036 C 
ENDROOT
BRANCH   7  23
HETATM   23  O2  UNL     1      -1.182   9.881  15.984  1.00  0.00    -0.352 OA
BRANCH  23  24
HETATM   24  C9  UNL     1      -1.033   8.681  15.209  1.00  0.00     0.292 C 
HETATM   25  O3  UNL     1      -0.895   8.997  13.824  1.00  0.00    -0.348 OA
HETATM   26  C10 UNL     1      -0.785   7.830  12.992  1.00  0.00     0.179 C 
HETATM   27  C12 UNL     1      -2.022   6.919  13.131  1.00  0.00     0.180 C 
HETATM   28  C13 UNL     1      -2.256   6.576  14.606  1.00  0.00     0.183 C 
HETATM   29  C14 UNL     1      -2.325   7.864  15.428  1.00  0.00     0.204 C 
BRANCH  26  30
HETATM   30  C11 UNL     1      -0.586   8.284  11.535  1.00  0.00     0.198 C 
BRANCH  30  31
HETATM   31  O4  UNL     1       0.611   9.048  11.390  1.00  0.00    -0.398 OA
HETATM   32  H16 UNL     1       0.613   9.405  10.484  1.00  0.00     0.209 HD
ENDBRANCH  30  31
ENDBRANCH  26  30
BRANCH  27  33
HETATM   33  O5  UNL     1      -1.833   5.696  12.402  1.00  0.00    -0.390 OA
HETATM   34  H18 UNL     1      -2.715   5.290  12.302  1.00  0.00     0.210 HD
ENDBRANCH  27  33
BRANCH  28  35
HETATM   35  O6  UNL     1      -1.180   5.732  15.057  1.00  0.00    -0.390 OA
HETATM   36  H20 UNL     1      -1.080   5.039  14.374  1.00  0.00     0.210 HD
ENDBRANCH  28  35
BRANCH  29  37
HETATM   37  O7  UNL     1      -2.544   7.574  16.816  1.00  0.00    -0.388 OA
HETATM   38  H22 UNL     1      -2.326   8.400  17.286  1.00  0.00     0.210 HD
ENDBRANCH  29  37
ENDBRANCH  23  24
ENDBRANCH   7  23
BRANCH   1  39
HETATM   39  O1  UNL     1       2.459   9.748  21.201  1.00  0.00    -0.386 OA
HETATM   40  C1  UNL     1       2.139   9.000  22.367  1.00  0.00     0.202 C 
ENDBRANCH   1  39
BRANCH  17  41
HETATM   41  C25 UNL     1       7.698  13.819  21.953  1.00  0.00    -0.010 C 
HETATM   42  C26 UNL     1       9.131  13.308  21.758  1.00  0.00     0.010 C 
BRANCH  41  43
HETATM   43  C27 UNL     1       7.541  14.411  23.380  1.00  0.00     0.031 C 
BRANCH  43  44
HETATM   44  C28 UNL     1       8.634  15.355  23.809  1.00  0.00    -0.027 C 
HETATM   45  C29 UNL     1       8.702  16.642  23.425  1.00  0.00     0.006 C 
BRANCH  45  46
HETATM   46  C30 UNL     1       9.755  17.663  23.803  1.00  0.00     0.068 C 
HETATM   47  C31 UNL     1       9.562  18.936  22.974  1.00  0.00     0.050 C 
HETATM   48  C32 UNL     1       9.821  18.020  25.292  1.00  0.00     0.050 C 
BRANCH  46  49
HETATM   49  O8  UNL     1      11.027  17.101  23.468  1.00  0.00    -0.387 OA
HETATM   50  H54 UNL     1      10.993  16.819  22.539  1.00  0.00     0.211 HD
ENDBRANCH  46  49
ENDBRANCH  45  46
ENDBRANCH  43  44
ENDBRANCH  41  43
ENDBRANCH  17  41
TORSDOF 13
ENDMDL
MODEL 7
REMARK minimizedAffinity -10.1082621
REMARK CNNscore 0.206575155
REMARK CNNaffinity 7.34232569
REMARK  13 active torsions:
REMARK  status: ('A' for Active; 'I' for Inactive)
REMARK    1  A    between atoms: O1_2  and  C2_3 
REMARK    2  A    between atoms: C8_9  and  O2_10 
REMARK    3  A    between atoms: O2_10  and  C9_11 
REMARK    4  A    between atoms: C10_13  and  C11_14 
REMARK    5  A    between atoms: C11_14  and  O4_15 
REMARK    6  A    between atoms: C12_16  and  O5_17 
REMARK    7  A    between atoms: C13_18  and  O6_19 
REMARK    8  A    between atoms: C14_20  and  O7_21 
REMARK    9  A    between atoms: C24_31  and  C25_32 
REMARK   10  A    between atoms: C25_32  and  C27_34 
REMARK   11  A    between atoms: C27_34  and  C28_35 
REMARK   12  A    between atoms: C29_36  and  C30_37 
REMARK   13  A    between atoms: C30_37  and  O8_40 
ROOT
HETATM    1  C2  UNL     1      -2.484   9.291  15.361  1.00  0.00     0.149 C 
HETATM    2  C3  UNL     1      -0.987   9.334  15.278  1.00  0.00     0.009 C 
HETATM    3  C4  UNL     1      -0.272   8.690  14.333  1.00  0.00    -0.066 C 
HETATM    4  C5  UNL     1      -1.047   7.820  13.344  1.00  0.00     0.024 C 
HETATM    5  C6  UNL     1      -0.130   6.973  12.439  1.00  0.00     0.012 C 
HETATM    6  C7  UNL     1       1.030   7.739  11.806  1.00  0.00     0.034 C 
HETATM    7  C8  UNL     1       1.488   8.991  12.564  1.00  0.00     0.136 C 
HETATM    8  C15 UNL     1       1.236   8.901  14.104  1.00  0.00     0.002 C 
HETATM    9  C16 UNL     1       1.753  10.222  14.740  1.00  0.00     0.022 C 
HETATM   10  C17 UNL     1       2.047   7.765  14.766  1.00  0.00     0.022 C 
HETATM   11  C18 UNL     1      -2.175   6.969  14.073  1.00  0.00    -0.030 C 
HETATM   12  C19 UNL     1      -1.494   5.915  15.000  1.00  0.00     0.016 C 
HETATM   13  C20 UNL     1      -3.005   6.177  13.007  1.00  0.00     0.011 C 
HETATM   14  C21 UNL     1      -4.400   5.645  13.407  1.00  0.00     0.011 C 
HETATM   15  C22 UNL     1      -5.157   6.477  14.460  1.00  0.00    -0.032 C 
HETATM   16  C23 UNL     1      -5.078   5.712  15.822  1.00  0.00     0.016 C 
HETATM   17  C24 UNL     1      -6.676   6.769  14.186  1.00  0.00    -0.002 C 
HETATM   18  C33 UNL     1      -6.939   8.025  15.071  1.00  0.00     0.006 C 
HETATM   19  C34 UNL     1      -5.568   8.626  15.434  1.00  0.00     0.011 C 
HETATM   20  C35 UNL     1      -4.573   7.942  14.482  1.00  0.00    -0.029 C 
HETATM   21  C36 UNL     1      -4.694   8.666  13.094  1.00  0.00     0.016 C 
HETATM   22  C37 UNL     1      -3.092   7.907  14.977  1.00  0.00     0.036 C 
ENDROOT
BRANCH   7  23
HETATM   23  O2  UNL     1       2.880   9.260  12.321  1.00  0.00    -0.352 OA
BRANCH  23  24
HETATM   24  C9  UNL     1       3.680   8.093  12.067  1.00  0.00     0.292 C 
HETATM   25  O3  UNL     1       4.866   8.122  12.859  1.00  0.00    -0.348 OA
HETATM   26  C10 UNL     1       5.729   6.998  12.615  1.00  0.00     0.179 C 
HETATM   27  C12 UNL     1       6.168   6.933  11.137  1.00  0.00     0.180 C 
HETATM   28  C13 UNL     1       4.936   6.945  10.225  1.00  0.00     0.183 C 
HETATM   29  C14 UNL     1       4.054   8.146  10.570  1.00  0.00     0.204 C 
BRANCH  26  30
HETATM   30  C11 UNL     1       6.943   7.099  13.554  1.00  0.00     0.198 C 
BRANCH  30  31
HETATM   31  O4  UNL     1       8.094   7.584  12.863  1.00  0.00    -0.398 OA
HETATM   32  H16 UNL     1       8.847   7.507  13.474  1.00  0.00     0.209 HD
ENDBRANCH  30  31
ENDBRANCH  26  30
BRANCH  27  33
HETATM   33  O5  UNL     1       6.912   5.731  10.885  1.00  0.00    -0.390 OA
HETATM   34  H18 UNL     1       7.380   5.864  10.038  1.00  0.00     0.210 HD
ENDBRANCH  27  33
BRANCH  28  35
HETATM   35  O6  UNL     1       4.219   5.708  10.405  1.00  0.00    -0.390 OA
HETATM   36  H20 UNL     1       4.892   5.000  10.357  1.00  0.00     0.210 HD
ENDBRANCH  28  35
BRANCH  29  37
HETATM   37  O7  UNL     1       2.891   8.184   9.730  1.00  0.00    -0.388 OA
HETATM   38  H22 UNL     1       2.280   8.804  10.169  1.00  0.00     0.210 HD
ENDBRANCH  29  37
ENDBRANCH  23  24
ENDBRANCH   7  23
BRANCH   1  39
HETATM   39  O1  UNL     1      -2.987  10.343  14.534  1.00  0.00    -0.386 OA
HETATM   40  C1  UNL     1      -3.251  11.552  15.234  1.00  0.00     0.202 C 
ENDBRANCH   1  39
BRANCH  17  41
HETATM   41  C25 UNL     1      -7.728   5.642  14.413  1.00  0.00    -0.010 C 
HETATM   42  C26 UNL     1      -7.293   4.656  15.504  1.00  0.00     0.010 C 
BRANCH  41  43
HETATM   43  C27 UNL     1      -8.080   4.868  13.114  1.00  0.00     0.031 C 
BRANCH  43  44
HETATM   44  C28 UNL     1      -7.143   3.742  12.762  1.00  0.00    -0.027 C 
HETATM   45  C29 UNL     1      -6.525   3.629  11.573  1.00  0.00     0.006 C 
BRANCH  45  46
HETATM   46  C30 UNL     1      -5.570   2.540  11.129  1.00  0.00     0.068 C 
HETATM   47  C31 UNL     1      -4.235   2.694  11.865  1.00  0.00     0.050 C 
HETATM   48  C32 UNL     1      -6.086   1.106  11.289  1.00  0.00     0.050 C 
BRANCH  46  49
HETATM   49  O8  UNL     1      -5.334   2.730   9.731  1.00  0.00    -0.387 OA
HETATM   50  H54 UNL     1      -5.053   3.650   9.599  1.00  0.00     0.211 HD
ENDBRANCH  46  49
ENDBRANCH  45  46
ENDBRANCH  43  44
ENDBRANCH  41  43
ENDBRANCH  17  41
TORSDOF 13
ENDMDL
MODEL 8
REMARK minimizedAffinity -8.35514545
REMARK CNNscore 0.191445723
REMARK CNNaffinity 7.22477007
REMARK  13 active torsions:
REMARK  status: ('A' for Active; 'I' for Inactive)
REMARK    1  A    between atoms: O1_2  and  C2_3 
REMARK    2  A    between atoms: C8_9  and  O2_10 
REMARK    3  A    between atoms: O2_10  and  C9_11 
REMARK    4  A    between atoms: C10_13  and  C11_14 
REMARK    5  A    between atoms: C11_14  and  O4_15 
REMARK    6  A    between atoms: C12_16  and  O5_17 
REMARK    7  A    between atoms: C13_18  and  O6_19 
REMARK    8  A    between atoms: C14_20  and  O7_21 
REMARK    9  A    between atoms: C24_31  and  C25_32 
REMARK   10  A    between atoms: C25_32  and  C27_34 
REMARK   11  A    between atoms: C27_34  and  C28_35 
REMARK   12  A    between atoms: C29_36  and  C30_37 
REMARK   13  A    between atoms: C30_37  and  O8_40 
ROOT
HETATM    1  C2  UNL     1      -2.138   9.319  15.607  1.00  0.00     0.149 C 
HETATM    2  C3  UNL     1      -0.652   9.223  15.792  1.00  0.00     0.009 C 
HETATM    3  C4  UNL     1       0.155   8.492  14.997  1.00  0.00    -0.066 C 
HETATM    4  C5  UNL     1      -0.511   7.672  13.892  1.00  0.00     0.024 C 
HETATM    5  C6  UNL     1       0.468   6.722  13.174  1.00  0.00     0.012 C 
HETATM    6  C7  UNL     1       1.789   7.362  12.751  1.00  0.00     0.034 C 
HETATM    7  C8  UNL     1       2.221   8.587  13.568  1.00  0.00     0.136 C 
HETATM    8  C15 UNL     1       1.692   8.560  15.039  1.00  0.00     0.002 C 
HETATM    9  C16 UNL     1       2.211   9.844  15.744  1.00  0.00     0.022 C 
HETATM   10  C17 UNL     1       2.263   7.372  15.845  1.00  0.00     0.022 C 
HETATM   11  C18 UNL     1      -1.825   6.946  14.415  1.00  0.00    -0.030 C 
HETATM   12  C19 UNL     1      -1.422   5.859  15.459  1.00  0.00     0.016 C 
HETATM   13  C20 UNL     1      -2.524   6.205  13.226  1.00  0.00     0.011 C 
HETATM   14  C21 UNL     1      -4.011   5.813  13.374  1.00  0.00     0.011 C 
HETATM   15  C22 UNL     1      -4.861   6.737  14.268  1.00  0.00    -0.032 C 
HETATM   16  C23 UNL     1      -5.097   6.003  15.629  1.00  0.00     0.016 C 
HETATM   17  C24 UNL     1      -6.274   7.158  13.724  1.00  0.00    -0.002 C 
HETATM   18  C33 UNL     1      -6.570   8.455  14.536  1.00  0.00     0.006 C 
HETATM   19  C34 UNL     1      -5.235   8.939  15.133  1.00  0.00     0.011 C 
HETATM   20  C35 UNL     1      -4.156   8.143  14.380  1.00  0.00    -0.029 C 
HETATM   21  C36 UNL     1      -3.960   8.839  12.986  1.00  0.00     0.016 C 
HETATM   22  C37 UNL     1      -2.796   7.986  15.132  1.00  0.00     0.036 C 
ENDROOT
BRANCH   7  23
HETATM   23  O2  UNL     1       3.653   8.722  13.575  1.00  0.00    -0.352 OA
BRANCH  23  24
HETATM   24  C9  UNL     1       4.132   9.984  14.068  1.00  0.00     0.292 C 
HETATM   25  O3  UNL     1       4.208  10.936  13.008  1.00  0.00    -0.348 OA
HETATM   26  C10 UNL     1       4.722  12.209  13.435  1.00  0.00     0.179 C 
HETATM   27  C12 UNL     1       6.140  12.074  14.030  1.00  0.00     0.180 C 
HETATM   28  C13 UNL     1       6.139  11.027  15.150  1.00  0.00     0.183 C 
HETATM   29  C14 UNL     1       5.545   9.718  14.629  1.00  0.00     0.204 C 
BRANCH  26  30
HETATM   30  C11 UNL     1       4.710  13.170  12.234  1.00  0.00     0.198 C 
BRANCH  30  31
HETATM   31  O4  UNL     1       5.966  13.167  11.555  1.00  0.00    -0.398 OA
HETATM   32  H16 UNL     1       5.933  13.877  10.891  1.00  0.00     0.209 HD
ENDBRANCH  30  31
ENDBRANCH  26  30
BRANCH  27  33
HETATM   33  O5  UNL     1       6.579  13.327  14.576  1.00  0.00    -0.390 OA
HETATM   34  H18 UNL     1       7.547  13.259  14.689  1.00  0.00     0.210 HD
ENDBRANCH  27  33
BRANCH  28  35
HETATM   35  O6  UNL     1       5.371  11.540  16.256  1.00  0.00    -0.390 OA
HETATM   36  H20 UNL     1       5.688  12.453  16.401  1.00  0.00     0.210 HD
ENDBRANCH  28  35
BRANCH  29  37
HETATM   37  O7  UNL     1       5.532   8.717  15.657  1.00  0.00    -0.388 OA
HETATM   38  H22 UNL     1       4.928   8.025  15.332  1.00  0.00     0.210 HD
ENDBRANCH  29  37
ENDBRANCH  23  24
ENDBRANCH   7  23
BRANCH   1  39
HETATM   39  O1  UNL     1      -2.385  10.390  14.693  1.00  0.00    -0.386 OA
HETATM   40  C1  UNL     1      -1.634  11.566  14.967  1.00  0.00     0.202 C 
ENDBRANCH   1  39
BRANCH  17  41
HETATM   41  C25 UNL     1      -7.450   6.138  13.769  1.00  0.00    -0.010 C 
HETATM   42  C26 UNL     1      -8.403   6.404  14.941  1.00  0.00     0.010 C 
BRANCH  41  43
HETATM   43  C27 UNL     1      -6.973   4.660  13.804  1.00  0.00     0.031 C 
BRANCH  43  44
HETATM   44  C28 UNL     1      -6.145   4.224  12.624  1.00  0.00    -0.027 C 
HETATM   45  C29 UNL     1      -5.758   2.953  12.412  1.00  0.00     0.006 C 
BRANCH  45  46
HETATM   46  C30 UNL     1      -4.930   2.421  11.261  1.00  0.00     0.068 C 
HETATM   47  C31 UNL     1      -5.211   3.244  10.000  1.00  0.00     0.050 C 
HETATM   48  C32 UNL     1      -3.420   2.356  11.511  1.00  0.00     0.050 C 
BRANCH  46  49
HETATM   49  O8  UNL     1      -5.356   1.076  11.021  1.00  0.00    -0.387 OA
HETATM   50  H54 UNL     1      -6.321   1.086  10.910  1.00  0.00     0.211 HD
ENDBRANCH  46  49
ENDBRANCH  45  46
ENDBRANCH  43  44
ENDBRANCH  41  43
ENDBRANCH  17  41
TORSDOF 13
ENDMDL
MODEL 9
REMARK minimizedAffinity -7.70167875
REMARK CNNscore 0.18670474
REMARK CNNaffinity 6.78678274
REMARK  13 active torsions:
REMARK  status: ('A' for Active; 'I' for Inactive)
REMARK    1  A    between atoms: O1_2  and  C2_3 
REMARK    2  A    between atoms: C8_9  and  O2_10 
REMARK    3  A    between atoms: O2_10  and  C9_11 
REMARK    4  A    between atoms: C10_13  and  C11_14 
REMARK    5  A    between atoms: C11_14  and  O4_15 
REMARK    6  A    between atoms: C12_16  and  O5_17 
REMARK    7  A    between atoms: C13_18  and  O6_19 
REMARK    8  A    between atoms: C14_20  and  O7_21 
REMARK    9  A    between atoms: C24_31  and  C25_32 
REMARK   10  A    between atoms: C25_32  and  C27_34 
REMARK   11  A    between atoms: C27_34  and  C28_35 
REMARK   12  A    between atoms: C29_36  and  C30_37 
REMARK   13  A    between atoms: C30_37  and  O8_40 
ROOT
HETATM    1  C2  UNL     1      -2.627   8.674  16.316  1.00  0.00     0.149 C 
HETATM    2  C3  UNL     1      -1.149   8.804  16.534  1.00  0.00     0.009 C 
HETATM    3  C4  UNL     1      -0.230   8.594  15.570  1.00  0.00    -0.066 C 
HETATM    4  C5  UNL     1      -0.743   8.134  14.205  1.00  0.00     0.024 C 
HETATM    5  C6  UNL     1       0.390   7.729  13.241  1.00  0.00     0.012 C 
HETATM    6  C7  UNL     1       1.548   8.723  13.158  1.00  0.00     0.034 C 
HETATM    7  C8  UNL     1       1.744   9.612  14.392  1.00  0.00     0.136 C 
HETATM    8  C15 UNL     1       1.264   8.936  15.718  1.00  0.00     0.002 C 
HETATM    9  C16 UNL     1       1.531   9.938  16.876  1.00  0.00     0.022 C 
HETATM   10  C17 UNL     1       2.078   7.667  16.057  1.00  0.00     0.022 C 
HETATM   11  C18 UNL     1      -1.874   7.026  14.350  1.00  0.00    -0.030 C 
HETATM   12  C19 UNL     1      -1.239   5.728  14.937  1.00  0.00     0.016 C 
HETATM   13  C20 UNL     1      -2.437   6.664  12.935  1.00  0.00     0.011 C 
HETATM   14  C21 UNL     1      -3.812   5.965  12.846  1.00  0.00     0.011 C 
HETATM   15  C22 UNL     1      -4.810   6.306  13.970  1.00  0.00    -0.032 C 
HETATM   16  C23 UNL     1      -4.865   5.086  14.947  1.00  0.00     0.016 C 
HETATM   17  C24 UNL     1      -6.290   6.619  13.544  1.00  0.00    -0.002 C 
HETATM   18  C33 UNL     1      -6.821   7.435  14.761  1.00  0.00     0.006 C 
HETATM   19  C34 UNL     1      -5.596   7.908  15.567  1.00  0.00     0.011 C 
HETATM   20  C35 UNL     1      -4.396   7.676  14.633  1.00  0.00    -0.029 C 
HETATM   21  C36 UNL     1      -4.374   8.866  13.609  1.00  0.00     0.016 C 
HETATM   22  C37 UNL     1      -3.016   7.515  15.347  1.00  0.00     0.036 C 
ENDROOT
BRANCH   7  23
HETATM   23  O2  UNL     1       3.121  10.008  14.527  1.00  0.00    -0.352 OA
BRANCH  23  24
HETATM   24  C9  UNL     1       3.348  11.424  14.430  1.00  0.00     0.292 C 
HETATM   25  O3  UNL     1       2.109  12.131  14.489  1.00  0.00    -0.348 OA
HETATM   26  C10 UNL     1       2.270  13.553  14.353  1.00  0.00     0.179 C 
HETATM   27  C12 UNL     1       2.943  13.920  13.013  1.00  0.00     0.180 C 
HETATM   28  C13 UNL     1       4.262  13.156  12.864  1.00  0.00     0.183 C 
HETATM   29  C14 UNL     1       4.014  11.659  13.058  1.00  0.00     0.204 C 
BRANCH  26  30
HETATM   30  C11 UNL     1       0.889  14.217  14.485  1.00  0.00     0.198 C 
BRANCH  30  31
HETATM   31  O4  UNL     1      -0.162  13.273  14.275  1.00  0.00    -0.398 OA
HETATM   32  H16 UNL     1      -0.995  13.775  14.249  1.00  0.00     0.209 HD
ENDBRANCH  30  31
ENDBRANCH  26  30
BRANCH  27  33
HETATM   33  O5  UNL     1       3.220  15.328  12.957  1.00  0.00    -0.390 OA
HETATM   34  H18 UNL     1       3.388  15.543  12.019  1.00  0.00     0.210 HD
ENDBRANCH  27  33
BRANCH  28  35
HETATM   35  O6  UNL     1       5.195  13.656  13.842  1.00  0.00    -0.390 OA
HETATM   36  H20 UNL     1       5.151  14.631  13.779  1.00  0.00     0.210 HD
ENDBRANCH  28  35
BRANCH  29  37
HETATM   37  O7  UNL     1       5.235  10.917  12.924  1.00  0.00    -0.388 OA
HETATM   38  H22 UNL     1       5.042  10.039  13.301  1.00  0.00     0.210 HD
ENDBRANCH  29  37
ENDBRANCH  23  24
ENDBRANCH   7  23
BRANCH   1  39
HETATM   39  O1  UNL     1      -3.102   9.939  15.852  1.00  0.00    -0.386 OA
HETATM   40  C1  UNL     1      -3.562  10.798  16.888  1.00  0.00     0.202 C 
ENDBRANCH   1  39
BRANCH  17  41
HETATM   41  C25 UNL     1      -7.238   5.449  13.144  1.00  0.00    -0.010 C 
HETATM   42  C26 UNL     1      -6.513   4.368  12.335  1.00  0.00     0.010 C 
BRANCH  41  43
HETATM   43  C27 UNL     1      -8.500   5.924  12.376  1.00  0.00     0.031 C 
BRANCH  43  44
HETATM   44  C28 UNL     1      -9.620   6.447  13.238  1.00  0.00    -0.027 C 
HETATM   45  C29 UNL     1     -10.750   6.988  12.748  1.00  0.00     0.006 C 
BRANCH  45  46
HETATM   46  C30 UNL     1     -11.925   7.535  13.531  1.00  0.00     0.068 C 
HETATM   47  C31 UNL     1     -12.723   6.379  14.142  1.00  0.00     0.050 C 
HETATM   48  C32 UNL     1     -11.573   8.553  14.621  1.00  0.00     0.050 C 
BRANCH  46  49
HETATM   49  O8  UNL     1     -12.770   8.218  12.601  1.00  0.00    -0.387 OA
HETATM   50  H54 UNL     1     -12.967   7.606  11.872  1.00  0.00     0.211 HD
ENDBRANCH  46  49
ENDBRANCH  45  46
ENDBRANCH  43  44
ENDBRANCH  41  43
ENDBRANCH  17  41
TORSDOF 13
ENDMDL
