MODEL 1
REMARK minimizedAffinity -8.8647871
REMARK CNNscore 0.79520756
REMARK CNNaffinity 7.14424515
REMARK  9 active torsions:
REMARK  status: ('A' for Active; 'I' for Inactive)
REMARK    1  A    between atoms: C2_2  and  C17_19 
REMARK    2  A    between atoms: C3_3  and  C4_4 
REMARK    3  A    between atoms: C4_4  and  C5_5 
REMARK    4  A    between atoms: C5_5  and  C6_6 
REMARK    5  A    between atoms: C12_12  and  O1_13 
REMARK    6  A    between atoms: C17_19  and  C18_20 
REMARK    7  A    between atoms: C18_20  and  C19_21 
REMARK    8  A    between atoms: C23_25  and  C24_26 
REMARK    9  A    between atoms: C24_26  and  O3_29 
ROOT
HETATM    1  C1  UNL     1      -2.604   7.516  15.538  1.00  0.00     0.043 C 
HETATM    2  C2  UNL     1      -2.804   7.852  14.084  1.00  0.00    -0.087 C 
HETATM    3  C3  UNL     1      -3.986   8.208  13.540  1.00  0.00    -0.024 C 
ENDROOT
BRANCH   2   4
HETATM    4  C17 UNL     1      -1.573   7.709  13.200  1.00  0.00     0.037 C 
BRANCH   4   5
HETATM    5  C18 UNL     1      -0.434   6.887  13.821  1.00  0.00     0.032 C 
BRANCH   5   6
HETATM    6  C19 UNL     1       0.931   7.183  13.252  1.00  0.00    -0.013 C 
HETATM    7  C20 UNL     1       1.401   6.935  12.011  1.00  0.00     0.013 C 
HETATM    8  C21 UNL     1       2.782   7.366  11.625  1.00  0.00     0.047 C 
HETATM    9  C27 UNL     1       0.587   6.243  10.977  1.00  0.00     0.289 C 
HETATM   10  C22 UNL     1       2.764   7.986  10.242  1.00  0.00     0.040 C 
HETATM   11  C23 UNL     1       2.239   6.946   9.260  1.00  0.00     0.166 C 
HETATM   12  O4  UNL     1       0.942   6.453   9.686  1.00  0.00    -0.309 OA
HETATM   13  O5  UNL     1      -0.379   5.541  11.245  1.00  0.00    -0.260 OA
BRANCH  11  14
HETATM   14  C24 UNL     1       2.077   7.481   7.809  1.00  0.00     0.077 C 
HETATM   15  C25 UNL     1       0.658   8.018   7.572  1.00  0.00     0.048 C 
HETATM   16  C26 UNL     1       2.397   6.414   6.758  1.00  0.00     0.048 C 
BRANCH  14  17
HETATM   17  O3  UNL     1       2.988   8.569   7.603  1.00  0.00    -0.388 OA
HETATM   18  H36 UNL     1       2.774   9.241   8.277  1.00  0.00     0.210 HD
ENDBRANCH  14  17
ENDBRANCH  11  14
ENDBRANCH   5   6
ENDBRANCH   4   5
ENDBRANCH   2   4
BRANCH   3  19
HETATM   19  C4  UNL     1      -5.308   8.398  14.237  1.00  0.00     0.030 C 
BRANCH  19  20
HETATM   20  C5  UNL     1      -6.344   7.387  13.725  1.00  0.00     0.046 C 
BRANCH  20  21
HETATM   21  C6  UNL     1      -6.370   6.049  14.502  1.00  0.00     0.082 C 
HETATM   22  C7  UNL     1      -6.096   6.261  15.998  1.00  0.00     0.051 C 
HETATM   23  C8  UNL     1      -7.748   5.434  14.363  1.00  0.00     0.012 C 
HETATM   24  C9  UNL     1      -7.988   4.332  13.647  1.00  0.00     0.013 C 
HETATM   25  C10 UNL     1      -6.865   3.704  12.966  1.00  0.00     0.000 A 
HETATM   26  C11 UNL     1      -7.076   2.616  12.112  1.00  0.00     0.050 A 
HETATM   27  C16 UNL     1      -5.566   4.181  13.181  1.00  0.00     0.086 A 
HETATM   28  C12 UNL     1      -5.987   2.019  11.482  1.00  0.00     0.067 A 
HETATM   29  C13 UNL     1      -4.694   2.485  11.694  1.00  0.00     0.046 A 
HETATM   30  C14 UNL     1      -4.468   3.569  12.552  1.00  0.00    -0.025 A 
HETATM   31  C15 UNL     1      -3.071   4.070  12.781  1.00  0.00     0.051 C 
HETATM   32  O2  UNL     1      -5.288   5.225  14.021  1.00  0.00    -0.335 OA
BRANCH  28  33
HETATM   33  O1  UNL     1      -6.148   0.957  10.641  1.00  0.00    -0.361 OA
HETATM   34  H15 UNL     1      -7.094   0.742  10.584  1.00  0.00     0.217 HD
ENDBRANCH  28  33
ENDBRANCH  20  21
ENDBRANCH  19  20
ENDBRANCH   3  19
TORSDOF 9
ENDMDL
MODEL 2
REMARK minimizedAffinity -9.00041771
REMARK CNNscore 0.741708159
REMARK CNNaffinity 6.76470137
REMARK  9 active torsions:
REMARK  status: ('A' for Active; 'I' for Inactive)
REMARK    1  A    between atoms: C2_2  and  C17_19 
REMARK    2  A    between atoms: C3_3  and  C4_4 
REMARK    3  A    between atoms: C4_4  and  C5_5 
REMARK    4  A    between atoms: C5_5  and  C6_6 
REMARK    5  A    between atoms: C12_12  and  O1_13 
REMARK    6  A    between atoms: C17_19  and  C18_20 
REMARK    7  A    between atoms: C18_20  and  C19_21 
REMARK    8  A    between atoms: C23_25  and  C24_26 
REMARK    9  A    between atoms: C24_26  and  O3_29 
ROOT
HETATM    1  C1  UNL     1       0.094   8.054  15.956  1.00  0.00     0.043 C 
HETATM    2  C2  UNL     1      -0.586   8.032  14.613  1.00  0.00    -0.087 C 
HETATM    3  C3  UNL     1      -1.788   7.465  14.377  1.00  0.00    -0.024 C 
ENDROOT
BRANCH   2   4
HETATM    4  C17 UNL     1       0.201   8.651  13.467  1.00  0.00     0.037 C 
BRANCH   4   5
HETATM    5  C18 UNL     1      -0.323   8.295  12.068  1.00  0.00     0.032 C 
BRANCH   5   6
HETATM    6  C19 UNL     1       0.700   8.423  10.967  1.00  0.00    -0.013 C 
HETATM    7  C20 UNL     1       1.742   7.613  10.684  1.00  0.00     0.013 C 
HETATM    8  C21 UNL     1       2.613   7.888   9.498  1.00  0.00     0.047 C 
HETATM    9  C27 UNL     1       2.070   6.422  11.512  1.00  0.00     0.289 C 
HETATM   10  C22 UNL     1       2.900   6.598   8.755  1.00  0.00     0.040 C 
HETATM   11  C23 UNL     1       3.596   5.641   9.714  1.00  0.00     0.166 C 
HETATM   12  O4  UNL     1       2.798   5.450  10.912  1.00  0.00    -0.309 OA
HETATM   13  O5  UNL     1       1.688   6.283  12.666  1.00  0.00    -0.260 OA
BRANCH  11  14
HETATM   14  C24 UNL     1       3.866   4.234   9.108  1.00  0.00     0.077 C 
HETATM   15  C25 UNL     1       5.309   3.784   9.377  1.00  0.00     0.048 C 
HETATM   16  C26 UNL     1       3.593   4.188   7.602  1.00  0.00     0.048 C 
BRANCH  14  17
HETATM   17  O3  UNL     1       2.996   3.278   9.729  1.00  0.00    -0.388 OA
HETATM   18  H36 UNL     1       3.179   3.317  10.686  1.00  0.00     0.210 HD
ENDBRANCH  14  17
ENDBRANCH  11  14
ENDBRANCH   5   6
ENDBRANCH   4   5
ENDBRANCH   2   4
BRANCH   3  19
HETATM   19  C4  UNL     1      -2.712   6.805  15.366  1.00  0.00     0.030 C 
BRANCH  19  20
HETATM   20  C5  UNL     1      -4.175   7.160  15.065  1.00  0.00     0.046 C 
BRANCH  20  21
HETATM   21  C6  UNL     1      -4.580   6.997  13.579  1.00  0.00     0.082 C 
HETATM   22  C7  UNL     1      -4.385   8.303  12.796  1.00  0.00     0.051 C 
HETATM   23  C8  UNL     1      -3.696   5.939  12.950  1.00  0.00     0.012 C 
HETATM   24  C9  UNL     1      -4.145   4.736  12.581  1.00  0.00     0.013 C 
HETATM   25  C10 UNL     1      -5.551   4.435  12.808  1.00  0.00     0.000 A 
HETATM   26  C11 UNL     1      -6.051   3.154  12.547  1.00  0.00     0.050 A 
HETATM   27  C16 UNL     1      -6.412   5.438  13.272  1.00  0.00     0.086 A 
HETATM   28  C12 UNL     1      -7.402   2.890  12.754  1.00  0.00     0.067 A 
HETATM   29  C13 UNL     1      -8.262   3.883  13.211  1.00  0.00     0.046 A 
HETATM   30  C14 UNL     1      -7.777   5.171  13.470  1.00  0.00    -0.025 A 
HETATM   31  C15 UNL     1      -8.709   6.242  13.961  1.00  0.00     0.051 C 
HETATM   32  O2  UNL     1      -5.993   6.717  13.523  1.00  0.00    -0.335 OA
BRANCH  28  33
HETATM   33  O1  UNL     1      -7.929   1.655  12.515  1.00  0.00    -0.361 OA
HETATM   34  H15 UNL     1      -7.221   1.066  12.205  1.00  0.00     0.217 HD
ENDBRANCH  28  33
ENDBRANCH  20  21
ENDBRANCH  19  20
ENDBRANCH   3  19
TORSDOF 9
ENDMDL
MODEL 3
REMARK minimizedAffinity -8.9384346
REMARK CNNscore 0.724488914
REMARK CNNaffinity 7.14627457
REMARK  9 active torsions:
REMARK  status: ('A' for Active; 'I' for Inactive)
REMARK    1  A    between atoms: C2_2  and  C17_19 
REMARK    2  A    between atoms: C3_3  and  C4_4 
REMARK    3  A    between atoms: C4_4  and  C5_5 
REMARK    4  A    between atoms: C5_5  and  C6_6 
REMARK    5  A    between atoms: C12_12  and  O1_13 
REMARK    6  A    between atoms: C17_19  and  C18_20 
REMARK    7  A    between atoms: C18_20  and  C19_21 
REMARK    8  A    between atoms: C23_25  and  C24_26 
REMARK    9  A    between atoms: C24_26  and  O3_29 
ROOT
HETATM    1  C1  UNL     1      -6.923   8.509  15.147  1.00  0.00     0.043 C 
HETATM    2  C2  UNL     1      -8.132   7.792  15.686  1.00  0.00    -0.087 C 
HETATM    3  C3  UNL     1      -8.186   6.465  15.929  1.00  0.00    -0.024 C 
ENDROOT
BRANCH   2   4
HETATM    4  C17 UNL     1      -9.368   8.654  15.896  1.00  0.00     0.037 C 
BRANCH   4   5
HETATM    5  C18 UNL     1     -10.255   8.812  14.652  1.00  0.00     0.032 C 
BRANCH   5   6
HETATM    6  C19 UNL     1     -11.220   7.675  14.425  1.00  0.00    -0.013 C 
HETATM    7  C20 UNL     1     -12.561   7.721  14.283  1.00  0.00     0.013 C 
HETATM    8  C21 UNL     1     -13.334   6.470  14.002  1.00  0.00     0.047 C 
HETATM    9  C27 UNL     1     -13.329   8.990  14.385  1.00  0.00     0.289 C 
HETATM   10  C22 UNL     1     -14.371   6.731  12.927  1.00  0.00     0.040 C 
HETATM   11  C23 UNL     1     -15.301   7.831  13.418  1.00  0.00     0.166 C 
HETATM   12  O4  UNL     1     -14.543   9.013  13.787  1.00  0.00    -0.309 OA
HETATM   13  O5  UNL     1     -12.897   9.989  14.946  1.00  0.00    -0.260 OA
BRANCH  11  14
HETATM   14  C24 UNL     1     -16.363   8.270  12.369  1.00  0.00     0.077 C 
HETATM   15  C25 UNL     1     -16.704   9.759  12.516  1.00  0.00     0.048 C 
HETATM   16  C26 UNL     1     -17.648   7.443  12.464  1.00  0.00     0.048 C 
BRANCH  14  17
HETATM   17  O3  UNL     1     -15.829   8.080  11.052  1.00  0.00    -0.388 OA
HETATM   18  H36 UNL     1     -15.012   8.610  11.004  1.00  0.00     0.210 HD
ENDBRANCH  14  17
ENDBRANCH  11  14
ENDBRANCH   5   6
ENDBRANCH   4   5
ENDBRANCH   2   4
BRANCH   3  19
HETATM   19  C4  UNL     1      -7.083   5.450  15.782  1.00  0.00     0.030 C 
BRANCH  19  20
HETATM   20  C5  UNL     1      -7.386   4.481  14.629  1.00  0.00     0.046 C 
BRANCH  20  21
HETATM   21  C6  UNL     1      -6.899   4.966  13.242  1.00  0.00     0.082 C 
HETATM   22  C7  UNL     1      -8.012   5.702  12.481  1.00  0.00     0.051 C 
HETATM   23  C8  UNL     1      -5.752   5.936  13.443  1.00  0.00     0.012 C 
HETATM   24  C9  UNL     1      -4.488   5.650  13.118  1.00  0.00     0.013 C 
HETATM   25  C10 UNL     1      -4.211   4.337  12.554  1.00  0.00     0.000 A 
HETATM   26  C11 UNL     1      -2.892   3.941  12.302  1.00  0.00     0.050 A 
HETATM   27  C16 UNL     1      -5.270   3.474  12.245  1.00  0.00     0.086 A 
HETATM   28  C12 UNL     1      -2.647   2.688  11.747  1.00  0.00     0.067 A 
HETATM   29  C13 UNL     1      -3.694   1.828  11.434  1.00  0.00     0.046 A 
HETATM   30  C14 UNL     1      -5.019   2.214  11.675  1.00  0.00    -0.025 A 
HETATM   31  C15 UNL     1      -6.148   1.284  11.335  1.00  0.00     0.051 C 
HETATM   32  O2  UNL     1      -6.582   3.809  12.444  1.00  0.00    -0.335 OA
BRANCH  28  33
HETATM   33  O1  UNL     1      -1.378   2.262  11.487  1.00  0.00    -0.361 OA
HETATM   34  H15 UNL     1      -0.753   2.956  11.755  1.00  0.00     0.217 HD
ENDBRANCH  28  33
ENDBRANCH  20  21
ENDBRANCH  19  20
ENDBRANCH   3  19
TORSDOF 9
ENDMDL
MODEL 4
REMARK minimizedAffinity -9.20991993
REMARK CNNscore 0.668080509
REMARK CNNaffinity 7.01591539
REMARK  9 active torsions:
REMARK  status: ('A' for Active; 'I' for Inactive)
REMARK    1  A    between atoms: C2_2  and  C17_19 
REMARK    2  A    between atoms: C3_3  and  C4_4 
REMARK    3  A    between atoms: C4_4  and  C5_5 
REMARK    4  A    between atoms: C5_5  and  C6_6 
REMARK    5  A    between atoms: C12_12  and  O1_13 
REMARK    6  A    between atoms: C17_19  and  C18_20 
REMARK    7  A    between atoms: C18_20  and  C19_21 
REMARK    8  A    between atoms: C23_25  and  C24_26 
REMARK    9  A    between atoms: C24_26  and  O3_29 
ROOT
HETATM    1  C1  UNL     1      -2.943  10.293  15.692  1.00  0.00     0.043 C 
HETATM    2  C2  UNL     1      -3.061   8.833  15.342  1.00  0.00    -0.087 C 
HETATM    3  C3  UNL     1      -4.232   8.182  15.178  1.00  0.00    -0.024 C 
ENDROOT
BRANCH   2   4
HETATM    4  C17 UNL     1      -1.748   8.073  15.234  1.00  0.00     0.037 C 
BRANCH   4   5
HETATM    5  C18 UNL     1      -0.984   8.300  13.921  1.00  0.00     0.032 C 
BRANCH   5   6
HETATM    6  C19 UNL     1      -0.467   7.040  13.274  1.00  0.00    -0.013 C 
HETATM    7  C20 UNL     1      -0.074   6.845  11.997  1.00  0.00     0.013 C 
HETATM    8  C21 UNL     1       0.469   5.518  11.568  1.00  0.00     0.047 C 
HETATM    9  C27 UNL     1      -0.147   7.918  10.971  1.00  0.00     0.289 C 
HETATM   10  C22 UNL     1       1.694   5.715  10.698  1.00  0.00     0.040 C 
HETATM   11  C23 UNL     1       1.289   6.541   9.484  1.00  0.00     0.166 C 
HETATM   12  O4  UNL     1       0.670   7.787   9.899  1.00  0.00    -0.309 OA
HETATM   13  O5  UNL     1      -0.873   8.898  11.078  1.00  0.00    -0.260 OA
BRANCH  11  14
HETATM   14  C24 UNL     1       2.476   6.903   8.547  1.00  0.00     0.077 C 
HETATM   15  C25 UNL     1       3.334   8.026   9.149  1.00  0.00     0.048 C 
HETATM   16  C26 UNL     1       2.008   7.316   7.149  1.00  0.00     0.048 C 
BRANCH  14  17
HETATM   17  O3  UNL     1       3.321   5.755   8.392  1.00  0.00    -0.388 OA
HETATM   18  H36 UNL     1       3.613   5.501   9.288  1.00  0.00     0.210 HD
ENDBRANCH  14  17
ENDBRANCH  11  14
ENDBRANCH   5   6
ENDBRANCH   4   5
ENDBRANCH   2   4
BRANCH   3  19
HETATM   19  C4  UNL     1      -5.626   8.748  15.246  1.00  0.00     0.030 C 
BRANCH  19  20
HETATM   20  C5  UNL     1      -6.589   7.931  14.373  1.00  0.00     0.046 C 
BRANCH  20  21
HETATM   21  C6  UNL     1      -6.796   6.470  14.844  1.00  0.00     0.082 C 
HETATM   22  C7  UNL     1      -6.963   6.389  16.369  1.00  0.00     0.051 C 
HETATM   23  C8  UNL     1      -8.060   5.930  14.206  1.00  0.00     0.012 C 
HETATM   24  C9  UNL     1      -8.055   4.989  13.258  1.00  0.00     0.013 C 
HETATM   25  C10 UNL     1      -6.767   4.472  12.818  1.00  0.00     0.000 A 
HETATM   26  C11 UNL     1      -6.696   3.570  11.750  1.00  0.00     0.050 A 
HETATM   27  C16 UNL     1      -5.597   4.865  13.479  1.00  0.00     0.086 A 
HETATM   28  C12 UNL     1      -5.457   3.075  11.354  1.00  0.00     0.067 A 
HETATM   29  C13 UNL     1      -4.291   3.458  12.008  1.00  0.00     0.046 A 
HETATM   30  C14 UNL     1      -4.348   4.355  13.083  1.00  0.00    -0.025 A 
HETATM   31  C15 UNL     1      -3.089   4.766  13.789  1.00  0.00     0.051 C 
HETATM   32  O2  UNL     1      -5.599   5.724  14.544  1.00  0.00    -0.335 OA
BRANCH  28  33
HETATM   33  O1  UNL     1      -5.342   2.196  10.317  1.00  0.00    -0.361 OA
HETATM   34  H15 UNL     1      -6.226   2.020   9.955  1.00  0.00     0.217 HD
ENDBRANCH  28  33
ENDBRANCH  20  21
ENDBRANCH  19  20
ENDBRANCH   3  19
TORSDOF 9
ENDMDL
MODEL 5
REMARK minimizedAffinity -9.17614555
REMARK CNNscore 0.640097439
REMARK CNNaffinity 6.69207382
REMARK  9 active torsions:
REMARK  status: ('A' for Active; 'I' for Inactive)
REMARK    1  A    between atoms: C2_2  and  C17_19 
REMARK    2  A    between atoms: C3_3  and  C4_4 
REMARK    3  A    between atoms: C4_4  and  C5_5 
REMARK    4  A    between atoms: C5_5  and  C6_6 
REMARK    5  A    between atoms: C12_12  and  O1_13 
REMARK    6  A    between atoms: C17_19  and  C18_20 
REMARK    7  A    between atoms: C18_20  and  C19_21 
REMARK    8  A    between atoms: C23_25  and  C24_26 
REMARK    9  A    between atoms: C24_26  and  O3_29 
ROOT
HETATM    1  C1  UNL     1      -1.953   6.924  14.920  1.00  0.00     0.043 C 
HETATM    2  C2  UNL     1      -2.186   7.085  13.441  1.00  0.00    -0.087 C 
HETATM    3  C3  UNL     1      -3.297   7.627  12.900  1.00  0.00    -0.024 C 
ENDROOT
BRANCH   2   4
HETATM    4  C17 UNL     1      -1.095   6.529  12.539  1.00  0.00     0.037 C 
BRANCH   4   5
HETATM    5  C18 UNL     1      -0.325   7.592  11.739  1.00  0.00     0.032 C 
BRANCH   5   6
HETATM    6  C19 UNL     1       0.647   7.032  10.732  1.00  0.00    -0.013 C 
HETATM    7  C20 UNL     1       1.965   7.292  10.594  1.00  0.00     0.013 C 
HETATM    8  C21 UNL     1       2.772   6.577   9.556  1.00  0.00     0.047 C 
HETATM    9  C27 UNL     1       2.675   8.275  11.455  1.00  0.00     0.289 C 
HETATM   10  C22 UNL     1       4.100   6.139  10.142  1.00  0.00     0.040 C 
HETATM   11  C23 UNL     1       4.838   7.378  10.629  1.00  0.00     0.166 C 
HETATM   12  O4  UNL     1       4.017   8.128  11.562  1.00  0.00    -0.309 OA
HETATM   13  O5  UNL     1       2.099   9.160  12.075  1.00  0.00    -0.260 OA
BRANCH  11  14
HETATM   14  C24 UNL     1       6.184   7.065  11.343  1.00  0.00     0.077 C 
HETATM   15  C25 UNL     1       6.676   5.651  11.003  1.00  0.00     0.048 C 
HETATM   16  C26 UNL     1       6.082   7.214  12.864  1.00  0.00     0.048 C 
BRANCH  14  17
HETATM   17  O3  UNL     1       7.184   7.988  10.891  1.00  0.00    -0.388 OA
HETATM   18  H36 UNL     1       7.240   7.884   9.922  1.00  0.00     0.210 HD
ENDBRANCH  14  17
ENDBRANCH  11  14
ENDBRANCH   5   6
ENDBRANCH   4   5
ENDBRANCH   2   4
BRANCH   3  19
HETATM   19  C4  UNL     1      -4.481   8.223  13.615  1.00  0.00     0.030 C 
BRANCH  19  20
HETATM   20  C5  UNL     1      -5.740   7.375  13.383  1.00  0.00     0.046 C 
BRANCH  20  21
HETATM   21  C6  UNL     1      -5.826   6.105  14.264  1.00  0.00     0.082 C 
HETATM   22  C7  UNL     1      -5.359   6.383  15.700  1.00  0.00     0.051 C 
HETATM   23  C8  UNL     1      -7.272   5.653  14.322  1.00  0.00     0.012 C 
HETATM   24  C9  UNL     1      -7.715   4.541  13.728  1.00  0.00     0.013 C 
HETATM   25  C10 UNL     1      -6.755   3.739  12.983  1.00  0.00     0.000 A 
HETATM   26  C11 UNL     1      -7.184   2.629  12.247  1.00  0.00     0.050 A 
HETATM   27  C16 UNL     1      -5.395   4.069  13.019  1.00  0.00     0.086 A 
HETATM   28  C12 UNL     1      -6.250   1.864  11.554  1.00  0.00     0.067 A 
HETATM   29  C13 UNL     1      -4.897   2.184  11.589  1.00  0.00     0.046 A 
HETATM   30  C14 UNL     1      -4.453   3.289  12.327  1.00  0.00    -0.025 A 
HETATM   31  C15 UNL     1      -2.991   3.632  12.364  1.00  0.00     0.051 C 
HETATM   32  O2  UNL     1      -4.907   5.127  13.738  1.00  0.00    -0.335 OA
BRANCH  28  33
HETATM   33  O1  UNL     1      -6.625   0.775  10.822  1.00  0.00    -0.361 OA
HETATM   34  H15 UNL     1      -7.589   0.672  10.885  1.00  0.00     0.217 HD
ENDBRANCH  28  33
ENDBRANCH  20  21
ENDBRANCH  19  20
ENDBRANCH   3  19
TORSDOF 9
ENDMDL
MODEL 6
REMARK minimizedAffinity -7.83725214
REMARK CNNscore 0.601752937
REMARK CNNaffinity 6.0265336
REMARK  9 active torsions:
REMARK  status: ('A' for Active; 'I' for Inactive)
REMARK    1  A    between atoms: C2_2  and  C17_19 
REMARK    2  A    between atoms: C3_3  and  C4_4 
REMARK    3  A    between atoms: C4_4  and  C5_5 
REMARK    4  A    between atoms: C5_5  and  C6_6 
REMARK    5  A    between atoms: C12_12  and  O1_13 
REMARK    6  A    between atoms: C17_19  and  C18_20 
REMARK    7  A    between atoms: C18_20  and  C19_21 
REMARK    8  A    between atoms: C23_25  and  C24_26 
REMARK    9  A    between atoms: C24_26  and  O3_29 
ROOT
HETATM    1  C1  UNL     1      -1.374   9.302  13.056  1.00  0.00     0.043 C 
HETATM    2  C2  UNL     1      -2.041   9.854  14.288  1.00  0.00    -0.087 C 
HETATM    3  C3  UNL     1      -3.352   9.708  14.574  1.00  0.00    -0.024 C 
ENDROOT
BRANCH   2   4
HETATM    4  C17 UNL     1      -1.149  10.673  15.208  1.00  0.00     0.037 C 
BRANCH   4   5
HETATM    5  C18 UNL     1      -0.423   9.855  16.287  1.00  0.00     0.032 C 
BRANCH   5   6
HETATM    6  C19 UNL     1      -0.398  10.501  17.649  1.00  0.00    -0.013 C 
HETATM    7  C20 UNL     1       0.646  10.664  18.489  1.00  0.00     0.013 C 
HETATM    8  C21 UNL     1       0.469  11.394  19.784  1.00  0.00     0.047 C 
HETATM    9  C27 UNL     1       2.005  10.147  18.177  1.00  0.00     0.289 C 
HETATM   10  C22 UNL     1       1.630  12.343  20.008  1.00  0.00     0.040 C 
HETATM   11  C23 UNL     1       2.915  11.527  20.030  1.00  0.00     0.166 C 
HETATM   12  O4  UNL     1       3.041  10.740  18.817  1.00  0.00    -0.309 OA
HETATM   13  O5  UNL     1       2.211   9.255  17.363  1.00  0.00    -0.260 OA
BRANCH  11  14
HETATM   14  C24 UNL     1       4.203  12.389  20.158  1.00  0.00     0.077 C 
HETATM   15  C25 UNL     1       4.707  12.840  18.780  1.00  0.00     0.048 C 
HETATM   16  C26 UNL     1       5.325  11.652  20.893  1.00  0.00     0.048 C 
BRANCH  14  17
HETATM   17  O3  UNL     1       3.905  13.572  20.913  1.00  0.00    -0.388 OA
HETATM   18  H36 UNL     1       3.189  14.033  20.436  1.00  0.00     0.210 HD
ENDBRANCH  14  17
ENDBRANCH  11  14
ENDBRANCH   5   6
ENDBRANCH   4   5
ENDBRANCH   2   4
BRANCH   3  19
HETATM   19  C4  UNL     1      -4.392   8.946  13.796  1.00  0.00     0.030 C 
BRANCH  19  20
HETATM   20  C5  UNL     1      -3.799   7.652  13.218  1.00  0.00     0.046 C 
BRANCH  20  21
HETATM   21  C6  UNL     1      -3.873   6.434  14.171  1.00  0.00     0.082 C 
HETATM   22  C7  UNL     1      -2.619   6.333  15.052  1.00  0.00     0.051 C 
HETATM   23  C8  UNL     1      -5.072   6.603  15.082  1.00  0.00     0.012 C 
HETATM   24  C9  UNL     1      -6.167   5.842  14.997  1.00  0.00     0.013 C 
HETATM   25  C10 UNL     1      -6.202   4.811  13.971  1.00  0.00     0.000 A 
HETATM   26  C11 UNL     1      -7.366   4.062  13.761  1.00  0.00     0.050 A 
HETATM   27  C16 UNL     1      -5.060   4.555  13.201  1.00  0.00     0.086 A 
HETATM   28  C12 UNL     1      -7.375   3.069  12.786  1.00  0.00     0.067 A 
HETATM   29  C13 UNL     1      -6.243   2.807  12.021  1.00  0.00     0.046 A 
HETATM   30  C14 UNL     1      -5.070   3.545  12.224  1.00  0.00    -0.025 A 
HETATM   31  C15 UNL     1      -3.848   3.259  11.399  1.00  0.00     0.051 C 
HETATM   32  O2  UNL     1      -3.884   5.234  13.371  1.00  0.00    -0.335 OA
BRANCH  28  33
HETATM   33  O1  UNL     1      -8.488   2.317  12.548  1.00  0.00    -0.361 OA
HETATM   34  H15 UNL     1      -9.196   2.607  13.147  1.00  0.00     0.217 HD
ENDBRANCH  28  33
ENDBRANCH  20  21
ENDBRANCH  19  20
ENDBRANCH   3  19
TORSDOF 9
ENDMDL
MODEL 7
REMARK minimizedAffinity -8.692626
REMARK CNNscore 0.563025713
REMARK CNNaffinity 6.53752279
REMARK  9 active torsions:
REMARK  status: ('A' for Active; 'I' for Inactive)
REMARK    1  A    between atoms: C2_2  and  C17_19 
REMARK    2  A    between atoms: C3_3  and  C4_4 
REMARK    3  A    between atoms: C4_4  and  C5_5 
REMARK    4  A    between atoms: C5_5  and  C6_6 
REMARK    5  A    between atoms: C12_12  and  O1_13 
REMARK    6  A    between atoms: C17_19  and  C18_20 
REMARK    7  A    between atoms: C18_20  and  C19_21 
REMARK    8  A    between atoms: C23_25  and  C24_26 
REMARK    9  A    between atoms: C24_26  and  O3_29 
ROOT
HETATM    1  C1  UNL     1       0.180   5.517  11.351  1.00  0.00     0.043 C 
HETATM    2  C2  UNL     1       0.131   6.978  10.991  1.00  0.00    -0.087 C 
HETATM    3  C3  UNL     1      -0.499   7.921  11.723  1.00  0.00    -0.024 C 
ENDROOT
BRANCH   2   4
HETATM    4  C17 UNL     1       0.798   7.356   9.678  1.00  0.00     0.037 C 
BRANCH   4   5
HETATM    5  C18 UNL     1       1.895   6.383   9.216  1.00  0.00     0.032 C 
BRANCH   5   6
HETATM    6  C19 UNL     1       3.021   6.199  10.203  1.00  0.00    -0.013 C 
HETATM    7  C20 UNL     1       4.051   7.029  10.474  1.00  0.00     0.013 C 
HETATM    8  C21 UNL     1       5.039   6.681  11.544  1.00  0.00     0.047 C 
HETATM    9  C27 UNL     1       4.251   8.310   9.748  1.00  0.00     0.289 C 
HETATM   10  C22 UNL     1       5.342   7.904  12.387  1.00  0.00     0.040 C 
HETATM   11  C23 UNL     1       5.904   8.986  11.474  1.00  0.00     0.166 C 
HETATM   12  O4  UNL     1       4.991   9.254  10.378  1.00  0.00    -0.309 OA
HETATM   13  O5  UNL     1       3.757   8.543   8.652  1.00  0.00    -0.260 OA
BRANCH  11  14
HETATM   14  C24 UNL     1       6.172  10.337  12.195  1.00  0.00     0.077 C 
HETATM   15  C25 UNL     1       7.635  10.441  12.651  1.00  0.00     0.048 C 
HETATM   16  C26 UNL     1       5.250  10.546  13.399  1.00  0.00     0.048 C 
BRANCH  14  17
HETATM   17  O3  UNL     1       5.931  11.415  11.281  1.00  0.00    -0.388 OA
HETATM   18  H36 UNL     1       6.523  11.272  10.519  1.00  0.00     0.210 HD
ENDBRANCH  14  17
ENDBRANCH  11  14
ENDBRANCH   5   6
ENDBRANCH   4   5
ENDBRANCH   2   4
BRANCH   3  19
HETATM   19  C4  UNL     1      -1.215   7.751  13.037  1.00  0.00     0.030 C 
BRANCH  19  20
HETATM   20  C5  UNL     1      -2.583   7.082  12.829  1.00  0.00     0.046 C 
BRANCH  20  21
HETATM   21  C6  UNL     1      -2.937   6.008  13.886  1.00  0.00     0.082 C 
HETATM   22  C7  UNL     1      -1.694   5.556  14.667  1.00  0.00     0.051 C 
HETATM   23  C8  UNL     1      -3.917   6.608  14.875  1.00  0.00     0.012 C 
HETATM   24  C9  UNL     1      -5.199   6.239  14.947  1.00  0.00     0.013 C 
HETATM   25  C10 UNL     1      -5.668   5.220  14.021  1.00  0.00     0.000 A 
HETATM   26  C11 UNL     1      -7.024   4.878  13.974  1.00  0.00     0.050 A 
HETATM   27  C16 UNL     1      -4.754   4.565  13.185  1.00  0.00     0.086 A 
HETATM   28  C12 UNL     1      -7.452   3.888  13.093  1.00  0.00     0.067 A 
HETATM   29  C13 UNL     1      -6.549   3.232  12.263  1.00  0.00     0.046 A 
HETATM   30  C14 UNL     1      -5.188   3.559  12.304  1.00  0.00    -0.025 A 
HETATM   31  C15 UNL     1      -4.215   2.848  11.408  1.00  0.00     0.051 C 
HETATM   32  O2  UNL     1      -3.413   4.835  13.197  1.00  0.00    -0.335 OA
BRANCH  28  33
HETATM   33  O1  UNL     1      -8.765   3.526  13.014  1.00  0.00    -0.361 OA
HETATM   34  H15 UNL     1      -9.276   4.062  13.642  1.00  0.00     0.217 HD
ENDBRANCH  28  33
ENDBRANCH  20  21
ENDBRANCH  19  20
ENDBRANCH   3  19
TORSDOF 9
ENDMDL
MODEL 8
REMARK minimizedAffinity -8.56132984
REMARK CNNscore 0.558356047
REMARK CNNaffinity 6.89372778
REMARK  9 active torsions:
REMARK  status: ('A' for Active; 'I' for Inactive)
REMARK    1  A    between atoms: C2_2  and  C17_19 
REMARK    2  A    between atoms: C3_3  and  C4_4 
REMARK    3  A    between atoms: C4_4  and  C5_5 
REMARK    4  A    between atoms: C5_5  and  C6_6 
REMARK    5  A    between atoms: C12_12  and  O1_13 
REMARK    6  A    between atoms: C17_19  and  C18_20 
REMARK    7  A    between atoms: C18_20  and  C19_21 
REMARK    8  A    between atoms: C23_25  and  C24_26 
REMARK    9  A    between atoms: C24_26  and  O3_29 
ROOT
HETATM    1  C1  UNL     1      -2.548   5.701  13.337  1.00  0.00     0.043 C 
HETATM    2  C2  UNL     1      -1.358   4.872  12.934  1.00  0.00    -0.087 C 
HETATM    3  C3  UNL     1      -1.336   4.033  11.877  1.00  0.00    -0.024 C 
ENDROOT
BRANCH   2   4
HETATM    4  C17 UNL     1      -0.144   4.977  13.845  1.00  0.00     0.037 C 
BRANCH   4   5
HETATM    5  C18 UNL     1       0.429   6.396  13.984  1.00  0.00     0.032 C 
BRANCH   5   6
HETATM    6  C19 UNL     1      -0.043   7.365  12.930  1.00  0.00    -0.013 C 
HETATM    7  C20 UNL     1       0.596   7.781  11.816  1.00  0.00     0.013 C 
HETATM    8  C21 UNL     1      -0.080   8.712  10.859  1.00  0.00     0.047 C 
HETATM    9  C27 UNL     1       1.975   7.338  11.480  1.00  0.00     0.289 C 
HETATM   10  C22 UNL     1       0.164   8.258   9.433  1.00  0.00     0.040 C 
HETATM   11  C23 UNL     1       1.667   8.242   9.187  1.00  0.00     0.166 C 
HETATM   12  O4  UNL     1       2.337   7.418  10.177  1.00  0.00    -0.309 OA
HETATM   13  O5  UNL     1       2.754   6.888  12.310  1.00  0.00    -0.260 OA
BRANCH  11  14
HETATM   14  C24 UNL     1       2.067   7.701   7.786  1.00  0.00     0.077 C 
HETATM   15  C25 UNL     1       0.846   7.608   6.859  1.00  0.00     0.048 C 
HETATM   16  C26 UNL     1       2.749   6.333   7.865  1.00  0.00     0.048 C 
BRANCH  14  17
HETATM   17  O3  UNL     1       2.998   8.607   7.179  1.00  0.00    -0.388 OA
HETATM   18  H36 UNL     1       2.553   9.474   7.134  1.00  0.00     0.210 HD
ENDBRANCH  14  17
ENDBRANCH  11  14
ENDBRANCH   5   6
ENDBRANCH   4   5
ENDBRANCH   2   4
BRANCH   3  19
HETATM   19  C4  UNL     1      -2.426   3.786  10.867  1.00  0.00     0.030 C 
BRANCH  19  20
HETATM   20  C5  UNL     1      -3.502   2.854  11.444  1.00  0.00     0.046 C 
BRANCH  20  21
HETATM   21  C6  UNL     1      -4.953   3.245  11.073  1.00  0.00     0.082 C 
HETATM   22  C7  UNL     1      -5.107   3.463   9.560  1.00  0.00     0.051 C 
HETATM   23  C8  UNL     1      -5.878   2.115  11.479  1.00  0.00     0.012 C 
HETATM   24  C9  UNL     1      -6.749   2.211  12.487  1.00  0.00     0.013 C 
HETATM   25  C10 UNL     1      -6.796   3.461  13.230  1.00  0.00     0.000 A 
HETATM   26  C11 UNL     1      -7.606   3.578  14.366  1.00  0.00     0.050 A 
HETATM   27  C16 UNL     1      -6.041   4.558  12.796  1.00  0.00     0.086 A 
HETATM   28  C12 UNL     1      -7.650   4.787  15.054  1.00  0.00     0.067 A 
HETATM   29  C13 UNL     1      -6.907   5.881  14.626  1.00  0.00     0.046 A 
HETATM   30  C14 UNL     1      -6.097   5.781  13.488  1.00  0.00    -0.025 A 
HETATM   31  C15 UNL     1      -5.296   6.964  13.026  1.00  0.00     0.051 C 
HETATM   32  O2  UNL     1      -5.248   4.519  11.681  1.00  0.00    -0.335 OA
BRANCH  28  33
HETATM   33  O1  UNL     1      -8.425   4.943  16.167  1.00  0.00    -0.361 OA
HETATM   34  H15 UNL     1      -8.883   4.106  16.350  1.00  0.00     0.217 HD
ENDBRANCH  28  33
ENDBRANCH  20  21
ENDBRANCH  19  20
ENDBRANCH   3  19
TORSDOF 9
ENDMDL
MODEL 9
REMARK minimizedAffinity -9.19662189
REMARK CNNscore 0.514708519
REMARK CNNaffinity 6.42742395
REMARK  9 active torsions:
REMARK  status: ('A' for Active; 'I' for Inactive)
REMARK    1  A    between atoms: C2_2  and  C17_19 
REMARK    2  A    between atoms: C3_3  and  C4_4 
REMARK    3  A    between atoms: C4_4  and  C5_5 
REMARK    4  A    between atoms: C5_5  and  C6_6 
REMARK    5  A    between atoms: C12_12  and  O1_13 
REMARK    6  A    between atoms: C17_19  and  C18_20 
REMARK    7  A    between atoms: C18_20  and  C19_21 
REMARK    8  A    between atoms: C23_25  and  C24_26 
REMARK    9  A    between atoms: C24_26  and  O3_29 
ROOT
HETATM    1  C1  UNL     1      -1.287   9.198  14.214  1.00  0.00     0.043 C 
HETATM    2  C2  UNL     1      -1.382   8.370  15.468  1.00  0.00    -0.087 C 
HETATM    3  C3  UNL     1      -2.531   8.123  16.132  1.00  0.00    -0.024 C 
ENDROOT
BRANCH   2   4
HETATM    4  C17 UNL     1      -0.062   7.848  16.014  1.00  0.00     0.037 C 
BRANCH   4   5
HETATM    5  C18 UNL     1       1.029   7.637  14.953  1.00  0.00     0.032 C 
BRANCH   5   6
HETATM    6  C19 UNL     1       0.770   6.486  14.013  1.00  0.00    -0.013 C 
HETATM    7  C20 UNL     1       0.948   6.430  12.676  1.00  0.00     0.013 C 
HETATM    8  C21 UNL     1       0.684   5.158  11.931  1.00  0.00     0.047 C 
HETATM    9  C27 UNL     1       1.415   7.600  11.887  1.00  0.00     0.289 C 
HETATM   10  C22 UNL     1       1.791   4.907  10.926  1.00  0.00     0.040 C 
HETATM   11  C23 UNL     1       1.838   6.087   9.964  1.00  0.00     0.166 C 
HETATM   12  O4  UNL     1       1.994   7.333  10.692  1.00  0.00    -0.309 OA
HETATM   13  O5  UNL     1       1.326   8.754  12.285  1.00  0.00    -0.260 OA
BRANCH  11  14
HETATM   14  C24 UNL     1       2.998   6.006   8.930  1.00  0.00     0.077 C 
HETATM   15  C25 UNL     1       2.523   6.430   7.533  1.00  0.00     0.048 C 
HETATM   16  C26 UNL     1       3.612   4.606   8.855  1.00  0.00     0.048 C 
BRANCH  14  17
HETATM   17  O3  UNL     1       4.041   6.909   9.321  1.00  0.00    -0.388 OA
HETATM   18  H36 UNL     1       3.638   7.797   9.366  1.00  0.00     0.210 HD
ENDBRANCH  14  17
ENDBRANCH  11  14
ENDBRANCH   5   6
ENDBRANCH   4   5
ENDBRANCH   2   4
BRANCH   3  19
HETATM   19  C4  UNL     1      -3.927   8.550  15.761  1.00  0.00     0.030 C 
BRANCH  19  20
HETATM   20  C5  UNL     1      -4.785   7.334  15.382  1.00  0.00     0.046 C 
BRANCH  20  21
HETATM   21  C6  UNL     1      -4.930   7.103  13.858  1.00  0.00     0.082 C 
HETATM   22  C7  UNL     1      -4.604   8.376  13.063  1.00  0.00     0.051 C 
HETATM   23  C8  UNL     1      -3.953   6.025  13.436  1.00  0.00     0.012 C 
HETATM   24  C9  UNL     1      -4.334   4.804  13.049  1.00  0.00     0.013 C 
HETATM   25  C10 UNL     1      -5.758   4.504  13.046  1.00  0.00     0.000 A 
HETATM   26  C11 UNL     1      -6.206   3.210  12.761  1.00  0.00     0.050 A 
HETATM   27  C16 UNL     1      -6.684   5.521  13.312  1.00  0.00     0.086 A 
HETATM   28  C12 UNL     1      -7.573   2.946  12.746  1.00  0.00     0.067 A 
HETATM   29  C13 UNL     1      -8.498   3.951  13.006  1.00  0.00     0.046 A 
HETATM   30  C14 UNL     1      -8.064   5.253  13.287  1.00  0.00    -0.025 A 
HETATM   31  C15 UNL     1      -9.064   6.337  13.565  1.00  0.00     0.051 C 
HETATM   32  O2  UNL     1      -6.314   6.812  13.575  1.00  0.00    -0.335 OA
BRANCH  28  33
HETATM   33  O1  UNL     1      -8.053   1.697  12.475  1.00  0.00    -0.361 OA
HETATM   34  H15 UNL     1      -7.303   1.100  12.317  1.00  0.00     0.217 HD
ENDBRANCH  28  33
ENDBRANCH  20  21
ENDBRANCH  19  20
ENDBRANCH   3  19
TORSDOF 9
ENDMDL
