MODEL 1
REMARK minimizedAffinity -8.38148308
REMARK  12 active torsions:
REMARK  status: ('A' for Active; 'I' for Inactive)
REMARK    1  A    between atoms: C5_5  and  C6_6 
REMARK    2  A    between atoms: C6_6  and  C8_8 
REMARK    3  A    between atoms: C8_8  and  O1_9 
REMARK    4  A    between atoms: C15_17  and  O3_18 
REMARK    5  A    between atoms: C18_21  and  O4_23 
REMARK    6  A    between atoms: O4_23  and  C20_24 
REMARK    7  A    between atoms: C20_24  and  C21_26 
REMARK    8  A    between atoms: C21_26  and  C22_27 
REMARK    9  A    between atoms: C21_26  and  O6_29 
REMARK   10  A    between atoms: O6_29  and  C24_30 
REMARK   11  A    between atoms: C24_30  and  C25_32 
REMARK   12  A    between atoms: C25_32  and  C26_33 
ROOT
HETATM    1  C1  UNL     1      -6.165   4.630  14.254  1.00  0.00     0.015 C 
HETATM    2  C2  UNL     1      -5.809   5.710  13.541  1.00  0.00    -0.082 C 
HETATM    3  C3  UNL     1      -6.459   7.046  13.818  1.00  0.00     0.034 C 
HETATM    4  C4  UNL     1      -5.395   8.120  14.084  1.00  0.00     0.010 C 
HETATM    5  C5  UNL     1      -4.009   7.510  14.404  1.00  0.00    -0.001 C 
HETATM    6  C9  UNL     1      -3.512   6.714  13.136  1.00  0.00     0.033 C 
HETATM    7  C10 UNL     1      -2.362   5.697  13.451  1.00  0.00     0.162 C 
HETATM    8  O2  UNL     1      -2.979   4.413  13.234  1.00  0.00    -0.376 OA
HETATM    9  C11 UNL     1      -3.866   4.607  12.124  1.00  0.00     0.134 C 
HETATM   10  C12 UNL     1      -4.482   3.301  11.648  1.00  0.00     0.068 C 
HETATM   11  C13 UNL     1      -3.446   2.182  11.541  1.00  0.00    -0.059 C 
HETATM   12  C14 UNL     1      -3.728   0.964  12.043  1.00  0.00     0.017 C 
HETATM   13  C15 UNL     1      -2.107   2.443  10.863  1.00  0.00     0.146 C 
HETATM   14  C16 UNL     1      -1.028   3.193  11.692  1.00  0.00     0.039 C 
HETATM   15  C17 UNL     1      -0.856   4.708  11.441  1.00  0.00     0.044 C 
HETATM   16  C18 UNL     1      -0.997   5.728  12.636  1.00  0.00     0.093 C 
HETATM   17  C19 UNL     1       0.174   5.428  13.599  1.00  0.00     0.049 C 
HETATM   18  C28 UNL     1      -4.667   5.825  12.543  1.00  0.00     0.050 C 
ENDROOT
BRANCH  16  19
HETATM   19  O4  UNL     1      -0.797   6.991  11.918  1.00  0.00    -0.306 OA
BRANCH  19  20
HETATM   20  C20 UNL     1       0.097   7.950  12.249  1.00  0.00     0.289 C 
HETATM   21  O5  UNL     1       0.090   8.593  13.289  1.00  0.00    -0.262 OA
BRANCH  20  22
HETATM   22  C21 UNL     1       1.167   8.068  11.148  1.00  0.00     0.231 C 
BRANCH  22  23
HETATM   23  C22 UNL     1       2.459   7.298  11.449  1.00  0.00     0.038 C 
HETATM   24  C23 UNL     1       3.015   7.533  12.847  1.00  0.00     0.008 C 
ENDBRANCH  22  23
BRANCH  22  25
HETATM   25  O6  UNL     1       0.647   7.517   9.919  1.00  0.00    -0.306 OA
BRANCH  25  26
HETATM   26  C24 UNL     1       0.495   8.416   8.904  1.00  0.00     0.259 C 
HETATM   27  O7  UNL     1      -0.507   9.092   8.715  1.00  0.00    -0.265 OA
BRANCH  26  28
HETATM   28  C25 UNL     1       1.750   8.440   8.063  1.00  0.00     0.111 C 
BRANCH  28  29
HETATM   29  C26 UNL     1       1.823   7.293   7.055  1.00  0.00     0.005 C 
HETATM   30  C27 UNL     1       2.588   6.091   7.590  1.00  0.00     0.005 C 
ENDBRANCH  28  29
ENDBRANCH  26  28
ENDBRANCH  25  26
ENDBRANCH  22  25
ENDBRANCH  20  22
ENDBRANCH  19  20
ENDBRANCH  16  19
BRANCH   5  31
HETATM   31  C6  UNL     1      -2.975   8.536  14.945  1.00  0.00     0.010 C 
HETATM   32  C7  UNL     1      -3.554   9.935  15.153  1.00  0.00     0.012 C 
BRANCH  31  33
HETATM   33  C8  UNL     1      -2.274   8.048  16.228  1.00  0.00     0.168 C 
BRANCH  33  34
HETATM   34  O1  UNL     1      -2.917   6.919  16.796  1.00  0.00    -0.400 OA
HETATM   35  H14 UNL     1      -2.351   6.608  17.521  1.00  0.00     0.209 HD
ENDBRANCH  33  34
ENDBRANCH  31  33
ENDBRANCH   5  31
BRANCH  13  36
HETATM   36  O3  UNL     1      -2.338   3.062   9.602  1.00  0.00    -0.391 OA
HETATM   37  H23 UNL     1      -2.974   2.494   9.134  1.00  0.00     0.210 HD
ENDBRANCH  13  36
TORSDOF 12
ENDMDL
MODEL 2
REMARK minimizedAffinity -8.0556736
REMARK  12 active torsions:
REMARK  status: ('A' for Active; 'I' for Inactive)
REMARK    1  A    between atoms: C5_5  and  C6_6 
REMARK    2  A    between atoms: C6_6  and  C8_8 
REMARK    3  A    between atoms: C8_8  and  O1_9 
REMARK    4  A    between atoms: C15_17  and  O3_18 
REMARK    5  A    between atoms: C18_21  and  O4_23 
REMARK    6  A    between atoms: O4_23  and  C20_24 
REMARK    7  A    between atoms: C20_24  and  C21_26 
REMARK    8  A    between atoms: C21_26  and  C22_27 
REMARK    9  A    between atoms: C21_26  and  O6_29 
REMARK   10  A    between atoms: O6_29  and  C24_30 
REMARK   11  A    between atoms: C24_30  and  C25_32 
REMARK   12  A    between atoms: C25_32  and  C26_33 
ROOT
HETATM    1  C1  UNL     1      -4.526   3.382  10.590  1.00  0.00     0.015 C 
HETATM    2  C2  UNL     1      -3.627   3.272  11.581  1.00  0.00    -0.082 C 
HETATM    3  C3  UNL     1      -2.329   2.534  11.344  1.00  0.00     0.034 C 
HETATM    4  C4  UNL     1      -1.130   3.418  11.716  1.00  0.00     0.010 C 
HETATM    5  C5  UNL     1      -1.513   4.913  11.834  1.00  0.00    -0.001 C 
HETATM    6  C9  UNL     1      -2.548   5.069  13.015  1.00  0.00     0.033 C 
HETATM    7  C10 UNL     1      -3.347   6.416  12.968  1.00  0.00     0.162 C 
HETATM    8  O2  UNL     1      -4.696   5.999  12.679  1.00  0.00    -0.376 OA
HETATM    9  C11 UNL     1      -4.863   4.761  13.384  1.00  0.00     0.134 C 
HETATM   10  C12 UNL     1      -6.296   4.257  13.327  1.00  0.00     0.068 C 
HETATM   11  C13 UNL     1      -7.308   5.370  13.599  1.00  0.00    -0.059 C 
HETATM   12  C14 UNL     1      -8.386   5.500  12.800  1.00  0.00     0.017 C 
HETATM   13  C15 UNL     1      -7.101   6.321  14.771  1.00  0.00     0.146 C 
HETATM   14  C16 UNL     1      -6.075   7.473  14.576  1.00  0.00     0.039 C 
HETATM   15  C17 UNL     1      -4.660   7.277  15.163  1.00  0.00     0.044 C 
HETATM   16  C18 UNL     1      -3.393   7.384  14.229  1.00  0.00     0.093 C 
HETATM   17  C19 UNL     1      -3.339   8.850  13.743  1.00  0.00     0.049 C 
HETATM   18  C28 UNL     1      -3.657   3.955  12.939  1.00  0.00     0.050 C 
ENDROOT
BRANCH  16  19
HETATM   19  O4  UNL     1      -2.333   7.096  15.199  1.00  0.00    -0.306 OA
BRANCH  19  20
HETATM   20  C20 UNL     1      -1.719   8.007  15.987  1.00  0.00     0.289 C 
HETATM   21  O5  UNL     1      -2.212   8.531  16.976  1.00  0.00    -0.262 OA
BRANCH  20  22
HETATM   22  C21 UNL     1      -0.279   8.238  15.493  1.00  0.00     0.231 C 
BRANCH  22  23
HETATM   23  C22 UNL     1       0.102   9.717  15.348  1.00  0.00     0.038 C 
HETATM   24  C23 UNL     1      -1.051  10.684  15.579  1.00  0.00     0.008 C 
ENDBRANCH  22  23
BRANCH  22  25
HETATM   25  O6  UNL     1       0.646   7.676  16.448  1.00  0.00    -0.306 OA
BRANCH  25  26
HETATM   26  C24 UNL     1       1.930   8.129  16.341  1.00  0.00     0.259 C 
HETATM   27  O7  UNL     1       2.470   8.888  17.133  1.00  0.00    -0.265 OA
BRANCH  26  28
HETATM   28  C25 UNL     1       2.566   7.545  15.100  1.00  0.00     0.111 C 
BRANCH  28  29
HETATM   29  C26 UNL     1       3.709   8.397  14.551  1.00  0.00     0.005 C 
HETATM   30  C27 UNL     1       5.073   7.934  15.042  1.00  0.00     0.005 C 
ENDBRANCH  28  29
ENDBRANCH  26  28
ENDBRANCH  25  26
ENDBRANCH  22  25
ENDBRANCH  20  22
ENDBRANCH  19  20
ENDBRANCH  16  19
BRANCH   5  31
HETATM   31  C6  UNL     1      -0.296   5.873  11.936  1.00  0.00     0.010 C 
HETATM   32  C7  UNL     1       0.665   5.523  13.072  1.00  0.00     0.012 C 
BRANCH  31  33
HETATM   33  C8  UNL     1       0.469   6.002  10.605  1.00  0.00     0.168 C 
BRANCH  33  34
HETATM   34  O1  UNL     1       1.589   5.134  10.542  1.00  0.00    -0.400 OA
HETATM   35  H14 UNL     1       1.939   5.191   9.638  1.00  0.00     0.209 HD
ENDBRANCH  33  34
ENDBRANCH  31  33
ENDBRANCH   5  31
BRANCH  13  36
HETATM   36  O3  UNL     1      -6.834   5.561  15.944  1.00  0.00    -0.391 OA
HETATM   37  H23 UNL     1      -7.557   4.912  16.016  1.00  0.00     0.210 HD
ENDBRANCH  13  36
TORSDOF 12
ENDMDL
MODEL 3
REMARK minimizedAffinity -7.9547472
REMARK  12 active torsions:
REMARK  status: ('A' for Active; 'I' for Inactive)
REMARK    1  A    between atoms: C5_5  and  C6_6 
REMARK    2  A    between atoms: C6_6  and  C8_8 
REMARK    3  A    between atoms: C8_8  and  O1_9 
REMARK    4  A    between atoms: C15_17  and  O3_18 
REMARK    5  A    between atoms: C18_21  and  O4_23 
REMARK    6  A    between atoms: O4_23  and  C20_24 
REMARK    7  A    between atoms: C20_24  and  C21_26 
REMARK    8  A    between atoms: C21_26  and  C22_27 
REMARK    9  A    between atoms: C21_26  and  O6_29 
REMARK   10  A    between atoms: O6_29  and  C24_30 
REMARK   11  A    between atoms: C24_30  and  C25_32 
REMARK   12  A    between atoms: C25_32  and  C26_33 
ROOT
HETATM    1  C1  UNL     1      -4.388   3.492  10.559  1.00  0.00     0.015 C 
HETATM    2  C2  UNL     1      -3.468   3.340  11.525  1.00  0.00    -0.082 C 
HETATM    3  C3  UNL     1      -2.217   2.535  11.257  1.00  0.00     0.034 C 
HETATM    4  C4  UNL     1      -0.964   3.358  11.591  1.00  0.00     0.010 C 
HETATM    5  C5  UNL     1      -1.267   4.871  11.710  1.00  0.00    -0.001 C 
HETATM    6  C9  UNL     1      -2.259   5.086  12.918  1.00  0.00     0.033 C 
HETATM    7  C10 UNL     1      -2.989   6.471  12.885  1.00  0.00     0.162 C 
HETATM    8  O2  UNL     1      -4.365   6.123  12.636  1.00  0.00    -0.376 OA
HETATM    9  C11 UNL     1      -4.576   4.898  13.353  1.00  0.00     0.134 C 
HETATM   10  C12 UNL     1      -6.034   4.469  13.338  1.00  0.00     0.068 C 
HETATM   11  C13 UNL     1      -6.980   5.634  13.631  1.00  0.00    -0.059 C 
HETATM   12  C14 UNL     1      -8.071   5.815  12.862  1.00  0.00     0.017 C 
HETATM   13  C15 UNL     1      -6.691   6.578  14.791  1.00  0.00     0.146 C 
HETATM   14  C16 UNL     1      -5.613   7.674  14.562  1.00  0.00     0.039 C 
HETATM   15  C17 UNL     1      -4.194   7.409  15.111  1.00  0.00     0.044 C 
HETATM   16  C18 UNL     1      -2.950   7.446  14.141  1.00  0.00     0.093 C 
HETATM   17  C19 UNL     1      -2.834   8.905  13.645  1.00  0.00     0.049 C 
HETATM   18  C28 UNL     1      -3.425   4.030  12.879  1.00  0.00     0.050 C 
ENDROOT
BRANCH  16  19
HETATM   19  O4  UNL     1      -1.880   7.108  15.084  1.00  0.00    -0.306 OA
BRANCH  19  20
HETATM   20  C20 UNL     1      -1.394   7.923  16.047  1.00  0.00     0.289 C 
HETATM   21  O5  UNL     1      -2.064   8.479  16.905  1.00  0.00    -0.262 OA
BRANCH  20  22
HETATM   22  C21 UNL     1       0.141   7.994  15.945  1.00  0.00     0.231 C 
BRANCH  22  23
HETATM   23  C22 UNL     1       0.713   7.351  14.676  1.00  0.00     0.038 C 
HETATM   24  C23 UNL     1       2.229   7.445  14.556  1.00  0.00     0.008 C 
ENDBRANCH  22  23
BRANCH  22  25
HETATM   25  O6  UNL     1       0.552   9.378  15.914  1.00  0.00    -0.306 OA
BRANCH  25  26
HETATM   26  C24 UNL     1       1.156   9.824  17.054  1.00  0.00     0.259 C 
HETATM   27  O7  UNL     1       2.117   9.290  17.590  1.00  0.00    -0.265 OA
BRANCH  26  28
HETATM   28  C25 UNL     1       0.454  11.072  17.538  1.00  0.00     0.111 C 
BRANCH  28  29
HETATM   29  C26 UNL     1      -0.348  10.853  18.821  1.00  0.00     0.005 C 
HETATM   30  C27 UNL     1       0.460  11.157  20.075  1.00  0.00     0.005 C 
ENDBRANCH  28  29
ENDBRANCH  26  28
ENDBRANCH  25  26
ENDBRANCH  22  25
ENDBRANCH  20  22
ENDBRANCH  19  20
ENDBRANCH  16  19
BRANCH   5  31
HETATM   31  C6  UNL     1       0.000   5.768  11.773  1.00  0.00     0.010 C 
HETATM   32  C7  UNL     1       1.296   5.016  11.469  1.00  0.00     0.012 C 
BRANCH  31  33
HETATM   33  C8  UNL     1      -0.117   7.021  10.884  1.00  0.00     0.168 C 
BRANCH  33  34
HETATM   34  O1  UNL     1       0.990   7.894  11.040  1.00  0.00    -0.400 OA
HETATM   35  H14 UNL     1       0.898   8.589  10.367  1.00  0.00     0.209 HD
ENDBRANCH  33  34
ENDBRANCH  31  33
ENDBRANCH   5  31
BRANCH  13  36
HETATM   36  O3  UNL     1      -6.432   5.811  15.961  1.00  0.00    -0.391 OA
HETATM   37  H23 UNL     1      -7.184   5.200  16.057  1.00  0.00     0.210 HD
ENDBRANCH  13  36
TORSDOF 12
ENDMDL
MODEL 4
REMARK minimizedAffinity -7.86081123
REMARK  12 active torsions:
REMARK  status: ('A' for Active; 'I' for Inactive)
REMARK    1  A    between atoms: C5_5  and  C6_6 
REMARK    2  A    between atoms: C6_6  and  C8_8 
REMARK    3  A    between atoms: C8_8  and  O1_9 
REMARK    4  A    between atoms: C15_17  and  O3_18 
REMARK    5  A    between atoms: C18_21  and  O4_23 
REMARK    6  A    between atoms: O4_23  and  C20_24 
REMARK    7  A    between atoms: C20_24  and  C21_26 
REMARK    8  A    between atoms: C21_26  and  C22_27 
REMARK    9  A    between atoms: C21_26  and  O6_29 
REMARK   10  A    between atoms: O6_29  and  C24_30 
REMARK   11  A    between atoms: C24_30  and  C25_32 
REMARK   12  A    between atoms: C25_32  and  C26_33 
ROOT
HETATM    1  C1  UNL     1      -6.993   6.505  15.468  1.00  0.00     0.015 C 
HETATM    2  C2  UNL     1      -6.304   7.303  14.637  1.00  0.00    -0.082 C 
HETATM    3  C3  UNL     1      -6.139   8.770  14.962  1.00  0.00     0.034 C 
HETATM    4  C4  UNL     1      -4.655   9.163  14.947  1.00  0.00     0.010 C 
HETATM    5  C5  UNL     1      -3.719   7.933  15.015  1.00  0.00    -0.001 C 
HETATM    6  C9  UNL     1      -3.948   7.061  13.721  1.00  0.00     0.033 C 
HETATM    7  C10 UNL     1      -3.413   5.595  13.855  1.00  0.00     0.162 C 
HETATM    8  O2  UNL     1      -4.612   4.795  13.841  1.00  0.00    -0.376 OA
HETATM    9  C11 UNL     1      -5.493   5.459  12.923  1.00  0.00     0.134 C 
HETATM   10  C12 UNL     1      -6.754   4.654  12.656  1.00  0.00     0.068 C 
HETATM   11  C13 UNL     1      -6.452   3.176  12.406  1.00  0.00    -0.059 C 
HETATM   12  C14 UNL     1      -7.189   2.232  13.024  1.00  0.00     0.017 C 
HETATM   13  C15 UNL     1      -5.328   2.777  11.459  1.00  0.00     0.146 C 
HETATM   14  C16 UNL     1      -3.876   2.852  12.009  1.00  0.00     0.039 C 
HETATM   15  C17 UNL     1      -3.035   4.095  11.643  1.00  0.00     0.044 C 
HETATM   16  C18 UNL     1      -2.408   4.990  12.781  1.00  0.00     0.093 C 
HETATM   17  C19 UNL     1      -1.370   4.102  13.504  1.00  0.00     0.049 C 
HETATM   18  C28 UNL     1      -5.484   6.891  13.425  1.00  0.00     0.050 C 
ENDROOT
BRANCH  16  19
HETATM   19  O4  UNL     1      -1.762   6.024  11.967  1.00  0.00    -0.306 OA
BRANCH  19  20
HETATM   20  C20 UNL     1      -0.603   5.879  11.287  1.00  0.00     0.289 C 
HETATM   21  O5  UNL     1      -0.232   4.853  10.737  1.00  0.00    -0.262 OA
BRANCH  20  22
HETATM   22  C21 UNL     1       0.151   7.222  11.249  1.00  0.00     0.231 C 
BRANCH  22  23
HETATM   23  C22 UNL     1       1.132   7.420  12.411  1.00  0.00     0.038 C 
HETATM   24  C23 UNL     1       2.599   7.356  12.007  1.00  0.00     0.008 C 
ENDBRANCH  22  23
BRANCH  22  25
HETATM   25  O6  UNL     1       0.939   7.289  10.041  1.00  0.00    -0.306 OA
BRANCH  25  26
HETATM   26  C24 UNL     1       0.585   8.284   9.177  1.00  0.00     0.259 C 
HETATM   27  O7  UNL     1      -0.441   8.946   9.257  1.00  0.00    -0.265 OA
BRANCH  26  28
HETATM   28  C25 UNL     1       1.655   8.435   8.120  1.00  0.00     0.111 C 
BRANCH  28  29
HETATM   29  C26 UNL     1       1.704   7.262   7.141  1.00  0.00     0.005 C 
HETATM   30  C27 UNL     1       2.611   6.137   7.620  1.00  0.00     0.005 C 
ENDBRANCH  28  29
ENDBRANCH  26  28
ENDBRANCH  25  26
ENDBRANCH  22  25
ENDBRANCH  20  22
ENDBRANCH  19  20
ENDBRANCH  16  19
BRANCH   5  31
HETATM   31  C6  UNL     1      -2.229   8.286  15.278  1.00  0.00     0.010 C 
HETATM   32  C7  UNL     1      -1.516   8.876  14.061  1.00  0.00     0.012 C 
BRANCH  31  33
HETATM   33  C8  UNL     1      -2.044   9.199  16.506  1.00  0.00     0.168 C 
BRANCH  33  34
HETATM   34  O1  UNL     1      -2.672   8.674  17.664  1.00  0.00    -0.400 OA
HETATM   35  H14 UNL     1      -2.409   9.242  18.408  1.00  0.00     0.209 HD
ENDBRANCH  33  34
ENDBRANCH  31  33
ENDBRANCH   5  31
BRANCH  13  36
HETATM   36  O3  UNL     1      -5.473   3.492  10.237  1.00  0.00    -0.391 OA
HETATM   37  H23 UNL     1      -6.387   3.337   9.940  1.00  0.00     0.210 HD
ENDBRANCH  13  36
TORSDOF 12
ENDMDL
MODEL 5
REMARK minimizedAffinity -7.7960391
REMARK  12 active torsions:
REMARK  status: ('A' for Active; 'I' for Inactive)
REMARK    1  A    between atoms: C5_5  and  C6_6 
REMARK    2  A    between atoms: C6_6  and  C8_8 
REMARK    3  A    between atoms: C8_8  and  O1_9 
REMARK    4  A    between atoms: C15_17  and  O3_18 
REMARK    5  A    between atoms: C18_21  and  O4_23 
REMARK    6  A    between atoms: O4_23  and  C20_24 
REMARK    7  A    between atoms: C20_24  and  C21_26 
REMARK    8  A    between atoms: C21_26  and  C22_27 
REMARK    9  A    between atoms: C21_26  and  O6_29 
REMARK   10  A    between atoms: O6_29  and  C24_30 
REMARK   11  A    between atoms: C24_30  and  C25_32 
REMARK   12  A    between atoms: C25_32  and  C26_33 
ROOT
HETATM    1  C1  UNL     1      -7.253   2.802  13.288  1.00  0.00     0.015 C 
HETATM    2  C2  UNL     1      -7.154   4.045  12.793  1.00  0.00    -0.082 C 
HETATM    3  C3  UNL     1      -8.316   5.004  12.919  1.00  0.00     0.034 C 
HETATM    4  C4  UNL     1      -7.865   6.315  13.579  1.00  0.00     0.010 C 
HETATM    5  C5  UNL     1      -6.500   6.175  14.296  1.00  0.00    -0.001 C 
HETATM    6  C9  UNL     1      -5.403   5.835  13.215  1.00  0.00     0.033 C 
HETATM    7  C10 UNL     1      -4.089   5.239  13.827  1.00  0.00     0.162 C 
HETATM    8  O2  UNL     1      -4.080   3.880  13.348  1.00  0.00    -0.376 OA
HETATM    9  C11 UNL     1      -4.625   3.947  12.023  1.00  0.00     0.134 C 
HETATM   10  C12 UNL     1      -4.534   2.614  11.298  1.00  0.00     0.068 C 
HETATM   11  C13 UNL     1      -3.163   1.959  11.469  1.00  0.00    -0.059 C 
HETATM   12  C14 UNL     1      -3.086   0.650  11.781  1.00  0.00     0.017 C 
HETATM   13  C15 UNL     1      -1.895   2.781  11.280  1.00  0.00     0.146 C 
HETATM   14  C16 UNL     1      -1.464   3.700  12.457  1.00  0.00     0.039 C 
HETATM   15  C17 UNL     1      -1.822   5.199  12.363  1.00  0.00     0.044 C 
HETATM   16  C18 UNL     1      -2.671   5.883  13.504  1.00  0.00     0.093 C 
HETATM   17  C19 UNL     1      -1.795   5.841  14.777  1.00  0.00     0.049 C 
HETATM   18  C28 UNL     1      -5.914   4.721  12.229  1.00  0.00     0.050 C 
ENDROOT
BRANCH  16  19
HETATM   19  O4  UNL     1      -2.778   7.242  12.965  1.00  0.00    -0.306 OA
BRANCH  19  20
HETATM   20  C20 UNL     1      -2.086   8.317  13.401  1.00  0.00     0.289 C 
HETATM   21  O5  UNL     1      -2.335   8.953  14.415  1.00  0.00    -0.262 OA
BRANCH  20  22
HETATM   22  C21 UNL     1      -0.892   8.584  12.466  1.00  0.00     0.231 C 
BRANCH  22  23
HETATM   23  C22 UNL     1       0.476   8.328  13.111  1.00  0.00     0.038 C 
HETATM   24  C23 UNL     1       0.940   9.432  14.050  1.00  0.00     0.008 C 
ENDBRANCH  22  23
BRANCH  22  25
HETATM   25  O6  UNL     1      -0.972   7.699  11.329  1.00  0.00    -0.306 OA
BRANCH  25  26
HETATM   26  C24 UNL     1      -0.067   7.949  10.339  1.00  0.00     0.259 C 
HETATM   27  O7  UNL     1       0.074   9.027   9.777  1.00  0.00    -0.265 OA
BRANCH  26  28
HETATM   28  C25 UNL     1       0.724   6.694  10.053  1.00  0.00     0.111 C 
BRANCH  28  29
HETATM   29  C26 UNL     1       2.132   6.975   9.529  1.00  0.00     0.005 C 
HETATM   30  C27 UNL     1       2.226   6.864   8.014  1.00  0.00     0.005 C 
ENDBRANCH  28  29
ENDBRANCH  26  28
ENDBRANCH  25  26
ENDBRANCH  22  25
ENDBRANCH  20  22
ENDBRANCH  19  20
ENDBRANCH  16  19
BRANCH   5  31
HETATM   31  C6  UNL     1      -6.135   7.383  15.203  1.00  0.00     0.010 C 
HETATM   32  C7  UNL     1      -5.682   8.617  14.423  1.00  0.00     0.012 C 
BRANCH  31  33
HETATM   33  C8  UNL     1      -7.265   7.750  16.183  1.00  0.00     0.168 C 
BRANCH  33  34
HETATM   34  O1  UNL     1      -7.217   6.977  17.371  1.00  0.00    -0.400 OA
HETATM   35  H14 UNL     1      -7.880   7.349  17.976  1.00  0.00     0.209 HD
ENDBRANCH  33  34
ENDBRANCH  31  33
ENDBRANCH   5  31
BRANCH  13  36
HETATM   36  O3  UNL     1      -1.982   3.493  10.051  1.00  0.00    -0.391 OA
HETATM   37  H23 UNL     1      -2.193   2.831   9.368  1.00  0.00     0.210 HD
ENDBRANCH  13  36
TORSDOF 12
ENDMDL
MODEL 6
REMARK minimizedAffinity -7.73707676
REMARK  12 active torsions:
REMARK  status: ('A' for Active; 'I' for Inactive)
REMARK    1  A    between atoms: C5_5  and  C6_6 
REMARK    2  A    between atoms: C6_6  and  C8_8 
REMARK    3  A    between atoms: C8_8  and  O1_9 
REMARK    4  A    between atoms: C15_17  and  O3_18 
REMARK    5  A    between atoms: C18_21  and  O4_23 
REMARK    6  A    between atoms: O4_23  and  C20_24 
REMARK    7  A    between atoms: C20_24  and  C21_26 
REMARK    8  A    between atoms: C21_26  and  C22_27 
REMARK    9  A    between atoms: C21_26  and  O6_29 
REMARK   10  A    between atoms: O6_29  and  C24_30 
REMARK   11  A    between atoms: C24_30  and  C25_32 
REMARK   12  A    between atoms: C25_32  and  C26_33 
ROOT
HETATM    1  C1  UNL     1      -5.831   6.226  15.292  1.00  0.00     0.015 C 
HETATM    2  C2  UNL     1      -5.249   7.097  14.453  1.00  0.00    -0.082 C 
HETATM    3  C3  UNL     1      -5.126   8.553  14.841  1.00  0.00     0.034 C 
HETATM    4  C4  UNL     1      -3.668   9.020  14.729  1.00  0.00     0.010 C 
HETATM    5  C5  UNL     1      -2.674   7.836  14.658  1.00  0.00    -0.001 C 
HETATM    6  C9  UNL     1      -2.967   7.018  13.342  1.00  0.00     0.033 C 
HETATM    7  C10 UNL     1      -2.357   5.576  13.356  1.00  0.00     0.162 C 
HETATM    8  O2  UNL     1      -3.515   4.719  13.394  1.00  0.00    -0.376 OA
HETATM    9  C11 UNL     1      -4.497   5.382  12.586  1.00  0.00     0.134 C 
HETATM   10  C12 UNL     1      -5.737   4.529  12.377  1.00  0.00     0.068 C 
HETATM   11  C13 UNL     1      -5.389   3.082  12.026  1.00  0.00    -0.059 C 
HETATM   12  C14 UNL     1      -6.029   2.074  12.650  1.00  0.00     0.017 C 
HETATM   13  C15 UNL     1      -4.329   2.786  10.974  1.00  0.00     0.146 C 
HETATM   14  C16 UNL     1      -2.842   2.906  11.411  1.00  0.00     0.039 C 
HETATM   15  C17 UNL     1      -2.092   4.206  11.046  1.00  0.00     0.044 C 
HETATM   16  C18 UNL     1      -1.415   5.074  12.176  1.00  0.00     0.093 C 
HETATM   17  C19 UNL     1      -0.283   4.205  12.768  1.00  0.00     0.049 C 
HETATM   18  C28 UNL     1      -4.513   6.786  13.159  1.00  0.00     0.050 C 
ENDROOT
BRANCH  16  19
HETATM   19  O4  UNL     1      -0.886   6.178  11.369  1.00  0.00    -0.306 OA
BRANCH  19  20
HETATM   20  C20 UNL     1       0.402   6.589  11.348  1.00  0.00     0.289 C 
HETATM   21  O5  UNL     1       0.956   7.220  12.237  1.00  0.00    -0.262 OA
BRANCH  20  22
HETATM   22  C21 UNL     1       1.089   6.085  10.066  1.00  0.00     0.231 C 
BRANCH  22  23
HETATM   23  C22 UNL     1       1.620   7.203   9.161  1.00  0.00     0.038 C 
HETATM   24  C23 UNL     1       0.556   8.187   8.695  1.00  0.00     0.008 C 
ENDBRANCH  22  23
BRANCH  22  25
HETATM   25  O6  UNL     1       2.234   5.281  10.425  1.00  0.00    -0.306 OA
BRANCH  25  26
HETATM   26  C24 UNL     1       3.351   5.501   9.673  1.00  0.00     0.259 C 
HETATM   27  O7  UNL     1       3.588   4.960   8.601  1.00  0.00    -0.265 OA
BRANCH  26  28
HETATM   28  C25 UNL     1       4.235   6.508  10.370  1.00  0.00     0.111 C 
BRANCH  28  29
HETATM   29  C26 UNL     1       5.588   5.934  10.789  1.00  0.00     0.005 C 
HETATM   30  C27 UNL     1       6.616   7.016  11.088  1.00  0.00     0.005 C 
ENDBRANCH  28  29
ENDBRANCH  26  28
ENDBRANCH  25  26
ENDBRANCH  22  25
ENDBRANCH  20  22
ENDBRANCH  19  20
ENDBRANCH  16  19
BRANCH   5  31
HETATM   31  C6  UNL     1      -1.185   8.250  14.821  1.00  0.00     0.010 C 
HETATM   32  C7  UNL     1      -0.904   9.696  14.414  1.00  0.00     0.012 C 
BRANCH  31  33
HETATM   33  C8  UNL     1      -0.645   7.975  16.238  1.00  0.00     0.168 C 
BRANCH  33  34
HETATM   34  O1  UNL     1       0.189   6.829  16.282  1.00  0.00    -0.400 OA
HETATM   35  H14 UNL     1       0.577   6.797  17.172  1.00  0.00     0.209 HD
ENDBRANCH  33  34
ENDBRANCH  31  33
ENDBRANCH   5  31
BRANCH  13  36
HETATM   36  O3  UNL     1      -4.606   3.552   9.807  1.00  0.00    -0.391 OA
HETATM   37  H23 UNL     1      -5.533   3.365   9.574  1.00  0.00     0.210 HD
ENDBRANCH  13  36
TORSDOF 12
ENDMDL
MODEL 7
REMARK minimizedAffinity -7.59311771
REMARK  12 active torsions:
REMARK  status: ('A' for Active; 'I' for Inactive)
REMARK    1  A    between atoms: C5_5  and  C6_6 
REMARK    2  A    between atoms: C6_6  and  C8_8 
REMARK    3  A    between atoms: C8_8  and  O1_9 
REMARK    4  A    between atoms: C15_17  and  O3_18 
REMARK    5  A    between atoms: C18_21  and  O4_23 
REMARK    6  A    between atoms: O4_23  and  C20_24 
REMARK    7  A    between atoms: C20_24  and  C21_26 
REMARK    8  A    between atoms: C21_26  and  C22_27 
REMARK    9  A    between atoms: C21_26  and  O6_29 
REMARK   10  A    between atoms: O6_29  and  C24_30 
REMARK   11  A    between atoms: C24_30  and  C25_32 
REMARK   12  A    between atoms: C25_32  and  C26_33 
ROOT
HETATM    1  C1  UNL     1       4.802   9.835  12.754  1.00  0.00     0.015 C 
HETATM    2  C2  UNL     1       4.291   8.785  13.416  1.00  0.00    -0.082 C 
HETATM    3  C3  UNL     1       4.589   8.601  14.886  1.00  0.00     0.034 C 
HETATM    4  C4  UNL     1       3.287   8.456  15.687  1.00  0.00     0.010 C 
HETATM    5  C5  UNL     1       2.049   8.932  14.891  1.00  0.00    -0.001 C 
HETATM    6  C9  UNL     1       1.884   8.004  13.626  1.00  0.00     0.033 C 
HETATM    7  C10 UNL     1       0.967   8.621  12.516  1.00  0.00     0.162 C 
HETATM    8  O2  UNL     1       1.877   8.875  11.428  1.00  0.00    -0.376 OA
HETATM    9  C11 UNL     1       2.812   7.788  11.462  1.00  0.00     0.134 C 
HETATM   10  C12 UNL     1       3.754   7.806  10.270  1.00  0.00     0.068 C 
HETATM   11  C13 UNL     1       3.016   8.065   8.956  1.00  0.00    -0.059 C 
HETATM   12  C14 UNL     1       3.510   8.963   8.081  1.00  0.00     0.017 C 
HETATM   13  C15 UNL     1       1.733   7.306   8.639  1.00  0.00     0.146 C 
HETATM   14  C16 UNL     1       0.429   7.801   9.325  1.00  0.00     0.039 C 
HETATM   15  C17 UNL     1      -0.052   7.040  10.581  1.00  0.00     0.044 C 
HETATM   16  C18 UNL     1      -0.275   7.813  11.938  1.00  0.00     0.093 C 
HETATM   17  C19 UNL     1      -1.444   8.792  11.689  1.00  0.00     0.049 C 
HETATM   18  C28 UNL     1       3.267   7.782  12.910  1.00  0.00     0.050 C 
ENDROOT
BRANCH  16  19
HETATM   19  O4  UNL     1      -0.676   6.700  12.804  1.00  0.00    -0.306 OA
BRANCH  19  20
HETATM   20  C20 UNL     1      -0.652   5.392  12.465  1.00  0.00     0.289 C 
HETATM   21  O5  UNL     1       0.323   4.659  12.551  1.00  0.00    -0.262 OA
BRANCH  20  22
HETATM   22  C21 UNL     1      -2.055   4.942  12.018  1.00  0.00     0.231 C 
BRANCH  22  23
HETATM   23  C22 UNL     1      -2.048   3.911  10.882  1.00  0.00     0.038 C 
HETATM   24  C23 UNL     1      -2.063   2.463  11.354  1.00  0.00     0.008 C 
ENDBRANCH  22  23
BRANCH  22  25
HETATM   25  O6  UNL     1      -2.728   4.312  13.128  1.00  0.00    -0.306 OA
BRANCH  25  26
HETATM   26  C24 UNL     1      -3.565   5.128  13.832  1.00  0.00     0.259 C 
HETATM   27  O7  UNL     1      -3.282   5.675  14.889  1.00  0.00    -0.265 OA
BRANCH  26  28
HETATM   28  C25 UNL     1      -4.883   5.245  13.101  1.00  0.00     0.111 C 
BRANCH  28  29
HETATM   29  C26 UNL     1      -5.535   3.892  12.816  1.00  0.00     0.005 C 
HETATM   30  C27 UNL     1      -7.056   3.959  12.844  1.00  0.00     0.005 C 
ENDBRANCH  28  29
ENDBRANCH  26  28
ENDBRANCH  25  26
ENDBRANCH  22  25
ENDBRANCH  20  22
ENDBRANCH  19  20
ENDBRANCH  16  19
BRANCH   5  31
HETATM   31  C6  UNL     1       0.758   9.062  15.746  1.00  0.00     0.010 C 
HETATM   32  C7  UNL     1      -0.060  10.315  15.431  1.00  0.00     0.012 C 
BRANCH  31  33
HETATM   33  C8  UNL     1      -0.131   7.806  15.671  1.00  0.00     0.168 C 
BRANCH  33  34
HETATM   34  O1  UNL     1       0.333   6.769  16.520  1.00  0.00    -0.400 OA
HETATM   35  H14 UNL     1      -0.340   6.069  16.503  1.00  0.00     0.209 HD
ENDBRANCH  33  34
ENDBRANCH  31  33
ENDBRANCH   5  31
BRANCH  13  36
HETATM   36  O3  UNL     1       1.952   5.916   8.848  1.00  0.00    -0.391 OA
HETATM   37  H23 UNL     1       2.747   5.687   8.334  1.00  0.00     0.210 HD
ENDBRANCH  13  36
TORSDOF 12
ENDMDL
MODEL 8
REMARK minimizedAffinity -7.5739274
REMARK  12 active torsions:
REMARK  status: ('A' for Active; 'I' for Inactive)
REMARK    1  A    between atoms: C5_5  and  C6_6 
REMARK    2  A    between atoms: C6_6  and  C8_8 
REMARK    3  A    between atoms: C8_8  and  O1_9 
REMARK    4  A    between atoms: C15_17  and  O3_18 
REMARK    5  A    between atoms: C18_21  and  O4_23 
REMARK    6  A    between atoms: O4_23  and  C20_24 
REMARK    7  A    between atoms: C20_24  and  C21_26 
REMARK    8  A    between atoms: C21_26  and  C22_27 
REMARK    9  A    between atoms: C21_26  and  O6_29 
REMARK   10  A    between atoms: O6_29  and  C24_30 
REMARK   11  A    between atoms: C24_30  and  C25_32 
REMARK   12  A    between atoms: C25_32  and  C26_33 
ROOT
HETATM    1  C1  UNL     1      -7.408   2.843  13.378  1.00  0.00     0.015 C 
HETATM    2  C2  UNL     1      -7.313   4.062  12.824  1.00  0.00    -0.082 C 
HETATM    3  C3  UNL     1      -8.462   5.037  12.942  1.00  0.00     0.034 C 
HETATM    4  C4  UNL     1      -7.979   6.373  13.526  1.00  0.00     0.010 C 
HETATM    5  C5  UNL     1      -6.594   6.252  14.207  1.00  0.00    -0.001 C 
HETATM    6  C9  UNL     1      -5.534   5.852  13.109  1.00  0.00     0.033 C 
HETATM    7  C10 UNL     1      -4.208   5.271  13.708  1.00  0.00     0.162 C 
HETATM    8  O2  UNL     1      -4.225   3.891  13.292  1.00  0.00    -0.376 OA
HETATM    9  C11 UNL     1      -4.810   3.903  11.982  1.00  0.00     0.134 C 
HETATM   10  C12 UNL     1      -4.754   2.538  11.317  1.00  0.00     0.068 C 
HETATM   11  C13 UNL     1      -3.385   1.877  11.475  1.00  0.00    -0.059 C 
HETATM   12  C14 UNL     1      -3.309   0.583  11.845  1.00  0.00     0.017 C 
HETATM   13  C15 UNL     1      -2.115   2.676  11.210  1.00  0.00     0.146 C 
HETATM   14  C16 UNL     1      -1.639   3.643  12.330  1.00  0.00     0.039 C 
HETATM   15  C17 UNL     1      -1.988   5.141  12.178  1.00  0.00     0.044 C 
HETATM   16  C18 UNL     1      -2.795   5.884  13.312  1.00  0.00     0.093 C 
HETATM   17  C19 UNL     1      -1.880   5.892  14.558  1.00  0.00     0.049 C 
HETATM   18  C28 UNL     1      -6.085   4.699  12.191  1.00  0.00     0.050 C 
ENDROOT
BRANCH  16  19
HETATM   19  O4  UNL     1      -2.906   7.218  12.714  1.00  0.00    -0.306 OA
BRANCH  19  20
HETATM   20  C20 UNL     1      -1.991   8.207  12.822  1.00  0.00     0.289 C 
HETATM   21  O5  UNL     1      -2.183   9.380  12.535  1.00  0.00    -0.262 OA
BRANCH  20  22
HETATM   22  C21 UNL     1      -0.689   7.650  13.425  1.00  0.00     0.231 C 
BRANCH  22  23
HETATM   23  C22 UNL     1       0.339   7.196  12.380  1.00  0.00     0.038 C 
HETATM   24  C23 UNL     1       1.758   7.065  12.916  1.00  0.00     0.008 C 
ENDBRANCH  22  23
BRANCH  22  25
HETATM   25  O6  UNL     1      -0.044   8.683  14.200  1.00  0.00    -0.306 OA
BRANCH  25  26
HETATM   26  C24 UNL     1      -0.297   8.641  15.540  1.00  0.00     0.259 C 
HETATM   27  O7  UNL     1       0.220   7.857  16.324  1.00  0.00    -0.265 OA
BRANCH  26  28
HETATM   28  C25 UNL     1      -1.308   9.707  15.893  1.00  0.00     0.111 C 
BRANCH  28  29
HETATM   29  C26 UNL     1      -2.458   9.186  16.754  1.00  0.00     0.005 C 
HETATM   30  C27 UNL     1      -2.562   9.906  18.091  1.00  0.00     0.005 C 
ENDBRANCH  28  29
ENDBRANCH  26  28
ENDBRANCH  25  26
ENDBRANCH  22  25
ENDBRANCH  20  22
ENDBRANCH  19  20
ENDBRANCH  16  19
BRANCH   5  31
HETATM   31  C6  UNL     1      -6.190   7.496  15.045  1.00  0.00     0.010 C 
HETATM   32  C7  UNL     1      -5.407   8.541  14.250  1.00  0.00     0.012 C 
BRANCH  31  33
HETATM   33  C8  UNL     1      -7.393   8.148  15.754  1.00  0.00     0.168 C 
BRANCH  33  34
HETATM   34  O1  UNL     1      -7.747   9.393  15.174  1.00  0.00    -0.400 OA
HETATM   35  H14 UNL     1      -8.575   9.675  15.596  1.00  0.00     0.209 HD
ENDBRANCH  33  34
ENDBRANCH  31  33
ENDBRANCH   5  31
BRANCH  13  36
HETATM   36  O3  UNL     1      -2.234   3.333   9.952  1.00  0.00    -0.391 OA
HETATM   37  H23 UNL     1      -2.473   2.643   9.308  1.00  0.00     0.210 HD
ENDBRANCH  13  36
TORSDOF 12
ENDMDL
MODEL 9
REMARK minimizedAffinity -7.56811142
REMARK  12 active torsions:
REMARK  status: ('A' for Active; 'I' for Inactive)
REMARK    1  A    between atoms: C5_5  and  C6_6 
REMARK    2  A    between atoms: C6_6  and  C8_8 
REMARK    3  A    between atoms: C8_8  and  O1_9 
REMARK    4  A    between atoms: C15_17  and  O3_18 
REMARK    5  A    between atoms: C18_21  and  O4_23 
REMARK    6  A    between atoms: O4_23  and  C20_24 
REMARK    7  A    between atoms: C20_24  and  C21_26 
REMARK    8  A    between atoms: C21_26  and  C22_27 
REMARK    9  A    between atoms: C21_26  and  O6_29 
REMARK   10  A    between atoms: O6_29  and  C24_30 
REMARK   11  A    between atoms: C24_30  and  C25_32 
REMARK   12  A    between atoms: C25_32  and  C26_33 
ROOT
HETATM    1  C1  UNL     1      -4.015   3.594  10.663  1.00  0.00     0.015 C 
HETATM    2  C2  UNL     1      -3.147   3.597  11.687  1.00  0.00    -0.082 C 
HETATM    3  C3  UNL     1      -1.780   2.973  11.520  1.00  0.00     0.034 C 
HETATM    4  C4  UNL     1      -0.679   3.974  11.902  1.00  0.00     0.010 C 
HETATM    5  C5  UNL     1      -1.200   5.430  11.954  1.00  0.00    -0.001 C 
HETATM    6  C9  UNL     1      -2.287   5.529  13.093  1.00  0.00     0.033 C 
HETATM    7  C10 UNL     1      -3.201   6.796  12.972  1.00  0.00     0.162 C 
HETATM    8  O2  UNL     1      -4.496   6.249  12.653  1.00  0.00    -0.376 OA
HETATM    9  C11 UNL     1      -4.577   5.024  13.395  1.00  0.00     0.134 C 
HETATM   10  C12 UNL     1      -5.956   4.391  13.306  1.00  0.00     0.068 C 
HETATM   11  C13 UNL     1      -7.073   5.415  13.505  1.00  0.00    -0.059 C 
HETATM   12  C14 UNL     1      -8.128   5.421  12.666  1.00  0.00     0.017 C 
HETATM   13  C15 UNL     1      -6.995   6.418  14.649  1.00  0.00     0.146 C 
HETATM   14  C16 UNL     1      -6.070   7.651  14.450  1.00  0.00     0.039 C 
HETATM   15  C17 UNL     1      -4.665   7.603  15.091  1.00  0.00     0.044 C 
HETATM   16  C18 UNL     1      -3.380   7.795  14.196  1.00  0.00     0.093 C 
HETATM   17  C19 UNL     1      -3.439   9.244  13.661  1.00  0.00     0.049 C 
HETATM   18  C28 UNL     1      -3.288   4.318  13.019  1.00  0.00     0.050 C 
ENDROOT
BRANCH  16  19
HETATM   19  O4  UNL     1      -2.335   7.636  15.212  1.00  0.00    -0.306 OA
BRANCH  19  20
HETATM   20  C20 UNL     1      -1.243   8.422  15.347  1.00  0.00     0.289 C 
HETATM   21  O5  UNL     1      -0.120   8.143  14.953  1.00  0.00    -0.262 OA
BRANCH  20  22
HETATM   22  C21 UNL     1      -1.638   9.753  16.011  1.00  0.00     0.231 C 
BRANCH  22  23
HETATM   23  C22 UNL     1      -2.193   9.602  17.433  1.00  0.00     0.038 C 
HETATM   24  C23 UNL     1      -3.498  10.347  17.676  1.00  0.00     0.008 C 
ENDBRANCH  22  23
BRANCH  22  25
HETATM   25  O6  UNL     1      -0.469  10.593  16.123  1.00  0.00    -0.306 OA
BRANCH  25  26
HETATM   26  C24 UNL     1       0.226  10.459  17.291  1.00  0.00     0.259 C 
HETATM   27  O7  UNL     1       0.969   9.525  17.558  1.00  0.00    -0.265 OA
BRANCH  26  28
HETATM   28  C25 UNL     1      -0.067  11.641  18.186  1.00  0.00     0.111 C 
BRANCH  28  29
HETATM   29  C26 UNL     1      -0.023  11.294  19.674  1.00  0.00     0.005 C 
HETATM   30  C27 UNL     1       1.156  11.936  20.391  1.00  0.00     0.005 C 
ENDBRANCH  28  29
ENDBRANCH  26  28
ENDBRANCH  25  26
ENDBRANCH  22  25
ENDBRANCH  20  22
ENDBRANCH  19  20
ENDBRANCH  16  19
BRANCH   5  31
HETATM   31  C6  UNL     1      -0.078   6.500  12.064  1.00  0.00     0.010 C 
HETATM   32  C7  UNL     1       1.235   5.953  12.626  1.00  0.00     0.012 C 
BRANCH  31  33
HETATM   33  C8  UNL     1       0.172   7.234  10.732  1.00  0.00     0.168 C 
BRANCH  33  34
HETATM   34  O1  UNL     1       0.953   6.465   9.832  1.00  0.00    -0.400 OA
HETATM   35  H14 UNL     1       0.961   6.944   8.987  1.00  0.00     0.209 HD
ENDBRANCH  33  34
ENDBRANCH  31  33
ENDBRANCH   5  31
BRANCH  13  36
HETATM   36  O3  UNL     1      -6.705   5.723  15.857  1.00  0.00    -0.391 OA
HETATM   37  H23 UNL     1      -7.368   5.014  15.927  1.00  0.00     0.210 HD
ENDBRANCH  13  36
TORSDOF 12
ENDMDL
