MODEL 1
REMARK minimizedAffinity -9.73515034
REMARK  6 active torsions:
REMARK  status: ('A' for Active; 'I' for Inactive)
REMARK    1  A    between atoms: C4_4  and  C5_5 
REMARK    2  A    between atoms: C5_5  and  C6_6 
REMARK    3  A    between atoms: C6_6  and  C7_7 
REMARK    4  A    between atoms: C7_7  and  C9_9 
REMARK    5  A    between atoms: C16_16  and  O1_17 
REMARK    6  A    between atoms: C19_20  and  O2_21 
ROOT
HETATM    1  C9  UNL     1      -4.953  49.564 -22.848  1.00  0.00    -0.002 C 
HETATM    2  C10 UNL     1      -5.033  48.117 -22.290  1.00  0.00     0.006 C 
HETATM    3  C11 UNL     1      -4.215  48.088 -20.980  1.00  0.00     0.011 C 
HETATM    4  C12 UNL     1      -3.124  49.140 -21.214  1.00  0.00    -0.032 C 
HETATM    5  C13 UNL     1      -2.069  48.474 -22.147  1.00  0.00     0.016 C 
HETATM    6  C14 UNL     1      -2.394  49.708 -19.966  1.00  0.00     0.006 C 
HETATM    7  C15 UNL     1      -1.732  48.664 -19.062  1.00  0.00     0.038 C 
HETATM    8  C16 UNL     1      -1.166  49.357 -17.823  1.00  0.00     0.123 C 
HETATM    9  C17 UNL     1      -0.042  50.358 -18.152  1.00  0.00     0.026 C 
HETATM   10  C18 UNL     1       0.215  51.249 -16.924  1.00  0.00     0.039 C 
HETATM   11  C19 UNL     1       1.391  52.201 -17.139  1.00  0.00     0.118 C 
HETATM   12  C20 UNL     1       1.445  52.787 -18.552  1.00  0.00     0.032 C 
HETATM   13  C21 UNL     1       0.099  52.672 -19.266  1.00  0.00     0.013 C 
HETATM   14  C22 UNL     1      -0.309  51.212 -19.408  1.00  0.00    -0.025 A 
HETATM   15  C23 UNL     1       0.026  50.534 -20.720  1.00  0.00     0.021 A 
HETATM   16  C24 UNL     1      -1.426  50.829 -20.404  1.00  0.00    -0.027 A 
HETATM   17  C25 UNL     1      -2.083  51.920 -21.269  1.00  0.00     0.011 C 
HETATM   18  C26 UNL     1      -3.004  51.378 -22.390  1.00  0.00     0.011 C 
HETATM   19  C27 UNL     1      -3.969  50.300 -21.867  1.00  0.00    -0.032 C 
HETATM   20  C28 UNL     1      -4.935  51.034 -20.859  1.00  0.00     0.016 C 
ENDROOT
BRANCH   1  21
HETATM   21  C7  UNL     1      -4.785  49.770 -24.381  1.00  0.00    -0.014 C 
HETATM   22  C8  UNL     1      -3.842  50.881 -24.839  1.00  0.00     0.010 C 
BRANCH  21  23
HETATM   23  C6  UNL     1      -4.452  48.446 -25.125  1.00  0.00     0.008 C 
BRANCH  23  24
HETATM   24  C5  UNL     1      -3.279  48.495 -26.106  1.00  0.00     0.028 C 
BRANCH  24  25
HETATM   25  C4  UNL     1      -3.767  48.481 -27.531  1.00  0.00    -0.025 C 
HETATM   26  C2  UNL     1      -4.983  48.112 -27.978  1.00  0.00    -0.091 C 
HETATM   27  C1  UNL     1      -6.131  47.680 -27.106  1.00  0.00     0.042 C 
HETATM   28  C3  UNL     1      -5.294  48.119 -29.453  1.00  0.00     0.042 C 
ENDBRANCH  24  25
ENDBRANCH  23  24
ENDBRANCH  21  23
ENDBRANCH   1  21
BRANCH   8  29
HETATM   29  O1  UNL     1      -0.671  48.354 -16.930  1.00  0.00    -0.395 OA
HETATM   30  H28 UNL     1      -0.003  47.832 -17.407  1.00  0.00     0.210 HD
ENDBRANCH   8  29
BRANCH  11  31
HETATM   31  O2  UNL     1       1.281  53.255 -16.182  1.00  0.00    -0.396 OA
HETATM   32  H33 UNL     1       2.059  53.829 -16.284  1.00  0.00     0.210 HD
ENDBRANCH  11  31
TORSDOF 6
ENDMDL
MODEL 2
REMARK minimizedAffinity -9.47272778
REMARK  6 active torsions:
REMARK  status: ('A' for Active; 'I' for Inactive)
REMARK    1  A    between atoms: C4_4  and  C5_5 
REMARK    2  A    between atoms: C5_5  and  C6_6 
REMARK    3  A    between atoms: C6_6  and  C7_7 
REMARK    4  A    between atoms: C7_7  and  C9_9 
REMARK    5  A    between atoms: C16_16  and  O1_17 
REMARK    6  A    between atoms: C19_20  and  O2_21 
ROOT
HETATM    1  C9  UNL     1      -4.245  50.229 -23.543  1.00  0.00    -0.002 C 
HETATM    2  C10 UNL     1      -4.528  48.757 -23.134  1.00  0.00     0.006 C 
HETATM    3  C11 UNL     1      -3.957  48.562 -21.713  1.00  0.00     0.011 C 
HETATM    4  C12 UNL     1      -2.766  49.528 -21.668  1.00  0.00    -0.032 C 
HETATM    5  C13 UNL     1      -1.617  48.840 -22.465  1.00  0.00     0.016 C 
HETATM    6  C14 UNL     1      -2.225  49.937 -20.271  1.00  0.00     0.006 C 
HETATM    7  C15 UNL     1      -1.811  48.776 -19.362  1.00  0.00     0.038 C 
HETATM    8  C16 UNL     1      -1.420  49.324 -17.990  1.00  0.00     0.123 C 
HETATM    9  C17 UNL     1      -0.184  50.244 -18.038  1.00  0.00     0.026 C 
HETATM   10  C18 UNL     1      -0.080  51.017 -16.712  1.00  0.00     0.039 C 
HETATM   11  C19 UNL     1       1.183  51.875 -16.643  1.00  0.00     0.118 C 
HETATM   12  C20 UNL     1       1.526  52.555 -17.970  1.00  0.00     0.032 C 
HETATM   13  C21 UNL     1       0.321  52.611 -18.908  1.00  0.00     0.013 C 
HETATM   14  C22 UNL     1      -0.164  51.207 -19.242  1.00  0.00    -0.025 A 
HETATM   15  C23 UNL     1       0.344  50.599 -20.533  1.00  0.00     0.021 A 
HETATM   16  C24 UNL     1      -1.115  50.997 -20.442  1.00  0.00    -0.027 A 
HETATM   17  C25 UNL     1      -1.528  52.201 -21.307  1.00  0.00     0.011 C 
HETATM   18  C26 UNL     1      -2.276  51.825 -22.609  1.00  0.00     0.011 C 
HETATM   19  C27 UNL     1      -3.395  50.802 -22.351  1.00  0.00    -0.032 C 
HETATM   20  C28 UNL     1      -4.465  51.543 -21.460  1.00  0.00     0.016 C 
ENDROOT
BRANCH   1  21
HETATM   21  C7  UNL     1      -3.798  50.529 -25.002  1.00  0.00    -0.014 C 
HETATM   22  C8  UNL     1      -3.732  51.996 -25.426  1.00  0.00     0.010 C 
BRANCH  21  23
HETATM   23  C6  UNL     1      -2.475  49.804 -25.380  1.00  0.00     0.008 C 
BRANCH  23  24
HETATM   24  C5  UNL     1      -1.668  50.416 -26.528  1.00  0.00     0.028 C 
BRANCH  24  25
HETATM   25  C4  UNL     1      -0.245  50.673 -26.109  1.00  0.00    -0.025 C 
HETATM   26  C2  UNL     1       0.737  51.236 -26.840  1.00  0.00    -0.091 C 
HETATM   27  C1  UNL     1       0.575  51.776 -28.235  1.00  0.00     0.042 C 
HETATM   28  C3  UNL     1       2.127  51.380 -26.276  1.00  0.00     0.042 C 
ENDBRANCH  24  25
ENDBRANCH  23  24
ENDBRANCH  21  23
ENDBRANCH   1  21
BRANCH   8  29
HETATM   29  O1  UNL     1      -1.164  48.220 -17.117  1.00  0.00    -0.395 OA
HETATM   30  H28 UNL     1      -0.464  47.677 -17.519  1.00  0.00     0.210 HD
ENDBRANCH   8  29
BRANCH  11  31
HETATM   31  O2  UNL     1       0.987  52.862 -15.630  1.00  0.00    -0.396 OA
HETATM   32  H33 UNL     1       1.811  53.372 -15.550  1.00  0.00     0.210 HD
ENDBRANCH  11  31
TORSDOF 6
ENDMDL
MODEL 3
REMARK minimizedAffinity -9.38190842
REMARK  6 active torsions:
REMARK  status: ('A' for Active; 'I' for Inactive)
REMARK    1  A    between atoms: C4_4  and  C5_5 
REMARK    2  A    between atoms: C5_5  and  C6_6 
REMARK    3  A    between atoms: C6_6  and  C7_7 
REMARK    4  A    between atoms: C7_7  and  C9_9 
REMARK    5  A    between atoms: C16_16  and  O1_17 
REMARK    6  A    between atoms: C19_20  and  O2_21 
ROOT
HETATM    1  C9  UNL     1      -2.726  48.338 -22.145  1.00  0.00    -0.002 C 
HETATM    2  C10 UNL     1      -2.565  49.474 -23.193  1.00  0.00     0.006 C 
HETATM    3  C11 UNL     1      -1.536  50.475 -22.624  1.00  0.00     0.011 C 
HETATM    4  C12 UNL     1      -1.732  50.370 -21.107  1.00  0.00    -0.032 C 
HETATM    5  C13 UNL     1      -3.027  51.173 -20.779  1.00  0.00     0.016 C 
HETATM    6  C14 UNL     1      -0.584  50.886 -20.196  1.00  0.00     0.006 C 
HETATM    7  C15 UNL     1      -0.166  52.340 -20.429  1.00  0.00     0.038 C 
HETATM    8  C16 UNL     1       1.045  52.663 -19.554  1.00  0.00     0.123 C 
HETATM    9  C17 UNL     1       0.738  52.580 -18.046  1.00  0.00     0.026 C 
HETATM   10  C18 UNL     1       2.063  52.566 -17.263  1.00  0.00     0.039 C 
HETATM   11  C19 UNL     1       1.838  52.590 -15.751  1.00  0.00     0.118 C 
HETATM   12  C20 UNL     1       0.657  51.727 -15.300  1.00  0.00     0.032 C 
HETATM   13  C21 UNL     1       0.271  50.696 -16.359  1.00  0.00     0.013 C 
HETATM   14  C22 UNL     1      -0.150  51.385 -17.650  1.00  0.00    -0.025 A 
HETATM   15  C23 UNL     1      -1.635  51.602 -17.854  1.00  0.00     0.021 A 
HETATM   16  C24 UNL     1      -0.925  50.583 -18.721  1.00  0.00    -0.027 A 
HETATM   17  C25 UNL     1      -1.295  49.113 -18.453  1.00  0.00     0.011 C 
HETATM   18  C26 UNL     1      -2.273  48.503 -19.487  1.00  0.00     0.011 C 
HETATM   19  C27 UNL     1      -1.843  48.807 -20.932  1.00  0.00    -0.032 C 
HETATM   20  C28 UNL     1      -0.481  48.041 -21.150  1.00  0.00     0.016 C 
ENDROOT
BRANCH   1  21
HETATM   21  C7  UNL     1      -4.146  47.767 -21.869  1.00  0.00    -0.014 C 
HETATM   22  C8  UNL     1      -4.900  48.319 -20.660  1.00  0.00     0.010 C 
BRANCH  21  23
HETATM   23  C6  UNL     1      -5.056  47.803 -23.129  1.00  0.00     0.008 C 
BRANCH  23  24
HETATM   24  C5  UNL     1      -4.738  48.883 -24.166  1.00  0.00     0.028 C 
BRANCH  24  25
HETATM   25  C4  UNL     1      -5.218  48.474 -25.533  1.00  0.00    -0.025 C 
HETATM   26  C2  UNL     1      -4.484  48.343 -26.656  1.00  0.00    -0.091 C 
HETATM   27  C1  UNL     1      -2.995  48.537 -26.742  1.00  0.00     0.042 C 
HETATM   28  C3  UNL     1      -5.137  47.962 -27.960  1.00  0.00     0.042 C 
ENDBRANCH  24  25
ENDBRANCH  23  24
ENDBRANCH  21  23
ENDBRANCH   1  21
BRANCH   8  29
HETATM   29  O1  UNL     1       1.503  53.979 -19.880  1.00  0.00    -0.395 OA
HETATM   30  H28 UNL     1       0.763  54.595 -19.742  1.00  0.00     0.210 HD
ENDBRANCH   8  29
BRANCH  11  31
HETATM   31  O2  UNL     1       3.037  52.134 -15.124  1.00  0.00    -0.396 OA
HETATM   32  H33 UNL     1       2.912  52.202 -14.162  1.00  0.00     0.210 HD
ENDBRANCH  11  31
TORSDOF 6
ENDMDL
MODEL 4
REMARK minimizedAffinity -9.31730938
REMARK  6 active torsions:
REMARK  status: ('A' for Active; 'I' for Inactive)
REMARK    1  A    between atoms: C4_4  and  C5_5 
REMARK    2  A    between atoms: C5_5  and  C6_6 
REMARK    3  A    between atoms: C6_6  and  C7_7 
REMARK    4  A    between atoms: C7_7  and  C9_9 
REMARK    5  A    between atoms: C16_16  and  O1_17 
REMARK    6  A    between atoms: C19_20  and  O2_21 
ROOT
HETATM    1  C9  UNL     1      -1.793  49.505 -19.023  1.00  0.00    -0.002 C 
HETATM    2  C10 UNL     1      -3.241  48.993 -19.256  1.00  0.00     0.006 C 
HETATM    3  C11 UNL     1      -3.474  48.968 -20.783  1.00  0.00     0.011 C 
HETATM    4  C12 UNL     1      -2.594  50.113 -21.299  1.00  0.00    -0.032 C 
HETATM    5  C13 UNL     1      -3.360  51.431 -20.979  1.00  0.00     0.016 C 
HETATM    6  C14 UNL     1      -2.223  50.109 -22.808  1.00  0.00     0.006 C 
HETATM    7  C15 UNL     1      -3.409  50.072 -23.775  1.00  0.00     0.038 C 
HETATM    8  C16 UNL     1      -2.889  49.947 -25.207  1.00  0.00     0.123 C 
HETATM    9  C17 UNL     1      -2.057  51.166 -25.654  1.00  0.00     0.026 C 
HETATM   10  C18 UNL     1      -1.293  50.809 -26.941  1.00  0.00     0.039 C 
HETATM   11  C19 UNL     1      -0.525  52.004 -27.505  1.00  0.00     0.118 C 
HETATM   12  C20 UNL     1       0.129  52.868 -26.424  1.00  0.00     0.032 C 
HETATM   13  C21 UNL     1       0.268  52.115 -25.103  1.00  0.00     0.013 C 
HETATM   14  C22 UNL     1      -1.099  51.703 -24.573  1.00  0.00    -0.025 A 
HETATM   15  C23 UNL     1      -1.742  52.622 -23.555  1.00  0.00     0.021 A 
HETATM   16  C24 UNL     1      -1.243  51.267 -23.098  1.00  0.00    -0.027 A 
HETATM   17  C25 UNL     1      -0.013  51.292 -22.172  1.00  0.00     0.011 C 
HETATM   18  C26 UNL     1      -0.337  51.070 -20.675  1.00  0.00     0.011 C 
HETATM   19  C27 UNL     1      -1.279  49.874 -20.463  1.00  0.00    -0.032 C 
HETATM   20  C28 UNL     1      -0.465  48.596 -20.902  1.00  0.00     0.016 C 
ENDROOT
BRANCH   1  21
HETATM   21  C7  UNL     1      -1.525  50.490 -17.851  1.00  0.00    -0.014 C 
HETATM   22  C8  UNL     1      -2.560  50.541 -16.728  1.00  0.00     0.010 C 
BRANCH  21  23
HETATM   23  C6  UNL     1      -0.098  50.330 -17.254  1.00  0.00     0.008 C 
BRANCH  23  24
HETATM   24  C5  UNL     1       0.316  51.357 -16.197  1.00  0.00     0.028 C 
BRANCH  24  25
HETATM   25  C4  UNL     1       1.672  51.934 -16.509  1.00  0.00    -0.025 C 
HETATM   26  C2  UNL     1       2.740  52.009 -15.690  1.00  0.00    -0.091 C 
HETATM   27  C1  UNL     1       2.793  51.468 -14.287  1.00  0.00     0.042 C 
HETATM   28  C3  UNL     1       4.017  52.661 -16.153  1.00  0.00     0.042 C 
ENDBRANCH  24  25
ENDBRANCH  23  24
ENDBRANCH  21  23
ENDBRANCH   1  21
BRANCH   8  29
HETATM   29  O1  UNL     1      -4.008  49.781 -26.083  1.00  0.00    -0.395 OA
HETATM   30  H28 UNL     1      -4.598  50.544 -25.962  1.00  0.00     0.210 HD
ENDBRANCH   8  29
BRANCH  11  31
HETATM   31  O2  UNL     1       0.474  51.502 -28.393  1.00  0.00    -0.396 OA
HETATM   32  H33 UNL     1       0.924  52.265 -28.792  1.00  0.00     0.210 HD
ENDBRANCH  11  31
TORSDOF 6
ENDMDL
MODEL 5
REMARK minimizedAffinity -9.09709835
REMARK  6 active torsions:
REMARK  status: ('A' for Active; 'I' for Inactive)
REMARK    1  A    between atoms: C4_4  and  C5_5 
REMARK    2  A    between atoms: C5_5  and  C6_6 
REMARK    3  A    between atoms: C6_6  and  C7_7 
REMARK    4  A    between atoms: C7_7  and  C9_9 
REMARK    5  A    between atoms: C16_16  and  O1_17 
REMARK    6  A    between atoms: C19_20  and  O2_21 
ROOT
HETATM    1  C9  UNL     1      -3.360  50.297 -24.497  1.00  0.00    -0.002 C 
HETATM    2  C10 UNL     1      -4.675  49.502 -24.267  1.00  0.00     0.006 C 
HETATM    3  C11 UNL     1      -4.885  49.401 -22.741  1.00  0.00     0.011 C 
HETATM    4  C12 UNL     1      -3.458  49.392 -22.181  1.00  0.00    -0.032 C 
HETATM    5  C13 UNL     1      -2.904  47.956 -22.422  1.00  0.00     0.016 C 
HETATM    6  C14 UNL     1      -3.272  49.749 -20.680  1.00  0.00     0.006 C 
HETATM    7  C15 UNL     1      -4.075  48.891 -19.698  1.00  0.00     0.038 C 
HETATM    8  C16 UNL     1      -3.887  49.436 -18.283  1.00  0.00     0.123 C 
HETATM    9  C17 UNL     1      -2.431  49.339 -17.787  1.00  0.00     0.026 C 
HETATM   10  C18 UNL     1      -2.266  50.214 -16.532  1.00  0.00     0.039 C 
HETATM   11  C19 UNL     1      -0.871  50.087 -15.921  1.00  0.00     0.118 C 
HETATM   12  C20 UNL     1       0.243  50.008 -16.966  1.00  0.00     0.032 C 
HETATM   13  C21 UNL     1      -0.216  50.531 -18.326  1.00  0.00     0.013 C 
HETATM   14  C22 UNL     1      -1.379  49.701 -18.854  1.00  0.00    -0.025 A 
HETATM   15  C23 UNL     1      -1.038  48.582 -19.815  1.00  0.00     0.021 A 
HETATM   16  C24 UNL     1      -1.765  49.799 -20.348  1.00  0.00    -0.027 A 
HETATM   17  C25 UNL     1      -0.946  50.700 -21.290  1.00  0.00     0.011 C 
HETATM   18  C26 UNL     1      -1.277  50.521 -22.791  1.00  0.00     0.011 C 
HETATM   19  C27 UNL     1      -2.794  50.529 -23.049  1.00  0.00    -0.032 C 
HETATM   20  C28 UNL     1      -3.289  51.982 -22.687  1.00  0.00     0.016 C 
ENDROOT
BRANCH   1  21
HETATM   21  C7  UNL     1      -2.391  49.837 -25.622  1.00  0.00    -0.014 C 
HETATM   22  C8  UNL     1      -2.710  48.519 -26.326  1.00  0.00     0.010 C 
BRANCH  21  23
HETATM   23  C6  UNL     1      -2.128  50.953 -26.673  1.00  0.00     0.008 C 
BRANCH  23  24
HETATM   24  C5  UNL     1      -1.316  52.160 -26.194  1.00  0.00     0.028 C 
BRANCH  24  25
HETATM   25  C4  UNL     1       0.115  51.775 -25.928  1.00  0.00    -0.025 C 
HETATM   26  C2  UNL     1       1.113  51.656 -26.825  1.00  0.00    -0.091 C 
HETATM   27  C1  UNL     1       0.992  51.944 -28.297  1.00  0.00     0.042 C 
HETATM   28  C3  UNL     1       2.487  51.216 -26.390  1.00  0.00     0.042 C 
ENDBRANCH  24  25
ENDBRANCH  23  24
ENDBRANCH  21  23
ENDBRANCH   1  21
BRANCH   8  29
HETATM   29  O1  UNL     1      -4.745  48.708 -17.399  1.00  0.00    -0.395 OA
HETATM   30  H28 UNL     1      -4.518  47.765 -17.472  1.00  0.00     0.210 HD
ENDBRANCH   8  29
BRANCH  11  31
HETATM   31  O2  UNL     1      -0.661  51.218 -15.074  1.00  0.00    -0.396 OA
HETATM   32  H33 UNL     1       0.204  51.108 -14.644  1.00  0.00     0.210 HD
ENDBRANCH  11  31
TORSDOF 6
ENDMDL
MODEL 6
REMARK minimizedAffinity -8.96211624
REMARK  6 active torsions:
REMARK  status: ('A' for Active; 'I' for Inactive)
REMARK    1  A    between atoms: C4_4  and  C5_5 
REMARK    2  A    between atoms: C5_5  and  C6_6 
REMARK    3  A    between atoms: C6_6  and  C7_7 
REMARK    4  A    between atoms: C7_7  and  C9_9 
REMARK    5  A    between atoms: C16_16  and  O1_17 
REMARK    6  A    between atoms: C19_20  and  O2_21 
ROOT
HETATM    1  C9  UNL     1      -3.939  48.218 -20.858  1.00  0.00    -0.002 C 
HETATM    2  C10 UNL     1      -5.157  47.877 -21.759  1.00  0.00     0.006 C 
HETATM    3  C11 UNL     1      -4.743  48.178 -23.216  1.00  0.00     0.011 C 
HETATM    4  C12 UNL     1      -3.742  49.331 -23.074  1.00  0.00    -0.032 C 
HETATM    5  C13 UNL     1      -4.588  50.613 -22.816  1.00  0.00     0.016 C 
HETATM    6  C14 UNL     1      -2.784  49.601 -24.267  1.00  0.00     0.006 C 
HETATM    7  C15 UNL     1      -3.468  49.851 -25.614  1.00  0.00     0.038 C 
HETATM    8  C16 UNL     1      -2.404  49.977 -26.704  1.00  0.00     0.123 C 
HETATM    9  C17 UNL     1      -1.477  51.192 -26.505  1.00  0.00     0.026 C 
HETATM   10  C18 UNL     1      -0.247  51.042 -27.418  1.00  0.00     0.039 C 
HETATM   11  C19 UNL     1       0.670  52.263 -27.352  1.00  0.00     0.118 C 
HETATM   12  C20 UNL     1       0.812  52.840 -25.942  1.00  0.00     0.032 C 
HETATM   13  C21 UNL     1       0.405  51.828 -24.872  1.00  0.00     0.013 C 
HETATM   14  C22 UNL     1      -1.054  51.426 -25.041  1.00  0.00    -0.025 A 
HETATM   15  C23 UNL     1      -2.069  52.168 -24.197  1.00  0.00     0.021 A 
HETATM   16  C24 UNL     1      -1.785  50.714 -23.881  1.00  0.00    -0.027 A 
HETATM   17  C25 UNL     1      -1.045  50.457 -22.556  1.00  0.00     0.011 C 
HETATM   18  C26 UNL     1      -1.952  49.966 -21.402  1.00  0.00     0.011 C 
HETATM   19  C27 UNL     1      -2.884  48.828 -21.851  1.00  0.00    -0.032 C 
HETATM   20  C28 UNL     1      -1.946  47.605 -22.188  1.00  0.00     0.016 C 
ENDROOT
BRANCH   1  21
HETATM   21  C7  UNL     1      -4.188  48.924 -19.494  1.00  0.00    -0.014 C 
HETATM   22  C8  UNL     1      -3.624  48.252 -18.244  1.00  0.00     0.010 C 
BRANCH  21  23
HETATM   23  C6  UNL     1      -3.786  50.426 -19.521  1.00  0.00     0.008 C 
BRANCH  23  24
HETATM   24  C5  UNL     1      -3.099  50.968 -18.265  1.00  0.00     0.028 C 
BRANCH  24  25
HETATM   25  C4  UNL     1      -1.905  51.812 -18.626  1.00  0.00    -0.025 C 
HETATM   26  C2  UNL     1      -0.608  51.551 -18.371  1.00  0.00    -0.091 C 
HETATM   27  C1  UNL     1      -0.092  50.306 -17.703  1.00  0.00     0.042 C 
HETATM   28  C3  UNL     1       0.465  52.531 -18.769  1.00  0.00     0.042 C 
ENDBRANCH  24  25
ENDBRANCH  23  24
ENDBRANCH  21  23
ENDBRANCH   1  21
BRANCH   8  29
HETATM   29  O1  UNL     1      -3.062  50.077 -27.971  1.00  0.00    -0.395 OA
HETATM   30  H28 UNL     1      -3.659  50.844 -27.938  1.00  0.00     0.210 HD
ENDBRANCH   8  29
BRANCH  11  31
HETATM   31  O2  UNL     1       1.952  51.874 -27.847  1.00  0.00    -0.396 OA
HETATM   32  H33 UNL     1       2.517  52.665 -27.856  1.00  0.00     0.210 HD
ENDBRANCH  11  31
TORSDOF 6
ENDMDL
MODEL 7
REMARK minimizedAffinity -8.93392086
REMARK  6 active torsions:
REMARK  status: ('A' for Active; 'I' for Inactive)
REMARK    1  A    between atoms: C4_4  and  C5_5 
REMARK    2  A    between atoms: C5_5  and  C6_6 
REMARK    3  A    between atoms: C6_6  and  C7_7 
REMARK    4  A    between atoms: C7_7  and  C9_9 
REMARK    5  A    between atoms: C16_16  and  O1_17 
REMARK    6  A    between atoms: C19_20  and  O2_21 
ROOT
HETATM    1  C9  UNL     1      -5.850  49.252 -24.305  1.00  0.00    -0.002 C 
HETATM    2  C10 UNL     1      -6.704  49.014 -23.030  1.00  0.00     0.006 C 
HETATM    3  C11 UNL     1      -6.003  49.752 -21.868  1.00  0.00     0.011 C 
HETATM    4  C12 UNL     1      -4.519  49.693 -22.250  1.00  0.00    -0.032 C 
HETATM    5  C13 UNL     1      -4.039  48.249 -21.916  1.00  0.00     0.016 C 
HETATM    6  C14 UNL     1      -3.560  50.705 -21.563  1.00  0.00     0.006 C 
HETATM    7  C15 UNL     1      -3.564  50.676 -20.032  1.00  0.00     0.038 C 
HETATM    8  C16 UNL     1      -2.673  51.800 -19.504  1.00  0.00     0.123 C 
HETATM    9  C17 UNL     1      -1.192  51.630 -19.895  1.00  0.00     0.026 C 
HETATM   10  C18 UNL     1      -0.448  52.952 -19.639  1.00  0.00     0.039 C 
HETATM   11  C19 UNL     1       1.052  52.830 -19.906  1.00  0.00     0.118 C 
HETATM   12  C20 UNL     1       1.382  51.975 -21.132  1.00  0.00     0.032 C 
HETATM   13  C21 UNL     1       0.179  51.829 -22.062  1.00  0.00     0.013 C 
HETATM   14  C22 UNL     1      -0.976  51.145 -21.342  1.00  0.00    -0.025 A 
HETATM   15  C23 UNL     1      -1.113  49.650 -21.538  1.00  0.00     0.021 A 
HETATM   16  C24 UNL     1      -2.146  50.562 -22.166  1.00  0.00    -0.027 A 
HETATM   17  C25 UNL     1      -2.111  50.643 -23.703  1.00  0.00     0.011 C 
HETATM   18  C26 UNL     1      -3.210  49.813 -24.411  1.00  0.00     0.011 C 
HETATM   19  C27 UNL     1      -4.595  50.044 -23.785  1.00  0.00    -0.032 C 
HETATM   20  C28 UNL     1      -4.961  51.549 -24.080  1.00  0.00     0.016 C 
ENDROOT
BRANCH   1  21
HETATM   21  C7  UNL     1      -5.641  48.075 -25.299  1.00  0.00    -0.014 C 
HETATM   22  C8  UNL     1      -6.860  47.600 -26.088  1.00  0.00     0.010 C 
BRANCH  21  23
HETATM   23  C6  UNL     1      -4.443  48.314 -26.261  1.00  0.00     0.008 C 
BRANCH  23  24
HETATM   24  C5  UNL     1      -4.791  48.764 -27.682  1.00  0.00     0.028 C 
BRANCH  24  25
HETATM   25  C4  UNL     1      -5.352  47.621 -28.486  1.00  0.00    -0.025 C 
HETATM   26  C2  UNL     1      -5.563  47.579 -29.816  1.00  0.00    -0.091 C 
HETATM   27  C1  UNL     1      -5.219  48.681 -30.781  1.00  0.00     0.042 C 
HETATM   28  C3  UNL     1      -6.176  46.361 -30.458  1.00  0.00     0.042 C 
ENDBRANCH  24  25
ENDBRANCH  23  24
ENDBRANCH  21  23
ENDBRANCH   1  21
BRANCH   8  29
HETATM   29  O1  UNL     1      -2.792  51.842 -18.079  1.00  0.00    -0.395 OA
HETATM   30  H28 UNL     1      -2.541  50.969 -17.732  1.00  0.00     0.210 HD
ENDBRANCH   8  29
BRANCH  11  31
HETATM   31  O2  UNL     1       1.574  54.147 -20.080  1.00  0.00    -0.396 OA
HETATM   32  H33 UNL     1       2.536  54.071 -20.195  1.00  0.00     0.210 HD
ENDBRANCH  11  31
TORSDOF 6
ENDMDL
MODEL 8
REMARK minimizedAffinity -8.86090565
REMARK  6 active torsions:
REMARK  status: ('A' for Active; 'I' for Inactive)
REMARK    1  A    between atoms: C4_4  and  C5_5 
REMARK    2  A    between atoms: C5_5  and  C6_6 
REMARK    3  A    between atoms: C6_6  and  C7_7 
REMARK    4  A    between atoms: C7_7  and  C9_9 
REMARK    5  A    between atoms: C16_16  and  O1_17 
REMARK    6  A    between atoms: C19_20  and  O2_21 
ROOT
HETATM    1  C9  UNL     1      -1.741  51.622 -26.136  1.00  0.00    -0.002 C 
HETATM    2  C10 UNL     1      -2.094  50.843 -27.433  1.00  0.00     0.006 C 
HETATM    3  C11 UNL     1      -3.401  50.068 -27.156  1.00  0.00     0.011 C 
HETATM    4  C12 UNL     1      -3.331  49.770 -25.654  1.00  0.00    -0.032 C 
HETATM    5  C13 UNL     1      -2.332  48.584 -25.491  1.00  0.00     0.016 C 
HETATM    6  C14 UNL     1      -4.656  49.404 -24.931  1.00  0.00     0.006 C 
HETATM    7  C15 UNL     1      -5.419  48.215 -25.523  1.00  0.00     0.038 C 
HETATM    8  C16 UNL     1      -6.751  48.055 -24.790  1.00  0.00     0.123 C 
HETATM    9  C17 UNL     1      -6.580  47.707 -23.298  1.00  0.00     0.026 C 
HETATM   10  C18 UNL     1      -7.923  47.914 -22.575  1.00  0.00     0.039 C 
HETATM   11  C19 UNL     1      -7.859  47.489 -21.109  1.00  0.00     0.118 C 
HETATM   12  C20 UNL     1      -6.541  47.863 -20.426  1.00  0.00     0.032 C 
HETATM   13  C21 UNL     1      -5.797  48.956 -21.191  1.00  0.00     0.013 C 
HETATM   14  C22 UNL     1      -5.450  48.486 -22.597  1.00  0.00    -0.025 A 
HETATM   15  C23 UNL     1      -4.063  47.914 -22.802  1.00  0.00     0.021 A 
HETATM   16  C24 UNL     1      -4.392  49.259 -23.417  1.00  0.00    -0.027 A 
HETATM   17  C25 UNL     1      -3.674  50.467 -22.789  1.00  0.00     0.011 C 
HETATM   18  C26 UNL     1      -2.475  50.996 -23.613  1.00  0.00     0.011 C 
HETATM   19  C27 UNL     1      -2.829  51.158 -25.101  1.00  0.00    -0.032 C 
HETATM   20  C28 UNL     1      -3.913  52.302 -25.168  1.00  0.00     0.016 C 
ENDROOT
BRANCH   1  21
HETATM   21  C7  UNL     1      -0.254  51.697 -25.687  1.00  0.00    -0.014 C 
HETATM   22  C8  UNL     1       0.744  50.802 -26.419  1.00  0.00     0.010 C 
BRANCH  21  23
HETATM   23  C6  UNL     1       0.277  53.157 -25.632  1.00  0.00     0.008 C 
BRANCH  23  24
HETATM   24  C5  UNL     1       0.668  53.686 -24.250  1.00  0.00     0.028 C 
BRANCH  24  25
HETATM   25  C4  UNL     1       0.345  52.681 -23.177  1.00  0.00    -0.025 C 
HETATM   26  C2  UNL     1       0.651  52.751 -21.867  1.00  0.00    -0.091 C 
HETATM   27  C1  UNL     1       1.350  53.907 -21.203  1.00  0.00     0.042 C 
HETATM   28  C3  UNL     1       0.286  51.628 -20.931  1.00  0.00     0.042 C 
ENDBRANCH  24  25
ENDBRANCH  23  24
ENDBRANCH  21  23
ENDBRANCH   1  21
BRANCH   8  29
HETATM   29  O1  UNL     1      -7.506  47.028 -25.440  1.00  0.00    -0.395 OA
HETATM   30  H28 UNL     1      -6.973  46.215 -25.432  1.00  0.00     0.210 HD
ENDBRANCH   8  29
BRANCH  11  31
HETATM   31  O2  UNL     1      -8.950  48.108 -20.427  1.00  0.00    -0.396 OA
HETATM   32  H33 UNL     1      -8.940  47.793 -19.507  1.00  0.00     0.210 HD
ENDBRANCH  11  31
TORSDOF 6
ENDMDL
MODEL 9
REMARK minimizedAffinity -8.84559822
REMARK  6 active torsions:
REMARK  status: ('A' for Active; 'I' for Inactive)
REMARK    1  A    between atoms: C4_4  and  C5_5 
REMARK    2  A    between atoms: C5_5  and  C6_6 
REMARK    3  A    between atoms: C6_6  and  C7_7 
REMARK    4  A    between atoms: C7_7  and  C9_9 
REMARK    5  A    between atoms: C16_16  and  O1_17 
REMARK    6  A    between atoms: C19_20  and  O2_21 
ROOT
HETATM    1  C9  UNL     1      -0.978  51.227 -21.387  1.00  0.00    -0.002 C 
HETATM    2  C10 UNL     1      -1.654  51.507 -20.017  1.00  0.00     0.006 C 
HETATM    3  C11 UNL     1      -2.944  50.660 -19.965  1.00  0.00     0.011 C 
HETATM    4  C12 UNL     1      -3.380  50.578 -21.433  1.00  0.00    -0.032 C 
HETATM    5  C13 UNL     1      -4.031  51.953 -21.772  1.00  0.00     0.016 C 
HETATM    6  C14 UNL     1      -4.372  49.449 -21.826  1.00  0.00     0.006 C 
HETATM    7  C15 UNL     1      -5.683  49.424 -21.035  1.00  0.00     0.038 C 
HETATM    8  C16 UNL     1      -6.495  48.195 -21.444  1.00  0.00     0.123 C 
HETATM    9  C17 UNL     1      -6.931  48.226 -22.923  1.00  0.00     0.026 C 
HETATM   10  C18 UNL     1      -7.419  46.825 -23.333  1.00  0.00     0.039 C 
HETATM   11  C19 UNL     1      -7.965  46.801 -24.760  1.00  0.00     0.118 C 
HETATM   12  C20 UNL     1      -7.156  47.660 -25.734  1.00  0.00     0.032 C 
HETATM   13  C21 UNL     1      -5.758  47.962 -25.197  1.00  0.00     0.013 C 
HETATM   14  C22 UNL     1      -5.842  48.736 -23.888  1.00  0.00    -0.025 A 
HETATM   15  C23 UNL     1      -5.730  50.244 -23.978  1.00  0.00     0.021 A 
HETATM   16  C24 UNL     1      -4.589  49.466 -23.355  1.00  0.00    -0.027 A 
HETATM   17  C25 UNL     1      -3.284  49.436 -24.171  1.00  0.00     0.011 C 
HETATM   18  C26 UNL     1      -2.187  50.400 -23.657  1.00  0.00     0.011 C 
HETATM   19  C27 UNL     1      -1.997  50.292 -22.135  1.00  0.00    -0.032 C 
HETATM   20  C28 UNL     1      -1.432  48.844 -21.869  1.00  0.00     0.016 C 
ENDROOT
BRANCH   1  21
HETATM   21  C7  UNL     1      -0.332  52.411 -22.161  1.00  0.00    -0.014 C 
HETATM   22  C8  UNL     1       0.625  53.315 -21.386  1.00  0.00     0.010 C 
BRANCH  21  23
HETATM   23  C6  UNL     1       0.324  51.960 -23.497  1.00  0.00     0.008 C 
BRANCH  23  24
HETATM   24  C5  UNL     1       0.719  53.074 -24.470  1.00  0.00     0.028 C 
BRANCH  24  25
HETATM   25  C4  UNL     1       0.376  52.697 -25.887  1.00  0.00    -0.025 C 
HETATM   26  C2  UNL     1       1.133  52.000 -26.757  1.00  0.00    -0.091 C 
HETATM   27  C1  UNL     1       2.480  51.406 -26.448  1.00  0.00     0.042 C 
HETATM   28  C3  UNL     1       0.651  51.746 -28.162  1.00  0.00     0.042 C 
ENDBRANCH  24  25
ENDBRANCH  23  24
ENDBRANCH  21  23
ENDBRANCH   1  21
BRANCH   8  29
HETATM   29  O1  UNL     1      -7.651  48.115 -20.605  1.00  0.00    -0.395 OA
HETATM   30  H28 UNL     1      -8.149  48.945 -20.701  1.00  0.00     0.210 HD
ENDBRANCH   8  29
BRANCH  11  31
HETATM   31  O2  UNL     1      -7.972  45.444 -25.202  1.00  0.00    -0.396 OA
HETATM   32  H33 UNL     1      -8.371  45.424 -26.089  1.00  0.00     0.210 HD
ENDBRANCH  11  31
TORSDOF 6
ENDMDL
