MODEL 1
REMARK minimizedAffinity -7.41330671
REMARK  4 active torsions:
REMARK  status: ('A' for Active; 'I' for Inactive)
REMARK    1  A    between atoms: O1_2  and  C2_3 
REMARK    2  A    between atoms: C5_10  and  N3_11 
REMARK    3  A    between atoms: N3_11  and  S1_12 
REMARK    4  A    between atoms: S1_12  and  C6_15 
ROOT
HETATM    1  N3  UNL     1      -1.499  52.920 -24.825  1.00  0.00    -0.163 NA
HETATM    2  H6  UNL     1      -1.826  53.883 -24.886  1.00  0.00     0.147 HD
ENDROOT
BRANCH   1   3
HETATM    3  C5  UNL     1      -2.050  52.119 -25.852  1.00  0.00     0.146 A 
HETATM    4  C2  UNL     1      -2.224  52.497 -27.191  1.00  0.00     0.182 A 
HETATM    5  N1  UNL     1      -2.741  51.644 -28.110  1.00  0.00    -0.343 N 
HETATM    6  C3  UNL     1      -3.070  50.418 -27.641  1.00  0.00     0.107 A 
ATOM      7  H1  UNL     1      -2.872  51.908 -29.087  1.00  0.00     0.167 HD
HETATM    8  C4  UNL     1      -2.876  50.046 -26.319  1.00  0.00     0.106 A 
HETATM    9  N2  UNL     1      -2.350  50.883 -25.396  1.00  0.00    -0.351 N 
ATOM     10  H2  UNL     1      -2.192  50.602 -24.428  1.00  0.00     0.166 HD
BRANCH   4  11
HETATM   11  O1  UNL     1      -1.792  53.742 -27.595  1.00  0.00    -0.338 OA
HETATM   12  C1  UNL     1      -0.512  53.719 -28.219  1.00  0.00     0.211 C 
ENDBRANCH   4  11
ENDBRANCH   1   3
BRANCH   1  13
HETATM   13  S1  UNL     1       0.162  52.866 -24.611  1.00  0.00     0.248 S 
HETATM   14  O2  UNL     1       0.696  54.123 -25.090  1.00  0.00    -0.205 OA
HETATM   15  O3  UNL     1       0.670  51.613 -25.129  1.00  0.00    -0.205 OA
BRANCH  13  16
HETATM   16  C6  UNL     1       0.387  52.870 -22.849  1.00  0.00     0.098 A 
HETATM   17  C7  UNL     1       1.067  53.967 -22.287  1.00  0.00     0.027 A 
HETATM   18  C8  UNL     1       1.273  54.038 -20.913  1.00  0.00     0.003 A 
HETATM   19  C9  UNL     1       0.797  53.019 -20.094  1.00  0.00     0.026 A 
HETATM   20  C10 UNL     1       0.108  51.932 -20.647  1.00  0.00     0.057 A 
HETATM   21 CL1  UNL     1      -0.447  50.721 -19.538  1.00  0.00    -0.083 Cl
HETATM   22  C11 UNL     1      -0.112  51.847 -22.033  1.00  0.00     0.078 A 
HETATM   23 CL2  UNL     1      -0.993  50.495 -22.672  1.00  0.00    -0.081 Cl
ENDBRANCH  13  16
ENDBRANCH   1  13
TORSDOF 4
ENDMDL
MODEL 2
REMARK minimizedAffinity -7.40609837
REMARK  4 active torsions:
REMARK  status: ('A' for Active; 'I' for Inactive)
REMARK    1  A    between atoms: O1_2  and  C2_3 
REMARK    2  A    between atoms: C5_10  and  N3_11 
REMARK    3  A    between atoms: N3_11  and  S1_12 
REMARK    4  A    between atoms: S1_12  and  C6_15 
ROOT
HETATM    1  N3  UNL     1       7.971  62.937 -35.902  1.00  0.00    -0.163 NA
HETATM    2  H6  UNL     1       8.496  63.019 -36.771  1.00  0.00     0.147 HD
ENDROOT
BRANCH   1   3
HETATM    3  C5  UNL     1       8.817  62.636 -34.810  1.00  0.00     0.146 A 
HETATM    4  C2  UNL     1       8.642  61.591 -33.892  1.00  0.00     0.182 A 
HETATM    5  N1  UNL     1       9.526  61.369 -32.888  1.00  0.00    -0.343 N 
HETATM    6  C3  UNL     1      10.575  62.221 -32.842  1.00  0.00     0.107 A 
ATOM      7  H1  UNL     1       9.408  60.611 -32.215  1.00  0.00     0.167 HD
HETATM    8  C4  UNL     1      10.752  63.241 -33.766  1.00  0.00     0.106 A 
HETATM    9  N2  UNL     1       9.884  63.465 -34.779  1.00  0.00    -0.351 N 
ATOM     10  H2  UNL     1      10.024  64.204 -35.468  1.00  0.00     0.166 HD
BRANCH   4  11
HETATM   11  O1  UNL     1       7.580  60.727 -34.060  1.00  0.00    -0.338 OA
HETATM   12  C1  UNL     1       7.850  59.680 -34.987  1.00  0.00     0.211 C 
ENDBRANCH   4  11
ENDBRANCH   1   3
BRANCH   1  13
HETATM   13  S1  UNL     1       6.908  64.220 -35.723  1.00  0.00     0.248 S 
HETATM   14  O2  UNL     1       6.200  64.366 -36.978  1.00  0.00    -0.205 OA
HETATM   15  O3  UNL     1       7.610  65.347 -35.147  1.00  0.00    -0.205 OA
BRANCH  13  16
HETATM   16  C6  UNL     1       5.711  63.649 -34.543  1.00  0.00     0.098 A 
HETATM   17  C7  UNL     1       5.205  62.346 -34.712  1.00  0.00     0.027 A 
HETATM   18  C8  UNL     1       4.269  61.832 -33.820  1.00  0.00     0.003 A 
HETATM   19  C9  UNL     1       3.837  62.614 -32.753  1.00  0.00     0.026 A 
HETATM   20  C10 UNL     1       4.346  63.906 -32.573  1.00  0.00     0.057 A 
HETATM   21 CL1  UNL     1       3.746  64.792 -31.209  1.00  0.00    -0.083 Cl
HETATM   22  C11 UNL     1       5.295  64.439 -33.463  1.00  0.00     0.078 A 
HETATM   23 CL2  UNL     1       5.919  66.035 -33.186  1.00  0.00    -0.081 Cl
ENDBRANCH  13  16
ENDBRANCH   1  13
TORSDOF 4
ENDMDL
MODEL 3
REMARK minimizedAffinity -7.36754131
REMARK  4 active torsions:
REMARK  status: ('A' for Active; 'I' for Inactive)
REMARK    1  A    between atoms: O1_2  and  C2_3 
REMARK    2  A    between atoms: C5_10  and  N3_11 
REMARK    3  A    between atoms: N3_11  and  S1_12 
REMARK    4  A    between atoms: S1_12  and  C6_15 
ROOT
HETATM    1  N3  UNL     1      -1.536  53.045 -24.934  1.00  0.00    -0.163 NA
HETATM    2  H6  UNL     1      -1.717  54.025 -25.144  1.00  0.00     0.147 HD
ENDROOT
BRANCH   1   3
HETATM    3  C5  UNL     1      -2.063  52.194 -25.933  1.00  0.00     0.146 A 
HETATM    4  C2  UNL     1      -2.239  52.518 -27.286  1.00  0.00     0.182 A 
HETATM    5  N1  UNL     1      -2.732  51.620 -28.175  1.00  0.00    -0.343 N 
HETATM    6  C3  UNL     1      -3.036  50.406 -27.663  1.00  0.00     0.107 A 
ATOM      7  H1  UNL     1      -2.864  51.845 -29.161  1.00  0.00     0.167 HD
HETATM    8  C4  UNL     1      -2.840  50.087 -26.327  1.00  0.00     0.106 A 
HETATM    9  N2  UNL     1      -2.337  50.969 -25.433  1.00  0.00    -0.351 N 
ATOM     10  H2  UNL     1      -2.178  50.727 -24.455  1.00  0.00     0.166 HD
BRANCH   4  11
HETATM   11  O1  UNL     1      -1.833  53.758 -27.733  1.00  0.00    -0.338 OA
HETATM   12  C1  UNL     1      -0.467  53.791 -28.134  1.00  0.00     0.211 C 
ENDBRANCH   4  11
ENDBRANCH   1   3
BRANCH   1  13
HETATM   13  S1  UNL     1       0.063  52.814 -24.489  1.00  0.00     0.248 S 
HETATM   14  O2  UNL     1       0.691  54.119 -24.459  1.00  0.00    -0.205 OA
HETATM   15  O3  UNL     1       0.634  51.750 -25.289  1.00  0.00    -0.205 OA
BRANCH  13  16
HETATM   16  C6  UNL     1      -0.015  52.262 -22.804  1.00  0.00     0.098 A 
HETATM   17  C7  UNL     1      -0.736  51.081 -22.543  1.00  0.00     0.027 A 
HETATM   18  C8  UNL     1      -0.834  50.588 -21.245  1.00  0.00     0.003 A 
HETATM   19  C9  UNL     1      -0.208  51.267 -20.205  1.00  0.00     0.026 A 
HETATM   20  C10 UNL     1       0.521  52.435 -20.461  1.00  0.00     0.057 A 
HETATM   21 CL1  UNL     1       1.266  53.199 -19.094  1.00  0.00    -0.083 Cl
HETATM   22  C11 UNL     1       0.632  52.944 -21.766  1.00  0.00     0.078 A 
HETATM   23 CL2  UNL     1       1.568  54.380 -22.042  1.00  0.00    -0.081 Cl
ENDBRANCH  13  16
ENDBRANCH   1  13
TORSDOF 4
ENDMDL
MODEL 4
REMARK minimizedAffinity -7.21828747
REMARK  4 active torsions:
REMARK  status: ('A' for Active; 'I' for Inactive)
REMARK    1  A    between atoms: O1_2  and  C2_3 
REMARK    2  A    between atoms: C5_10  and  N3_11 
REMARK    3  A    between atoms: N3_11  and  S1_12 
REMARK    4  A    between atoms: S1_12  and  C6_15 
ROOT
HETATM    1  N3  UNL     1      -0.602  53.333 -24.804  1.00  0.00    -0.163 NA
HETATM    2  H6  UNL     1       0.070  53.977 -24.391  1.00  0.00     0.147 HD
ENDROOT
BRANCH   1   3
HETATM    3  C5  UNL     1      -0.120  52.785 -26.015  1.00  0.00     0.146 A 
HETATM    4  C2  UNL     1      -0.872  52.557 -27.176  1.00  0.00     0.182 A 
HETATM    5  N1  UNL     1      -0.310  52.048 -28.300  1.00  0.00    -0.343 N 
HETATM    6  C3  UNL     1       1.014  51.782 -28.216  1.00  0.00     0.107 A 
ATOM      7  H1  UNL     1      -0.848  51.877 -29.150  1.00  0.00     0.167 HD
HETATM    8  C4  UNL     1       1.755  52.030 -27.070  1.00  0.00     0.106 A 
HETATM    9  N2  UNL     1       1.208  52.549 -25.946  1.00  0.00    -0.351 N 
ATOM     10  H2  UNL     1       1.758  52.746 -25.110  1.00  0.00     0.166 HD
BRANCH   4  11
HETATM   11  O1  UNL     1      -2.201  52.925 -27.194  1.00  0.00    -0.338 OA
HETATM   12  C1  UNL     1      -3.087  51.845 -26.918  1.00  0.00     0.211 C 
ENDBRANCH   4  11
ENDBRANCH   1   3
BRANCH   1  13
HETATM   13  S1  UNL     1      -1.190  52.264 -23.655  1.00  0.00     0.248 S 
HETATM   14  O2  UNL     1      -0.804  50.933 -24.073  1.00  0.00    -0.205 OA
HETATM   15  O3  UNL     1      -2.579  52.568 -23.384  1.00  0.00    -0.205 OA
BRANCH  13  16
HETATM   16  C6  UNL     1      -0.248  52.617 -22.191  1.00  0.00     0.098 A 
HETATM   17  C7  UNL     1       0.801  53.549 -22.306  1.00  0.00     0.027 A 
HETATM   18  C8  UNL     1       1.576  53.877 -21.198  1.00  0.00     0.003 A 
HETATM   19  C9  UNL     1       1.303  53.282 -19.970  1.00  0.00     0.026 A 
HETATM   20  C10 UNL     1       0.253  52.364 -19.848  1.00  0.00     0.057 A 
HETATM   21 CL1  UNL     1      -0.004  51.685 -18.273  1.00  0.00    -0.083 Cl
HETATM   22  C11 UNL     1      -0.542  52.024 -20.957  1.00  0.00     0.078 A 
HETATM   23 CL2  UNL     1      -1.849  50.901 -20.753  1.00  0.00    -0.081 Cl
ENDBRANCH  13  16
ENDBRANCH   1  13
TORSDOF 4
ENDMDL
MODEL 5
REMARK minimizedAffinity -6.89137888
REMARK  4 active torsions:
REMARK  status: ('A' for Active; 'I' for Inactive)
REMARK    1  A    between atoms: O1_2  and  C2_3 
REMARK    2  A    between atoms: C5_10  and  N3_11 
REMARK    3  A    between atoms: N3_11  and  S1_12 
REMARK    4  A    between atoms: S1_12  and  C6_15 
ROOT
HETATM    1  N3  UNL     1      -1.471  53.229 -24.773  1.00  0.00    -0.163 NA
HETATM    2  H6  UNL     1      -1.461  53.683 -25.685  1.00  0.00     0.147 HD
ENDROOT
BRANCH   1   3
HETATM    3  C5  UNL     1      -2.688  52.547 -24.545  1.00  0.00     0.146 A 
HETATM    4  C2  UNL     1      -3.445  51.863 -25.507  1.00  0.00     0.182 A 
HETATM    5  N1  UNL     1      -4.592  51.217 -25.183  1.00  0.00    -0.343 N 
HETATM    6  C3  UNL     1      -4.944  51.280 -23.878  1.00  0.00     0.107 A 
ATOM      7  H1  UNL     1      -5.151  50.717 -25.875  1.00  0.00     0.167 HD
HETATM    8  C4  UNL     1      -4.178  51.942 -22.929  1.00  0.00     0.106 A 
HETATM    9  N2  UNL     1      -3.026  52.580 -23.238  1.00  0.00    -0.351 N 
ATOM     10  H2  UNL     1      -2.455  53.051 -22.535  1.00  0.00     0.166 HD
BRANCH   4  11
HETATM   11  O1  UNL     1      -2.972  51.790 -26.801  1.00  0.00    -0.338 OA
HETATM   12  C1  UNL     1      -2.675  50.461 -27.216  1.00  0.00     0.211 C 
ENDBRANCH   4  11
ENDBRANCH   1   3
BRANCH   1  13
HETATM   13  S1  UNL     1      -0.050  52.379 -24.515  1.00  0.00     0.248 S 
HETATM   14  O2  UNL     1       0.953  52.947 -25.391  1.00  0.00    -0.205 OA
HETATM   15  O3  UNL     1      -0.328  50.958 -24.551  1.00  0.00    -0.205 OA
BRANCH  13  16
HETATM   16  C6  UNL     1       0.435  52.808 -22.861  1.00  0.00     0.098 A 
HETATM   17  C7  UNL     1       1.171  53.996 -22.691  1.00  0.00     0.027 A 
HETATM   18  C8  UNL     1       1.579  54.395 -21.422  1.00  0.00     0.003 A 
HETATM   19  C9  UNL     1       1.248  53.615 -20.318  1.00  0.00     0.026 A 
HETATM   20  C10 UNL     1       0.505  52.440 -20.481  1.00  0.00     0.057 A 
HETATM   21 CL1  UNL     1       0.143  51.546 -19.040  1.00  0.00    -0.083 Cl
HETATM   22  C11 UNL     1       0.083  52.023 -21.756  1.00  0.00     0.078 A 
HETATM   23 CL2  UNL     1      -0.859  50.574 -21.908  1.00  0.00    -0.081 Cl
ENDBRANCH  13  16
ENDBRANCH   1  13
TORSDOF 4
ENDMDL
MODEL 6
REMARK minimizedAffinity -6.83167458
REMARK  4 active torsions:
REMARK  status: ('A' for Active; 'I' for Inactive)
REMARK    1  A    between atoms: O1_2  and  C2_3 
REMARK    2  A    between atoms: C5_10  and  N3_11 
REMARK    3  A    between atoms: N3_11  and  S1_12 
REMARK    4  A    between atoms: S1_12  and  C6_15 
ROOT
HETATM    1  N3  UNL     1      -0.635  51.369 -24.551  1.00  0.00    -0.163 NA
HETATM    2  H6  UNL     1       0.182  50.764 -24.619  1.00  0.00     0.147 HD
ENDROOT
BRANCH   1   3
HETATM    3  C5  UNL     1      -1.457  51.261 -25.697  1.00  0.00     0.146 A 
HETATM    4  C2  UNL     1      -1.639  52.246 -26.678  1.00  0.00     0.182 A 
HETATM    5  N1  UNL     1      -2.433  52.037 -27.758  1.00  0.00    -0.343 N 
HETATM    6  C3  UNL     1      -3.027  50.823 -27.813  1.00  0.00     0.107 A 
ATOM      7  H1  UNL     1      -2.573  52.746 -28.478  1.00  0.00     0.167 HD
HETATM    8  C4  UNL     1      -2.826  49.847 -26.848  1.00  0.00     0.106 A 
HETATM    9  N2  UNL     1      -2.026  50.038 -25.773  1.00  0.00    -0.351 N 
ATOM     10  H2  UNL     1      -1.866  49.314 -25.074  1.00  0.00     0.166 HD
BRANCH   4  11
HETATM   11  O1  UNL     1      -0.936  53.428 -26.576  1.00  0.00    -0.338 OA
HETATM   12  C1  UNL     1      -0.370  53.853 -27.812  1.00  0.00     0.211 C 
ENDBRANCH   4  11
ENDBRANCH   1   3
BRANCH   1  13
HETATM   13  S1  UNL     1      -1.373  51.210 -23.055  1.00  0.00     0.248 S 
HETATM   14  O2  UNL     1      -1.266  49.818 -22.672  1.00  0.00    -0.205 OA
HETATM   15  O3  UNL     1      -2.667  51.859 -23.089  1.00  0.00    -0.205 OA
BRANCH  13  16
HETATM   16  C6  UNL     1      -0.327  52.114 -21.941  1.00  0.00     0.098 A 
HETATM   17  C7  UNL     1       0.549  53.062 -22.501  1.00  0.00     0.027 A 
HETATM   18  C8  UNL     1       1.393  53.810 -21.686  1.00  0.00     0.003 A 
HETATM   19  C9  UNL     1       1.361  53.619 -20.309  1.00  0.00     0.026 A 
HETATM   20  C10 UNL     1       0.482  52.686 -19.744  1.00  0.00     0.057 A 
HETATM   21 CL1  UNL     1       0.520  52.530 -18.018  1.00  0.00    -0.083 Cl
HETATM   22  C11 UNL     1      -0.379  51.924 -20.554  1.00  0.00     0.078 A 
HETATM   23 CL2  UNL     1      -1.470  50.799 -19.810  1.00  0.00    -0.081 Cl
ENDBRANCH  13  16
ENDBRANCH   1  13
TORSDOF 4
ENDMDL
MODEL 7
REMARK minimizedAffinity -6.79312325
REMARK  4 active torsions:
REMARK  status: ('A' for Active; 'I' for Inactive)
REMARK    1  A    between atoms: O1_2  and  C2_3 
REMARK    2  A    between atoms: C5_10  and  N3_11 
REMARK    3  A    between atoms: N3_11  and  S1_12 
REMARK    4  A    between atoms: S1_12  and  C6_15 
ROOT
HETATM    1  N3  UNL     1      -1.122  51.033 -26.365  1.00  0.00    -0.163 NA
HETATM    2  H6  UNL     1      -0.539  50.871 -27.185  1.00  0.00     0.147 HD
ENDROOT
BRANCH   1   3
HETATM    3  C5  UNL     1      -0.447  51.806 -25.393  1.00  0.00     0.146 A 
HETATM    4  C2  UNL     1       0.445  52.858 -25.646  1.00  0.00     0.182 A 
HETATM    5  N1  UNL     1       1.026  53.558 -24.640  1.00  0.00    -0.343 N 
HETATM    6  C3  UNL     1       0.681  53.169 -23.391  1.00  0.00     0.107 A 
ATOM      7  H1  UNL     1       1.676  54.324 -24.814  1.00  0.00     0.167 HD
HETATM    8  C4  UNL     1      -0.217  52.141 -23.149  1.00  0.00     0.106 A 
HETATM    9  N2  UNL     1      -0.813  51.443 -24.144  1.00  0.00    -0.351 N 
ATOM     10  H2  UNL     1      -1.487  50.699 -23.964  1.00  0.00     0.166 HD
BRANCH   4  11
HETATM   11  O1  UNL     1       0.682  53.231 -26.952  1.00  0.00    -0.338 OA
HETATM   12  C1  UNL     1       0.035  54.448 -27.314  1.00  0.00     0.211 C 
ENDBRANCH   4  11
ENDBRANCH   1   3
BRANCH   1  13
HETATM   13  S1  UNL     1      -2.659  51.527 -26.813  1.00  0.00     0.248 S 
HETATM   14  O2  UNL     1      -3.077  50.680 -27.910  1.00  0.00    -0.205 OA
HETATM   15  O3  UNL     1      -2.675  52.968 -26.958  1.00  0.00    -0.205 OA
BRANCH  13  16
HETATM   16  C6  UNL     1      -3.689  51.096 -25.432  1.00  0.00     0.098 A 
HETATM   17  C7  UNL     1      -4.281  52.151 -24.712  1.00  0.00     0.027 A 
HETATM   18  C8  UNL     1      -5.104  51.886 -23.623  1.00  0.00     0.003 A 
HETATM   19  C9  UNL     1      -5.344  50.567 -23.251  1.00  0.00     0.026 A 
HETATM   20  C10 UNL     1      -4.768  49.513 -23.971  1.00  0.00     0.057 A 
HETATM   21 CL1  UNL     1      -5.137  47.909 -23.426  1.00  0.00    -0.083 Cl
HETATM   22  C11 UNL     1      -3.937  49.764 -25.076  1.00  0.00     0.078 A 
HETATM   23 CL2  UNL     1      -3.265  48.428 -25.956  1.00  0.00    -0.081 Cl
ENDBRANCH  13  16
ENDBRANCH   1  13
TORSDOF 4
ENDMDL
MODEL 8
REMARK minimizedAffinity -6.76304626
REMARK  4 active torsions:
REMARK  status: ('A' for Active; 'I' for Inactive)
REMARK    1  A    between atoms: O1_2  and  C2_3 
REMARK    2  A    between atoms: C5_10  and  N3_11 
REMARK    3  A    between atoms: N3_11  and  S1_12 
REMARK    4  A    between atoms: S1_12  and  C6_15 
ROOT
HETATM    1  N3  UNL     1       6.298  63.797 -34.822  1.00  0.00    -0.163 NA
HETATM    2  H6  UNL     1       7.060  64.460 -34.687  1.00  0.00     0.147 HD
ENDROOT
BRANCH   1   3
HETATM    3  C5  UNL     1       6.741  62.461 -34.689  1.00  0.00     0.146 A 
HETATM    4  C2  UNL     1       7.877  62.033 -33.987  1.00  0.00     0.182 A 
HETATM    5  N1  UNL     1       8.206  60.721 -33.897  1.00  0.00    -0.343 N 
HETATM    6  C3  UNL     1       7.365  59.869 -34.526  1.00  0.00     0.107 A 
ATOM      7  H1  UNL     1       9.031  60.399 -33.389  1.00  0.00     0.167 HD
HETATM    8  C4  UNL     1       6.232  60.299 -35.201  1.00  0.00     0.106 A 
HETATM    9  N2  UNL     1       5.886  61.604 -35.288  1.00  0.00    -0.351 N 
ATOM     10  H2  UNL     1       5.043  61.916 -35.770  1.00  0.00     0.166 HD
BRANCH   4  11
HETATM   11  O1  UNL     1       8.637  62.967 -33.315  1.00  0.00    -0.338 OA
HETATM   12  C1  UNL     1      10.028  62.877 -33.610  1.00  0.00     0.211 C 
ENDBRANCH   4  11
ENDBRANCH   1   3
BRANCH   1  13
HETATM   13  S1  UNL     1       4.947  64.253 -33.941  1.00  0.00     0.248 S 
HETATM   14  O2  UNL     1       5.421  64.834 -32.703  1.00  0.00    -0.205 OA
HETATM   15  O3  UNL     1       4.000  63.158 -33.916  1.00  0.00    -0.205 OA
BRANCH  13  16
HETATM   16  C6  UNL     1       4.232  65.585 -34.873  1.00  0.00     0.098 A 
HETATM   17  C7  UNL     1       2.972  65.362 -35.458  1.00  0.00     0.027 A 
HETATM   18  C8  UNL     1       2.351  66.365 -36.197  1.00  0.00     0.003 A 
HETATM   19  C9  UNL     1       2.983  67.594 -36.350  1.00  0.00     0.026 A 
HETATM   20  C10 UNL     1       4.231  67.826 -35.759  1.00  0.00     0.057 A 
HETATM   21 CL1  UNL     1       4.927  69.394 -36.008  1.00  0.00    -0.083 Cl
HETATM   22  C11 UNL     1       4.870  66.825 -35.007  1.00  0.00     0.078 A 
HETATM   23 CL2  UNL     1       6.405  67.164 -34.271  1.00  0.00    -0.081 Cl
ENDBRANCH  13  16
ENDBRANCH   1  13
TORSDOF 4
ENDMDL
MODEL 9
REMARK minimizedAffinity -6.66582441
REMARK  4 active torsions:
REMARK  status: ('A' for Active; 'I' for Inactive)
REMARK    1  A    between atoms: O1_2  and  C2_3 
REMARK    2  A    between atoms: C5_10  and  N3_11 
REMARK    3  A    between atoms: N3_11  and  S1_12 
REMARK    4  A    between atoms: S1_12  and  C6_15 
ROOT
HETATM    1  N3  UNL     1      -1.434  50.832 -24.985  1.00  0.00    -0.163 NA
HETATM    2  H6  UNL     1      -2.057  50.044 -25.154  1.00  0.00     0.147 HD
ENDROOT
BRANCH   1   3
HETATM    3  C5  UNL     1      -0.702  51.174 -26.146  1.00  0.00     0.146 A 
HETATM    4  C2  UNL     1      -1.241  51.478 -27.404  1.00  0.00     0.182 A 
HETATM    5  N1  UNL     1      -0.453  51.819 -28.453  1.00  0.00    -0.343 N 
HETATM    6  C3  UNL     1       0.875  51.843 -28.196  1.00  0.00     0.107 A 
ATOM      7  H1  UNL     1      -0.835  52.042 -29.373  1.00  0.00     0.167 HD
HETATM    8  C4  UNL     1       1.399  51.560 -26.943  1.00  0.00     0.106 A 
HETATM    9  N2  UNL     1       0.623  51.231 -25.885  1.00  0.00    -0.351 N 
ATOM     10  H2  UNL     1       1.009  51.040 -24.961  1.00  0.00     0.166 HD
BRANCH   4  11
HETATM   11  O1  UNL     1      -2.612  51.498 -27.555  1.00  0.00    -0.338 OA
HETATM   12  C1  UNL     1      -3.167  50.214 -27.823  1.00  0.00     0.211 C 
ENDBRANCH   4  11
ENDBRANCH   1   3
BRANCH   1  13
HETATM   13  S1  UNL     1      -2.238  52.068 -24.189  1.00  0.00     0.248 S 
HETATM   14  O2  UNL     1      -3.639  51.704 -24.141  1.00  0.00    -0.205 OA
HETATM   15  O3  UNL     1      -1.836  53.341 -24.751  1.00  0.00    -0.205 OA
BRANCH  13  16
HETATM   16  C6  UNL     1      -1.646  51.986 -22.518  1.00  0.00     0.098 A 
HETATM   17  C7  UNL     1      -2.458  51.328 -21.575  1.00  0.00     0.027 A 
HETATM   18  C8  UNL     1      -2.052  51.221 -20.248  1.00  0.00     0.003 A 
HETATM   19  C9  UNL     1      -0.832  51.765 -19.859  1.00  0.00     0.026 A 
HETATM   20  C10 UNL     1      -0.014  52.409 -20.795  1.00  0.00     0.057 A 
HETATM   21 CL1  UNL     1       1.487  53.045 -20.206  1.00  0.00    -0.083 Cl
HETATM   22  C11 UNL     1      -0.408  52.522 -22.140  1.00  0.00     0.078 A 
HETATM   23 CL2  UNL     1       0.649  53.305 -23.272  1.00  0.00    -0.081 Cl
ENDBRANCH  13  16
ENDBRANCH   1  13
TORSDOF 4
ENDMDL
