MODEL 1
REMARK minimizedAffinity -7.69421625
REMARK CNNscore 0.717759967
REMARK CNNaffinity 6.93557358
REMARK  4 active torsions:
REMARK  status: ('A' for Active; 'I' for Inactive)
REMARK    1  A    between atoms: C2_2  and  C3_3 
REMARK    2  A    between atoms: C2_2  and  C9_9 
REMARK    3  A    between atoms: C4_4  and  C5_5 
REMARK    4  A    between atoms: C23_23  and  O1_24 
ROOT
HETATM    1  C9  UNL     1       4.106  55.112  -8.275  1.00  0.00     0.001 C 
HETATM    2  C10 UNL     1       3.413  56.228  -7.433  1.00  0.00     0.006 C 
HETATM    3  C11 UNL     1       1.898  56.062  -7.614  1.00  0.00     0.009 C 
HETATM    4  C12 UNL     1       1.767  54.763  -8.398  1.00  0.00     0.036 C 
HETATM    5  C13 UNL     1       3.009  54.737  -9.326  1.00  0.00    -0.033 C 
HETATM    6  C14 UNL     1       2.979  55.773 -10.471  1.00  0.00     0.016 C 
HETATM    7  C15 UNL     1       3.099  53.310  -9.905  1.00  0.00     0.010 C 
HETATM    8  C16 UNL     1       1.807  52.895 -10.634  1.00  0.00     0.010 C 
HETATM    9  C17 UNL     1       0.544  53.028  -9.761  1.00  0.00     0.039 C 
HETATM   10  C18 UNL     1       0.422  54.417  -9.048  1.00  0.00     0.123 C 
HETATM   11  C19 UNL     1      -0.214  55.468  -9.920  1.00  0.00     0.014 C 
HETATM   12  C20 UNL     1      -1.435  55.130 -10.359  1.00  0.00     0.014 C 
HETATM   13  C21 UNL     1      -1.867  53.734  -9.951  1.00  0.00     0.124 C 
HETATM   14  C22 UNL     1      -3.312  53.440 -10.373  1.00  0.00     0.078 C 
HETATM   15  C23 UNL     1      -3.705  51.965 -10.233  1.00  0.00     0.121 C 
HETATM   16  C24 UNL     1      -2.679  51.104  -9.504  1.00  0.00     0.033 C 
HETATM   17  C25 UNL     1      -1.273  51.220 -10.101  1.00  0.00     0.015 C 
HETATM   18  C26 UNL     1      -0.834  52.676 -10.472  1.00  0.00     0.001 C 
HETATM   19  C27 UNL     1      -0.731  52.739 -12.022  1.00  0.00     0.019 C 
HETATM   20  O2  UNL     1      -1.825  53.692  -8.496  1.00  0.00    -0.223 OA
HETATM   21  O3  UNL     1      -0.535  54.229  -7.970  1.00  0.00    -0.224 OA
ENDROOT
BRANCH   1  22
HETATM   22  C2  UNL     1       5.523  55.531  -8.756  1.00  0.00     0.008 C 
HETATM   23  C1  UNL     1       6.270  54.403  -9.476  1.00  0.00     0.014 C 
BRANCH  22  24
HETATM   24  C3  UNL     1       6.322  56.102  -7.594  1.00  0.00    -0.026 C 
HETATM   25  C4  UNL     1       7.425  55.585  -7.025  1.00  0.00    -0.025 C 
BRANCH  25  26
HETATM   26  C5  UNL     1       8.157  56.177  -5.902  1.00  0.00     0.012 A 
HETATM   27  C6  UNL     1       7.610  56.027  -4.502  1.00  0.00     0.013 A 
HETATM   28  C7  UNL     1       7.599  57.376  -5.167  1.00  0.00    -0.010 A 
HETATM   29  C8  UNL     1       6.300  58.016  -5.522  1.00  0.00     0.010 C 
ENDBRANCH  25  26
ENDBRANCH  22  24
ENDBRANCH   1  22
BRANCH  15  30
HETATM   30  O1  UNL     1      -3.911  51.430 -11.544  1.00  0.00    -0.395 OA
HETATM   31  H33 UNL     1      -4.252  50.525 -11.440  1.00  0.00     0.210 HD
ENDBRANCH  15  30
TORSDOF 4
ENDMDL
MODEL 2
REMARK minimizedAffinity -7.58404684
REMARK CNNscore 0.479626626
REMARK CNNaffinity 5.58416748
REMARK  4 active torsions:
REMARK  status: ('A' for Active; 'I' for Inactive)
REMARK    1  A    between atoms: C2_2  and  C3_3 
REMARK    2  A    between atoms: C2_2  and  C9_9 
REMARK    3  A    between atoms: C4_4  and  C5_5 
REMARK    4  A    between atoms: C23_23  and  O1_24 
ROOT
HETATM    1  C9  UNL     1       6.476  66.989 -35.710  1.00  0.00     0.001 C 
HETATM    2  C10 UNL     1       7.172  68.287 -36.224  1.00  0.00     0.006 C 
HETATM    3  C11 UNL     1       6.122  69.089 -37.005  1.00  0.00     0.009 C 
HETATM    4  C12 UNL     1       4.828  68.323 -36.763  1.00  0.00     0.036 C 
HETATM    5  C13 UNL     1       5.260  66.836 -36.683  1.00  0.00    -0.033 C 
HETATM    6  C14 UNL     1       5.714  66.224 -38.027  1.00  0.00     0.016 C 
HETATM    7  C15 UNL     1       4.053  66.054 -36.126  1.00  0.00     0.010 C 
HETATM    8  C16 UNL     1       2.785  66.256 -36.977  1.00  0.00     0.010 C 
HETATM    9  C17 UNL     1       2.407  67.738 -37.166  1.00  0.00     0.039 C 
HETATM   10  C18 UNL     1       3.604  68.632 -37.635  1.00  0.00     0.123 C 
HETATM   11  C19 UNL     1       3.799  68.613 -39.129  1.00  0.00     0.014 C 
HETATM   12  C20 UNL     1       2.713  69.001 -39.813  1.00  0.00     0.014 C 
HETATM   13  C21 UNL     1       1.508  69.289 -38.937  1.00  0.00     0.124 C 
HETATM   14  C22 UNL     1       0.332  69.841 -39.752  1.00  0.00     0.078 C 
HETATM   15  C23 UNL     1      -0.987  69.890 -38.971  1.00  0.00     0.121 C 
HETATM   16  C24 UNL     1      -0.851  69.593 -37.482  1.00  0.00     0.033 C 
HETATM   17  C25 UNL     1      -0.122  68.275 -37.202  1.00  0.00     0.015 C 
HETATM   18  C26 UNL     1       1.143  68.022 -38.088  1.00  0.00     0.001 C 
HETATM   19  C27 UNL     1       0.812  66.824 -39.021  1.00  0.00     0.019 C 
HETATM   20  O2  UNL     1       1.911  70.329 -38.001  1.00  0.00    -0.223 OA
HETATM   21  O3  UNL     1       3.215  70.003 -37.349  1.00  0.00    -0.224 OA
ENDROOT
BRANCH   1  22
HETATM   22  C2  UNL     1       7.477  65.812 -35.537  1.00  0.00     0.008 C 
HETATM   23  C1  UNL     1       8.304  65.538 -36.797  1.00  0.00     0.014 C 
BRANCH  22  24
HETATM   24  C3  UNL     1       6.746  64.572 -35.045  1.00  0.00    -0.026 C 
HETATM   25  C4  UNL     1       6.003  64.447 -33.932  1.00  0.00    -0.025 C 
BRANCH  25  26
HETATM   26  C5  UNL     1       5.320  63.223 -33.501  1.00  0.00     0.012 A 
HETATM   27  C6  UNL     1       3.849  63.056 -33.796  1.00  0.00     0.013 A 
HETATM   28  C7  UNL     1       4.307  63.263 -32.378  1.00  0.00    -0.010 A 
HETATM   29  C8  UNL     1       3.939  64.516 -31.657  1.00  0.00     0.010 C 
ENDBRANCH  25  26
ENDBRANCH  22  24
ENDBRANCH   1  22
BRANCH  15  30
HETATM   30  O1  UNL     1      -1.886  68.941 -39.553  1.00  0.00    -0.395 OA
HETATM   31  H33 UNL     1      -2.748  69.049 -39.114  1.00  0.00     0.210 HD
ENDBRANCH  15  30
TORSDOF 4
ENDMDL
MODEL 3
REMARK minimizedAffinity -8.31549263
REMARK CNNscore 0.401103199
REMARK CNNaffinity 6.25668144
REMARK  4 active torsions:
REMARK  status: ('A' for Active; 'I' for Inactive)
REMARK    1  A    between atoms: C2_2  and  C3_3 
REMARK    2  A    between atoms: C2_2  and  C9_9 
REMARK    3  A    between atoms: C4_4  and  C5_5 
REMARK    4  A    between atoms: C23_23  and  O1_24 
ROOT
HETATM    1  C9  UNL     1      -2.621  50.439 -23.689  1.00  0.00     0.001 C 
HETATM    2  C10 UNL     1      -2.895  49.417 -24.834  1.00  0.00     0.006 C 
HETATM    3  C11 UNL     1      -3.995  48.466 -24.343  1.00  0.00     0.009 C 
HETATM    4  C12 UNL     1      -4.437  49.076 -23.020  1.00  0.00     0.036 C 
HETATM    5  C13 UNL     1      -3.146  49.690 -22.420  1.00  0.00    -0.033 C 
HETATM    6  C14 UNL     1      -2.108  48.656 -21.931  1.00  0.00     0.016 C 
HETATM    7  C15 UNL     1      -3.588  50.591 -21.248  1.00  0.00     0.010 C 
HETATM    8  C16 UNL     1      -4.418  49.822 -20.203  1.00  0.00     0.010 C 
HETATM    9  C17 UNL     1      -5.644  49.105 -20.804  1.00  0.00     0.039 C 
HETATM   10  C18 UNL     1      -5.304  48.244 -22.067  1.00  0.00     0.123 C 
HETATM   11  C19 UNL     1      -4.815  46.862 -21.719  1.00  0.00     0.014 C 
HETATM   12  C20 UNL     1      -5.682  46.162 -20.973  1.00  0.00     0.014 C 
HETATM   13  C21 UNL     1      -6.919  46.945 -20.576  1.00  0.00     0.124 C 
HETATM   14  C22 UNL     1      -7.931  46.068 -19.828  1.00  0.00     0.078 C 
HETATM   15  C23 UNL     1      -9.065  46.863 -19.170  1.00  0.00     0.121 C 
HETATM   16  C24 UNL     1      -9.107  48.338 -19.553  1.00  0.00     0.033 C 
HETATM   17  C25 UNL     1      -7.768  49.049 -19.332  1.00  0.00     0.015 C 
HETATM   18  C26 UNL     1      -6.510  48.239 -19.791  1.00  0.00     0.001 C 
HETATM   19  C27 UNL     1      -5.718  47.865 -18.508  1.00  0.00     0.019 C 
HETATM   20  O2  UNL     1      -7.555  47.378 -21.813  1.00  0.00    -0.223 OA
HETATM   21  O3  UNL     1      -6.570  48.009 -22.742  1.00  0.00    -0.224 OA
ENDROOT
BRANCH   1  22
HETATM   22  C2  UNL     1      -1.163  50.978 -23.717  1.00  0.00     0.008 C 
HETATM   23  C1  UNL     1      -0.937  52.149 -22.753  1.00  0.00     0.014 C 
BRANCH  22  24
HETATM   24  C3  UNL     1      -0.758  51.319 -25.143  1.00  0.00    -0.026 C 
HETATM   25  C4  UNL     1       0.026  52.332 -25.552  1.00  0.00    -0.025 C 
BRANCH  25  26
HETATM   26  C5  UNL     1       0.383  52.618 -26.945  1.00  0.00     0.012 A 
HETATM   27  C6  UNL     1       0.393  51.492 -27.951  1.00  0.00     0.013 A 
HETATM   28  C7  UNL     1       1.691  52.120 -27.521  1.00  0.00    -0.010 A 
HETATM   29  C8  UNL     1       2.675  51.322 -26.734  1.00  0.00     0.010 C 
ENDBRANCH  25  26
ENDBRANCH  22  24
ENDBRANCH   1  22
BRANCH  15  30
HETATM   30  O1  UNL     1      -8.919  46.757 -17.750  1.00  0.00    -0.395 OA
HETATM   31  H33 UNL     1      -9.695  47.182 -17.344  1.00  0.00     0.210 HD
ENDBRANCH  15  30
TORSDOF 4
ENDMDL
MODEL 4
REMARK minimizedAffinity -8.72672272
REMARK CNNscore 0.396848232
REMARK CNNaffinity 6.72912741
REMARK  4 active torsions:
REMARK  status: ('A' for Active; 'I' for Inactive)
REMARK    1  A    between atoms: C2_2  and  C3_3 
REMARK    2  A    between atoms: C2_2  and  C9_9 
REMARK    3  A    between atoms: C4_4  and  C5_5 
REMARK    4  A    between atoms: C23_23  and  O1_24 
ROOT
HETATM    1  C9  UNL     1      -3.615  50.419 -25.471  1.00  0.00     0.001 C 
HETATM    2  C10 UNL     1      -4.042  48.919 -25.437  1.00  0.00     0.006 C 
HETATM    3  C11 UNL     1      -3.762  48.397 -24.021  1.00  0.00     0.009 C 
HETATM    4  C12 UNL     1      -3.359  49.646 -23.248  1.00  0.00     0.036 C 
HETATM    5  C13 UNL     1      -2.603  50.521 -24.282  1.00  0.00    -0.033 C 
HETATM    6  C14 UNL     1      -1.220  49.976 -24.698  1.00  0.00     0.016 C 
HETATM    7  C15 UNL     1      -2.453  51.920 -23.651  1.00  0.00     0.010 C 
HETATM    8  C16 UNL     1      -1.741  51.871 -22.286  1.00  0.00     0.010 C 
HETATM    9  C17 UNL     1      -2.412  50.912 -21.282  1.00  0.00     0.039 C 
HETATM   10  C18 UNL     1      -2.697  49.491 -21.873  1.00  0.00     0.123 C 
HETATM   11  C19 UNL     1      -1.510  48.568 -21.778  1.00  0.00     0.014 C 
HETATM   12  C20 UNL     1      -1.062  48.403 -20.526  1.00  0.00     0.014 C 
HETATM   13  C21 UNL     1      -1.793  49.245 -19.497  1.00  0.00     0.124 C 
HETATM   14  C22 UNL     1      -1.326  48.933 -18.070  1.00  0.00     0.078 C 
HETATM   15  C23 UNL     1      -1.828  49.937 -17.026  1.00  0.00     0.121 C 
HETATM   16  C24 UNL     1      -2.865  50.925 -17.548  1.00  0.00     0.033 C 
HETATM   17  C25 UNL     1      -2.404  51.663 -18.808  1.00  0.00     0.015 C 
HETATM   18  C26 UNL     1      -1.691  50.764 -19.873  1.00  0.00     0.001 C 
HETATM   19  C27 UNL     1      -0.203  51.209 -19.921  1.00  0.00     0.019 C 
HETATM   20  O2  UNL     1      -3.200  48.877 -19.581  1.00  0.00    -0.223 OA
HETATM   21  O3  UNL     1      -3.684  48.884 -20.994  1.00  0.00    -0.224 OA
ENDROOT
BRANCH   1  22
HETATM   22  C2  UNL     1      -3.182  50.876 -26.892  1.00  0.00     0.008 C 
HETATM   23  C1  UNL     1      -3.670  49.936 -28.000  1.00  0.00     0.014 C 
BRANCH  22  24
HETATM   24  C3  UNL     1      -1.676  51.088 -26.937  1.00  0.00    -0.026 C 
HETATM   25  C4  UNL     1      -1.005  52.068 -27.569  1.00  0.00    -0.025 C 
BRANCH  25  26
HETATM   26  C5  UNL     1       0.452  52.225 -27.583  1.00  0.00     0.012 A 
HETATM   27  C6  UNL     1       1.295  51.374 -26.664  1.00  0.00     0.013 A 
HETATM   28  C7  UNL     1       1.168  52.850 -26.406  1.00  0.00    -0.010 A 
HETATM   29  C8  UNL     1       0.462  53.331 -25.184  1.00  0.00     0.010 C 
ENDBRANCH  25  26
ENDBRANCH  22  24
ENDBRANCH   1  22
BRANCH  15  30
HETATM   30  O1  UNL     1      -0.702  50.666 -16.530  1.00  0.00    -0.395 OA
HETATM   31  H33 UNL     1      -1.017  51.230 -15.801  1.00  0.00     0.210 HD
ENDBRANCH  15  30
TORSDOF 4
ENDMDL
MODEL 5
REMARK minimizedAffinity -7.81537962
REMARK CNNscore 0.36991325
REMARK CNNaffinity 6.20705271
REMARK  4 active torsions:
REMARK  status: ('A' for Active; 'I' for Inactive)
REMARK    1  A    between atoms: C2_2  and  C3_3 
REMARK    2  A    between atoms: C2_2  and  C9_9 
REMARK    3  A    between atoms: C4_4  and  C5_5 
REMARK    4  A    between atoms: C23_23  and  O1_24 
ROOT
HETATM    1  C9  UNL     1       3.062  56.361  -9.382  1.00  0.00     0.001 C 
HETATM    2  C10 UNL     1       3.888  55.543 -10.421  1.00  0.00     0.006 C 
HETATM    3  C11 UNL     1       2.958  54.469 -11.000  1.00  0.00     0.009 C 
HETATM    4  C12 UNL     1       1.596  54.815 -10.414  1.00  0.00     0.036 C 
HETATM    5  C13 UNL     1       1.907  55.376  -9.002  1.00  0.00    -0.033 C 
HETATM    6  C14 UNL     1       2.402  54.324  -7.986  1.00  0.00     0.016 C 
HETATM    7  C15 UNL     1       0.608  56.035  -8.493  1.00  0.00     0.010 C 
HETATM    8  C16 UNL     1      -0.580  55.055  -8.490  1.00  0.00     0.010 C 
HETATM    9  C17 UNL     1      -0.830  54.396  -9.861  1.00  0.00     0.039 C 
HETATM   10  C18 UNL     1       0.462  53.787 -10.504  1.00  0.00     0.123 C 
HETATM   11  C19 UNL     1       0.754  52.391 -10.020  1.00  0.00     0.014 C 
HETATM   12  C20 UNL     1      -0.250  51.530 -10.236  1.00  0.00     0.014 C 
HETATM   13  C21 UNL     1      -1.485  52.169 -10.840  1.00  0.00     0.124 C 
HETATM   14  C22 UNL     1      -2.558  51.126 -11.178  1.00  0.00     0.078 C 
HETATM   15  C23 UNL     1      -3.919  51.737 -11.532  1.00  0.00     0.121 C 
HETATM   16  C24 UNL     1      -3.907  53.252 -11.698  1.00  0.00     0.033 C 
HETATM   17  C25 UNL     1      -3.302  53.978 -10.492  1.00  0.00     0.015 C 
HETATM   18  C26 UNL     1      -2.003  53.324  -9.915  1.00  0.00     0.001 C 
HETATM   19  C27 UNL     1      -2.360  52.769  -8.508  1.00  0.00     0.019 C 
HETATM   20  O2  UNL     1      -1.068  52.781 -12.095  1.00  0.00    -0.223 OA
HETATM   21  O3  UNL     1       0.159  53.612 -11.916  1.00  0.00    -0.224 OA
ENDROOT
BRANCH   1  22
HETATM   22  C2  UNL     1       3.956  56.967  -8.264  1.00  0.00     0.008 C 
HETATM   23  C1  UNL     1       4.937  55.954  -7.664  1.00  0.00     0.014 C 
BRANCH  22  24
HETATM   24  C3  UNL     1       3.090  57.629  -7.202  1.00  0.00    -0.026 C 
HETATM   25  C4  UNL     1       3.147  57.451  -5.871  1.00  0.00    -0.025 C 
BRANCH  25  26
HETATM   26  C5  UNL     1       2.284  58.115  -4.889  1.00  0.00     0.012 A 
HETATM   27  C6  UNL     1       2.220  57.577  -3.479  1.00  0.00     0.013 A 
HETATM   28  C7  UNL     1       1.028  57.436  -4.387  1.00  0.00    -0.010 A 
HETATM   29  C8  UNL     1       0.598  56.081  -4.839  1.00  0.00     0.010 C 
ENDBRANCH  25  26
ENDBRANCH  22  24
ENDBRANCH   1  22
BRANCH  15  30
HETATM   30  O1  UNL     1      -4.847  51.391 -10.499  1.00  0.00    -0.395 OA
HETATM   31  H33 UNL     1      -5.726  51.700 -10.781  1.00  0.00     0.210 HD
ENDBRANCH  15  30
TORSDOF 4
ENDMDL
MODEL 6
REMARK minimizedAffinity -7.75297499
REMARK CNNscore 0.366690814
REMARK CNNaffinity 6.08907318
REMARK  4 active torsions:
REMARK  status: ('A' for Active; 'I' for Inactive)
REMARK    1  A    between atoms: C2_2  and  C3_3 
REMARK    2  A    between atoms: C2_2  and  C9_9 
REMARK    3  A    between atoms: C4_4  and  C5_5 
REMARK    4  A    between atoms: C23_23  and  O1_24 
ROOT
HETATM    1  C9  UNL     1      -2.925  49.625 -22.275  1.00  0.00     0.001 C 
HETATM    2  C10 UNL     1      -3.279  48.910 -23.616  1.00  0.00     0.006 C 
HETATM    3  C11 UNL     1      -4.614  48.182 -23.406  1.00  0.00     0.009 C 
HETATM    4  C12 UNL     1      -5.067  48.646 -22.028  1.00  0.00     0.036 C 
HETATM    5  C13 UNL     1      -3.754  48.819 -21.221  1.00  0.00    -0.033 C 
HETATM    6  C14 UNL     1      -3.038  47.498 -20.864  1.00  0.00     0.016 C 
HETATM    7  C15 UNL     1      -4.124  49.586 -19.935  1.00  0.00     0.010 C 
HETATM    8  C16 UNL     1      -5.225  48.872 -19.127  1.00  0.00     0.010 C 
HETATM    9  C17 UNL     1      -6.496  48.584 -19.950  1.00  0.00     0.039 C 
HETATM   10  C18 UNL     1      -6.205  47.896 -21.326  1.00  0.00     0.123 C 
HETATM   11  C19 UNL     1      -6.081  46.398 -21.216  1.00  0.00     0.014 C 
HETATM   12  C20 UNL     1      -7.165  45.810 -20.691  1.00  0.00     0.014 C 
HETATM   13  C21 UNL     1      -8.237  46.787 -20.246  1.00  0.00     0.124 C 
HETATM   14  C22 UNL     1      -9.501  46.065 -19.764  1.00  0.00     0.078 C 
HETATM   15  C23 UNL     1     -10.501  46.985 -19.054  1.00  0.00     0.121 C 
HETATM   16  C24 UNL     1     -10.169  48.470 -19.145  1.00  0.00     0.033 C 
HETATM   17  C25 UNL     1      -8.742  48.790 -18.687  1.00  0.00     0.015 C 
HETATM   18  C26 UNL     1      -7.649  47.792 -19.195  1.00  0.00     0.001 C 
HETATM   19  C27 UNL     1      -7.121  47.024 -17.952  1.00  0.00     0.019 C 
HETATM   20  O2  UNL     1      -8.606  47.566 -21.421  1.00  0.00    -0.223 OA
HETATM   21  O3  UNL     1      -7.401  48.091 -22.130  1.00  0.00    -0.224 OA
ENDROOT
BRANCH   1  22
HETATM   22  C2  UNL     1      -1.392  49.794 -22.084  1.00  0.00     0.008 C 
HETATM   23  C1  UNL     1      -0.813  48.858 -21.018  1.00  0.00     0.014 C 
BRANCH  22  24
HETATM   24  C3  UNL     1      -1.056  51.253 -21.813  1.00  0.00    -0.026 C 
HETATM   25  C4  UNL     1       0.164  51.815 -21.748  1.00  0.00    -0.025 C 
BRANCH  25  26
HETATM   26  C5  UNL     1       0.432  53.231 -21.480  1.00  0.00     0.012 A 
HETATM   27  C6  UNL     1       1.810  53.647 -21.022  1.00  0.00     0.013 A 
HETATM   28  C7  UNL     1       0.651  53.717 -20.065  1.00  0.00    -0.010 A 
HETATM   29  C8  UNL     1       0.615  52.814 -18.878  1.00  0.00     0.010 C 
ENDBRANCH  25  26
ENDBRANCH  22  24
ENDBRANCH   1  22
BRANCH  15  30
HETATM   30  O1  UNL     1     -10.556  46.606 -17.675  1.00  0.00    -0.395 OA
HETATM   31  H33 UNL     1     -11.262  47.129 -17.257  1.00  0.00     0.210 HD
ENDBRANCH  15  30
TORSDOF 4
ENDMDL
MODEL 7
REMARK minimizedAffinity -9.36015511
REMARK CNNscore 0.334466338
REMARK CNNaffinity 6.29422522
REMARK  4 active torsions:
REMARK  status: ('A' for Active; 'I' for Inactive)
REMARK    1  A    between atoms: C2_2  and  C3_3 
REMARK    2  A    between atoms: C2_2  and  C9_9 
REMARK    3  A    between atoms: C4_4  and  C5_5 
REMARK    4  A    between atoms: C23_23  and  O1_24 
ROOT
HETATM    1  C9  UNL     1      -0.230  51.483 -20.758  1.00  0.00     0.001 C 
HETATM    2  C10 UNL     1      -0.740  52.228 -19.486  1.00  0.00     0.006 C 
HETATM    3  C11 UNL     1      -2.101  51.621 -19.117  1.00  0.00     0.009 C 
HETATM    4  C12 UNL     1      -2.242  50.442 -20.070  1.00  0.00     0.036 C 
HETATM    5  C13 UNL     1      -1.547  50.907 -21.376  1.00  0.00    -0.033 C 
HETATM    6  C14 UNL     1      -2.306  52.004 -22.155  1.00  0.00     0.016 C 
HETATM    7  C15 UNL     1      -1.377  49.652 -22.258  1.00  0.00     0.010 C 
HETATM    8  C16 UNL     1      -2.718  48.941 -22.523  1.00  0.00     0.010 C 
HETATM    9  C17 UNL     1      -3.480  48.577 -21.233  1.00  0.00     0.039 C 
HETATM   10  C18 UNL     1      -3.611  49.771 -20.229  1.00  0.00     0.123 C 
HETATM   11  C19 UNL     1      -4.788  50.663 -20.531  1.00  0.00     0.014 C 
HETATM   12  C20 UNL     1      -5.960  50.014 -20.543  1.00  0.00     0.014 C 
HETATM   13  C21 UNL     1      -5.834  48.517 -20.336  1.00  0.00     0.124 C 
HETATM   14  C22 UNL     1      -7.206  47.837 -20.240  1.00  0.00     0.078 C 
HETATM   15  C23 UNL     1      -7.140  46.307 -20.305  1.00  0.00     0.121 C 
HETATM   16  C24 UNL     1      -5.730  45.732 -20.234  1.00  0.00     0.033 C 
HETATM   17  C25 UNL     1      -4.784  46.345 -21.272  1.00  0.00     0.015 C 
HETATM   18  C26 UNL     1      -4.903  47.897 -21.435  1.00  0.00     0.001 C 
HETATM   19  C27 UNL     1      -5.489  48.161 -22.850  1.00  0.00     0.019 C 
HETATM   20  O2  UNL     1      -5.167  48.327 -19.055  1.00  0.00    -0.223 OA
HETATM   21  O3  UNL     1      -3.943  49.176 -18.944  1.00  0.00    -0.224 OA
ENDROOT
BRANCH   1  22
HETATM   22  C2  UNL     1       0.704  52.373 -21.627  1.00  0.00     0.008 C 
HETATM   23  C1  UNL     1       0.945  53.759 -21.021  1.00  0.00     0.014 C 
BRANCH  22  24
HETATM   24  C3  UNL     1       0.176  52.449 -23.051  1.00  0.00    -0.026 C 
HETATM   25  C4  UNL     1       0.847  52.192 -24.188  1.00  0.00    -0.025 C 
BRANCH  25  26
HETATM   26  C5  UNL     1       0.290  52.284 -25.541  1.00  0.00     0.012 A 
HETATM   27  C6  UNL     1      -0.012  51.016 -26.303  1.00  0.00     0.013 A 
HETATM   28  C7  UNL     1       1.124  51.899 -26.743  1.00  0.00    -0.010 A 
HETATM   29  C8  UNL     1       2.528  51.407 -26.637  1.00  0.00     0.010 C 
ENDBRANCH  25  26
ENDBRANCH  22  24
ENDBRANCH   1  22
BRANCH  15  30
HETATM   30  O1  UNL     1      -7.752  45.886 -21.528  1.00  0.00    -0.395 OA
HETATM   31  H33 UNL     1      -7.791  44.913 -21.514  1.00  0.00     0.210 HD
ENDBRANCH  15  30
TORSDOF 4
ENDMDL
MODEL 8
REMARK minimizedAffinity -8.97698689
REMARK CNNscore 0.311485797
REMARK CNNaffinity 6.29963541
REMARK  4 active torsions:
REMARK  status: ('A' for Active; 'I' for Inactive)
REMARK    1  A    between atoms: C2_2  and  C3_3 
REMARK    2  A    between atoms: C2_2  and  C9_9 
REMARK    3  A    between atoms: C4_4  and  C5_5 
REMARK    4  A    between atoms: C23_23  and  O1_24 
ROOT
HETATM    1  C9  UNL     1      -0.722  51.088 -22.644  1.00  0.00     0.001 C 
HETATM    2  C10 UNL     1      -0.072  51.500 -21.287  1.00  0.00     0.006 C 
HETATM    3  C11 UNL     1      -0.691  50.614 -20.197  1.00  0.00     0.009 C 
HETATM    4  C12 UNL     1      -1.532  49.613 -20.978  1.00  0.00     0.036 C 
HETATM    5  C13 UNL     1      -2.061  50.412 -22.198  1.00  0.00    -0.033 C 
HETATM    6  C14 UNL     1      -3.122  51.480 -21.857  1.00  0.00     0.016 C 
HETATM    7  C15 UNL     1      -2.646  49.378 -23.182  1.00  0.00     0.010 C 
HETATM    8  C16 UNL     1      -3.735  48.505 -22.531  1.00  0.00     0.010 C 
HETATM    9  C17 UNL     1      -3.261  47.795 -21.247  1.00  0.00     0.039 C 
HETATM   10  C18 UNL     1      -2.558  48.755 -20.229  1.00  0.00     0.123 C 
HETATM   11  C19 UNL     1      -3.533  49.471 -19.330  1.00  0.00     0.014 C 
HETATM   12  C20 UNL     1      -4.320  48.643 -18.629  1.00  0.00     0.014 C 
HETATM   13  C21 UNL     1      -4.113  47.177 -18.958  1.00  0.00     0.124 C 
HETATM   14  C22 UNL     1      -4.947  46.266 -18.048  1.00  0.00     0.078 C 
HETATM   15  C23 UNL     1      -4.987  44.805 -18.511  1.00  0.00     0.121 C 
HETATM   16  C24 UNL     1      -4.028  44.477 -19.650  1.00  0.00     0.033 C 
HETATM   17  C25 UNL     1      -4.187  45.414 -20.851  1.00  0.00     0.015 C 
HETATM   18  C26 UNL     1      -4.355  46.927 -20.487  1.00  0.00     0.001 C 
HETATM   19  C27 UNL     1      -5.804  47.331 -20.877  1.00  0.00     0.019 C 
HETATM   20  O2  UNL     1      -2.711  46.883 -18.694  1.00  0.00    -0.223 OA
HETATM   21  O3  UNL     1      -1.811  47.897 -19.322  1.00  0.00    -0.224 OA
ENDROOT
BRANCH   1  22
HETATM   22  C2  UNL     1      -0.754  52.262 -23.662  1.00  0.00     0.008 C 
HETATM   23  C1  UNL     1      -2.166  52.583 -24.164  1.00  0.00     0.014 C 
BRANCH  22  24
HETATM   24  C3  UNL     1       0.216  51.992 -24.803  1.00  0.00    -0.026 C 
HETATM   25  C4  UNL     1       0.105  51.063 -25.769  1.00  0.00    -0.025 C 
BRANCH  25  26
HETATM   26  C5  UNL     1       1.073  50.842 -26.847  1.00  0.00     0.012 A 
HETATM   27  C6  UNL     1       2.183  51.843 -27.060  1.00  0.00     0.013 A 
HETATM   28  C7  UNL     1       1.076  51.729 -28.072  1.00  0.00    -0.010 A 
HETATM   29  C8  UNL     1       0.123  52.862 -28.259  1.00  0.00     0.010 C 
ENDBRANCH  25  26
ENDBRANCH  22  24
ENDBRANCH   1  22
BRANCH  15  30
HETATM   30  O1  UNL     1      -6.322  44.505 -18.929  1.00  0.00    -0.395 OA
HETATM   31  H33 UNL     1      -6.359  43.553 -19.128  1.00  0.00     0.210 HD
ENDBRANCH  15  30
TORSDOF 4
ENDMDL
MODEL 9
REMARK minimizedAffinity -7.59572172
REMARK CNNscore 0.306978941
REMARK CNNaffinity 5.67848206
REMARK  4 active torsions:
REMARK  status: ('A' for Active; 'I' for Inactive)
REMARK    1  A    between atoms: C2_2  and  C3_3 
REMARK    2  A    between atoms: C2_2  and  C9_9 
REMARK    3  A    between atoms: C4_4  and  C5_5 
REMARK    4  A    between atoms: C23_23  and  O1_24 
ROOT
HETATM    1  C9  UNL     1      -8.121  46.313 -26.240  1.00  0.00     0.001 C 
HETATM    2  C10 UNL     1      -9.628  45.978 -26.016  1.00  0.00     0.006 C 
HETATM    3  C11 UNL     1     -10.261  45.774 -27.399  1.00  0.00     0.009 C 
HETATM    4  C12 UNL     1      -9.073  45.820 -28.351  1.00  0.00     0.036 C 
HETATM    5  C13 UNL     1      -8.097  46.841 -27.712  1.00  0.00    -0.033 C 
HETATM    6  C14 UNL     1      -8.572  48.310 -27.770  1.00  0.00     0.016 C 
HETATM    7  C15 UNL     1      -6.752  46.690 -28.453  1.00  0.00     0.010 C 
HETATM    8  C16 UNL     1      -6.900  46.885 -29.974  1.00  0.00     0.010 C 
HETATM    9  C17 UNL     1      -7.955  45.957 -30.608  1.00  0.00     0.039 C 
HETATM   10  C18 UNL     1      -9.328  45.969 -29.855  1.00  0.00     0.123 C 
HETATM   11  C19 UNL     1     -10.227  47.095 -30.295  1.00  0.00     0.014 C 
HETATM   12  C20 UNL     1     -10.487  47.088 -31.610  1.00  0.00     0.014 C 
HETATM   13  C21 UNL     1      -9.752  46.002 -32.374  1.00  0.00     0.124 C 
HETATM   14  C22 UNL     1     -10.172  45.960 -33.848  1.00  0.00     0.078 C 
HETATM   15  C23 UNL     1      -9.273  45.075 -34.718  1.00  0.00     0.121 C 
HETATM   16  C24 UNL     1      -8.268  44.234 -33.938  1.00  0.00     0.033 C 
HETATM   17  C25 UNL     1      -7.416  45.067 -32.975  1.00  0.00     0.015 C 
HETATM   18  C26 UNL     1      -8.205  46.150 -32.167  1.00  0.00     0.001 C 
HETATM   19  C27 UNL     1      -7.723  47.538 -32.674  1.00  0.00     0.019 C 
HETATM   20  O2  UNL     1     -10.144  44.733 -31.776  1.00  0.00    -0.223 OA
HETATM   21  O3  UNL     1     -10.030  44.771 -30.287  1.00  0.00    -0.224 OA
ENDROOT
BRANCH   1  22
HETATM   22  C2  UNL     1      -7.536  47.189 -25.097  1.00  0.00     0.008 C 
HETATM   23  C1  UNL     1      -8.547  48.192 -24.532  1.00  0.00     0.014 C 
BRANCH  22  24
HETATM   24  C3  UNL     1      -6.252  47.862 -25.559  1.00  0.00    -0.026 C 
HETATM   25  C4  UNL     1      -5.459  48.686 -24.852  1.00  0.00    -0.025 C 
BRANCH  25  26
HETATM   26  C5  UNL     1      -4.230  49.312 -25.348  1.00  0.00     0.012 A 
HETATM   27  C6  UNL     1      -3.111  48.438 -25.863  1.00  0.00     0.013 A 
HETATM   28  C7  UNL     1      -2.937  49.189 -24.571  1.00  0.00    -0.010 A 
HETATM   29  C8  UNL     1      -2.827  48.439 -23.287  1.00  0.00     0.010 C 
ENDBRANCH  25  26
ENDBRANCH  22  24
ENDBRANCH   1  22
BRANCH  15  30
HETATM   30  O1  UNL     1      -8.561  45.920 -35.629  1.00  0.00    -0.395 OA
HETATM   31  H33 UNL     1      -8.069  45.342 -36.238  1.00  0.00     0.210 HD
ENDBRANCH  15  30
TORSDOF 4
ENDMDL
