MODEL 1
REMARK minimizedAffinity -8.92905426
REMARK  12 active torsions:
REMARK  status: ('A' for Active; 'I' for Inactive)
REMARK    1  A    between atoms: C2_2  and  O1_3 
REMARK    2  A    between atoms: C2_2  and  C3_4 
REMARK    3  A    between atoms: C4_5  and  C5_6 
REMARK    4  A    between atoms: C5_6  and  O2_7 
REMARK    5  A    between atoms: C8_10  and  O3_11 
REMARK    6  A    between atoms: O3_11  and  C9_12 
REMARK    7  A    between atoms: C10_14  and  C11_15 
REMARK    8  A    between atoms: C11_15  and  O5_16 
REMARK    9  A    between atoms: C12_17  and  O6_18 
REMARK   10  A    between atoms: C13_19  and  O7_20 
REMARK   11  A    between atoms: C14_21  and  O8_22 
REMARK   12  A    between atoms: C15_23  and  O9_24 
ROOT
HETATM    1  C5  UNL     1      -3.624   4.094  12.367  1.00  0.00     0.088 C 
HETATM    2  C6  UNL     1      -2.549   5.214  12.072  1.00  0.00     0.052 C 
HETATM    3  C7  UNL     1      -2.176   5.982  13.359  1.00  0.00     0.016 C 
HETATM    4  C8  UNL     1      -1.297   4.673  11.322  1.00  0.00     0.160 C 
HETATM    5  C15 UNL     1      -1.051   3.199  11.655  1.00  0.00     0.148 C 
HETATM    6  C16 UNL     1      -2.205   2.317  11.165  1.00  0.00     0.046 C 
HETATM    7  C17 UNL     1      -3.624   2.956  11.275  1.00  0.00    -0.010 C 
HETATM    8  C18 UNL     1      -4.059   3.500   9.890  1.00  0.00     0.018 C 
HETATM    9  C19 UNL     1      -4.623   1.814  11.609  1.00  0.00     0.018 C 
ENDROOT
BRANCH   4  10
HETATM   10  O3  UNL     1      -0.092   5.408  11.601  1.00  0.00    -0.350 OA
BRANCH  10  11
HETATM   11  C9  UNL     1       0.238   6.368  10.592  1.00  0.00     0.292 C 
HETATM   12  O4  UNL     1       1.263   5.883   9.730  1.00  0.00    -0.348 OA
HETATM   13  C10 UNL     1       2.608   6.094  10.168  1.00  0.00     0.179 C 
HETATM   14  C12 UNL     1       2.762   6.418  11.663  1.00  0.00     0.180 C 
HETATM   15  C13 UNL     1       1.905   7.635  12.042  1.00  0.00     0.183 C 
HETATM   16  C14 UNL     1       0.593   7.717  11.249  1.00  0.00     0.204 C 
BRANCH  13  17
HETATM   17  C11 UNL     1       3.409   4.843   9.780  1.00  0.00     0.198 C 
BRANCH  17  18
HETATM   18  O5  UNL     1       2.735   3.642  10.140  1.00  0.00    -0.398 OA
HETATM   19  H18 UNL     1       2.786   3.567  11.110  1.00  0.00     0.209 HD
ENDBRANCH  17  18
ENDBRANCH  13  17
BRANCH  14  20
HETATM   20  O6  UNL     1       4.130   6.707  11.994  1.00  0.00    -0.390 OA
HETATM   21  H20 UNL     1       4.657   5.929  11.716  1.00  0.00     0.210 HD
ENDBRANCH  14  20
BRANCH  15  22
HETATM   22  O7  UNL     1       1.620   7.569  13.451  1.00  0.00    -0.390 OA
HETATM   23  H22 UNL     1       1.447   8.479  13.745  1.00  0.00     0.210 HD
ENDBRANCH  15  22
BRANCH  16  24
HETATM   24  O8  UNL     1       0.726   8.748  10.255  1.00  0.00    -0.388 OA
HETATM   25  H24 UNL     1      -0.101   8.778   9.746  1.00  0.00     0.210 HD
ENDBRANCH  16  24
ENDBRANCH  10  11
ENDBRANCH   4  10
BRANCH   5  26
HETATM   26  O9  UNL     1       0.152   2.742  11.032  1.00  0.00    -0.393 OA
HETATM   27  H26 UNL     1       0.847   3.360  11.335  1.00  0.00     0.210 HD
ENDBRANCH   5  26
BRANCH   1  28
HETATM   28  C4  UNL     1      -5.021   4.645  12.623  1.00  0.00     0.010 C 
HETATM   29  C3  UNL     1      -6.118   3.987  13.037  1.00  0.00     0.003 C 
BRANCH  29  30
HETATM   30  C2  UNL     1      -7.498   4.545  13.249  1.00  0.00     0.136 C 
HETATM   31  C1  UNL     1      -8.160   5.197  12.039  1.00  0.00     0.043 C 
BRANCH  30  32
HETATM   32  O1  UNL     1      -8.302   3.452  13.686  1.00  0.00    -0.392 OA
HETATM   33  H5  UNL     1      -9.210   3.784  13.793  1.00  0.00     0.210 HD
ENDBRANCH  30  32
ENDBRANCH  29  30
ENDBRANCH   1  28
BRANCH   1  34
HETATM   34  O2  UNL     1      -3.278   3.523  13.647  1.00  0.00    -0.385 OA
HETATM   35  H8  UNL     1      -3.047   2.583  13.550  1.00  0.00     0.211 HD
ENDBRANCH   1  34
TORSDOF 12
ENDMDL
MODEL 2
REMARK minimizedAffinity -8.34823418
REMARK  12 active torsions:
REMARK  status: ('A' for Active; 'I' for Inactive)
REMARK    1  A    between atoms: C2_2  and  O1_3 
REMARK    2  A    between atoms: C2_2  and  C3_4 
REMARK    3  A    between atoms: C4_5  and  C5_6 
REMARK    4  A    between atoms: C5_6  and  O2_7 
REMARK    5  A    between atoms: C8_10  and  O3_11 
REMARK    6  A    between atoms: O3_11  and  C9_12 
REMARK    7  A    between atoms: C10_14  and  C11_15 
REMARK    8  A    between atoms: C11_15  and  O5_16 
REMARK    9  A    between atoms: C12_17  and  O6_18 
REMARK   10  A    between atoms: C13_19  and  O7_20 
REMARK   11  A    between atoms: C14_21  and  O8_22 
REMARK   12  A    between atoms: C15_23  and  O9_24 
ROOT
HETATM    1  C5  UNL     1      -6.223   5.921  13.696  1.00  0.00     0.088 C 
HETATM    2  C6  UNL     1      -4.725   5.694  14.143  1.00  0.00     0.052 C 
HETATM    3  C7  UNL     1      -3.758   5.833  12.947  1.00  0.00     0.016 C 
HETATM    4  C8  UNL     1      -4.308   6.586  15.348  1.00  0.00     0.160 C 
HETATM    5  C15 UNL     1      -5.106   7.892  15.367  1.00  0.00     0.148 C 
HETATM    6  C16 UNL     1      -6.601   7.629  15.582  1.00  0.00     0.046 C 
HETATM    7  C17 UNL     1      -7.155   6.340  14.897  1.00  0.00    -0.010 C 
HETATM    8  C18 UNL     1      -7.273   5.205  15.946  1.00  0.00     0.018 C 
HETATM    9  C19 UNL     1      -8.609   6.644  14.443  1.00  0.00     0.018 C 
ENDROOT
BRANCH   4  10
HETATM   10  O3  UNL     1      -2.907   6.911  15.371  1.00  0.00    -0.350 OA
BRANCH  10  11
HETATM   11  C9  UNL     1      -2.647   8.313  15.490  1.00  0.00     0.292 C 
HETATM   12  O4  UNL     1      -2.508   8.924  14.211  1.00  0.00    -0.348 OA
HETATM   13  C10 UNL     1      -1.203   8.878  13.627  1.00  0.00     0.179 C 
HETATM   14  C12 UNL     1      -0.255   7.833  14.236  1.00  0.00     0.180 C 
HETATM   15  C13 UNL     1      -0.127   8.039  15.753  1.00  0.00     0.183 C 
HETATM   16  C14 UNL     1      -1.425   8.543  16.402  1.00  0.00     0.204 C 
BRANCH  13  17
HETATM   17  C11 UNL     1      -1.394   8.652  12.120  1.00  0.00     0.198 C 
BRANCH  17  18
HETATM   18  O5  UNL     1      -0.243   9.027  11.372  1.00  0.00    -0.398 OA
HETATM   19  H18 UNL     1      -0.202  10.001  11.381  1.00  0.00     0.209 HD
ENDBRANCH  17  18
ENDBRANCH  13  17
BRANCH  14  20
HETATM   20  O6  UNL     1       1.056   7.920  13.656  1.00  0.00    -0.390 OA
HETATM   21  H20 UNL     1       0.944   7.814  12.688  1.00  0.00     0.210 HD
ENDBRANCH  14  20
BRANCH  15  22
HETATM   22  O7  UNL     1       0.264   6.790  16.351  1.00  0.00    -0.390 OA
HETATM   23  H22 UNL     1       0.713   7.007  17.184  1.00  0.00     0.210 HD
ENDBRANCH  15  22
BRANCH  16  24
HETATM   24  O8  UNL     1      -1.269   9.941  16.702  1.00  0.00    -0.388 OA
HETATM   25  H24 UNL     1      -2.101  10.255  17.094  1.00  0.00     0.210 HD
ENDBRANCH  16  24
ENDBRANCH  10  11
ENDBRANCH   4  10
BRANCH   5  26
HETATM   26  O9  UNL     1      -4.650   8.740  16.424  1.00  0.00    -0.393 OA
HETATM   27  H26 UNL     1      -3.688   8.841  16.273  1.00  0.00     0.210 HD
ENDBRANCH   5  26
BRANCH   1  28
HETATM   28  C4  UNL     1      -6.802   4.759  12.899  1.00  0.00     0.010 C 
HETATM   29  C3  UNL     1      -6.294   3.526  12.726  1.00  0.00     0.003 C 
BRANCH  29  30
HETATM   30  C2  UNL     1      -6.866   2.404  11.904  1.00  0.00     0.136 C 
HETATM   31  C1  UNL     1      -5.886   1.331  11.443  1.00  0.00     0.043 C 
BRANCH  30  32
HETATM   32  O1  UNL     1      -7.873   1.798  12.712  1.00  0.00    -0.392 OA
HETATM   33  H5  UNL     1      -8.231   1.045  12.212  1.00  0.00     0.210 HD
ENDBRANCH  30  32
ENDBRANCH  29  30
ENDBRANCH   1  28
BRANCH   1  34
HETATM   34  O2  UNL     1      -6.201   6.984  12.720  1.00  0.00    -0.385 OA
HETATM   35  H8  UNL     1      -6.699   7.755  13.043  1.00  0.00     0.211 HD
ENDBRANCH   1  34
TORSDOF 12
ENDMDL
MODEL 3
REMARK minimizedAffinity -8.23444557
REMARK  12 active torsions:
REMARK  status: ('A' for Active; 'I' for Inactive)
REMARK    1  A    between atoms: C2_2  and  O1_3 
REMARK    2  A    between atoms: C2_2  and  C3_4 
REMARK    3  A    between atoms: C4_5  and  C5_6 
REMARK    4  A    between atoms: C5_6  and  O2_7 
REMARK    5  A    between atoms: C8_10  and  O3_11 
REMARK    6  A    between atoms: O3_11  and  C9_12 
REMARK    7  A    between atoms: C10_14  and  C11_15 
REMARK    8  A    between atoms: C11_15  and  O5_16 
REMARK    9  A    between atoms: C12_17  and  O6_18 
REMARK   10  A    between atoms: C13_19  and  O7_20 
REMARK   11  A    between atoms: C14_21  and  O8_22 
REMARK   12  A    between atoms: C15_23  and  O9_24 
ROOT
HETATM    1  C5  UNL     1       1.145   6.366  11.219  1.00  0.00     0.088 C 
HETATM    2  C6  UNL     1      -0.401   6.393  11.541  1.00  0.00     0.052 C 
HETATM    3  C7  UNL     1      -1.096   5.103  11.053  1.00  0.00     0.016 C 
HETATM    4  C8  UNL     1      -0.706   6.701  13.036  1.00  0.00     0.160 C 
HETATM    5  C15 UNL     1       0.433   6.221  13.939  1.00  0.00     0.148 C 
HETATM    6  C16 UNL     1       1.733   6.979  13.647  1.00  0.00     0.046 C 
HETATM    7  C17 UNL     1       1.972   7.337  12.147  1.00  0.00    -0.010 C 
HETATM    8  C18 UNL     1       1.592   8.819  11.898  1.00  0.00     0.018 C 
HETATM    9  C19 UNL     1       3.501   7.248  11.887  1.00  0.00     0.018 C 
ENDROOT
BRANCH   4  10
HETATM   10  O3  UNL     1      -1.935   6.120  13.508  1.00  0.00    -0.350 OA
BRANCH  10  11
HETATM   11  C9  UNL     1      -3.100   6.848  13.109  1.00  0.00     0.292 C 
HETATM   12  O4  UNL     1      -2.847   8.249  13.065  1.00  0.00    -0.348 OA
HETATM   13  C10 UNL     1      -3.002   8.958  14.298  1.00  0.00     0.179 C 
HETATM   14  C12 UNL     1      -2.998   8.078  15.559  1.00  0.00     0.180 C 
HETATM   15  C13 UNL     1      -4.076   6.988  15.459  1.00  0.00     0.183 C 
HETATM   16  C14 UNL     1      -4.286   6.480  14.025  1.00  0.00     0.204 C 
BRANCH  13  17
HETATM   17  C11 UNL     1      -1.891  10.017  14.349  1.00  0.00     0.198 C 
BRANCH  17  18
HETATM   18  O5  UNL     1      -1.355  10.295  13.060  1.00  0.00    -0.398 OA
HETATM   19  H18 UNL     1      -0.824   9.521  12.800  1.00  0.00     0.209 HD
ENDBRANCH  17  18
ENDBRANCH  13  17
BRANCH  14  20
HETATM   20  O6  UNL     1      -3.252   8.859  16.737  1.00  0.00    -0.390 OA
HETATM   21  H20 UNL     1      -2.570   9.563  16.762  1.00  0.00     0.210 HD
ENDBRANCH  14  20
BRANCH  15  22
HETATM   22  O7  UNL     1      -3.696   5.894  16.313  1.00  0.00    -0.390 OA
HETATM   23  H22 UNL     1      -4.515   5.428  16.551  1.00  0.00     0.210 HD
ENDBRANCH  15  22
BRANCH  16  24
HETATM   24  O8  UNL     1      -5.512   7.038  13.520  1.00  0.00    -0.388 OA
HETATM   25  H24 UNL     1      -5.625   6.727  12.607  1.00  0.00     0.210 HD
ENDBRANCH  16  24
ENDBRANCH  10  11
ENDBRANCH   4  10
BRANCH   5  26
HETATM   26  O9  UNL     1       0.099   6.428  15.314  1.00  0.00    -0.393 OA
HETATM   27  H26 UNL     1      -0.755   5.968  15.440  1.00  0.00     0.210 HD
ENDBRANCH   5  26
BRANCH   1  28
HETATM   28  C4  UNL     1       1.463   6.573   9.744  1.00  0.00     0.010 C 
HETATM   29  C3  UNL     1       2.469   7.275   9.194  1.00  0.00     0.003 C 
BRANCH  29  30
HETATM   30  C2  UNL     1       2.743   7.496   7.732  1.00  0.00     0.136 C 
HETATM   31  C1  UNL     1       1.631   7.102   6.765  1.00  0.00     0.043 C 
BRANCH  30  32
HETATM   32  O1  UNL     1       3.014   8.889   7.588  1.00  0.00    -0.392 OA
HETATM   33  H5  UNL     1       3.157   9.060   6.642  1.00  0.00     0.210 HD
ENDBRANCH  30  32
ENDBRANCH  29  30
ENDBRANCH   1  28
BRANCH   1  34
HETATM   34  O2  UNL     1       1.584   5.009  11.442  1.00  0.00    -0.385 OA
HETATM   35  H8  UNL     1       2.236   4.975  12.164  1.00  0.00     0.211 HD
ENDBRANCH   1  34
TORSDOF 12
ENDMDL
MODEL 4
REMARK minimizedAffinity -8.11954975
REMARK  12 active torsions:
REMARK  status: ('A' for Active; 'I' for Inactive)
REMARK    1  A    between atoms: C2_2  and  O1_3 
REMARK    2  A    between atoms: C2_2  and  C3_4 
REMARK    3  A    between atoms: C4_5  and  C5_6 
REMARK    4  A    between atoms: C5_6  and  O2_7 
REMARK    5  A    between atoms: C8_10  and  O3_11 
REMARK    6  A    between atoms: O3_11  and  C9_12 
REMARK    7  A    between atoms: C10_14  and  C11_15 
REMARK    8  A    between atoms: C11_15  and  O5_16 
REMARK    9  A    between atoms: C12_17  and  O6_18 
REMARK   10  A    between atoms: C13_19  and  O7_20 
REMARK   11  A    between atoms: C14_21  and  O8_22 
REMARK   12  A    between atoms: C15_23  and  O9_24 
ROOT
HETATM    1  C5  UNL     1      -2.066   6.823  13.425  1.00  0.00     0.088 C 
HETATM    2  C6  UNL     1      -3.595   7.003  13.068  1.00  0.00     0.052 C 
HETATM    3  C7  UNL     1      -4.310   5.638  12.975  1.00  0.00     0.016 C 
HETATM    4  C8  UNL     1      -4.328   7.992  14.019  1.00  0.00     0.160 C 
HETATM    5  C15 UNL     1      -3.680   8.006  15.405  1.00  0.00     0.148 C 
HETATM    6  C16 UNL     1      -2.240   8.529  15.342  1.00  0.00     0.046 C 
HETATM    7  C17 UNL     1      -1.439   8.121  14.066  1.00  0.00    -0.010 C 
HETATM    8  C18 UNL     1      -1.426   9.300  13.061  1.00  0.00     0.018 C 
HETATM    9  C19 UNL     1       0.040   7.917  14.493  1.00  0.00     0.018 C 
ENDROOT
BRANCH   4  10
HETATM   10  O3  UNL     1      -5.731   7.710  14.177  1.00  0.00    -0.350 OA
BRANCH  10  11
HETATM   11  C9  UNL     1      -6.026   6.900  15.318  1.00  0.00     0.292 C 
HETATM   12  O4  UNL     1      -6.286   5.551  14.943  1.00  0.00    -0.348 OA
HETATM   13  C10 UNL     1      -7.631   5.250  14.562  1.00  0.00     0.179 C 
HETATM   14  C12 UNL     1      -8.493   6.471  14.201  1.00  0.00     0.180 C 
HETATM   15  C13 UNL     1      -8.506   7.483  15.357  1.00  0.00     0.183 C 
HETATM   16  C14 UNL     1      -7.177   7.532  16.126  1.00  0.00     0.204 C 
BRANCH  13  17
HETATM   17  C11 UNL     1      -7.555   4.253  13.396  1.00  0.00     0.198 C 
BRANCH  17  18
HETATM   18  O5  UNL     1      -8.729   3.455  13.295  1.00  0.00    -0.398 OA
HETATM   19  H18 UNL     1      -8.712   2.828  14.040  1.00  0.00     0.209 HD
ENDBRANCH  17  18
ENDBRANCH  13  17
BRANCH  14  20
HETATM   20  O6  UNL     1      -9.849   6.085  13.923  1.00  0.00    -0.390 OA
HETATM   21  H20 UNL     1      -9.811   5.420  13.204  1.00  0.00     0.210 HD
ENDBRANCH  14  20
BRANCH  15  22
HETATM   22  O7  UNL     1      -8.807   8.783  14.819  1.00  0.00    -0.390 OA
HETATM   23  H22 UNL     1      -9.194   9.302  15.543  1.00  0.00     0.210 HD
ENDBRANCH  15  22
BRANCH  16  24
HETATM   24  O8  UNL     1      -7.353   6.852  17.381  1.00  0.00    -0.388 OA
HETATM   25  H24 UNL     1      -6.503   6.871  17.851  1.00  0.00     0.210 HD
ENDBRANCH  16  24
ENDBRANCH  10  11
ENDBRANCH   4  10
BRANCH   5  26
HETATM   26  O9  UNL     1      -4.419   8.849  16.293  1.00  0.00    -0.393 OA
HETATM   27  H26 UNL     1      -5.335   8.507  16.265  1.00  0.00     0.210 HD
ENDBRANCH   5  26
BRANCH   1  28
HETATM   28  C4  UNL     1      -1.229   6.294  12.267  1.00  0.00     0.010 C 
HETATM   29  C3  UNL     1       0.098   6.082  12.220  1.00  0.00     0.003 C 
BRANCH  29  30
HETATM   30  C2  UNL     1       0.909   5.593  11.053  1.00  0.00     0.136 C 
HETATM   31  C1  UNL     1       2.404   5.893  11.090  1.00  0.00     0.043 C 
BRANCH  30  32
HETATM   32  O1  UNL     1       0.718   4.180  11.005  1.00  0.00    -0.392 OA
HETATM   33  H5  UNL     1       1.265   3.838  10.277  1.00  0.00     0.210 HD
ENDBRANCH  30  32
ENDBRANCH  29  30
ENDBRANCH   1  28
BRANCH   1  34
HETATM   34  O2  UNL     1      -1.993   5.741  14.377  1.00  0.00    -0.385 OA
HETATM   35  H8  UNL     1      -1.647   6.059  15.230  1.00  0.00     0.211 HD
ENDBRANCH   1  34
TORSDOF 12
ENDMDL
MODEL 5
REMARK minimizedAffinity -8.08820915
REMARK  12 active torsions:
REMARK  status: ('A' for Active; 'I' for Inactive)
REMARK    1  A    between atoms: C2_2  and  O1_3 
REMARK    2  A    between atoms: C2_2  and  C3_4 
REMARK    3  A    between atoms: C4_5  and  C5_6 
REMARK    4  A    between atoms: C5_6  and  O2_7 
REMARK    5  A    between atoms: C8_10  and  O3_11 
REMARK    6  A    between atoms: O3_11  and  C9_12 
REMARK    7  A    between atoms: C10_14  and  C11_15 
REMARK    8  A    between atoms: C11_15  and  O5_16 
REMARK    9  A    between atoms: C12_17  and  O6_18 
REMARK   10  A    between atoms: C13_19  and  O7_20 
REMARK   11  A    between atoms: C14_21  and  O8_22 
REMARK   12  A    between atoms: C15_23  and  O9_24 
ROOT
HETATM    1  C5  UNL     1      -1.171   6.626  14.520  1.00  0.00     0.088 C 
HETATM    2  C6  UNL     1       0.006   6.968  13.522  1.00  0.00     0.052 C 
HETATM    3  C7  UNL     1       1.382   6.776  14.195  1.00  0.00     0.016 C 
HETATM    4  C8  UNL     1      -0.104   6.206  12.170  1.00  0.00     0.160 C 
HETATM    5  C15 UNL     1      -0.824   4.867  12.349  1.00  0.00     0.148 C 
HETATM    6  C16 UNL     1      -2.277   5.071  12.795  1.00  0.00     0.046 C 
HETATM    7  C17 UNL     1      -2.511   6.266  13.772  1.00  0.00    -0.010 C 
HETATM    8  C18 UNL     1      -3.065   7.481  12.985  1.00  0.00     0.018 C 
HETATM    9  C19 UNL     1      -3.644   5.849  14.750  1.00  0.00     0.018 C 
ENDROOT
BRANCH   4  10
HETATM   10  O3  UNL     1       1.166   5.957  11.540  1.00  0.00    -0.350 OA
BRANCH  10  11
HETATM   11  C9  UNL     1       1.233   6.418  10.188  1.00  0.00     0.292 C 
HETATM   12  O4  UNL     1       1.921   5.489   9.356  1.00  0.00    -0.348 OA
HETATM   13  C10 UNL     1       3.346   5.611   9.317  1.00  0.00     0.179 C 
HETATM   14  C12 UNL     1       3.961   6.419  10.471  1.00  0.00     0.180 C 
HETATM   15  C13 UNL     1       3.331   7.818  10.546  1.00  0.00     0.183 C 
HETATM   16  C14 UNL     1       1.848   7.832  10.147  1.00  0.00     0.204 C 
BRANCH  13  17
HETATM   17  C11 UNL     1       3.917   4.186   9.263  1.00  0.00     0.198 C 
BRANCH  17  18
HETATM   18  O5  UNL     1       3.087   3.250   9.940  1.00  0.00    -0.398 OA
HETATM   19  H18 UNL     1       3.183   3.422  10.894  1.00  0.00     0.209 HD
ENDBRANCH  17  18
ENDBRANCH  13  17
BRANCH  14  20
HETATM   20  O6  UNL     1       5.379   6.570  10.301  1.00  0.00    -0.390 OA
HETATM   21  H20 UNL     1       5.752   5.666  10.228  1.00  0.00     0.210 HD
ENDBRANCH  14  20
BRANCH  15  22
HETATM   22  O7  UNL     1       3.480   8.313  11.889  1.00  0.00    -0.390 OA
HETATM   23  H22 UNL     1       3.458   9.282  11.834  1.00  0.00     0.210 HD
ENDBRANCH  15  22
BRANCH  16  24
HETATM   24  O8  UNL     1       1.737   8.398   8.829  1.00  0.00    -0.388 OA
HETATM   25  H24 UNL     1       0.799   8.384   8.578  1.00  0.00     0.210 HD
ENDBRANCH  16  24
ENDBRANCH  10  11
ENDBRANCH   4  10
BRANCH   5  26
HETATM   26  O9  UNL     1      -0.837   4.139  11.119  1.00  0.00    -0.393 OA
HETATM   27  H26 UNL     1       0.102   4.075  10.851  1.00  0.00     0.210 HD
ENDBRANCH   5  26
BRANCH   1  28
HETATM   28  C4  UNL     1      -1.381   7.684  15.597  1.00  0.00     0.010 C 
HETATM   29  C3  UNL     1      -1.094   8.997  15.549  1.00  0.00     0.003 C 
BRANCH  29  30
HETATM   30  C2  UNL     1      -1.277  10.016  16.639  1.00  0.00     0.136 C 
HETATM   31  C1  UNL     1      -2.428   9.774  17.610  1.00  0.00     0.043 C 
BRANCH  30  32
HETATM   32  O1  UNL     1      -0.051  10.039  17.367  1.00  0.00    -0.392 OA
HETATM   33  H5  UNL     1      -0.161  10.667  18.101  1.00  0.00     0.210 HD
ENDBRANCH  30  32
ENDBRANCH  29  30
ENDBRANCH   1  28
BRANCH   1  34
HETATM   34  O2  UNL     1      -0.735   5.485  15.289  1.00  0.00    -0.385 OA
HETATM   35  H8  UNL     1      -1.314   4.720  15.123  1.00  0.00     0.211 HD
ENDBRANCH   1  34
TORSDOF 12
ENDMDL
MODEL 6
REMARK minimizedAffinity -8.03078175
REMARK  12 active torsions:
REMARK  status: ('A' for Active; 'I' for Inactive)
REMARK    1  A    between atoms: C2_2  and  O1_3 
REMARK    2  A    between atoms: C2_2  and  C3_4 
REMARK    3  A    between atoms: C4_5  and  C5_6 
REMARK    4  A    between atoms: C5_6  and  O2_7 
REMARK    5  A    between atoms: C8_10  and  O3_11 
REMARK    6  A    between atoms: O3_11  and  C9_12 
REMARK    7  A    between atoms: C10_14  and  C11_15 
REMARK    8  A    between atoms: C11_15  and  O5_16 
REMARK    9  A    between atoms: C12_17  and  O6_18 
REMARK   10  A    between atoms: C13_19  and  O7_20 
REMARK   11  A    between atoms: C14_21  and  O8_22 
REMARK   12  A    between atoms: C15_23  and  O9_24 
ROOT
HETATM    1  C5  UNL     1      -3.779   4.197  12.361  1.00  0.00     0.088 C 
HETATM    2  C6  UNL     1      -2.980   5.551  12.202  1.00  0.00     0.052 C 
HETATM    3  C7  UNL     1      -2.972   6.352  13.521  1.00  0.00     0.016 C 
HETATM    4  C8  UNL     1      -1.550   5.348  11.622  1.00  0.00     0.160 C 
HETATM    5  C15 UNL     1      -0.997   3.970  11.992  1.00  0.00     0.148 C 
HETATM    6  C16 UNL     1      -1.830   2.848  11.362  1.00  0.00     0.046 C 
HETATM    7  C17 UNL     1      -3.365   3.122  11.285  1.00  0.00    -0.010 C 
HETATM    8  C18 UNL     1      -3.740   3.579   9.852  1.00  0.00     0.018 C 
HETATM    9  C19 UNL     1      -4.089   1.763  11.493  1.00  0.00     0.018 C 
ENDROOT
BRANCH   4  10
HETATM   10  O3  UNL     1      -0.606   6.346  12.050  1.00  0.00    -0.350 OA
BRANCH  10  11
HETATM   11  C9  UNL     1       0.686   5.814  12.358  1.00  0.00     0.292 C 
HETATM   12  O4  UNL     1       0.984   5.944  13.745  1.00  0.00    -0.348 OA
HETATM   13  C10 UNL     1       1.557   7.188  14.155  1.00  0.00     0.179 C 
HETATM   14  C12 UNL     1       1.383   8.344  13.156  1.00  0.00     0.180 C 
HETATM   15  C13 UNL     1       1.940   7.955  11.778  1.00  0.00     0.183 C 
HETATM   16  C14 UNL     1       1.750   6.466  11.452  1.00  0.00     0.204 C 
BRANCH  13  17
HETATM   17  C11 UNL     1       0.951   7.533  15.523  1.00  0.00     0.198 C 
BRANCH  17  18
HETATM   18  O5  UNL     1       0.060   6.523  15.984  1.00  0.00    -0.398 OA
HETATM   19  H18 UNL     1      -0.744   6.582  15.437  1.00  0.00     0.209 HD
ENDBRANCH  17  18
ENDBRANCH  13  17
BRANCH  14  20
HETATM   20  O6  UNL     1       2.067   9.525  13.604  1.00  0.00    -0.390 OA
HETATM   21  H20 UNL     1       1.715   9.734  14.494  1.00  0.00     0.210 HD
ENDBRANCH  14  20
BRANCH  15  22
HETATM   22  O7  UNL     1       1.287   8.760  10.780  1.00  0.00    -0.390 OA
HETATM   23  H22 UNL     1       1.889   8.805  10.019  1.00  0.00     0.210 HD
ENDBRANCH  15  22
BRANCH  16  24
HETATM   24  O8  UNL     1       3.019   5.804  11.598  1.00  0.00    -0.388 OA
HETATM   25  H24 UNL     1       2.884   4.861  11.409  1.00  0.00     0.210 HD
ENDBRANCH  16  24
ENDBRANCH  10  11
ENDBRANCH   4  10
BRANCH   5  26
HETATM   26  O9  UNL     1       0.349   3.833  11.532  1.00  0.00    -0.393 OA
HETATM   27  H26 UNL     1       0.829   4.593  11.920  1.00  0.00     0.210 HD
ENDBRANCH   5  26
BRANCH   1  28
HETATM   28  C4  UNL     1      -5.289   4.387  12.431  1.00  0.00     0.010 C 
HETATM   29  C3  UNL     1      -6.167   3.812  13.273  1.00  0.00     0.003 C 
BRANCH  29  30
HETATM   30  C2  UNL     1      -7.660   3.987  13.300  1.00  0.00     0.136 C 
HETATM   31  C1  UNL     1      -8.240   5.034  12.355  1.00  0.00     0.043 C 
BRANCH  30  32
HETATM   32  O1  UNL     1      -8.212   2.712  12.977  1.00  0.00    -0.392 OA
HETATM   33  H5  UNL     1      -9.179   2.812  12.953  1.00  0.00     0.210 HD
ENDBRANCH  30  32
ENDBRANCH  29  30
ENDBRANCH   1  28
BRANCH   1  34
HETATM   34  O2  UNL     1      -3.470   3.693  13.678  1.00  0.00    -0.385 OA
HETATM   35  H8  UNL     1      -3.007   2.839  13.617  1.00  0.00     0.211 HD
ENDBRANCH   1  34
TORSDOF 12
ENDMDL
MODEL 7
REMARK minimizedAffinity -7.88023233
REMARK  12 active torsions:
REMARK  status: ('A' for Active; 'I' for Inactive)
REMARK    1  A    between atoms: C2_2  and  O1_3 
REMARK    2  A    between atoms: C2_2  and  C3_4 
REMARK    3  A    between atoms: C4_5  and  C5_6 
REMARK    4  A    between atoms: C5_6  and  O2_7 
REMARK    5  A    between atoms: C8_10  and  O3_11 
REMARK    6  A    between atoms: O3_11  and  C9_12 
REMARK    7  A    between atoms: C10_14  and  C11_15 
REMARK    8  A    between atoms: C11_15  and  O5_16 
REMARK    9  A    between atoms: C12_17  and  O6_18 
REMARK   10  A    between atoms: C13_19  and  O7_20 
REMARK   11  A    between atoms: C14_21  and  O8_22 
REMARK   12  A    between atoms: C15_23  and  O9_24 
ROOT
HETATM    1  C5  UNL     1      -0.886   6.616  14.614  1.00  0.00     0.088 C 
HETATM    2  C6  UNL     1       0.443   7.187  13.978  1.00  0.00     0.052 C 
HETATM    3  C7  UNL     1       1.635   7.038  14.949  1.00  0.00     0.016 C 
HETATM    4  C8  UNL     1       0.747   6.595  12.571  1.00  0.00     0.160 C 
HETATM    5  C15 UNL     1       0.171   5.184  12.432  1.00  0.00     0.148 C 
HETATM    6  C16 UNL     1      -1.360   5.196  12.521  1.00  0.00     0.046 C 
HETATM    7  C17 UNL     1      -1.959   6.232  13.524  1.00  0.00    -0.010 C 
HETATM    8  C18 UNL     1      -2.453   7.480  12.750  1.00  0.00     0.018 C 
HETATM    9  C19 UNL     1      -3.232   5.593  14.144  1.00  0.00     0.018 C 
ENDROOT
BRANCH   4  10
HETATM   10  O3  UNL     1       2.151   6.545  12.255  1.00  0.00    -0.350 OA
BRANCH  10  11
HETATM   11  C9  UNL     1       2.659   7.770  11.718  1.00  0.00     0.292 C 
HETATM   12  O4  UNL     1       1.704   8.399  10.868  1.00  0.00    -0.348 OA
HETATM   13  C10 UNL     1       1.695   7.972   9.503  1.00  0.00     0.179 C 
HETATM   14  C12 UNL     1       2.395   6.628   9.238  1.00  0.00     0.180 C 
HETATM   15  C13 UNL     1       3.842   6.663   9.752  1.00  0.00     0.183 C 
HETATM   16  C14 UNL     1       4.010   7.514  11.019  1.00  0.00     0.204 C 
BRANCH  13  17
HETATM   17  C11 UNL     1       0.227   7.938   9.053  1.00  0.00     0.198 C 
BRANCH  17  18
HETATM   18  O5  UNL     1      -0.204   9.192   8.536  1.00  0.00    -0.398 OA
HETATM   19  H18 UNL     1      -0.285   9.799   9.294  1.00  0.00     0.209 HD
ENDBRANCH  17  18
ENDBRANCH  13  17
BRANCH  14  20
HETATM   20  O6  UNL     1       2.420   6.324   7.835  1.00  0.00    -0.390 OA
HETATM   21  H20 UNL     1       1.490   6.337   7.527  1.00  0.00     0.210 HD
ENDBRANCH  14  20
BRANCH  15  22
HETATM   22  O7  UNL     1       4.265   5.313  10.012  1.00  0.00    -0.390 OA
HETATM   23  H22 UNL     1       5.234   5.305   9.943  1.00  0.00     0.210 HD
ENDBRANCH  15  22
BRANCH  16  24
HETATM   24  O8  UNL     1       4.637   8.756  10.653  1.00  0.00    -0.388 OA
HETATM   25  H24 UNL     1       4.720   9.294  11.458  1.00  0.00     0.210 HD
ENDBRANCH  16  24
ENDBRANCH  10  11
ENDBRANCH   4  10
BRANCH   5  26
HETATM   26  O9  UNL     1       0.536   4.619  11.170  1.00  0.00    -0.393 OA
HETATM   27  H26 UNL     1       1.512   4.676  11.139  1.00  0.00     0.210 HD
ENDBRANCH   5  26
BRANCH   1  28
HETATM   28  C4  UNL     1      -1.469   7.505  15.705  1.00  0.00     0.010 C 
HETATM   29  C3  UNL     1      -1.305   8.827  15.884  1.00  0.00     0.003 C 
BRANCH  29  30
HETATM   30  C2  UNL     1      -1.862   9.679  16.991  1.00  0.00     0.136 C 
HETATM   31  C1  UNL     1      -1.851  11.187  16.760  1.00  0.00     0.043 C 
BRANCH  30  32
HETATM   32  O1  UNL     1      -3.208   9.247  17.182  1.00  0.00    -0.392 OA
HETATM   33  H5  UNL     1      -3.599   9.812  17.870  1.00  0.00     0.210 HD
ENDBRANCH  30  32
ENDBRANCH  29  30
ENDBRANCH   1  28
BRANCH   1  34
HETATM   34  O2  UNL     1      -0.510   5.431  15.348  1.00  0.00    -0.385 OA
HETATM   35  H8  UNL     1      -0.938   4.644  14.968  1.00  0.00     0.211 HD
ENDBRANCH   1  34
TORSDOF 12
ENDMDL
MODEL 8
REMARK minimizedAffinity -7.83136797
REMARK  12 active torsions:
REMARK  status: ('A' for Active; 'I' for Inactive)
REMARK    1  A    between atoms: C2_2  and  O1_3 
REMARK    2  A    between atoms: C2_2  and  C3_4 
REMARK    3  A    between atoms: C4_5  and  C5_6 
REMARK    4  A    between atoms: C5_6  and  O2_7 
REMARK    5  A    between atoms: C8_10  and  O3_11 
REMARK    6  A    between atoms: O3_11  and  C9_12 
REMARK    7  A    between atoms: C10_14  and  C11_15 
REMARK    8  A    between atoms: C11_15  and  O5_16 
REMARK    9  A    between atoms: C12_17  and  O6_18 
REMARK   10  A    between atoms: C13_19  and  O7_20 
REMARK   11  A    between atoms: C14_21  and  O8_22 
REMARK   12  A    between atoms: C15_23  and  O9_24 
ROOT
HETATM    1  C5  UNL     1      -7.096   5.727  14.110  1.00  0.00     0.088 C 
HETATM    2  C6  UNL     1      -8.327   6.472  13.457  1.00  0.00     0.052 C 
HETATM    3  C7  UNL     1      -9.271   5.475  12.751  1.00  0.00     0.016 C 
HETATM    4  C8  UNL     1      -9.080   7.395  14.458  1.00  0.00     0.160 C 
HETATM    5  C15 UNL     1      -8.952   6.873  15.891  1.00  0.00     0.148 C 
HETATM    6  C16 UNL     1      -7.494   6.900  16.365  1.00  0.00     0.046 C 
HETATM    7  C17 UNL     1      -6.432   6.563  15.271  1.00  0.00    -0.010 C 
HETATM    8  C18 UNL     1      -5.802   7.874  14.737  1.00  0.00     0.018 C 
HETATM    9  C19 UNL     1      -5.276   5.796  15.969  1.00  0.00     0.018 C 
ENDROOT
BRANCH   4  10
HETATM   10  O3  UNL     1     -10.478   7.556  14.157  1.00  0.00    -0.350 OA
BRANCH  10  11
HETATM   11  C9  UNL     1     -11.071   8.695  14.788  1.00  0.00     0.292 C 
HETATM   12  O4  UNL     1     -12.320   8.365  15.388  1.00  0.00    -0.348 OA
HETATM   13  C10 UNL     1     -13.465   8.423  14.533  1.00  0.00     0.179 C 
HETATM   14  C12 UNL     1     -13.155   8.411  13.028  1.00  0.00     0.180 C 
HETATM   15  C13 UNL     1     -12.192   9.552  12.667  1.00  0.00     0.183 C 
HETATM   16  C14 UNL     1     -11.176   9.856  13.778  1.00  0.00     0.204 C 
BRANCH  13  17
HETATM   17  C11 UNL     1     -14.378   7.252  14.927  1.00  0.00     0.198 C 
BRANCH  17  18
HETATM   18  O5  UNL     1     -14.312   6.966  16.319  1.00  0.00    -0.398 OA
HETATM   19  H18 UNL     1     -13.445   6.552  16.484  1.00  0.00     0.209 HD
ENDBRANCH  17  18
ENDBRANCH  13  17
BRANCH  14  20
HETATM   20  O6  UNL     1     -14.352   8.566  12.249  1.00  0.00    -0.390 OA
HETATM   21  H20 UNL     1     -14.959   7.845  12.519  1.00  0.00     0.210 HD
ENDBRANCH  14  20
BRANCH  15  22
HETATM   22  O7  UNL     1     -11.498   9.197  11.457  1.00  0.00    -0.390 OA
HETATM   23  H22 UNL     1     -11.222  10.028  11.038  1.00  0.00     0.210 HD
ENDBRANCH  15  22
BRANCH  16  24
HETATM   24  O8  UNL     1     -11.575  11.070  14.438  1.00  0.00    -0.388 OA
HETATM   25  H24 UNL     1     -10.939  11.243  15.152  1.00  0.00     0.210 HD
ENDBRANCH  16  24
ENDBRANCH  10  11
ENDBRANCH   4  10
BRANCH   5  26
HETATM   26  O9  UNL     1      -9.723   7.678  16.786  1.00  0.00    -0.393 OA
HETATM   27  H26 UNL     1     -10.630   7.670  16.419  1.00  0.00     0.210 HD
ENDBRANCH   5  26
BRANCH   1  28
HETATM   28  C4  UNL     1      -6.070   5.241  13.095  1.00  0.00     0.010 C 
HETATM   29  C3  UNL     1      -5.876   3.994  12.631  1.00  0.00     0.003 C 
BRANCH  29  30
HETATM   30  C2  UNL     1      -4.832   3.530  11.653  1.00  0.00     0.136 C 
HETATM   31  C1  UNL     1      -3.432   3.303  12.212  1.00  0.00     0.043 C 
BRANCH  30  32
HETATM   32  O1  UNL     1      -5.320   2.306  11.107  1.00  0.00    -0.392 OA
HETATM   33  H5  UNL     1      -4.641   1.969  10.499  1.00  0.00     0.210 HD
ENDBRANCH  30  32
ENDBRANCH  29  30
ENDBRANCH   1  28
BRANCH   1  34
HETATM   34  O2  UNL     1      -7.607   4.490  14.649  1.00  0.00    -0.385 OA
HETATM   35  H8  UNL     1      -7.502   4.469  15.617  1.00  0.00     0.211 HD
ENDBRANCH   1  34
TORSDOF 12
ENDMDL
MODEL 9
REMARK minimizedAffinity -7.7734828
REMARK  12 active torsions:
REMARK  status: ('A' for Active; 'I' for Inactive)
REMARK    1  A    between atoms: C2_2  and  O1_3 
REMARK    2  A    between atoms: C2_2  and  C3_4 
REMARK    3  A    between atoms: C4_5  and  C5_6 
REMARK    4  A    between atoms: C5_6  and  O2_7 
REMARK    5  A    between atoms: C8_10  and  O3_11 
REMARK    6  A    between atoms: O3_11  and  C9_12 
REMARK    7  A    between atoms: C10_14  and  C11_15 
REMARK    8  A    between atoms: C11_15  and  O5_16 
REMARK    9  A    between atoms: C12_17  and  O6_18 
REMARK   10  A    between atoms: C13_19  and  O7_20 
REMARK   11  A    between atoms: C14_21  and  O8_22 
REMARK   12  A    between atoms: C15_23  and  O9_24 
ROOT
HETATM    1  C5  UNL     1      -1.165   5.915  12.994  1.00  0.00     0.088 C 
HETATM    2  C6  UNL     1      -2.708   5.725  12.716  1.00  0.00     0.052 C 
HETATM    3  C7  UNL     1      -3.013   4.296  12.216  1.00  0.00     0.016 C 
HETATM    4  C8  UNL     1      -3.599   6.132  13.925  1.00  0.00     0.160 C 
HETATM    5  C15 UNL     1      -2.853   5.939  15.247  1.00  0.00     0.148 C 
HETATM    6  C16 UNL     1      -1.633   6.863  15.339  1.00  0.00     0.046 C 
HETATM    7  C17 UNL     1      -0.873   7.097  13.996  1.00  0.00    -0.010 C 
HETATM    8  C18 UNL     1      -1.288   8.464  13.396  1.00  0.00     0.018 C 
HETATM    9  C19 UNL     1       0.637   7.230  14.335  1.00  0.00     0.018 C 
ENDROOT
BRANCH   4  10
HETATM   10  O3  UNL     1      -4.843   5.412  13.997  1.00  0.00    -0.350 OA
BRANCH  10  11
HETATM   11  C9  UNL     1      -5.932   6.090  13.363  1.00  0.00     0.292 C 
HETATM   12  O4  UNL     1      -5.909   7.486  13.646  1.00  0.00    -0.348 OA
HETATM   13  C10 UNL     1      -6.549   7.895  14.858  1.00  0.00     0.179 C 
HETATM   14  C12 UNL     1      -6.789   6.770  15.877  1.00  0.00     0.180 C 
HETATM   15  C13 UNL     1      -7.591   5.625  15.239  1.00  0.00     0.183 C 
HETATM   16  C14 UNL     1      -7.264   5.419  13.753  1.00  0.00     0.204 C 
BRANCH  13  17
HETATM   17  C11 UNL     1      -5.696   9.022  15.457  1.00  0.00     0.198 C 
BRANCH  17  18
HETATM   18  O5  UNL     1      -4.738   9.521  14.529  1.00  0.00    -0.398 OA
HETATM   19  H18 UNL     1      -4.051   8.836  14.435  1.00  0.00     0.209 HD
ENDBRANCH  17  18
ENDBRANCH  13  17
BRANCH  14  20
HETATM   20  O6  UNL     1      -7.517   7.250  17.019  1.00  0.00    -0.390 OA
HETATM   21  H20 UNL     1      -7.000   7.996  17.389  1.00  0.00     0.210 HD
ENDBRANCH  14  20
BRANCH  15  22
HETATM   22  O7  UNL     1      -7.319   4.416  15.971  1.00  0.00    -0.390 OA
HETATM   23  H22 UNL     1      -8.083   3.832  15.839  1.00  0.00     0.210 HD
ENDBRANCH  15  22
BRANCH  16  24
HETATM   24  O8  UNL     1      -8.349   5.948  12.971  1.00  0.00    -0.388 OA
HETATM   25  H24 UNL     1      -8.124   5.830  12.034  1.00  0.00     0.210 HD
ENDBRANCH  16  24
ENDBRANCH  10  11
ENDBRANCH   4  10
BRANCH   5  26
HETATM   26  O9  UNL     1      -3.712   6.229  16.352  1.00  0.00    -0.393 OA
HETATM   27  H26 UNL     1      -4.493   5.654  16.226  1.00  0.00     0.210 HD
ENDBRANCH   5  26
BRANCH   1  28
HETATM   28  C4  UNL     1      -0.326   6.017  11.727  1.00  0.00     0.010 C 
HETATM   29  C3  UNL     1       0.909   5.535  11.498  1.00  0.00     0.003 C 
BRANCH  29  30
HETATM   30  C2  UNL     1       1.733   5.679  10.249  1.00  0.00     0.136 C 
HETATM   31  C1  UNL     1       2.519   6.977  10.099  1.00  0.00     0.043 C 
BRANCH  30  32
HETATM   32  O1  UNL     1       2.644   4.581  10.249  1.00  0.00    -0.392 OA
HETATM   33  H5  UNL     1       3.213   4.677   9.467  1.00  0.00     0.210 HD
ENDBRANCH  30  32
ENDBRANCH  29  30
ENDBRANCH   1  28
BRANCH   1  34
HETATM   34  O2  UNL     1      -0.699   4.677  13.574  1.00  0.00    -0.385 OA
HETATM   35  H8  UNL     1      -0.378   4.824  14.480  1.00  0.00     0.211 HD
ENDBRANCH   1  34
TORSDOF 12
ENDMDL
