MODEL 1
REMARK minimizedAffinity -7.18240547
REMARK CNNscore 0.411518067
REMARK CNNaffinity 5.65928602
REMARK  2 active torsions:
REMARK  status: ('A' for Active; 'I' for Inactive)
REMARK    1  A    between atoms: C21_27  and  C22_28 
REMARK    2  A    between atoms: C22_28  and  O7_30 
ROOT
HETATM    1  C1  UNL     1       6.727  55.209  -9.550  1.00  0.00     0.043 C 
HETATM    2  C2  UNL     1       5.937  54.104  -8.892  1.00  0.00    -0.076 C 
HETATM    3  C3  UNL     1       4.937  53.504  -9.577  1.00  0.00     0.084 C 
HETATM    4  C4  UNL     1       4.079  52.410  -9.077  1.00  0.00     0.283 C 
HETATM    5  O1  UNL     1       4.198  51.823  -8.018  1.00  0.00    -0.260 OA
HETATM    6  O2  UNL     1       3.133  52.183 -10.024  1.00  0.00    -0.317 OA
HETATM    7  C5  UNL     1       2.247  51.090  -9.774  1.00  0.00     0.195 C 
HETATM    8  C6  UNL     1       0.755  51.386 -10.145  1.00  0.00     0.053 C 
HETATM    9  C7  UNL     1       0.661  51.871 -11.643  1.00  0.00     0.159 C 
HETATM   10  C8  UNL     1       0.903  50.795 -12.666  1.00  0.00     0.011 C 
HETATM   11  C9  UNL     1       0.627  49.498 -12.424  1.00  0.00    -0.054 C 
HETATM   12  C10 UNL     1       0.828  48.441 -13.472  1.00  0.00     0.046 C 
HETATM   13  C11 UNL     1       0.025  49.062 -11.152  1.00  0.00     0.180 A 
HETATM   14  O3  UNL     1      -1.149  49.729 -10.661  1.00  0.00    -0.370 OA
HETATM   15  C12 UNL     1       0.071  50.010  -9.966  1.00  0.00     0.170 A 
HETATM   16  O4  UNL     1      -0.603  52.460 -11.998  1.00  0.00    -0.372 OA
HETATM   17  C13 UNL     1      -1.208  53.331 -11.035  1.00  0.00     0.162 C 
HETATM   18  C14 UNL     1      -0.299  54.513 -10.698  1.00  0.00     0.068 C 
HETATM   19  C15 UNL     1       0.646  53.960  -9.597  1.00  0.00     0.147 C 
HETATM   20  O5  UNL     1       0.943  54.959  -8.590  1.00  0.00    -0.312 OA
HETATM   21  C16 UNL     1      -0.020  55.509  -7.823  1.00  0.00     0.283 C 
HETATM   22  O6  UNL     1      -1.133  55.065  -7.615  1.00  0.00    -0.260 OA
HETATM   23  C17 UNL     1       0.338  56.840  -7.299  1.00  0.00     0.082 C 
HETATM   24  C18 UNL     1       1.488  57.342  -6.835  1.00  0.00     0.006 C 
HETATM   25  C19 UNL     1       2.776  56.712  -6.701  1.00  0.00    -0.001 C 
HETATM   26  C20 UNL     1       3.723  57.249  -5.913  1.00  0.00     0.007 C 
HETATM   27  C21 UNL     1       5.107  56.723  -5.616  1.00  0.00     0.172 C 
HETATM   28  O8  UNL     1       5.572  55.903  -6.684  1.00  0.00    -0.379 OA
HETATM   29  C24 UNL     1       5.577  54.506  -6.394  1.00  0.00     0.173 C 
HETATM   30  C25 UNL     1       6.362  53.770  -7.479  1.00  0.00     0.060 C 
HETATM   31  C26 UNL     1       0.092  52.517  -9.205  1.00  0.00     0.034 C 
HETATM   32  C27 UNL     1       0.230  52.207  -7.716  1.00  0.00     0.022 C 
HETATM   33  C28 UNL     1      -1.327  52.616  -9.734  1.00  0.00     0.119 A 
HETATM   34  C29 UNL     1      -2.519  51.766  -9.331  1.00  0.00     0.210 A 
HETATM   35  O9  UNL     1      -2.356  53.107  -8.868  1.00  0.00    -0.371 OA
ENDROOT
BRANCH  27  36
HETATM   36  C22 UNL     1       6.122  57.891  -5.458  1.00  0.00     0.146 C 
HETATM   37  C23 UNL     1       7.555  57.383  -5.341  1.00  0.00     0.042 C 
BRANCH  36  38
HETATM   38  O7  UNL     1       5.836  58.694  -4.310  1.00  0.00    -0.393 OA
HETATM   39  H27 UNL     1       6.040  58.180  -3.515  1.00  0.00     0.210 HD
ENDBRANCH  36  38
ENDBRANCH  27  36
TORSDOF 2
ENDMDL
MODEL 2
REMARK minimizedAffinity -7.32132387
REMARK CNNscore 0.39645341
REMARK CNNaffinity 5.4416008
REMARK  2 active torsions:
REMARK  status: ('A' for Active; 'I' for Inactive)
REMARK    1  A    between atoms: C21_27  and  C22_28 
REMARK    2  A    between atoms: C22_28  and  O7_30 
ROOT
HETATM    1  C1  UNL     1       2.546  50.499  -9.145  1.00  0.00     0.043 C 
HETATM    2  C2  UNL     1       3.483  51.645  -9.439  1.00  0.00    -0.076 C 
HETATM    3  C3  UNL     1       4.242  52.154  -8.443  1.00  0.00     0.084 C 
HETATM    4  C4  UNL     1       5.207  53.266  -8.570  1.00  0.00     0.283 C 
HETATM    5  O1  UNL     1       5.533  53.828  -9.598  1.00  0.00    -0.260 OA
HETATM    6  O2  UNL     1       5.662  53.542  -7.321  1.00  0.00    -0.317 OA
HETATM    7  C5  UNL     1       6.683  54.537  -7.233  1.00  0.00     0.195 C 
HETATM    8  C6  UNL     1       6.507  55.522  -6.027  1.00  0.00     0.053 C 
HETATM    9  C7  UNL     1       6.381  54.705  -4.683  1.00  0.00     0.159 C 
HETATM   10  C8  UNL     1       7.659  54.062  -4.219  1.00  0.00     0.011 C 
HETATM   11  C9  UNL     1       8.870  54.576  -4.512  1.00  0.00    -0.054 C 
HETATM   12  C10 UNL     1      10.136  53.950  -4.001  1.00  0.00     0.046 C 
HETATM   13  C11 UNL     1       9.012  55.832  -5.270  1.00  0.00     0.180 A 
HETATM   14  O3  UNL     1       8.270  56.992  -4.860  1.00  0.00    -0.370 OA
HETATM   15  C12 UNL     1       7.816  56.345  -6.053  1.00  0.00     0.170 A 
HETATM   16  O4  UNL     1       5.911  55.476  -3.562  1.00  0.00    -0.372 OA
HETATM   17  C13 UNL     1       4.852  56.408  -3.812  1.00  0.00     0.162 C 
HETATM   18  C14 UNL     1       3.609  55.711  -4.364  1.00  0.00     0.068 C 
HETATM   19  C15 UNL     1       3.877  55.615  -5.890  1.00  0.00     0.147 C 
HETATM   20  O5  UNL     1       2.669  55.816  -6.665  1.00  0.00    -0.312 OA
HETATM   21  C16 UNL     1       1.974  56.970  -6.618  1.00  0.00     0.283 C 
HETATM   22  O6  UNL     1       2.378  58.052  -6.238  1.00  0.00    -0.260 OA
HETATM   23  C17 UNL     1       0.552  56.812  -6.974  1.00  0.00     0.082 C 
HETATM   24  C18 UNL     1      -0.064  56.068  -7.901  1.00  0.00     0.006 C 
HETATM   25  C19 UNL     1       0.497  55.158  -8.866  1.00  0.00    -0.001 C 
HETATM   26  C20 UNL     1      -0.224  54.757  -9.928  1.00  0.00     0.007 C 
HETATM   27  C21 UNL     1       0.196  53.847 -11.058  1.00  0.00     0.172 C 
HETATM   28  O8  UNL     1       1.231  52.966 -10.635  1.00  0.00    -0.379 OA
HETATM   29  C24 UNL     1       2.524  53.287 -11.147  1.00  0.00     0.173 C 
HETATM   30  C25 UNL     1       3.476  52.123 -10.875  1.00  0.00     0.060 C 
HETATM   31  C26 UNL     1       5.201  56.458  -6.174  1.00  0.00     0.034 C 
HETATM   32  C27 UNL     1       5.158  57.212  -7.501  1.00  0.00     0.022 C 
HETATM   33  C28 UNL     1       5.251  57.317  -4.924  1.00  0.00     0.119 A 
HETATM   34  C29 UNL     1       6.006  58.620  -4.734  1.00  0.00     0.210 A 
HETATM   35  O9  UNL     1       4.592  58.587  -4.930  1.00  0.00    -0.371 OA
ENDROOT
BRANCH  27  36
HETATM   36  C22 UNL     1      -0.994  52.964 -11.531  1.00  0.00     0.146 C 
HETATM   37  C23 UNL     1      -0.710  52.305 -12.876  1.00  0.00     0.042 C 
BRANCH  36  38
HETATM   38  O7  UNL     1      -2.203  53.718 -11.648  1.00  0.00    -0.393 OA
HETATM   39  H27 UNL     1      -2.123  54.317 -12.405  1.00  0.00     0.210 HD
ENDBRANCH  36  38
ENDBRANCH  27  36
TORSDOF 2
ENDMDL
MODEL 3
REMARK minimizedAffinity -7.17104816
REMARK CNNscore 0.292720139
REMARK CNNaffinity 4.84307718
REMARK  2 active torsions:
REMARK  status: ('A' for Active; 'I' for Inactive)
REMARK    1  A    between atoms: C21_27  and  C22_28 
REMARK    2  A    between atoms: C22_28  and  O7_30 
ROOT
HETATM    1  C1  UNL     1     -10.386  44.444 -24.135  1.00  0.00     0.043 C 
HETATM    2  C2  UNL     1     -11.431  45.487 -23.821  1.00  0.00    -0.076 C 
HETATM    3  C3  UNL     1     -12.595  45.109 -23.247  1.00  0.00     0.084 C 
HETATM    4  C4  UNL     1     -13.710  46.005 -22.875  1.00  0.00     0.283 C 
HETATM    5  O1  UNL     1     -13.715  47.220 -22.943  1.00  0.00    -0.260 OA
HETATM    6  O2  UNL     1     -14.726  45.217 -22.443  1.00  0.00    -0.317 OA
HETATM    7  C5  UNL     1     -15.880  45.899 -21.946  1.00  0.00     0.195 C 
HETATM    8  C6  UNL     1     -17.237  45.255 -22.389  1.00  0.00     0.053 C 
HETATM    9  C7  UNL     1     -17.259  43.727 -21.997  1.00  0.00     0.159 C 
HETATM   10  C8  UNL     1     -17.392  43.461 -20.523  1.00  0.00     0.011 C 
HETATM   11  C9  UNL     1     -18.024  44.315 -19.692  1.00  0.00    -0.054 C 
HETATM   12  C10 UNL     1     -18.192  44.012 -18.231  1.00  0.00     0.046 C 
HETATM   13  C11 UNL     1     -18.663  45.544 -20.192  1.00  0.00     0.180 A 
HETATM   14  O3  UNL     1     -19.565  45.469 -21.308  1.00  0.00    -0.370 OA
HETATM   15  C12 UNL     1     -18.283  46.049 -21.574  1.00  0.00     0.170 A 
HETATM   16  O4  UNL     1     -18.311  42.969 -22.621  1.00  0.00    -0.372 OA
HETATM   17  C13 UNL     1     -18.586  43.250 -23.998  1.00  0.00     0.162 C 
HETATM   18  C14 UNL     1     -17.356  43.019 -24.875  1.00  0.00     0.068 C 
HETATM   19  C15 UNL     1     -16.561  44.348 -24.769  1.00  0.00     0.147 C 
HETATM   20  O5  UNL     1     -15.935  44.705 -26.026  1.00  0.00    -0.312 OA
HETATM   21  C16 UNL     1     -16.656  44.948 -27.139  1.00  0.00     0.283 C 
HETATM   22  O6  UNL     1     -17.838  45.226 -27.199  1.00  0.00    -0.260 OA
HETATM   23  C17 UNL     1     -15.899  44.729 -28.386  1.00  0.00     0.082 C 
HETATM   24  C18 UNL     1     -14.631  44.992 -28.723  1.00  0.00     0.006 C 
HETATM   25  C19 UNL     1     -13.579  45.587 -27.941  1.00  0.00    -0.001 C 
HETATM   26  C20 UNL     1     -12.478  46.079 -28.535  1.00  0.00     0.007 C 
HETATM   27  C21 UNL     1     -11.295  46.769 -27.898  1.00  0.00     0.172 C 
HETATM   28  O8  UNL     1     -11.144  46.357 -26.543  1.00  0.00    -0.379 OA
HETATM   29  C24 UNL     1     -11.533  47.337 -25.582  1.00  0.00     0.173 C 
HETATM   30  C25 UNL     1     -11.053  46.903 -24.198  1.00  0.00     0.060 C 
HETATM   31  C26 UNL     1     -17.492  45.373 -23.978  1.00  0.00     0.034 C 
HETATM   32  C27 UNL     1     -17.378  46.805 -24.492  1.00  0.00     0.022 C 
HETATM   33  C28 UNL     1     -18.845  44.708 -24.159  1.00  0.00     0.119 A 
HETATM   34  C29 UNL     1     -20.211  45.354 -24.021  1.00  0.00     0.210 A 
HETATM   35  O9  UNL     1     -19.641  45.058 -25.296  1.00  0.00    -0.371 OA
ENDROOT
BRANCH  27  36
HETATM   36  C22 UNL     1      -9.976  46.407 -28.639  1.00  0.00     0.146 C 
HETATM   37  C23 UNL     1      -9.017  47.590 -28.697  1.00  0.00     0.042 C 
BRANCH  36  38
HETATM   38  O7  UNL     1     -10.221  45.961 -29.975  1.00  0.00    -0.393 OA
HETATM   39  H27 UNL     1     -10.513  46.718 -30.505  1.00  0.00     0.210 HD
ENDBRANCH  36  38
ENDBRANCH  27  36
TORSDOF 2
ENDMDL
MODEL 4
REMARK minimizedAffinity -8.04985905
REMARK CNNscore 0.271839917
REMARK CNNaffinity 5.74726057
REMARK  2 active torsions:
REMARK  status: ('A' for Active; 'I' for Inactive)
REMARK    1  A    between atoms: C21_27  and  C22_28 
REMARK    2  A    between atoms: C22_28  and  O7_30 
ROOT
HETATM    1  C1  UNL     1      -4.058  53.393 -12.249  1.00  0.00     0.043 C 
HETATM    2  C2  UNL     1      -3.434  52.775 -11.021  1.00  0.00    -0.076 C 
HETATM    3  C3  UNL     1      -2.689  53.544 -10.196  1.00  0.00     0.084 C 
HETATM    4  C4  UNL     1      -2.019  53.093  -8.958  1.00  0.00     0.283 C 
HETATM    5  O1  UNL     1      -2.110  51.993  -8.447  1.00  0.00    -0.260 OA
HETATM    6  O2  UNL     1      -1.284  54.138  -8.500  1.00  0.00    -0.317 OA
HETATM    7  C5  UNL     1      -0.622  53.937  -7.250  1.00  0.00     0.195 C 
HETATM    8  C6  UNL     1       0.833  54.515  -7.203  1.00  0.00     0.053 C 
HETATM    9  C7  UNL     1       0.816  56.040  -7.606  1.00  0.00     0.159 C 
HETATM   10  C8  UNL     1       0.212  56.954  -6.575  1.00  0.00     0.011 C 
HETATM   11  C9  UNL     1       0.240  56.670  -5.258  1.00  0.00    -0.054 C 
HETATM   12  C10 UNL     1      -0.323  57.615  -4.236  1.00  0.00     0.046 C 
HETATM   13  C11 UNL     1       0.909  55.462  -4.744  1.00  0.00     0.180 A 
HETATM   14  O3  UNL     1       2.253  55.169  -5.156  1.00  0.00    -0.370 OA
HETATM   15  C12 UNL     1       1.230  54.341  -5.718  1.00  0.00     0.170 A 
HETATM   16  O4  UNL     1       2.113  56.593  -7.895  1.00  0.00    -0.372 OA
HETATM   17  C13 UNL     1       3.016  55.772  -8.646  1.00  0.00     0.162 C 
HETATM   18  C14 UNL     1       2.433  55.394 -10.007  1.00  0.00     0.068 C 
HETATM   19  C15 UNL     1       1.556  54.148  -9.709  1.00  0.00     0.147 C 
HETATM   20  O5  UNL     1       1.620  53.175 -10.781  1.00  0.00    -0.312 OA
HETATM   21  C16 UNL     1       2.774  52.575 -11.134  1.00  0.00     0.283 C 
HETATM   22  O6  UNL     1       3.787  52.485 -10.466  1.00  0.00    -0.260 OA
HETATM   23  C17 UNL     1       2.782  52.094 -12.528  1.00  0.00     0.082 C 
HETATM   24  C18 UNL     1       1.840  51.516 -13.283  1.00  0.00     0.006 C 
HETATM   25  C19 UNL     1       0.479  51.178 -12.952  1.00  0.00    -0.001 C 
HETATM   26  C20 UNL     1      -0.214  50.309 -13.708  1.00  0.00     0.007 C 
HETATM   27  C21 UNL     1      -1.622  49.804 -13.505  1.00  0.00     0.172 C 
HETATM   28  O8  UNL     1      -2.394  50.748 -12.770  1.00  0.00    -0.379 OA
HETATM   29  C24 UNL     1      -2.652  50.374 -11.417  1.00  0.00     0.173 C 
HETATM   30  C25 UNL     1      -3.718  51.301 -10.834  1.00  0.00     0.060 C 
HETATM   31  C26 UNL     1       1.843  53.742  -8.194  1.00  0.00     0.034 C 
HETATM   32  C27 UNL     1       1.853  52.231  -7.970  1.00  0.00     0.022 C 
HETATM   33  C28 UNL     1       3.163  54.455  -7.965  1.00  0.00     0.119 A 
HETATM   34  C29 UNL     1       4.193  54.158  -6.891  1.00  0.00     0.210 A 
HETATM   35  O9  UNL     1       4.383  53.762  -8.249  1.00  0.00    -0.371 OA
ENDROOT
BRANCH  27  36
HETATM   36  C22 UNL     1      -2.337  49.588 -14.869  1.00  0.00     0.146 C 
HETATM   37  C23 UNL     1      -1.363  49.681 -16.038  1.00  0.00     0.042 C 
BRANCH  36  38
HETATM   38  O7  UNL     1      -3.381  50.541 -15.080  1.00  0.00    -0.393 OA
HETATM   39  H27 UNL     1      -2.981  51.410 -15.231  1.00  0.00     0.210 HD
ENDBRANCH  36  38
ENDBRANCH  27  36
TORSDOF 2
ENDMDL
MODEL 5
REMARK minimizedAffinity -7.16003084
REMARK CNNscore 0.261360079
REMARK CNNaffinity 5.3645606
REMARK  2 active torsions:
REMARK  status: ('A' for Active; 'I' for Inactive)
REMARK    1  A    between atoms: C21_27  and  C22_28 
REMARK    2  A    between atoms: C22_28  and  O7_30 
ROOT
HETATM    1  C1  UNL     1       3.972  62.031  -3.282  1.00  0.00     0.043 C 
HETATM    2  C2  UNL     1       4.213  60.553  -3.094  1.00  0.00    -0.076 C 
HETATM    3  C3  UNL     1       4.139  59.727  -4.162  1.00  0.00     0.084 C 
HETATM    4  C4  UNL     1       4.352  58.265  -4.145  1.00  0.00     0.283 C 
HETATM    5  O1  UNL     1       4.713  57.598  -3.193  1.00  0.00    -0.260 OA
HETATM    6  O2  UNL     1       4.068  57.807  -5.390  1.00  0.00    -0.317 OA
HETATM    7  C5  UNL     1       4.300  56.414  -5.613  1.00  0.00     0.195 C 
HETATM    8  C6  UNL     1       3.186  55.715  -6.463  1.00  0.00     0.053 C 
HETATM    9  C7  UNL     1       2.985  56.489  -7.823  1.00  0.00     0.159 C 
HETATM   10  C8  UNL     1       4.110  56.327  -8.809  1.00  0.00     0.011 C 
HETATM   11  C9  UNL     1       4.883  55.224  -8.842  1.00  0.00    -0.054 C 
HETATM   12  C10 UNL     1       5.971  55.055  -9.863  1.00  0.00     0.046 C 
HETATM   13  C11 UNL     1       4.641  54.085  -7.939  1.00  0.00     0.180 A 
HETATM   14  O3  UNL     1       3.318  53.537  -7.832  1.00  0.00    -0.370 OA
HETATM   15  C12 UNL     1       3.771  54.305  -6.712  1.00  0.00     0.170 A 
HETATM   16  O4  UNL     1       1.791  56.127  -8.541  1.00  0.00    -0.372 OA
HETATM   17  C13 UNL     1       0.602  55.932  -7.767  1.00  0.00     0.162 C 
HETATM   18  C14 UNL     1       0.228  57.189  -6.983  1.00  0.00     0.068 C 
HETATM   19  C15 UNL     1       1.080  57.093  -5.688  1.00  0.00     0.147 C 
HETATM   20  O5  UNL     1       0.358  57.580  -4.530  1.00  0.00    -0.312 OA
HETATM   21  C16 UNL     1      -0.785  57.003  -4.106  1.00  0.00     0.283 C 
HETATM   22  O6  UNL     1      -1.184  55.886  -4.373  1.00  0.00    -0.260 OA
HETATM   23  C17 UNL     1      -1.649  57.915  -3.333  1.00  0.00     0.082 C 
HETATM   24  C18 UNL     1      -1.373  58.858  -2.425  1.00  0.00     0.006 C 
HETATM   25  C19 UNL     1      -0.099  59.288  -1.908  1.00  0.00    -0.001 C 
HETATM   26  C20 UNL     1      -0.026  60.001  -0.771  1.00  0.00     0.007 C 
HETATM   27  C21 UNL     1       1.204  60.506  -0.056  1.00  0.00     0.172 C 
HETATM   28  O8  UNL     1       2.282  60.675  -0.971  1.00  0.00    -0.379 OA
HETATM   29  C24 UNL     1       3.303  59.683  -0.869  1.00  0.00     0.173 C 
HETATM   30  C25 UNL     1       4.522  60.131  -1.674  1.00  0.00     0.060 C 
HETATM   31  C26 UNL     1       1.766  55.654  -5.701  1.00  0.00     0.034 C 
HETATM   32  C27 UNL     1       1.865  55.025  -4.313  1.00  0.00     0.022 C 
HETATM   33  C28 UNL     1       0.873  54.934  -6.695  1.00  0.00     0.119 A 
HETATM   34  C29 UNL     1       0.703  53.435  -6.859  1.00  0.00     0.210 A 
HETATM   35  O9  UNL     1      -0.282  54.240  -6.210  1.00  0.00    -0.371 OA
ENDROOT
BRANCH  27  36
HETATM   36  C22 UNL     1       0.936  61.890   0.600  1.00  0.00     0.146 C 
HETATM   37  C23 UNL     1      -0.519  62.041   1.028  1.00  0.00     0.042 C 
BRANCH  36  38
HETATM   38  O7  UNL     1       1.258  62.969  -0.282  1.00  0.00    -0.393 OA
HETATM   39  H27 UNL     1       0.606  62.989  -0.997  1.00  0.00     0.210 HD
ENDBRANCH  36  38
ENDBRANCH  27  36
TORSDOF 2
ENDMDL
MODEL 6
REMARK minimizedAffinity -7.13736868
REMARK CNNscore 0.257500499
REMARK CNNaffinity 4.89143944
REMARK  2 active torsions:
REMARK  status: ('A' for Active; 'I' for Inactive)
REMARK    1  A    between atoms: C21_27  and  C22_28 
REMARK    2  A    between atoms: C22_28  and  O7_30 
ROOT
HETATM    1  C1  UNL     1      -9.796  43.827 -25.808  1.00  0.00     0.043 C 
HETATM    2  C2  UNL     1     -10.493  45.044 -25.249  1.00  0.00    -0.076 C 
HETATM    3  C3  UNL     1     -11.386  44.895 -24.244  1.00  0.00     0.084 C 
HETATM    4  C4  UNL     1     -12.143  45.982 -23.589  1.00  0.00     0.283 C 
HETATM    5  O1  UNL     1     -12.013  47.175 -23.787  1.00  0.00    -0.260 OA
HETATM    6  O2  UNL     1     -13.010  45.396 -22.724  1.00  0.00    -0.317 OA
HETATM    7  C5  UNL     1     -13.782  46.285 -21.915  1.00  0.00     0.195 C 
HETATM    8  C6  UNL     1     -15.278  45.852 -21.747  1.00  0.00     0.053 C 
HETATM    9  C7  UNL     1     -15.349  44.372 -21.205  1.00  0.00     0.159 C 
HETATM   10  C8  UNL     1     -14.939  44.211 -19.766  1.00  0.00     0.011 C 
HETATM   11  C9  UNL     1     -15.084  45.202 -18.863  1.00  0.00    -0.054 C 
HETATM   12  C10 UNL     1     -14.717  45.011 -17.419  1.00  0.00     0.046 C 
HETATM   13  C11 UNL     1     -15.698  46.491 -19.224  1.00  0.00     0.180 A 
HETATM   14  O3  UNL     1     -16.961  46.506 -19.910  1.00  0.00    -0.370 OA
HETATM   15  C12 UNL     1     -15.816  46.851 -20.696  1.00  0.00     0.170 A 
HETATM   16  O4  UNL     1     -16.650  43.765 -21.303  1.00  0.00    -0.372 OA
HETATM   17  C13 UNL     1     -17.394  44.012 -22.502  1.00  0.00     0.162 C 
HETATM   18  C14 UNL     1     -16.638  43.534 -23.741  1.00  0.00     0.068 C 
HETATM   19  C15 UNL     1     -15.694  44.717 -24.088  1.00  0.00     0.147 C 
HETATM   20  O5  UNL     1     -15.559  44.898 -25.519  1.00  0.00    -0.312 OA
HETATM   21  C16 UNL     1     -16.613  45.195 -26.305  1.00  0.00     0.283 C 
HETATM   22  O6  UNL     1     -17.680  45.661 -25.953  1.00  0.00    -0.260 OA
HETATM   23  C17 UNL     1     -16.430  44.787 -27.710  1.00  0.00     0.082 C 
HETATM   24  C18 UNL     1     -15.366  44.818 -28.522  1.00  0.00     0.006 C 
HETATM   25  C19 UNL     1     -14.025  45.273 -28.259  1.00  0.00    -0.001 C 
HETATM   26  C20 UNL     1     -13.183  45.544 -29.271  1.00  0.00     0.007 C 
HETATM   27  C21 UNL     1     -11.766  46.062 -29.201  1.00  0.00     0.172 C 
HETATM   28  O8  UNL     1     -11.162  45.705 -27.962  1.00  0.00    -0.379 OA
HETATM   29  C24 UNL     1     -11.019  46.787 -27.043  1.00  0.00     0.173 C 
HETATM   30  C25 UNL     1     -10.105  46.355 -25.896  1.00  0.00     0.060 C 
HETATM   31  C26 UNL     1     -16.106  45.923 -23.129  1.00  0.00     0.034 C 
HETATM   32  C27 UNL     1     -16.010  47.288 -23.808  1.00  0.00     0.022 C 
HETATM   33  C28 UNL     1     -17.500  45.483 -22.719  1.00  0.00     0.119 A 
HETATM   34  C29 UNL     1     -18.610  46.352 -22.158  1.00  0.00     0.210 A 
HETATM   35  O9  UNL     1     -18.617  45.897 -23.511  1.00  0.00    -0.371 OA
ENDROOT
BRANCH  27  36
HETATM   36  C22 UNL     1     -10.894  45.447 -30.332  1.00  0.00     0.146 C 
HETATM   37  C23 UNL     1      -9.561  46.173 -30.476  1.00  0.00     0.042 C 
BRANCH  36  38
HETATM   38  O7  UNL     1     -11.560  45.480 -31.597  1.00  0.00    -0.393 OA
HETATM   39  H27 UNL     1     -11.608  46.399 -31.897  1.00  0.00     0.210 HD
ENDBRANCH  36  38
ENDBRANCH  27  36
TORSDOF 2
ENDMDL
MODEL 7
REMARK minimizedAffinity -7.3407135
REMARK CNNscore 0.241594061
REMARK CNNaffinity 6.44042015
REMARK  2 active torsions:
REMARK  status: ('A' for Active; 'I' for Inactive)
REMARK    1  A    between atoms: C21_27  and  C22_28 
REMARK    2  A    between atoms: C22_28  and  O7_30 
ROOT
HETATM    1  C1  UNL     1       2.096  51.455 -22.229  1.00  0.00     0.043 C 
HETATM    2  C2  UNL     1       0.729  51.799 -21.690  1.00  0.00    -0.076 C 
HETATM    3  C3  UNL     1       0.068  50.898 -20.929  1.00  0.00     0.084 C 
HETATM    4  C4  UNL     1      -1.268  51.085 -20.326  1.00  0.00     0.283 C 
HETATM    5  O1  UNL     1      -1.934  52.103 -20.344  1.00  0.00    -0.260 OA
HETATM    6  O2  UNL     1      -1.612  49.907 -19.748  1.00  0.00    -0.317 OA
HETATM    7  C5  UNL     1      -2.844  49.901 -19.023  1.00  0.00     0.195 C 
HETATM    8  C6  UNL     1      -3.699  48.606 -19.238  1.00  0.00     0.053 C 
HETATM    9  C7  UNL     1      -2.832  47.330 -18.909  1.00  0.00     0.159 C 
HETATM   10  C8  UNL     1      -2.543  47.130 -17.446  1.00  0.00     0.011 C 
HETATM   11  C9  UNL     1      -3.377  47.569 -16.482  1.00  0.00    -0.054 C 
HETATM   12  C10 UNL     1      -3.101  47.318 -15.027  1.00  0.00     0.046 C 
HETATM   13  C11 UNL     1      -4.651  48.233 -16.808  1.00  0.00     0.180 A 
HETATM   14  O3  UNL     1      -5.550  47.618 -17.744  1.00  0.00    -0.370 OA
HETATM   15  C12 UNL     1      -4.847  48.773 -18.215  1.00  0.00     0.170 A 
HETATM   16  O4  UNL     1      -3.405  46.090 -19.360  1.00  0.00    -0.372 OA
HETATM   17  C13 UNL     1      -4.023  46.092 -20.652  1.00  0.00     0.162 C 
HETATM   18  C14 UNL     1      -3.035  46.494 -21.746  1.00  0.00     0.068 C 
HETATM   19  C15 UNL     1      -3.069  48.046 -21.734  1.00  0.00     0.147 C 
HETATM   20  O5  UNL     1      -2.962  48.599 -23.069  1.00  0.00    -0.312 OA
HETATM   21  C16 UNL     1      -3.881  48.349 -24.022  1.00  0.00     0.283 C 
HETATM   22  O6  UNL     1      -5.018  47.950 -23.856  1.00  0.00    -0.260 OA
HETATM   23  C17 UNL     1      -3.356  48.486 -25.393  1.00  0.00     0.082 C 
HETATM   24  C18 UNL     1      -2.506  49.361 -25.945  1.00  0.00     0.006 C 
HETATM   25  C19 UNL     1      -1.818  50.474 -25.344  1.00  0.00    -0.001 C 
HETATM   26  C20 UNL     1      -1.274  51.437 -26.109  1.00  0.00     0.007 C 
HETATM   27  C21 UNL     1      -0.554  52.690 -25.670  1.00  0.00     0.172 C 
HETATM   28  O8  UNL     1       0.027  52.510 -24.383  1.00  0.00    -0.379 OA
HETATM   29  C24 UNL     1      -0.652  53.193 -23.329  1.00  0.00     0.173 C 
HETATM   30  C25 UNL     1       0.219  53.171 -22.073  1.00  0.00     0.060 C 
HETATM   31  C26 UNL     1      -4.250  48.467 -20.748  1.00  0.00     0.034 C 
HETATM   32  C27 UNL     1      -5.011  49.704 -21.218  1.00  0.00     0.022 C 
HETATM   33  C28 UNL     1      -5.045  47.174 -20.706  1.00  0.00     0.119 A 
HETATM   34  C29 UNL     1      -6.496  47.002 -20.298  1.00  0.00     0.210 A 
HETATM   35  O9  UNL     1      -6.088  46.972 -21.665  1.00  0.00    -0.371 OA
ENDROOT
BRANCH  27  36
HETATM   36  C22 UNL     1       0.601  53.038 -26.652  1.00  0.00     0.146 C 
HETATM   37  C23 UNL     1       0.290  52.586 -28.074  1.00  0.00     0.042 C 
BRANCH  36  38
HETATM   38  O7  UNL     1       1.838  52.442 -26.252  1.00  0.00    -0.393 OA
HETATM   39  H27 UNL     1       1.779  51.485 -26.389  1.00  0.00     0.210 HD
ENDBRANCH  36  38
ENDBRANCH  27  36
TORSDOF 2
ENDMDL
MODEL 8
REMARK minimizedAffinity -7.02673531
REMARK CNNscore 0.231218368
REMARK CNNaffinity 5.56968164
REMARK  2 active torsions:
REMARK  status: ('A' for Active; 'I' for Inactive)
REMARK    1  A    between atoms: C21_27  and  C22_28 
REMARK    2  A    between atoms: C22_28  and  O7_30 
ROOT
HETATM    1  C1  UNL     1      -2.186  53.947 -10.746  1.00  0.00     0.043 C 
HETATM    2  C2  UNL     1      -1.567  53.356  -9.504  1.00  0.00    -0.076 C 
HETATM    3  C3  UNL     1      -1.356  54.145  -8.426  1.00  0.00     0.084 C 
HETATM    4  C4  UNL     1      -0.767  53.719  -7.140  1.00  0.00     0.283 C 
HETATM    5  O1  UNL     1      -0.470  52.582  -6.822  1.00  0.00    -0.260 OA
HETATM    6  O2  UNL     1      -0.621  54.833  -6.380  1.00  0.00    -0.317 OA
HETATM    7  C5  UNL     1      -0.146  54.625  -5.049  1.00  0.00     0.195 C 
HETATM    8  C6  UNL     1       0.904  55.688  -4.577  1.00  0.00     0.053 C 
HETATM    9  C7  UNL     1       0.315  57.140  -4.758  1.00  0.00     0.159 C 
HETATM   10  C8  UNL     1      -0.773  57.500  -3.784  1.00  0.00     0.011 C 
HETATM   11  C9  UNL     1      -0.840  56.961  -2.549  1.00  0.00    -0.054 C 
HETATM   12  C10 UNL     1      -1.904  57.367  -1.570  1.00  0.00     0.046 C 
HETATM   13  C11 UNL     1       0.181  56.017  -2.064  1.00  0.00     0.180 A 
HETATM   14  O3  UNL     1       1.571  56.358  -2.182  1.00  0.00    -0.370 OA
HETATM   15  C12 UNL     1       1.094  55.351  -3.080  1.00  0.00     0.170 A 
HETATM   16  O4  UNL     1       1.290  58.194  -4.651  1.00  0.00    -0.372 OA
HETATM   17  C13 UNL     1       2.561  57.969  -5.272  1.00  0.00     0.162 C 
HETATM   18  C14 UNL     1       2.416  57.712  -6.771  1.00  0.00     0.068 C 
HETATM   19  C15 UNL     1       2.107  56.193  -6.866  1.00  0.00     0.147 C 
HETATM   20  O5  UNL     1       2.744  55.584  -8.016  1.00  0.00    -0.312 OA
HETATM   21  C16 UNL     1       4.083  55.564  -8.164  1.00  0.00     0.283 C 
HETATM   22  O6  UNL     1       4.918  55.719  -7.294  1.00  0.00    -0.260 OA
HETATM   23  C17 UNL     1       4.515  55.446  -9.570  1.00  0.00     0.082 C 
HETATM   24  C18 UNL     1       4.036  54.738 -10.599  1.00  0.00     0.006 C 
HETATM   25  C19 UNL     1       2.909  53.843 -10.651  1.00  0.00    -0.001 C 
HETATM   26  C20 UNL     1       2.775  52.968 -11.663  1.00  0.00     0.007 C 
HETATM   27  C21 UNL     1       1.695  51.933 -11.873  1.00  0.00     0.172 C 
HETATM   28  O8  UNL     1       0.492  52.324 -11.218  1.00  0.00    -0.379 OA
HETATM   29  C24 UNL     1       0.201  51.587 -10.032  1.00  0.00     0.173 C 
HETATM   30  C25 UNL     1      -1.234  51.883  -9.595  1.00  0.00     0.060 C 
HETATM   31  C26 UNL     1       2.290  55.599  -5.397  1.00  0.00     0.034 C 
HETATM   32  C27 UNL     1       2.896  54.198  -5.390  1.00  0.00     0.022 C 
HETATM   33  C28 UNL     1       3.135  56.691  -4.764  1.00  0.00     0.119 A 
HETATM   34  C29 UNL     1       4.007  56.576  -3.528  1.00  0.00     0.210 A 
HETATM   35  O9  UNL     1       4.561  56.596  -4.844  1.00  0.00    -0.371 OA
ENDROOT
BRANCH  27  36
HETATM   36  C22 UNL     1       1.366  51.774 -13.384  1.00  0.00     0.146 C 
HETATM   37  C23 UNL     1       2.623  51.545 -14.216  1.00  0.00     0.042 C 
BRANCH  36  38
HETATM   38  O7  UNL     1       0.686  52.918 -13.905  1.00  0.00    -0.393 OA
HETATM   39  H27 UNL     1       1.310  53.658 -13.943  1.00  0.00     0.210 HD
ENDBRANCH  36  38
ENDBRANCH  27  36
TORSDOF 2
ENDMDL
MODEL 9
REMARK minimizedAffinity -7.00790071
REMARK CNNscore 0.228381783
REMARK CNNaffinity 5.81808233
REMARK  2 active torsions:
REMARK  status: ('A' for Active; 'I' for Inactive)
REMARK    1  A    between atoms: C21_27  and  C22_28 
REMARK    2  A    between atoms: C22_28  and  O7_30 
ROOT
HETATM    1  C1  UNL     1       2.639  57.025  -5.870  1.00  0.00     0.043 C 
HETATM    2  C2  UNL     1       2.708  56.708  -7.344  1.00  0.00    -0.076 C 
HETATM    3  C3  UNL     1       1.808  55.855  -7.883  1.00  0.00     0.084 C 
HETATM    4  C4  UNL     1       1.740  55.449  -9.302  1.00  0.00     0.283 C 
HETATM    5  O1  UNL     1       2.418  55.885 -10.213  1.00  0.00    -0.260 OA
HETATM    6  O2  UNL     1       0.776  54.498  -9.397  1.00  0.00    -0.317 OA
HETATM    7  C5  UNL     1       0.486  54.031 -10.716  1.00  0.00     0.195 C 
HETATM    8  C6  UNL     1       0.263  52.483 -10.805  1.00  0.00     0.053 C 
HETATM    9  C7  UNL     1      -0.852  52.042  -9.780  1.00  0.00     0.159 C 
HETATM   10  C8  UNL     1      -2.248  52.459 -10.156  1.00  0.00     0.011 C 
HETATM   11  C9  UNL     1      -2.627  52.628 -11.439  1.00  0.00    -0.054 C 
HETATM   12  C10 UNL     1      -4.037  52.997 -11.801  1.00  0.00     0.046 C 
HETATM   13  C11 UNL     1      -1.704  52.367 -12.557  1.00  0.00     0.180 A 
HETATM   14  O3  UNL     1      -0.984  51.124 -12.603  1.00  0.00    -0.370 OA
HETATM   15  C12 UNL     1      -0.215  52.283 -12.262  1.00  0.00     0.170 A 
HETATM   16  O4  UNL     1      -0.924  50.623  -9.555  1.00  0.00    -0.372 OA
HETATM   17  C13 UNL     1       0.318  49.918  -9.446  1.00  0.00     0.162 C 
HETATM   18  C14 UNL     1       1.172  50.460  -8.300  1.00  0.00     0.068 C 
HETATM   19  C15 UNL     1       1.919  51.669  -8.925  1.00  0.00     0.147 C 
HETATM   20  O5  UNL     1       3.275  51.782  -8.427  1.00  0.00    -0.312 OA
HETATM   21  C16 UNL     1       4.190  50.812  -8.621  1.00  0.00     0.283 C 
HETATM   22  O6  UNL     1       4.154  49.926  -9.454  1.00  0.00    -0.260 OA
HETATM   23  C17 UNL     1       5.268  50.813  -7.614  1.00  0.00     0.082 C 
HETATM   24  C18 UNL     1       5.931  51.807  -7.012  1.00  0.00     0.006 C 
HETATM   25  C19 UNL     1       5.787  53.232  -7.167  1.00  0.00    -0.001 C 
HETATM   26  C20 UNL     1       6.750  54.068  -6.743  1.00  0.00     0.007 C 
HETATM   27  C21 UNL     1       6.801  55.574  -6.850  1.00  0.00     0.172 C 
HETATM   28  O8  UNL     1       5.486  56.116  -6.918  1.00  0.00    -0.379 OA
HETATM   29  C24 UNL     1       5.110  56.587  -8.212  1.00  0.00     0.173 C 
HETATM   30  C25 UNL     1       3.823  57.403  -8.095  1.00  0.00     0.060 C 
HETATM   31  C26 UNL     1       1.602  51.641 -10.488  1.00  0.00     0.034 C 
HETATM   32  C27 UNL     1       2.789  52.069 -11.347  1.00  0.00     0.022 C 
HETATM   33  C28 UNL     1       1.150  50.201 -10.649  1.00  0.00     0.119 A 
HETATM   34  C29 UNL     1       1.101  49.393 -11.932  1.00  0.00     0.210 A 
HETATM   35  O9  UNL     1       2.126  49.200 -10.957  1.00  0.00    -0.371 OA
ENDROOT
BRANCH  27  36
HETATM   36  C22 UNL     1       7.491  56.196  -5.602  1.00  0.00     0.146 C 
HETATM   37  C23 UNL     1       7.035  57.630  -5.360  1.00  0.00     0.042 C 
BRANCH  36  38
HETATM   38  O7  UNL     1       8.915  56.193  -5.725  1.00  0.00    -0.393 OA
HETATM   39  H27 UNL     1       9.169  56.838  -6.400  1.00  0.00     0.210 HD
ENDBRANCH  36  38
ENDBRANCH  27  36
TORSDOF 2
ENDMDL
