MODEL 1
REMARK minimizedAffinity -8.78428555
REMARK  9 active torsions:
REMARK  status: ('A' for Active; 'I' for Inactive)
REMARK    1  A    between atoms: C11_11  and  C13_13 
REMARK    2  A    between atoms: C13_13  and  O2_15 
REMARK    3  A    between atoms: C15_17  and  C16_18 
REMARK    4  A    between atoms: C16_18  and  C17_19 
REMARK    5  A    between atoms: C17_19  and  C18_20 
REMARK    6  A    between atoms: C19_21  and  C20_22 
REMARK    7  A    between atoms: C20_22  and  O3_23 
REMARK    8  A    between atoms: O3_23  and  C21_24 
REMARK    9  A    between atoms: C21_24  and  C22_26 
ROOT
HETATM    1  C16 UNL     1       1.266   6.668  14.182  1.00  0.00     0.014 C 
ENDROOT
BRANCH   1   2
HETATM    2  C15 UNL     1       1.609   6.561  12.673  1.00  0.00     0.022 C 
HETATM    3  C2  UNL     1       0.462   5.984  11.858  1.00  0.00    -0.084 C 
HETATM    4  C1  UNL     1       0.260   4.661  11.726  1.00  0.00     0.014 C 
HETATM    5  C3  UNL     1      -0.365   6.968  11.095  1.00  0.00     0.034 C 
HETATM    6  C4  UNL     1       0.506   7.656  10.050  1.00  0.00     0.011 C 
HETATM    7  C5  UNL     1       1.930   8.068  10.517  1.00  0.00     0.012 C 
HETATM    8  C6  UNL     1       2.171   7.924  12.073  1.00  0.00    -0.032 C 
HETATM    9  C11 UNL     1       3.085   7.501   9.611  1.00  0.00     0.049 C 
HETATM   10  C7  UNL     1       1.507   9.172  12.739  1.00  0.00     0.016 C 
HETATM   11  C8  UNL     1       3.694   8.012  12.406  1.00  0.00     0.010 C 
HETATM   12  C9  UNL     1       4.478   8.802  11.367  1.00  0.00     0.002 C 
HETATM   13  C10 UNL     1       4.472   8.080  10.022  1.00  0.00     0.020 C 
HETATM   14  C12 UNL     1       3.163   5.960   9.657  1.00  0.00     0.026 C 
BRANCH   9  15
HETATM   15  C13 UNL     1       2.841   7.912   8.142  1.00  0.00     0.267 C 
HETATM   16  O1  UNL     1       3.043   9.029   7.682  1.00  0.00    -0.264 OA
BRANCH  15  17
HETATM   17  O2  UNL     1       2.352   6.866   7.413  1.00  0.00    -0.326 OA
HETATM   18  C14 UNL     1       1.515   7.253   6.323  1.00  0.00     0.213 C 
ENDBRANCH  15  17
ENDBRANCH   9  15
ENDBRANCH   1   2
BRANCH   1  19
HETATM   19  C17 UNL     1      -0.193   6.339  14.529  1.00  0.00     0.042 C 
BRANCH  19  20
HETATM   20  C18 UNL     1      -0.832   7.421  15.340  1.00  0.00    -0.024 A 
HETATM   21  C19 UNL     1      -2.138   7.476  15.803  1.00  0.00     0.083 A 
HETATM   22  O5  UNL     1      -2.338   8.625  16.512  1.00  0.00    -0.324 OA
HETATM   23  C28 UNL     1      -1.169   9.312  16.500  1.00  0.00     0.143 A 
HETATM   24  C29 UNL     1      -0.213   8.619  15.798  1.00  0.00     0.034 A 
BRANCH  21  25
HETATM   25  C20 UNL     1      -3.305   6.564  15.691  1.00  0.00     0.244 C 
BRANCH  25  26
HETATM   26  O3  UNL     1      -4.399   7.326  15.166  1.00  0.00    -0.311 OA
BRANCH  26  27
HETATM   27  C21 UNL     1      -4.484   7.392  13.819  1.00  0.00     0.293 C 
HETATM   28  O4  UNL     1      -4.514   8.409  13.144  1.00  0.00    -0.259 OA
BRANCH  27  29
HETATM   29  C22 UNL     1      -4.534   6.021  13.238  1.00  0.00     0.039 A 
HETATM   30  C23 UNL     1      -5.733   5.300  13.341  1.00  0.00     0.019 A 
HETATM   31  C24 UNL     1      -5.831   4.011  12.810  1.00  0.00     0.025 A 
HETATM   32  C25 UNL     1      -4.730   3.439  12.173  1.00  0.00     0.034 A 
HETATM   33 CL1  UNL     1      -4.849   1.853  11.518  1.00  0.00    -0.084 Cl
HETATM   34  C26 UNL     1      -3.532   4.144  12.065  1.00  0.00     0.025 A 
HETATM   35  C27 UNL     1      -3.431   5.434  12.597  1.00  0.00     0.019 A 
ENDBRANCH  27  29
ENDBRANCH  26  27
ENDBRANCH  25  26
ENDBRANCH  21  25
ENDBRANCH  19  20
ENDBRANCH   1  19
TORSDOF 9
ENDMDL
MODEL 2
REMARK minimizedAffinity -8.72259045
REMARK  9 active torsions:
REMARK  status: ('A' for Active; 'I' for Inactive)
REMARK    1  A    between atoms: C11_11  and  C13_13 
REMARK    2  A    between atoms: C13_13  and  O2_15 
REMARK    3  A    between atoms: C15_17  and  C16_18 
REMARK    4  A    between atoms: C16_18  and  C17_19 
REMARK    5  A    between atoms: C17_19  and  C18_20 
REMARK    6  A    between atoms: C19_21  and  C20_22 
REMARK    7  A    between atoms: C20_22  and  O3_23 
REMARK    8  A    between atoms: O3_23  and  C21_24 
REMARK    9  A    between atoms: C21_24  and  C22_26 
ROOT
HETATM    1  C16 UNL     1      -0.121   8.950  12.257  1.00  0.00     0.014 C 
ENDROOT
BRANCH   1   2
HETATM    2  C15 UNL     1       1.057   8.164  11.623  1.00  0.00     0.022 C 
HETATM    3  C2  UNL     1       1.723   7.221  12.614  1.00  0.00    -0.084 C 
HETATM    4  C1  UNL     1       2.681   7.624  13.467  1.00  0.00     0.014 C 
HETATM    5  C3  UNL     1       1.349   5.778  12.504  1.00  0.00     0.034 C 
HETATM    6  C4  UNL     1       1.793   5.244  11.146  1.00  0.00     0.011 C 
HETATM    7  C5  UNL     1       1.545   6.184   9.932  1.00  0.00     0.012 C 
HETATM    8  C6  UNL     1       0.655   7.448  10.260  1.00  0.00    -0.032 C 
HETATM    9  C11 UNL     1       2.838   6.481   9.087  1.00  0.00     0.049 C 
HETATM   10  C7  UNL     1      -0.826   6.951  10.277  1.00  0.00     0.016 C 
HETATM   11  C8  UNL     1       0.748   8.501   9.110  1.00  0.00     0.010 C 
HETATM   12  C9  UNL     1       1.096   7.874   7.767  1.00  0.00     0.002 C 
HETATM   13  C10 UNL     1       2.504   7.285   7.794  1.00  0.00     0.020 C 
HETATM   14  C12 UNL     1       3.897   7.266   9.891  1.00  0.00     0.026 C 
BRANCH   9  15
HETATM   15  C13 UNL     1       3.484   5.152   8.639  1.00  0.00     0.267 C 
HETATM   16  O1  UNL     1       4.299   4.512   9.293  1.00  0.00    -0.264 OA
BRANCH  15  17
HETATM   17  O2  UNL     1       3.039   4.780   7.403  1.00  0.00    -0.326 OA
HETATM   18  C14 UNL     1       3.845   3.788   6.765  1.00  0.00     0.213 C 
ENDBRANCH  15  17
ENDBRANCH   9  15
ENDBRANCH   1   2
BRANCH   1  19
HETATM   19  C17 UNL     1      -1.456   8.192  12.273  1.00  0.00     0.042 C 
BRANCH  19  20
HETATM   20  C18 UNL     1      -1.837   7.762  13.654  1.00  0.00    -0.024 A 
HETATM   21  C19 UNL     1      -2.113   6.477  14.097  1.00  0.00     0.083 A 
HETATM   22  O5  UNL     1      -2.417   6.493  15.428  1.00  0.00    -0.324 OA
HETATM   23  C28 UNL     1      -2.346   7.783  15.839  1.00  0.00     0.143 A 
HETATM   24  C29 UNL     1      -1.993   8.601  14.794  1.00  0.00     0.034 A 
BRANCH  21  25
HETATM   25  C20 UNL     1      -2.130   5.147  13.437  1.00  0.00     0.244 C 
BRANCH  25  26
HETATM   26  O3  UNL     1      -3.328   4.476  13.851  1.00  0.00    -0.311 OA
BRANCH  26  27
HETATM   27  C21 UNL     1      -4.143   4.054  12.859  1.00  0.00     0.293 C 
HETATM   28  O4  UNL     1      -3.849   3.287  11.956  1.00  0.00    -0.259 OA
BRANCH  27  29
HETATM   29  C22 UNL     1      -5.496   4.660  13.011  1.00  0.00     0.039 A 
HETATM   30  C23 UNL     1      -6.609   3.905  12.614  1.00  0.00     0.019 A 
HETATM   31  C24 UNL     1      -7.899   4.428  12.738  1.00  0.00     0.025 A 
HETATM   32  C25 UNL     1      -8.080   5.709  13.260  1.00  0.00     0.034 A 
HETATM   33 CL1  UNL     1      -9.667   6.354  13.413  1.00  0.00    -0.084 Cl
HETATM   34  C26 UNL     1      -6.982   6.471  13.656  1.00  0.00     0.025 A 
HETATM   35  C27 UNL     1      -5.690   5.950  13.531  1.00  0.00     0.019 A 
ENDBRANCH  27  29
ENDBRANCH  26  27
ENDBRANCH  25  26
ENDBRANCH  21  25
ENDBRANCH  19  20
ENDBRANCH   1  19
TORSDOF 9
ENDMDL
MODEL 3
REMARK minimizedAffinity -8.62303543
REMARK  9 active torsions:
REMARK  status: ('A' for Active; 'I' for Inactive)
REMARK    1  A    between atoms: C11_11  and  C13_13 
REMARK    2  A    between atoms: C13_13  and  O2_15 
REMARK    3  A    between atoms: C15_17  and  C16_18 
REMARK    4  A    between atoms: C16_18  and  C17_19 
REMARK    5  A    between atoms: C17_19  and  C18_20 
REMARK    6  A    between atoms: C19_21  and  C20_22 
REMARK    7  A    between atoms: C20_22  and  O3_23 
REMARK    8  A    between atoms: O3_23  and  C21_24 
REMARK    9  A    between atoms: C21_24  and  C22_26 
ROOT
HETATM    1  C16 UNL     1      -0.449   8.813  12.375  1.00  0.00     0.014 C 
ENDROOT
BRANCH   1   2
HETATM    2  C15 UNL     1       0.807   8.120  11.783  1.00  0.00     0.022 C 
HETATM    3  C2  UNL     1       1.485   7.199  12.785  1.00  0.00    -0.084 C 
HETATM    4  C1  UNL     1       2.374   7.643  13.691  1.00  0.00     0.014 C 
HETATM    5  C3  UNL     1       1.212   5.738  12.628  1.00  0.00     0.034 C 
HETATM    6  C4  UNL     1       1.752   5.265  11.283  1.00  0.00     0.011 C 
HETATM    7  C5  UNL     1       1.501   6.214  10.078  1.00  0.00     0.012 C 
HETATM    8  C6  UNL     1       0.516   7.411  10.387  1.00  0.00    -0.032 C 
HETATM    9  C11 UNL     1       2.810   6.614   9.301  1.00  0.00     0.049 C 
HETATM   10  C7  UNL     1      -0.929   6.820  10.324  1.00  0.00     0.016 C 
HETATM   11  C8  UNL     1       0.593   8.494   9.265  1.00  0.00     0.010 C 
HETATM   12  C9  UNL     1       1.043   7.922   7.928  1.00  0.00     0.002 C 
HETATM   13  C10 UNL     1       2.484   7.424   8.010  1.00  0.00     0.020 C 
HETATM   14  C12 UNL     1       3.776   7.446  10.171  1.00  0.00     0.026 C 
BRANCH   9  15
HETATM   15  C13 UNL     1       3.561   5.339   8.858  1.00  0.00     0.267 C 
HETATM   16  O1  UNL     1       4.411   4.759   9.522  1.00  0.00    -0.264 OA
BRANCH  15  17
HETATM   17  O2  UNL     1       3.165   4.942   7.614  1.00  0.00    -0.326 OA
HETATM   18  C14 UNL     1       3.866   3.802   7.113  1.00  0.00     0.213 C 
ENDBRANCH  15  17
ENDBRANCH   9  15
ENDBRANCH   1   2
BRANCH   1  19
HETATM   19  C17 UNL     1      -1.429   7.864  13.079  1.00  0.00     0.042 C 
BRANCH  19  20
HETATM   20  C18 UNL     1      -1.581   8.194  14.530  1.00  0.00    -0.024 A 
HETATM   21  C19 UNL     1      -2.340   7.524  15.478  1.00  0.00     0.083 A 
HETATM   22  O5  UNL     1      -2.217   8.131  16.694  1.00  0.00    -0.324 OA
HETATM   23  C28 UNL     1      -1.388   9.191  16.530  1.00  0.00     0.143 A 
HETATM   24  C29 UNL     1      -0.969   9.276  15.225  1.00  0.00     0.034 A 
BRANCH  21  25
HETATM   25  C20 UNL     1      -3.213   6.323  15.430  1.00  0.00     0.244 C 
BRANCH  25  26
HETATM   26  O3  UNL     1      -4.545   6.770  15.148  1.00  0.00    -0.311 OA
BRANCH  26  27
HETATM   27  C21 UNL     1      -4.859   6.911  13.841  1.00  0.00     0.293 C 
HETATM   28  O4  UNL     1      -5.003   7.963  13.239  1.00  0.00    -0.259 OA
BRANCH  27  29
HETATM   29  C22 UNL     1      -5.011   5.574  13.200  1.00  0.00     0.039 A 
HETATM   30  C23 UNL     1      -6.240   4.911  13.333  1.00  0.00     0.019 A 
HETATM   31  C24 UNL     1      -6.433   3.656  12.748  1.00  0.00     0.025 A 
HETATM   32  C25 UNL     1      -5.398   3.061  12.028  1.00  0.00     0.034 A 
HETATM   33 CL1  UNL     1      -5.634   1.517  11.308  1.00  0.00    -0.084 Cl
HETATM   34  C26 UNL     1      -4.171   3.709  11.890  1.00  0.00     0.025 A 
HETATM   35  C27 UNL     1      -3.975   4.964  12.476  1.00  0.00     0.019 A 
ENDBRANCH  27  29
ENDBRANCH  26  27
ENDBRANCH  25  26
ENDBRANCH  21  25
ENDBRANCH  19  20
ENDBRANCH   1  19
TORSDOF 9
ENDMDL
MODEL 4
REMARK minimizedAffinity -8.48955917
REMARK  9 active torsions:
REMARK  status: ('A' for Active; 'I' for Inactive)
REMARK    1  A    between atoms: C11_11  and  C13_13 
REMARK    2  A    between atoms: C13_13  and  O2_15 
REMARK    3  A    between atoms: C15_17  and  C16_18 
REMARK    4  A    between atoms: C16_18  and  C17_19 
REMARK    5  A    between atoms: C17_19  and  C18_20 
REMARK    6  A    between atoms: C19_21  and  C20_22 
REMARK    7  A    between atoms: C20_22  and  O3_23 
REMARK    8  A    between atoms: O3_23  and  C21_24 
REMARK    9  A    between atoms: C21_24  and  C22_26 
ROOT
HETATM    1  C16 UNL     1      -4.140   6.796  14.582  1.00  0.00     0.014 C 
ENDROOT
BRANCH   1   2
HETATM    2  C15 UNL     1      -2.978   7.513  13.845  1.00  0.00     0.022 C 
HETATM    3  C2  UNL     1      -2.568   8.805  14.533  1.00  0.00    -0.084 C 
HETATM    4  C1  UNL     1      -3.194   9.974  14.312  1.00  0.00     0.014 C 
HETATM    5  C3  UNL     1      -1.336   8.741  15.377  1.00  0.00     0.034 C 
HETATM    6  C4  UNL     1      -0.137   8.407  14.497  1.00  0.00     0.011 C 
HETATM    7  C5  UNL     1      -0.371   7.313  13.417  1.00  0.00     0.012 C 
HETATM    8  C6  UNL     1      -1.746   6.547  13.555  1.00  0.00    -0.032 C 
HETATM    9  C11 UNL     1      -0.011   7.776  11.957  1.00  0.00     0.049 C 
HETATM   10  C7  UNL     1      -1.551   5.493  14.692  1.00  0.00     0.016 C 
HETATM   11  C8  UNL     1      -2.058   5.735  12.258  1.00  0.00     0.010 C 
HETATM   12  C9  UNL     1      -0.802   5.353  11.488  1.00  0.00     0.002 C 
HETATM   13  C10 UNL     1      -0.102   6.595  10.943  1.00  0.00     0.020 C 
HETATM   14  C12 UNL     1      -0.925   8.918  11.462  1.00  0.00     0.026 C 
BRANCH   9  15
HETATM   15  C13 UNL     1       1.444   8.293  11.919  1.00  0.00     0.267 C 
HETATM   16  O1  UNL     1       2.107   8.596  12.904  1.00  0.00    -0.264 OA
BRANCH  15  17
HETATM   17  O2  UNL     1       1.901   8.385  10.636  1.00  0.00    -0.326 OA
HETATM   18  C14 UNL     1       0.887   8.234   9.642  1.00  0.00     0.213 C 
ENDBRANCH  15  17
ENDBRANCH   9  15
ENDBRANCH   1   2
BRANCH   1  19
HETATM   19  C17 UNL     1      -5.451   6.725  13.787  1.00  0.00     0.042 C 
BRANCH  19  20
HETATM   20  C18 UNL     1      -6.650   6.799  14.679  1.00  0.00    -0.024 A 
HETATM   21  C19 UNL     1      -7.950   6.417  14.388  1.00  0.00     0.083 A 
HETATM   22  O5  UNL     1      -8.759   6.637  15.465  1.00  0.00    -0.324 OA
HETATM   23  C28 UNL     1      -7.985   7.165  16.445  1.00  0.00     0.143 A 
HETATM   24  C29 UNL     1      -6.685   7.284  16.018  1.00  0.00     0.034 A 
BRANCH  21  25
HETATM   25  C20 UNL     1      -8.602   5.832  13.188  1.00  0.00     0.244 C 
BRANCH  25  26
HETATM   26  O3  UNL     1      -7.609   5.076  12.483  1.00  0.00    -0.311 OA
BRANCH  26  27
HETATM   27  C21 UNL     1      -7.687   3.733  12.610  1.00  0.00     0.293 C 
HETATM   28  O4  UNL     1      -8.678   3.091  12.921  1.00  0.00    -0.259 OA
BRANCH  27  29
HETATM   29  C22 UNL     1      -6.368   3.109  12.310  1.00  0.00     0.039 A 
HETATM   30  C23 UNL     1      -6.355   1.865  11.660  1.00  0.00     0.019 A 
HETATM   31  C24 UNL     1      -5.143   1.239  11.355  1.00  0.00     0.025 A 
HETATM   32  C25 UNL     1      -3.940   1.856  11.697  1.00  0.00     0.034 A 
HETATM   33 CL1  UNL     1      -2.447   1.087  11.321  1.00  0.00    -0.084 Cl
HETATM   34  C26 UNL     1      -3.938   3.091  12.344  1.00  0.00     0.025 A 
HETATM   35  C27 UNL     1      -5.150   3.718  12.652  1.00  0.00     0.019 A 
ENDBRANCH  27  29
ENDBRANCH  26  27
ENDBRANCH  25  26
ENDBRANCH  21  25
ENDBRANCH  19  20
ENDBRANCH   1  19
TORSDOF 9
ENDMDL
MODEL 5
REMARK minimizedAffinity -8.45280266
REMARK  9 active torsions:
REMARK  status: ('A' for Active; 'I' for Inactive)
REMARK    1  A    between atoms: C11_11  and  C13_13 
REMARK    2  A    between atoms: C13_13  and  O2_15 
REMARK    3  A    between atoms: C15_17  and  C16_18 
REMARK    4  A    between atoms: C16_18  and  C17_19 
REMARK    5  A    between atoms: C17_19  and  C18_20 
REMARK    6  A    between atoms: C19_21  and  C20_22 
REMARK    7  A    between atoms: C20_22  and  O3_23 
REMARK    8  A    between atoms: O3_23  and  C21_24 
REMARK    9  A    between atoms: C21_24  and  C22_26 
ROOT
HETATM    1  C16 UNL     1       0.810   5.546  10.967  1.00  0.00     0.014 C 
ENDROOT
BRANCH   1   2
HETATM    2  C15 UNL     1       2.257   6.103  10.997  1.00  0.00     0.022 C 
HETATM    3  C2  UNL     1       2.985   5.894   9.678  1.00  0.00    -0.084 C 
HETATM    4  C1  UNL     1       3.620   4.749   9.374  1.00  0.00     0.014 C 
HETATM    5  C3  UNL     1       3.072   7.084   8.778  1.00  0.00     0.034 C 
HETATM    6  C4  UNL     1       3.882   8.178   9.465  1.00  0.00     0.011 C 
HETATM    7  C5  UNL     1       3.588   8.394  10.976  1.00  0.00     0.012 C 
HETATM    8  C6  UNL     1       2.326   7.608  11.511  1.00  0.00    -0.032 C 
HETATM    9  C11 UNL     1       4.865   8.303  11.890  1.00  0.00     0.049 C 
HETATM   10  C7  UNL     1       1.074   8.432  11.069  1.00  0.00     0.016 C 
HETATM   11  C8  UNL     1       2.307   7.592  13.073  1.00  0.00     0.010 C 
HETATM   12  C9  UNL     1       3.051   8.772  13.681  1.00  0.00     0.002 C 
HETATM   13  C10 UNL     1       4.542   8.693  13.365  1.00  0.00     0.020 C 
HETATM   14  C12 UNL     1       5.492   6.892  11.882  1.00  0.00     0.026 C 
BRANCH   9  15
HETATM   15  C13 UNL     1       5.938   9.293  11.385  1.00  0.00     0.267 C 
HETATM   16  O1  UNL     1       5.703  10.343  10.799  1.00  0.00    -0.264 OA
BRANCH  15  17
HETATM   17  O2  UNL     1       7.195   8.841  11.664  1.00  0.00    -0.326 OA
HETATM   18  C14 UNL     1       7.923   9.664  12.577  1.00  0.00     0.213 C 
ENDBRANCH  15  17
ENDBRANCH   9  15
ENDBRANCH   1   2
BRANCH   1  19
HETATM   19  C17 UNL     1       0.486   4.551  12.091  1.00  0.00     0.042 C 
BRANCH  19  20
HETATM   20  C18 UNL     1      -0.487   5.119  13.076  1.00  0.00    -0.024 A 
HETATM   21  C19 UNL     1      -1.871   5.051  13.038  1.00  0.00     0.083 A 
HETATM   22  O5  UNL     1      -2.404   5.687  14.122  1.00  0.00    -0.324 OA
HETATM   23  C28 UNL     1      -1.368   6.170  14.851  1.00  0.00     0.143 A 
HETATM   24  C29 UNL     1      -0.172   5.849  14.257  1.00  0.00     0.034 A 
BRANCH  21  25
HETATM   25  C20 UNL     1      -2.841   4.438  12.095  1.00  0.00     0.244 C 
BRANCH  25  26
HETATM   26  O3  UNL     1      -3.807   3.721  12.876  1.00  0.00    -0.311 OA
BRANCH  26  27
HETATM   27  C21 UNL     1      -4.917   3.317  12.220  1.00  0.00     0.293 C 
HETATM   28  O4  UNL     1      -4.983   2.426  11.387  1.00  0.00    -0.259 OA
BRANCH  27  29
HETATM   29  C22 UNL     1      -6.094   4.120  12.655  1.00  0.00     0.039 A 
HETATM   30  C23 UNL     1      -5.861   5.342  13.303  1.00  0.00     0.019 A 
HETATM   31  C24 UNL     1      -6.932   6.132  13.729  1.00  0.00     0.025 A 
HETATM   32  C25 UNL     1      -8.240   5.703  13.507  1.00  0.00     0.034 A 
HETATM   33 CL1  UNL     1      -9.560   6.675  14.031  1.00  0.00    -0.084 Cl
HETATM   34  C26 UNL     1      -8.486   4.490  12.866  1.00  0.00     0.025 A 
HETATM   35  C27 UNL     1      -7.416   3.696  12.441  1.00  0.00     0.019 A 
ENDBRANCH  27  29
ENDBRANCH  26  27
ENDBRANCH  25  26
ENDBRANCH  21  25
ENDBRANCH  19  20
ENDBRANCH   1  19
TORSDOF 9
ENDMDL
MODEL 6
REMARK minimizedAffinity -8.13346291
REMARK  9 active torsions:
REMARK  status: ('A' for Active; 'I' for Inactive)
REMARK    1  A    between atoms: C11_11  and  C13_13 
REMARK    2  A    between atoms: C13_13  and  O2_15 
REMARK    3  A    between atoms: C15_17  and  C16_18 
REMARK    4  A    between atoms: C16_18  and  C17_19 
REMARK    5  A    between atoms: C17_19  and  C18_20 
REMARK    6  A    between atoms: C19_21  and  C20_22 
REMARK    7  A    between atoms: C20_22  and  O3_23 
REMARK    8  A    between atoms: O3_23  and  C21_24 
REMARK    9  A    between atoms: C21_24  and  C22_26 
ROOT
HETATM    1  C16 UNL     1      -1.304   8.604  12.012  1.00  0.00     0.014 C 
ENDROOT
BRANCH   1   2
HETATM    2  C15 UNL     1       0.237   8.438  11.946  1.00  0.00     0.022 C 
HETATM    3  C2  UNL     1       0.836   8.061  13.292  1.00  0.00    -0.084 C 
HETATM    4  C1  UNL     1       1.151   8.975  14.227  1.00  0.00     0.014 C 
HETATM    5  C3  UNL     1       1.184   6.619  13.479  1.00  0.00     0.034 C 
HETATM    6  C4  UNL     1       2.269   6.229  12.481  1.00  0.00     0.011 C 
HETATM    7  C5  UNL     1       2.098   6.785  11.039  1.00  0.00     0.012 C 
HETATM    8  C6  UNL     1       0.701   7.473  10.769  1.00  0.00    -0.032 C 
HETATM    9  C11 UNL     1       3.347   7.587  10.516  1.00  0.00     0.049 C 
HETATM   10  C7  UNL     1      -0.320   6.315  10.528  1.00  0.00     0.016 C 
HETATM   11  C8  UNL     1       0.741   8.301   9.445  1.00  0.00     0.010 C 
HETATM   12  C9  UNL     1       1.780   7.785   8.461  1.00  0.00     0.002 C 
HETATM   13  C10 UNL     1       3.190   7.974   9.015  1.00  0.00     0.020 C 
HETATM   14  C12 UNL     1       3.599   8.875  11.331  1.00  0.00     0.026 C 
BRANCH   9  15
HETATM   15  C13 UNL     1       4.613   6.709  10.628  1.00  0.00     0.267 C 
HETATM   16  O1  UNL     1       4.833   5.707   9.959  1.00  0.00    -0.264 OA
BRANCH  15  17
HETATM   17  O2  UNL     1       5.460   7.187  11.587  1.00  0.00    -0.326 OA
HETATM   18  C14 UNL     1       6.824   6.807  11.402  1.00  0.00     0.213 C 
ENDBRANCH  15  17
ENDBRANCH   9  15
ENDBRANCH   1   2
BRANCH   1  19
HETATM   19  C17 UNL     1      -2.009   7.637  12.974  1.00  0.00     0.042 C 
BRANCH  19  20
HETATM   20  C18 UNL     1      -2.785   8.363  14.026  1.00  0.00    -0.024 A 
HETATM   21  C19 UNL     1      -3.566   7.817  15.034  1.00  0.00     0.083 A 
HETATM   22  O5  UNL     1      -4.110   8.809  15.798  1.00  0.00    -0.324 OA
HETATM   23  C28 UNL     1      -3.688   9.989  15.281  1.00  0.00     0.143 A 
HETATM   24  C29 UNL     1      -2.873   9.774  14.197  1.00  0.00     0.034 A 
BRANCH  21  25
HETATM   25  C20 UNL     1      -3.901   6.425  15.430  1.00  0.00     0.244 C 
BRANCH  25  26
HETATM   26  O3  UNL     1      -5.330   6.318  15.459  1.00  0.00    -0.311 OA
BRANCH  26  27
HETATM   27  C21 UNL     1      -5.959   6.466  14.271  1.00  0.00     0.293 C 
HETATM   28  O4  UNL     1      -6.490   7.483  13.855  1.00  0.00    -0.259 OA
BRANCH  27  29
HETATM   29  C22 UNL     1      -5.921   5.189  13.504  1.00  0.00     0.039 A 
HETATM   30  C23 UNL     1      -6.985   4.289  13.661  1.00  0.00     0.019 A 
HETATM   31  C24 UNL     1      -6.996   3.079  12.962  1.00  0.00     0.025 A 
HETATM   32  C25 UNL     1      -5.943   2.766  12.102  1.00  0.00     0.034 A 
HETATM   33 CL1  UNL     1      -5.956   1.277  11.240  1.00  0.00    -0.084 Cl
HETATM   34  C26 UNL     1      -4.879   3.651  11.938  1.00  0.00     0.025 A 
HETATM   35  C27 UNL     1      -4.865   4.862  12.638  1.00  0.00     0.019 A 
ENDBRANCH  27  29
ENDBRANCH  26  27
ENDBRANCH  25  26
ENDBRANCH  21  25
ENDBRANCH  19  20
ENDBRANCH   1  19
TORSDOF 9
ENDMDL
MODEL 7
REMARK minimizedAffinity -8.13213348
REMARK  9 active torsions:
REMARK  status: ('A' for Active; 'I' for Inactive)
REMARK    1  A    between atoms: C11_11  and  C13_13 
REMARK    2  A    between atoms: C13_13  and  O2_15 
REMARK    3  A    between atoms: C15_17  and  C16_18 
REMARK    4  A    between atoms: C16_18  and  C17_19 
REMARK    5  A    between atoms: C17_19  and  C18_20 
REMARK    6  A    between atoms: C19_21  and  C20_22 
REMARK    7  A    between atoms: C20_22  and  O3_23 
REMARK    8  A    between atoms: O3_23  and  C21_24 
REMARK    9  A    between atoms: C21_24  and  C22_26 
ROOT
HETATM    1  C16 UNL     1      -5.514   8.714  15.689  1.00  0.00     0.014 C 
ENDROOT
BRANCH   1   2
HETATM    2  C15 UNL     1      -4.075   9.125  15.281  1.00  0.00     0.022 C 
HETATM    3  C2  UNL     1      -3.417  10.030  16.311  1.00  0.00    -0.084 C 
HETATM    4  C1  UNL     1      -3.603  11.361  16.330  1.00  0.00     0.014 C 
HETATM    5  C3  UNL     1      -2.439   9.377  17.234  1.00  0.00     0.034 C 
HETATM    6  C4  UNL     1      -1.263   8.841  16.424  1.00  0.00     0.011 C 
HETATM    7  C5  UNL     1      -1.624   8.138  15.085  1.00  0.00     0.012 C 
HETATM    8  C6  UNL     1      -3.169   7.877  14.884  1.00  0.00    -0.032 C 
HETATM    9  C11 UNL     1      -0.882   8.738  13.834  1.00  0.00     0.049 C 
HETATM   10  C7  UNL     1      -3.517   6.612  15.732  1.00  0.00     0.016 C 
HETATM   11  C8  UNL     1      -3.477   7.504  13.399  1.00  0.00     0.010 C 
HETATM   12  C9  UNL     1      -2.282   6.882  12.690  1.00  0.00     0.002 C 
HETATM   13  C10 UNL     1      -1.148   7.893  12.552  1.00  0.00     0.020 C 
HETATM   14  C12 UNL     1      -1.294  10.199  13.553  1.00  0.00     0.026 C 
BRANCH   9  15
HETATM   15  C13 UNL     1       0.643   8.723  14.078  1.00  0.00     0.267 C 
HETATM   16  O1  UNL     1       1.377   9.700  13.995  1.00  0.00    -0.264 OA
BRANCH  15  17
HETATM   17  O2  UNL     1       1.080   7.467  14.386  1.00  0.00    -0.326 OA
HETATM   18  C14 UNL     1       1.795   6.821  13.332  1.00  0.00     0.213 C 
ENDBRANCH  15  17
ENDBRANCH   9  15
ENDBRANCH   1   2
BRANCH   1  19
HETATM   19  C17 UNL     1      -6.420   8.314  14.517  1.00  0.00     0.042 C 
BRANCH  19  20
HETATM   20  C18 UNL     1      -7.791   7.930  14.976  1.00  0.00    -0.024 A 
HETATM   21  C19 UNL     1      -8.316   6.654  15.110  1.00  0.00     0.083 A 
HETATM   22  O5  UNL     1      -9.603   6.718  15.562  1.00  0.00    -0.324 OA
HETATM   23  C28 UNL     1      -9.909   8.031  15.710  1.00  0.00     0.143 A 
HETATM   24  C29 UNL     1      -8.836   8.816  15.368  1.00  0.00     0.034 A 
BRANCH  21  25
HETATM   25  C20 UNL     1      -7.770   5.292  14.879  1.00  0.00     0.244 C 
BRANCH  25  26
HETATM   26  O3  UNL     1      -7.466   5.181  13.482  1.00  0.00    -0.311 OA
BRANCH  26  27
HETATM   27  C21 UNL     1      -7.586   3.946  12.946  1.00  0.00     0.293 C 
HETATM   28  O4  UNL     1      -8.622   3.316  12.803  1.00  0.00    -0.259 OA
BRANCH  27  29
HETATM   29  C22 UNL     1      -6.251   3.431  12.533  1.00  0.00     0.039 A 
HETATM   30  C23 UNL     1      -5.114   4.172  12.892  1.00  0.00     0.019 A 
HETATM   31  C24 UNL     1      -3.839   3.730  12.530  1.00  0.00     0.025 A 
HETATM   32  C25 UNL     1      -3.696   2.544  11.809  1.00  0.00     0.034 A 
HETATM   33 CL1  UNL     1      -2.126   1.998  11.364  1.00  0.00    -0.084 Cl
HETATM   34  C26 UNL     1      -4.817   1.799  11.445  1.00  0.00     0.025 A 
HETATM   35  C27 UNL     1      -6.094   2.241  11.805  1.00  0.00     0.019 A 
ENDBRANCH  27  29
ENDBRANCH  26  27
ENDBRANCH  25  26
ENDBRANCH  21  25
ENDBRANCH  19  20
ENDBRANCH   1  19
TORSDOF 9
ENDMDL
MODEL 8
REMARK minimizedAffinity -8.0155735
REMARK  9 active torsions:
REMARK  status: ('A' for Active; 'I' for Inactive)
REMARK    1  A    between atoms: C11_11  and  C13_13 
REMARK    2  A    between atoms: C13_13  and  O2_15 
REMARK    3  A    between atoms: C15_17  and  C16_18 
REMARK    4  A    between atoms: C16_18  and  C17_19 
REMARK    5  A    between atoms: C17_19  and  C18_20 
REMARK    6  A    between atoms: C19_21  and  C20_22 
REMARK    7  A    between atoms: C20_22  and  O3_23 
REMARK    8  A    between atoms: O3_23  and  C21_24 
REMARK    9  A    between atoms: C21_24  and  C22_26 
ROOT
HETATM    1  C16 UNL     1       0.616   5.568  10.928  1.00  0.00     0.014 C 
ENDROOT
BRANCH   1   2
HETATM    2  C15 UNL     1       2.074   6.094  10.980  1.00  0.00     0.022 C 
HETATM    3  C2  UNL     1       2.839   5.806   9.697  1.00  0.00    -0.084 C 
HETATM    4  C1  UNL     1       3.456   4.633   9.469  1.00  0.00     0.014 C 
HETATM    5  C3  UNL     1       2.983   6.948   8.744  1.00  0.00     0.034 C 
HETATM    6  C4  UNL     1       3.795   8.056   9.404  1.00  0.00     0.011 C 
HETATM    7  C5  UNL     1       3.457   8.352  10.893  1.00  0.00     0.012 C 
HETATM    8  C6  UNL     1       2.161   7.621  11.423  1.00  0.00    -0.032 C 
HETATM    9  C11 UNL     1       4.702   8.278  11.853  1.00  0.00     0.049 C 
HETATM   10  C7  UNL     1       0.943   8.449  10.901  1.00  0.00     0.016 C 
HETATM   11  C8  UNL     1       2.092   7.680  12.982  1.00  0.00     0.010 C 
HETATM   12  C9  UNL     1       2.843   8.872  13.557  1.00  0.00     0.002 C 
HETATM   13  C10 UNL     1       4.341   8.746  13.295  1.00  0.00     0.020 C 
HETATM   14  C12 UNL     1       5.296   6.855  11.933  1.00  0.00     0.026 C 
BRANCH   9  15
HETATM   15  C13 UNL     1       5.813   9.219  11.337  1.00  0.00     0.267 C 
HETATM   16  O1  UNL     1       5.620  10.270  10.738  1.00  0.00    -0.264 OA
BRANCH  15  17
HETATM   17  O2  UNL     1       7.052   8.721  11.621  1.00  0.00    -0.326 OA
HETATM   18  C14 UNL     1       7.736   9.415  12.665  1.00  0.00     0.213 C 
ENDBRANCH  15  17
ENDBRANCH   9  15
ENDBRANCH   1   2
BRANCH   1  19
HETATM   19  C17 UNL     1       0.216   4.680  12.115  1.00  0.00     0.042 C 
BRANCH  19  20
HETATM   20  C18 UNL     1      -0.719   3.587  11.704  1.00  0.00    -0.024 A 
HETATM   21  C19 UNL     1      -2.103   3.636  11.632  1.00  0.00     0.083 A 
HETATM   22  O5  UNL     1      -2.596   2.435  11.210  1.00  0.00    -0.324 OA
HETATM   23  C28 UNL     1      -1.535   1.612  11.019  1.00  0.00     0.143 A 
HETATM   24  C29 UNL     1      -0.362   2.267  11.305  1.00  0.00     0.034 A 
BRANCH  21  25
HETATM   25  C20 UNL     1      -3.106   4.697  11.902  1.00  0.00     0.244 C 
BRANCH  25  26
HETATM   26  O3  UNL     1      -3.619   4.479  13.223  1.00  0.00    -0.311 OA
BRANCH  26  27
HETATM   27  C21 UNL     1      -3.706   5.573  14.012  1.00  0.00     0.293 C 
HETATM   28  O4  UNL     1      -2.774   6.247  14.422  1.00  0.00    -0.259 OA
BRANCH  27  29
HETATM   29  C22 UNL     1      -5.131   5.867  14.331  1.00  0.00     0.039 A 
HETATM   30  C23 UNL     1      -5.448   6.276  15.635  1.00  0.00     0.019 A 
HETATM   31  C24 UNL     1      -6.770   6.566  15.984  1.00  0.00     0.025 A 
HETATM   32  C25 UNL     1      -7.780   6.449  15.028  1.00  0.00     0.034 A 
HETATM   33 CL1  UNL     1      -9.408   6.805  15.455  1.00  0.00    -0.084 Cl
HETATM   34  C26 UNL     1      -7.479   6.041  13.729  1.00  0.00     0.025 A 
HETATM   35  C27 UNL     1      -6.156   5.749  13.379  1.00  0.00     0.019 A 
ENDBRANCH  27  29
ENDBRANCH  26  27
ENDBRANCH  25  26
ENDBRANCH  21  25
ENDBRANCH  19  20
ENDBRANCH   1  19
TORSDOF 9
ENDMDL
MODEL 9
REMARK minimizedAffinity -7.96710253
REMARK  9 active torsions:
REMARK  status: ('A' for Active; 'I' for Inactive)
REMARK    1  A    between atoms: C11_11  and  C13_13 
REMARK    2  A    between atoms: C13_13  and  O2_15 
REMARK    3  A    between atoms: C15_17  and  C16_18 
REMARK    4  A    between atoms: C16_18  and  C17_19 
REMARK    5  A    between atoms: C17_19  and  C18_20 
REMARK    6  A    between atoms: C19_21  and  C20_22 
REMARK    7  A    between atoms: C20_22  and  O3_23 
REMARK    8  A    between atoms: O3_23  and  C21_24 
REMARK    9  A    between atoms: C21_24  and  C22_26 
ROOT
HETATM    1  C16 UNL     1      -5.051   8.559  15.100  1.00  0.00     0.014 C 
ENDROOT
BRANCH   1   2
HETATM    2  C15 UNL     1      -3.515   8.407  14.942  1.00  0.00     0.022 C 
HETATM    3  C2  UNL     1      -3.122   7.912  13.559  1.00  0.00    -0.084 C 
HETATM    4  C1  UNL     1      -3.107   6.608  13.233  1.00  0.00     0.014 C 
HETATM    5  C3  UNL     1      -2.622   8.949  12.605  1.00  0.00     0.034 C 
HETATM    6  C4  UNL     1      -1.333   9.554  13.148  1.00  0.00     0.011 C 
HETATM    7  C5  UNL     1      -1.315   9.859  14.673  1.00  0.00     0.012 C 
HETATM    8  C6  UNL     1      -2.721   9.715  15.381  1.00  0.00    -0.032 C 
HETATM    9  C11 UNL     1      -0.113   9.193  15.439  1.00  0.00     0.049 C 
HETATM   10  C7  UNL     1      -3.516  11.019  15.050  1.00  0.00     0.016 C 
HETATM   11  C8  UNL     1      -2.556   9.688  16.934  1.00  0.00     0.010 C 
HETATM   12  C9  UNL     1      -1.296  10.401  17.403  1.00  0.00     0.002 C 
HETATM   13  C10 UNL     1      -0.048   9.666  16.923  1.00  0.00     0.020 C 
HETATM   14  C12 UNL     1      -0.188   7.651  15.419  1.00  0.00     0.026 C 
BRANCH   9  15
HETATM   15  C13 UNL     1       1.219   9.604  14.774  1.00  0.00     0.267 C 
HETATM   16  O1  UNL     1       1.844  10.626  15.028  1.00  0.00    -0.264 OA
BRANCH  15  17
HETATM   17  O2  UNL     1       1.611   8.682  13.846  1.00  0.00    -0.326 OA
HETATM   18  C14 UNL     1       2.974   8.806  13.438  1.00  0.00     0.213 C 
ENDBRANCH  15  17
ENDBRANCH   9  15
ENDBRANCH   1   2
BRANCH   1  19
HETATM   19  C17 UNL     1      -5.878   7.555  14.285  1.00  0.00     0.042 C 
BRANCH  19  20
HETATM   20  C18 UNL     1      -7.209   7.288  14.912  1.00  0.00    -0.024 A 
HETATM   21  C19 UNL     1      -8.289   6.617  14.359  1.00  0.00     0.083 A 
HETATM   22  O5  UNL     1      -9.324   6.575  15.249  1.00  0.00    -0.324 OA
HETATM   23  C28 UNL     1      -8.916   7.223  16.367  1.00  0.00     0.143 A 
HETATM   24  C29 UNL     1      -7.629   7.678  16.216  1.00  0.00     0.034 A 
BRANCH  21  25
HETATM   25  C20 UNL     1      -8.523   5.955  13.050  1.00  0.00     0.244 C 
BRANCH  25  26
HETATM   26  O3  UNL     1      -7.364   5.166  12.752  1.00  0.00    -0.311 OA
BRANCH  26  27
HETATM   27  C21 UNL     1      -7.563   3.833  12.661  1.00  0.00     0.293 C 
HETATM   28  O4  UNL     1      -8.618   3.244  12.834  1.00  0.00    -0.259 OA
BRANCH  27  29
HETATM   29  C22 UNL     1      -6.289   3.144  12.309  1.00  0.00     0.039 A 
HETATM   30  C23 UNL     1      -5.081   3.759  12.669  1.00  0.00     0.019 A 
HETATM   31  C24 UNL     1      -3.860   3.152  12.362  1.00  0.00     0.025 A 
HETATM   32  C25 UNL     1      -3.844   1.928  11.695  1.00  0.00     0.034 A 
HETATM   33 CL1  UNL     1      -2.341   1.179  11.317  1.00  0.00    -0.084 Cl
HETATM   34  C26 UNL     1      -5.037   1.307  11.329  1.00  0.00     0.025 A 
HETATM   35  C27 UNL     1      -6.260   1.913  11.634  1.00  0.00     0.019 A 
ENDBRANCH  27  29
ENDBRANCH  26  27
ENDBRANCH  25  26
ENDBRANCH  21  25
ENDBRANCH  19  20
ENDBRANCH   1  19
TORSDOF 9
ENDMDL
