MODEL 1
REMARK minimizedAffinity -7.88490915
REMARK CNNscore 0.765769064
REMARK CNNaffinity 7.26940155
REMARK  11 active torsions:
REMARK  status: ('A' for Active; 'I' for Inactive)
REMARK    1  A    between atoms: C2_2  and  C4_4 
REMARK    2  A    between atoms: C4_4  and  C6_6 
REMARK    3  A    between atoms: C7_7  and  C8_8 
REMARK    4  A    between atoms: C8_8  and  C10_10 
REMARK    5  A    between atoms: C19_19  and  O1_20 
REMARK    6  A    between atoms: O1_20  and  C20_21 
REMARK    7  A    between atoms: C21_23  and  C22_24 
REMARK    8  A    between atoms: C22_24  and  O3_25 
REMARK    9  A    between atoms: C23_26  and  O4_27 
REMARK   10  A    between atoms: C24_28  and  O5_29 
REMARK   11  A    between atoms: C25_30  and  O6_31 
ROOT
HETATM    1  C10 UNL     1       0.803  54.318 -11.040  1.00  0.00     0.001 C 
HETATM    2  C11 UNL     1       0.036  55.220 -10.040  1.00  0.00     0.006 C 
HETATM    3  C12 UNL     1       0.741  55.109  -8.692  1.00  0.00     0.009 C 
HETATM    4  C13 UNL     1       1.971  54.209  -8.892  1.00  0.00     0.036 C 
HETATM    5  C14 UNL     1       3.174  54.552  -7.975  1.00  0.00     0.123 C 
HETATM    6  C15 UNL     1       2.775  54.632  -6.515  1.00  0.00     0.014 C 
HETATM    7  C16 UNL     1       3.796  54.833  -5.675  1.00  0.00     0.014 C 
HETATM    8  C17 UNL     1       5.142  54.893  -6.365  1.00  0.00     0.124 C 
HETATM    9  C18 UNL     1       6.277  55.018  -5.344  1.00  0.00     0.078 C 
HETATM   10  C19 UNL     1       6.312  56.391  -4.666  1.00  0.00     0.128 C 
HETATM   11  C26 UNL     1       6.263  57.552  -5.669  1.00  0.00     0.033 C 
HETATM   12  C27 UNL     1       5.168  57.401  -6.731  1.00  0.00     0.015 C 
HETATM   13  C28 UNL     1       5.201  56.025  -7.449  1.00  0.00     0.001 C 
HETATM   14  C29 UNL     1       6.524  55.927  -8.260  1.00  0.00     0.019 C 
HETATM   15  C30 UNL     1       3.918  55.860  -8.378  1.00  0.00     0.039 C 
HETATM   16  C31 UNL     1       4.205  55.907  -9.891  1.00  0.00     0.010 C 
HETATM   17  C32 UNL     1       2.964  55.645 -10.741  1.00  0.00     0.010 C 
HETATM   18  C33 UNL     1       2.250  54.298 -10.415  1.00  0.00    -0.033 C 
HETATM   19  C34 UNL     1       3.130  53.141 -10.906  1.00  0.00     0.016 C 
HETATM   20  O7  UNL     1       5.256  53.627  -7.061  1.00  0.00    -0.223 OA
HETATM   21  O8  UNL     1       4.156  53.480  -8.079  1.00  0.00    -0.224 OA
ENDROOT
BRANCH  10  22
HETATM   22  O1  UNL     1       7.550  56.468  -3.949  1.00  0.00    -0.353 OA
BRANCH  22  23
HETATM   23  C20 UNL     1       8.576  55.623  -4.484  1.00  0.00     0.292 C 
HETATM   24  O2  UNL     1       9.293  56.264  -5.537  1.00  0.00    -0.348 OA
HETATM   25  C21 UNL     1      10.448  57.032  -5.162  1.00  0.00     0.179 C 
HETATM   26  C23 UNL     1      11.463  56.213  -4.327  1.00  0.00     0.180 C 
HETATM   27  C24 UNL     1      10.881  54.911  -3.748  1.00  0.00     0.183 C 
HETATM   28  C25 UNL     1       9.451  55.152  -3.295  1.00  0.00     0.204 C 
BRANCH  25  29
HETATM   29  C22 UNL     1      10.064  58.365  -4.491  1.00  0.00     0.198 C 
BRANCH  29  30
HETATM   30  O3  UNL     1      10.118  59.428  -5.446  1.00  0.00    -0.398 OA
HETATM   31  H33 UNL     1       9.756  60.215  -5.009  1.00  0.00     0.209 HD
ENDBRANCH  29  30
ENDBRANCH  25  29
BRANCH  26  32
HETATM   32  O4  UNL     1      12.600  55.863  -5.140  1.00  0.00    -0.390 OA
HETATM   33  H35 UNL     1      12.326  55.050  -5.615  1.00  0.00     0.210 HD
ENDBRANCH  26  32
BRANCH  27  34
HETATM   34  O5  UNL     1      10.953  53.867  -4.731  1.00  0.00    -0.390 OA
HETATM   35  H37 UNL     1      10.831  53.019  -4.264  1.00  0.00     0.210 HD
ENDBRANCH  27  34
BRANCH  28  36
HETATM   36  O6  UNL     1       9.457  56.126  -2.234  1.00  0.00    -0.388 OA
HETATM   37  H39 UNL     1       8.540  56.473  -2.217  1.00  0.00     0.210 HD
ENDBRANCH  28  36
ENDBRANCH  22  23
ENDBRANCH  10  22
BRANCH   1  38
HETATM   38  C8  UNL     1       0.045  52.961 -11.270  1.00  0.00     0.008 C 
HETATM   39  C9  UNL     1       0.094  51.995 -10.076  1.00  0.00     0.014 C 
BRANCH  38  40
HETATM   40  C7  UNL     1       0.558  52.152 -12.458  1.00  0.00    -0.026 C 
HETATM   41  C6  UNL     1       0.339  52.442 -13.754  1.00  0.00    -0.026 C 
BRANCH  41  42
HETATM   42  C4  UNL     1       0.802  51.719 -15.005  1.00  0.00     0.007 C 
HETATM   43  C5  UNL     1       1.647  50.511 -14.575  1.00  0.00     0.014 C 
BRANCH  42  44
HETATM   44  C2  UNL     1       1.479  52.496 -16.171  1.00  0.00    -0.015 C 
HETATM   45  C1  UNL     1       0.911  52.235 -17.568  1.00  0.00     0.010 C 
HETATM   46  C3  UNL     1       3.003  52.338 -16.171  1.00  0.00     0.010 C 
ENDBRANCH  42  44
ENDBRANCH  41  42
ENDBRANCH  38  40
ENDBRANCH   1  38
TORSDOF 11
ENDMDL
MODEL 2
REMARK minimizedAffinity -10.492137
REMARK CNNscore 0.462971866
REMARK CNNaffinity 7.28878546
REMARK  11 active torsions:
REMARK  status: ('A' for Active; 'I' for Inactive)
REMARK    1  A    between atoms: C2_2  and  C4_4 
REMARK    2  A    between atoms: C4_4  and  C6_6 
REMARK    3  A    between atoms: C7_7  and  C8_8 
REMARK    4  A    between atoms: C8_8  and  C10_10 
REMARK    5  A    between atoms: C19_19  and  O1_20 
REMARK    6  A    between atoms: O1_20  and  C20_21 
REMARK    7  A    between atoms: C21_23  and  C22_24 
REMARK    8  A    between atoms: C22_24  and  O3_25 
REMARK    9  A    between atoms: C23_26  and  O4_27 
REMARK   10  A    between atoms: C24_28  and  O5_29 
REMARK   11  A    between atoms: C25_30  and  O6_31 
ROOT
HETATM    1  C10 UNL     1      -4.153  50.027 -25.193  1.00  0.00     0.001 C 
HETATM    2  C11 UNL     1      -4.636  48.616 -24.772  1.00  0.00     0.006 C 
HETATM    3  C12 UNL     1      -3.726  48.140 -23.644  1.00  0.00     0.009 C 
HETATM    4  C13 UNL     1      -2.749  49.285 -23.330  1.00  0.00     0.036 C 
HETATM    5  C14 UNL     1      -2.300  49.358 -21.847  1.00  0.00     0.123 C 
HETATM    6  C15 UNL     1      -1.780  48.028 -21.341  1.00  0.00     0.014 C 
HETATM    7  C16 UNL     1      -1.293  48.064 -20.096  1.00  0.00     0.014 C 
HETATM    8  C17 UNL     1      -1.329  49.444 -19.474  1.00  0.00     0.124 C 
HETATM    9  C18 UNL     1      -0.664  49.441 -18.095  1.00  0.00     0.078 C 
HETATM   10  C19 UNL     1      -1.494  48.700 -17.041  1.00  0.00     0.128 C 
HETATM   11  C26 UNL     1      -2.960  49.152 -17.011  1.00  0.00     0.033 C 
HETATM   12  C27 UNL     1      -3.612  49.217 -18.397  1.00  0.00     0.015 C 
HETATM   13  C28 UNL     1      -2.781  50.033 -19.424  1.00  0.00     0.001 C 
HETATM   14  C29 UNL     1      -2.748  51.516 -18.959  1.00  0.00     0.019 C 
HETATM   15  C30 UNL     1      -3.407  49.878 -20.881  1.00  0.00     0.039 C 
HETATM   16  C31 UNL     1      -4.089  51.146 -21.430  1.00  0.00     0.010 C 
HETATM   17  C32 UNL     1      -4.585  50.983 -22.865  1.00  0.00     0.010 C 
HETATM   18  C33 UNL     1      -3.474  50.546 -23.868  1.00  0.00    -0.033 C 
HETATM   19  C34 UNL     1      -2.507  51.718 -24.076  1.00  0.00     0.016 C 
HETATM   20  O7  UNL     1      -0.560  50.275 -20.379  1.00  0.00    -0.223 OA
HETATM   21  O8  UNL     1      -1.196  50.304 -21.744  1.00  0.00    -0.224 OA
ENDROOT
BRANCH  10  22
HETATM   22  O1  UNL     1      -0.906  48.994 -15.768  1.00  0.00    -0.353 OA
BRANCH  22  23
HETATM   23  C20 UNL     1      -0.499  50.361 -15.626  1.00  0.00     0.292 C 
HETATM   24  O2  UNL     1      -1.549  51.174 -15.108  1.00  0.00    -0.348 OA
HETATM   25  C21 UNL     1      -1.632  51.295 -13.679  1.00  0.00     0.179 C 
HETATM   26  C23 UNL     1      -0.304  51.776 -13.044  1.00  0.00     0.180 C 
HETATM   27  C24 UNL     1       0.910  51.653 -13.982  1.00  0.00     0.183 C 
HETATM   28  C25 UNL     1       0.803  50.369 -14.787  1.00  0.00     0.204 C 
BRANCH  25  29
HETATM   29  C22 UNL     1      -2.177  50.014 -13.019  1.00  0.00     0.198 C 
BRANCH  29  30
HETATM   30  O3  UNL     1      -3.606  50.000 -13.081  1.00  0.00    -0.398 OA
HETATM   31  H33 UNL     1      -3.891  49.127 -12.764  1.00  0.00     0.209 HD
ENDBRANCH  29  30
ENDBRANCH  25  29
BRANCH  26  32
HETATM   32  O4  UNL     1      -0.418  53.157 -12.650  1.00  0.00    -0.390 OA
HETATM   33  H35 UNL     1      -0.219  53.666 -13.465  1.00  0.00     0.210 HD
ENDBRANCH  26  32
BRANCH  27  34
HETATM   34  O5  UNL     1       0.983  52.804 -14.837  1.00  0.00    -0.390 OA
HETATM   35  H37 UNL     1       1.881  52.827 -15.219  1.00  0.00     0.210 HD
ENDBRANCH  27  34
BRANCH  28  36
HETATM   36  O6  UNL     1       0.847  49.248 -13.882  1.00  0.00    -0.388 OA
HETATM   37  H39 UNL     1       0.455  48.509 -14.392  1.00  0.00     0.210 HD
ENDBRANCH  28  36
ENDBRANCH  22  23
ENDBRANCH  10  22
BRANCH   1  38
HETATM   38  C8  UNL     1      -3.308  49.962 -26.516  1.00  0.00     0.008 C 
HETATM   39  C9  UNL     1      -3.173  48.554 -27.116  1.00  0.00     0.014 C 
BRANCH  38  40
HETATM   40  C7  UNL     1      -1.876  50.471 -26.370  1.00  0.00    -0.026 C 
HETATM   41  C6  UNL     1      -1.270  51.344 -27.195  1.00  0.00    -0.026 C 
BRANCH  41  42
HETATM   42  C4  UNL     1       0.132  51.919 -27.142  1.00  0.00     0.007 C 
HETATM   43  C5  UNL     1       0.791  51.705 -28.513  1.00  0.00     0.014 C 
BRANCH  42  44
HETATM   44  C2  UNL     1       1.105  51.548 -25.985  1.00  0.00    -0.015 C 
HETATM   45  C1  UNL     1       1.048  52.449 -24.749  1.00  0.00     0.010 C 
HETATM   46  C3  UNL     1       2.550  51.384 -26.465  1.00  0.00     0.010 C 
ENDBRANCH  42  44
ENDBRANCH  41  42
ENDBRANCH  38  40
ENDBRANCH   1  38
TORSDOF 11
ENDMDL
MODEL 3
REMARK minimizedAffinity -8.11406326
REMARK CNNscore 0.421782166
REMARK CNNaffinity 6.07295227
REMARK  11 active torsions:
REMARK  status: ('A' for Active; 'I' for Inactive)
REMARK    1  A    between atoms: C2_2  and  C4_4 
REMARK    2  A    between atoms: C4_4  and  C6_6 
REMARK    3  A    between atoms: C7_7  and  C8_8 
REMARK    4  A    between atoms: C8_8  and  C10_10 
REMARK    5  A    between atoms: C19_19  and  O1_20 
REMARK    6  A    between atoms: O1_20  and  C20_21 
REMARK    7  A    between atoms: C21_23  and  C22_24 
REMARK    8  A    between atoms: C22_24  and  O3_25 
REMARK    9  A    between atoms: C23_26  and  O4_27 
REMARK   10  A    between atoms: C24_28  and  O5_29 
REMARK   11  A    between atoms: C25_30  and  O6_31 
ROOT
HETATM    1  C10 UNL     1      -6.569  48.140 -28.351  1.00  0.00     0.001 C 
HETATM    2  C11 UNL     1      -5.431  48.165 -29.402  1.00  0.00     0.006 C 
HETATM    3  C12 UNL     1      -5.702  47.037 -30.393  1.00  0.00     0.009 C 
HETATM    4  C13 UNL     1      -7.034  46.385 -29.991  1.00  0.00     0.036 C 
HETATM    5  C14 UNL     1      -7.851  45.809 -31.177  1.00  0.00     0.123 C 
HETATM    6  C15 UNL     1      -7.021  44.888 -32.049  1.00  0.00     0.014 C 
HETATM    7  C16 UNL     1      -7.706  44.292 -33.031  1.00  0.00     0.014 C 
HETATM    8  C17 UNL     1      -9.181  44.636 -33.032  1.00  0.00     0.124 C 
HETATM    9  C18 UNL     1      -9.928  43.844 -34.109  1.00  0.00     0.078 C 
HETATM   10  C19 UNL     1      -9.589  44.313 -35.528  1.00  0.00     0.128 C 
HETATM   11  C26 UNL     1      -9.706  45.834 -35.696  1.00  0.00     0.033 C 
HETATM   12  C27 UNL     1      -9.012  46.631 -34.586  1.00  0.00     0.015 C 
HETATM   13  C28 UNL     1      -9.429  46.179 -33.160  1.00  0.00     0.001 C 
HETATM   14  C29 UNL     1     -10.936  46.503 -32.965  1.00  0.00     0.019 C 
HETATM   15  C30 UNL     1      -8.517  46.899 -32.070  1.00  0.00     0.039 C 
HETATM   16  C31 UNL     1      -9.242  47.961 -31.220  1.00  0.00     0.010 C 
HETATM   17  C32 UNL     1      -8.359  48.552 -30.124  1.00  0.00     0.010 C 
HETATM   18  C33 UNL     1      -7.750  47.485 -29.164  1.00  0.00    -0.033 C 
HETATM   19  C34 UNL     1      -8.870  46.908 -28.290  1.00  0.00     0.016 C 
HETATM   20  O7  UNL     1      -9.653  44.234 -31.722  1.00  0.00    -0.223 OA
HETATM   21  O8  UNL     1      -8.941  45.004 -30.641  1.00  0.00    -0.224 OA
ENDROOT
BRANCH  10  22
HETATM   22  O1  UNL     1     -10.532  43.688 -36.407  1.00  0.00    -0.353 OA
BRANCH  22  23
HETATM   23  C20 UNL     1     -10.478  42.257 -36.383  1.00  0.00     0.292 C 
HETATM   24  O2  UNL     1     -11.751  41.674 -36.650  1.00  0.00    -0.348 OA
HETATM   25  C21 UNL     1     -12.066  41.405 -38.025  1.00  0.00     0.179 C 
HETATM   26  C23 UNL     1     -10.992  40.535 -38.724  1.00  0.00     0.180 C 
HETATM   27  C24 UNL     1      -9.659  40.464 -37.957  1.00  0.00     0.183 C 
HETATM   28  C25 UNL     1      -9.349  41.823 -37.351  1.00  0.00     0.204 C 
BRANCH  25  29
HETATM   29  C22 UNL     1     -12.391  42.692 -38.808  1.00  0.00     0.198 C 
BRANCH  29  30
HETATM   30  O3  UNL     1     -13.802  42.798 -39.013  1.00  0.00    -0.398 OA
HETATM   31  H33 UNL     1     -13.963  43.675 -39.400  1.00  0.00     0.209 HD
ENDBRANCH  29  30
ENDBRANCH  25  29
BRANCH  26  32
HETATM   32  O4  UNL     1     -11.479  39.189 -38.886  1.00  0.00    -0.390 OA
HETATM   33  H35 UNL     1     -11.286  38.749 -38.031  1.00  0.00     0.210 HD
ENDBRANCH  26  32
BRANCH  27  34
HETATM   34  O5  UNL     1      -9.731  39.443 -36.950  1.00  0.00    -0.390 OA
HETATM   35  H37 UNL     1      -8.817  39.244 -36.672  1.00  0.00     0.210 HD
ENDBRANCH  27  34
BRANCH  28  36
HETATM   36  O6  UNL     1      -9.179  42.779 -38.416  1.00  0.00    -0.388 OA
HETATM   37  H39 UNL     1      -9.312  43.649 -37.985  1.00  0.00     0.210 HD
ENDBRANCH  28  36
ENDBRANCH  22  23
ENDBRANCH  10  22
BRANCH   1  38
HETATM   38  C8  UNL     1      -6.088  47.466 -27.016  1.00  0.00     0.008 C 
HETATM   39  C9  UNL     1      -7.180  47.325 -25.944  1.00  0.00     0.014 C 
BRANCH  38  40
HETATM   40  C7  UNL     1      -4.942  48.199 -26.322  1.00  0.00    -0.026 C 
HETATM   41  C6  UNL     1      -3.719  48.410 -26.844  1.00  0.00    -0.026 C 
BRANCH  41  42
HETATM   42  C4  UNL     1      -2.519  49.125 -26.254  1.00  0.00     0.007 C 
HETATM   43  C5  UNL     1      -2.784  49.352 -24.758  1.00  0.00     0.014 C 
BRANCH  42  44
HETATM   44  C2  UNL     1      -1.942  50.404 -26.926  1.00  0.00    -0.015 C 
HETATM   45  C1  UNL     1      -0.480  50.726 -26.606  1.00  0.00     0.010 C 
HETATM   46  C3  UNL     1      -2.827  51.634 -26.699  1.00  0.00     0.010 C 
ENDBRANCH  42  44
ENDBRANCH  41  42
ENDBRANCH  38  40
ENDBRANCH   1  38
TORSDOF 11
ENDMDL
MODEL 4
REMARK minimizedAffinity -8.27681446
REMARK CNNscore 0.358911097
REMARK CNNaffinity 6.95795202
REMARK  11 active torsions:
REMARK  status: ('A' for Active; 'I' for Inactive)
REMARK    1  A    between atoms: C2_2  and  C4_4 
REMARK    2  A    between atoms: C4_4  and  C6_6 
REMARK    3  A    between atoms: C7_7  and  C8_8 
REMARK    4  A    between atoms: C8_8  and  C10_10 
REMARK    5  A    between atoms: C19_19  and  O1_20 
REMARK    6  A    between atoms: O1_20  and  C20_21 
REMARK    7  A    between atoms: C21_23  and  C22_24 
REMARK    8  A    between atoms: C22_24  and  O3_25 
REMARK    9  A    between atoms: C23_26  and  O4_27 
REMARK   10  A    between atoms: C24_28  and  O5_29 
REMARK   11  A    between atoms: C25_30  and  O6_31 
ROOT
HETATM    1  C10 UNL     1      -2.576  50.801 -23.400  1.00  0.00     0.001 C 
HETATM    2  C11 UNL     1      -1.046  50.571 -23.319  1.00  0.00     0.006 C 
HETATM    3  C12 UNL     1      -0.598  50.977 -21.918  1.00  0.00     0.009 C 
HETATM    4  C13 UNL     1      -1.858  51.374 -21.131  1.00  0.00     0.036 C 
HETATM    5  C14 UNL     1      -1.785  51.083 -19.610  1.00  0.00     0.123 C 
HETATM    6  C15 UNL     1      -0.531  51.654 -18.978  1.00  0.00     0.014 C 
HETATM    7  C16 UNL     1      -0.467  51.510 -17.651  1.00  0.00     0.014 C 
HETATM    8  C17 UNL     1      -1.690  50.842 -17.058  1.00  0.00     0.124 C 
HETATM    9  C18 UNL     1      -1.605  50.802 -15.529  1.00  0.00     0.078 C 
HETATM   10  C19 UNL     1      -0.546  49.818 -15.022  1.00  0.00     0.128 C 
HETATM   11  C26 UNL     1      -0.667  48.429 -15.664  1.00  0.00     0.033 C 
HETATM   12  C27 UNL     1      -0.814  48.467 -17.189  1.00  0.00     0.015 C 
HETATM   13  C28 UNL     1      -1.942  49.421 -17.669  1.00  0.00     0.001 C 
HETATM   14  C29 UNL     1      -3.304  48.854 -17.177  1.00  0.00     0.019 C 
HETATM   15  C30 UNL     1      -1.896  49.570 -19.254  1.00  0.00     0.039 C 
HETATM   16  C31 UNL     1      -3.063  48.896 -20.002  1.00  0.00     0.010 C 
HETATM   17  C32 UNL     1      -3.031  49.149 -21.507  1.00  0.00     0.010 C 
HETATM   18  C33 UNL     1      -3.007  50.660 -21.890  1.00  0.00    -0.033 C 
HETATM   19  C34 UNL     1      -4.376  51.274 -21.567  1.00  0.00     0.016 C 
HETATM   20  O7  UNL     1      -2.800  51.684 -17.458  1.00  0.00    -0.223 OA
HETATM   21  O8  UNL     1      -2.913  51.736 -18.959  1.00  0.00    -0.224 OA
ENDROOT
BRANCH  10  22
HETATM   22  O1  UNL     1      -0.748  49.681 -13.610  1.00  0.00    -0.353 OA
BRANCH  22  23
HETATM   23  C20 UNL     1       0.449  49.845 -12.841  1.00  0.00     0.292 C 
HETATM   24  O2  UNL     1       0.967  51.169 -12.943  1.00  0.00    -0.348 OA
HETATM   25  C21 UNL     1       0.497  52.127 -11.980  1.00  0.00     0.179 C 
HETATM   26  C23 UNL     1       0.698  51.651 -10.520  1.00  0.00     0.180 C 
HETATM   27  C24 UNL     1       0.984  50.144 -10.394  1.00  0.00     0.183 C 
HETATM   28  C25 UNL     1       0.135  49.381 -11.396  1.00  0.00     0.204 C 
BRANCH  25  29
HETATM   29  C22 UNL     1      -0.950  52.574 -12.267  1.00  0.00     0.198 C 
BRANCH  29  30
HETATM   30  O3  UNL     1      -1.744  52.452 -11.084  1.00  0.00    -0.398 OA
HETATM   31  H33 UNL     1      -2.605  52.855 -11.283  1.00  0.00     0.209 HD
ENDBRANCH  29  30
ENDBRANCH  25  29
BRANCH  26  32
HETATM   32  O4  UNL     1       1.798  52.360  -9.919  1.00  0.00    -0.390 OA
HETATM   33  H35 UNL     1       2.597  51.862 -10.197  1.00  0.00     0.210 HD
ENDBRANCH  26  32
BRANCH  27  34
HETATM   34  O5  UNL     1       2.384  49.896 -10.594  1.00  0.00    -0.390 OA
HETATM   35  H37 UNL     1       2.573  49.002 -10.253  1.00  0.00     0.210 HD
ENDBRANCH  27  34
BRANCH  28  36
HETATM   36  O6  UNL     1      -1.256  49.579 -11.075  1.00  0.00    -0.388 OA
HETATM   37  H39 UNL     1      -1.730  49.359 -11.904  1.00  0.00     0.210 HD
ENDBRANCH  28  36
ENDBRANCH  22  23
ENDBRANCH  10  22
BRANCH   1  38
HETATM   38  C8  UNL     1      -2.906  52.129 -24.173  1.00  0.00     0.008 C 
HETATM   39  C9  UNL     1      -4.336  52.202 -24.731  1.00  0.00     0.014 C 
BRANCH  38  40
HETATM   40  C7  UNL     1      -1.997  52.397 -25.371  1.00  0.00    -0.026 C 
HETATM   41  C6  UNL     1      -0.860  53.116 -25.343  1.00  0.00    -0.026 C 
BRANCH  41  42
HETATM   42  C4  UNL     1       0.115  53.437 -26.458  1.00  0.00     0.007 C 
HETATM   43  C5  UNL     1      -0.674  54.054 -27.623  1.00  0.00     0.014 C 
BRANCH  42  44
HETATM   44  C2  UNL     1       1.129  52.370 -26.966  1.00  0.00    -0.015 C 
HETATM   45  C1  UNL     1       0.673  51.530 -28.162  1.00  0.00     0.010 C 
HETATM   46  C3  UNL     1       1.641  51.468 -25.839  1.00  0.00     0.010 C 
ENDBRANCH  42  44
ENDBRANCH  41  42
ENDBRANCH  38  40
ENDBRANCH   1  38
TORSDOF 11
ENDMDL
MODEL 5
REMARK minimizedAffinity -9.88992023
REMARK CNNscore 0.356347293
REMARK CNNaffinity 7.16574621
REMARK  11 active torsions:
REMARK  status: ('A' for Active; 'I' for Inactive)
REMARK    1  A    between atoms: C2_2  and  C4_4 
REMARK    2  A    between atoms: C4_4  and  C6_6 
REMARK    3  A    between atoms: C7_7  and  C8_8 
REMARK    4  A    between atoms: C8_8  and  C10_10 
REMARK    5  A    between atoms: C19_19  and  O1_20 
REMARK    6  A    between atoms: O1_20  and  C20_21 
REMARK    7  A    between atoms: C21_23  and  C22_24 
REMARK    8  A    between atoms: C22_24  and  O3_25 
REMARK    9  A    between atoms: C23_26  and  O4_27 
REMARK   10  A    between atoms: C24_28  and  O5_29 
REMARK   11  A    between atoms: C25_30  and  O6_31 
ROOT
HETATM    1  C10 UNL     1      -4.070  50.029 -24.712  1.00  0.00     0.001 C 
HETATM    2  C11 UNL     1      -3.871  48.530 -24.376  1.00  0.00     0.006 C 
HETATM    3  C12 UNL     1      -2.770  48.440 -23.324  1.00  0.00     0.009 C 
HETATM    4  C13 UNL     1      -2.360  49.878 -22.967  1.00  0.00     0.036 C 
HETATM    5  C14 UNL     1      -1.886  50.067 -21.502  1.00  0.00     0.123 C 
HETATM    6  C15 UNL     1      -0.812  49.069 -21.117  1.00  0.00     0.014 C 
HETATM    7  C16 UNL     1      -0.304  49.252 -19.893  1.00  0.00     0.014 C 
HETATM    8  C17 UNL     1      -0.886  50.449 -19.172  1.00  0.00     0.124 C 
HETATM    9  C18 UNL     1      -0.191  50.667 -17.824  1.00  0.00     0.078 C 
HETATM   10  C19 UNL     1      -0.549  49.590 -16.794  1.00  0.00     0.128 C 
HETATM   11  C26 UNL     1      -2.062  49.362 -16.672  1.00  0.00     0.033 C 
HETATM   12  C27 UNL     1      -2.771  49.205 -18.022  1.00  0.00     0.015 C 
HETATM   13  C28 UNL     1      -2.443  50.349 -19.019  1.00  0.00     0.001 C 
HETATM   14  C29 UNL     1      -3.017  51.676 -18.449  1.00  0.00     0.019 C 
HETATM   15  C30 UNL     1      -3.040  50.009 -20.457  1.00  0.00     0.039 C 
HETATM   16  C31 UNL     1      -4.235  50.883 -20.883  1.00  0.00     0.010 C 
HETATM   17  C32 UNL     1      -4.710  50.591 -22.304  1.00  0.00     0.010 C 
HETATM   18  C33 UNL     1      -3.591  50.727 -23.381  1.00  0.00    -0.033 C 
HETATM   19  C34 UNL     1      -3.236  52.210 -23.543  1.00  0.00     0.016 C 
HETATM   20  O7  UNL     1      -0.611  51.573 -20.044  1.00  0.00    -0.223 OA
HETATM   21  O8  UNL     1      -1.290  51.390 -21.376  1.00  0.00    -0.224 OA
ENDROOT
BRANCH  10  22
HETATM   22  O1  UNL     1      -0.058  50.048 -15.528  1.00  0.00    -0.353 OA
BRANCH  22  23
HETATM   23  C20 UNL     1       1.240  49.539 -15.199  1.00  0.00     0.292 C 
HETATM   24  O2  UNL     1       2.173  50.588 -14.951  1.00  0.00    -0.348 OA
HETATM   25  C21 UNL     1       2.273  51.062 -13.599  1.00  0.00     0.179 C 
HETATM   26  C23 UNL     1       2.562  49.925 -12.589  1.00  0.00     0.180 C 
HETATM   27  C24 UNL     1       2.300  48.516 -13.151  1.00  0.00     0.183 C 
HETATM   28  C25 UNL     1       1.059  48.541 -14.027  1.00  0.00     0.204 C 
BRANCH  25  29
HETATM   29  C22 UNL     1       1.061  51.923 -13.196  1.00  0.00     0.198 C 
BRANCH  29  30
HETATM   30  O3  UNL     1       0.683  52.776 -14.280  1.00  0.00    -0.398 OA
HETATM   31  H33 UNL     1      -0.149  53.205 -14.021  1.00  0.00     0.209 HD
ENDBRANCH  29  30
ENDBRANCH  25  29
BRANCH  26  32
HETATM   32  O4  UNL     1       3.937  49.982 -12.164  1.00  0.00    -0.390 OA
HETATM   33  H35 UNL     1       4.433  49.497 -12.858  1.00  0.00     0.210 HD
ENDBRANCH  26  32
BRANCH  27  34
HETATM   34  O5  UNL     1       3.450  48.064 -13.882  1.00  0.00    -0.390 OA
HETATM   35  H37 UNL     1       3.364  47.099 -13.994  1.00  0.00     0.210 HD
ENDBRANCH  27  34
BRANCH  28  36
HETATM   36  O6  UNL     1      -0.077  48.893 -13.213  1.00  0.00    -0.388 OA
HETATM   37  H39 UNL     1      -0.747  49.208 -13.855  1.00  0.00     0.210 HD
ENDBRANCH  28  36
ENDBRANCH  22  23
ENDBRANCH  10  22
BRANCH   1  38
HETATM   38  C8  UNL     1      -3.372  50.400 -26.069  1.00  0.00     0.008 C 
HETATM   39  C9  UNL     1      -3.035  49.195 -26.962  1.00  0.00     0.014 C 
BRANCH  38  40
HETATM   40  C7  UNL     1      -2.056  51.157 -25.910  1.00  0.00    -0.026 C 
HETATM   41  C6  UNL     1      -0.827  50.611 -25.977  1.00  0.00    -0.026 C 
BRANCH  41  42
HETATM   42  C4  UNL     1       0.535  51.263 -25.842  1.00  0.00     0.007 C 
HETATM   43  C5  UNL     1       0.512  52.173 -24.605  1.00  0.00     0.014 C 
BRANCH  42  44
HETATM   44  C2  UNL     1       1.203  51.975 -27.055  1.00  0.00    -0.015 C 
HETATM   45  C1  UNL     1       0.511  51.785 -28.406  1.00  0.00     0.010 C 
HETATM   46  C3  UNL     1       2.698  51.661 -27.166  1.00  0.00     0.010 C 
ENDBRANCH  42  44
ENDBRANCH  41  42
ENDBRANCH  38  40
ENDBRANCH   1  38
TORSDOF 11
ENDMDL
MODEL 6
REMARK minimizedAffinity -8.37113094
REMARK CNNscore 0.280193031
REMARK CNNaffinity 6.24340105
REMARK  11 active torsions:
REMARK  status: ('A' for Active; 'I' for Inactive)
REMARK    1  A    between atoms: C2_2  and  C4_4 
REMARK    2  A    between atoms: C4_4  and  C6_6 
REMARK    3  A    between atoms: C7_7  and  C8_8 
REMARK    4  A    between atoms: C8_8  and  C10_10 
REMARK    5  A    between atoms: C19_19  and  O1_20 
REMARK    6  A    between atoms: O1_20  and  C20_21 
REMARK    7  A    between atoms: C21_23  and  C22_24 
REMARK    8  A    between atoms: C22_24  and  O3_25 
REMARK    9  A    between atoms: C23_26  and  O4_27 
REMARK   10  A    between atoms: C24_28  and  O5_29 
REMARK   11  A    between atoms: C25_30  and  O6_31 
ROOT
HETATM    1  C10 UNL     1      -2.730  48.236 -18.919  1.00  0.00     0.001 C 
HETATM    2  C11 UNL     1      -3.800  49.230 -18.401  1.00  0.00     0.006 C 
HETATM    3  C12 UNL     1      -4.686  49.604 -19.586  1.00  0.00     0.009 C 
HETATM    4  C13 UNL     1      -4.204  48.784 -20.794  1.00  0.00     0.036 C 
HETATM    5  C14 UNL     1      -5.321  48.412 -21.805  1.00  0.00     0.123 C 
HETATM    6  C15 UNL     1      -6.125  49.622 -22.238  1.00  0.00     0.014 C 
HETATM    7  C16 UNL     1      -7.040  49.367 -23.180  1.00  0.00     0.014 C 
HETATM    8  C17 UNL     1      -7.042  47.926 -23.643  1.00  0.00     0.124 C 
HETATM    9  C18 UNL     1      -8.033  47.722 -24.794  1.00  0.00     0.078 C 
HETATM   10  C19 UNL     1      -9.493  47.812 -24.337  1.00  0.00     0.128 C 
HETATM   11  C26 UNL     1      -9.790  46.936 -23.112  1.00  0.00     0.033 C 
HETATM   12  C27 UNL     1      -8.765  47.091 -21.983  1.00  0.00     0.015 C 
HETATM   13  C28 UNL     1      -7.298  46.925 -22.464  1.00  0.00     0.001 C 
HETATM   14  C29 UNL     1      -7.103  45.460 -22.945  1.00  0.00     0.019 C 
HETATM   15  C30 UNL     1      -6.291  47.307 -21.290  1.00  0.00     0.039 C 
HETATM   16  C31 UNL     1      -5.523  46.116 -20.684  1.00  0.00     0.010 C 
HETATM   17  C32 UNL     1      -4.499  46.540 -19.635  1.00  0.00     0.010 C 
HETATM   18  C33 UNL     1      -3.462  47.583 -20.153  1.00  0.00    -0.033 C 
HETATM   19  C34 UNL     1      -2.521  46.892 -21.148  1.00  0.00     0.016 C 
HETATM   20  O7  UNL     1      -5.694  47.690 -24.121  1.00  0.00    -0.223 OA
HETATM   21  O8  UNL     1      -4.697  47.876 -23.007  1.00  0.00    -0.224 OA
ENDROOT
BRANCH  10  22
HETATM   22  O1  UNL     1     -10.298  47.349 -25.428  1.00  0.00    -0.353 OA
BRANCH  22  23
HETATM   23  C20 UNL     1     -11.426  46.568 -25.017  1.00  0.00     0.292 C 
HETATM   24  O2  UNL     1     -12.648  47.290 -25.153  1.00  0.00    -0.348 OA
HETATM   25  C21 UNL     1     -13.329  47.182 -26.413  1.00  0.00     0.179 C 
HETATM   26  C23 UNL     1     -13.601  45.713 -26.820  1.00  0.00     0.180 C 
HETATM   27  C24 UNL     1     -12.772  44.688 -26.025  1.00  0.00     0.183 C 
HETATM   28  C25 UNL     1     -11.372  45.232 -25.800  1.00  0.00     0.204 C 
BRANCH  25  29
HETATM   29  C22 UNL     1     -12.625  47.987 -27.523  1.00  0.00     0.198 C 
BRANCH  29  30
HETATM   30  O3  UNL     1     -12.024  49.161 -26.971  1.00  0.00    -0.398 OA
HETATM   31  H33 UNL     1     -11.497  49.565 -27.680  1.00  0.00     0.209 HD
ENDBRANCH  29  30
ENDBRANCH  25  29
BRANCH  26  32
HETATM   32  O4  UNL     1     -14.993  45.398 -26.626  1.00  0.00    -0.390 OA
HETATM   33  H35 UNL     1     -15.065  45.155 -25.679  1.00  0.00     0.210 HD
ENDBRANCH  26  32
BRANCH  27  34
HETATM   34  O5  UNL     1     -13.427  44.391 -24.782  1.00  0.00    -0.390 OA
HETATM   35  H37 UNL     1     -13.034  43.569 -24.434  1.00  0.00     0.210 HD
ENDBRANCH  27  34
BRANCH  28  36
HETATM   36  O6  UNL     1     -10.728  45.402 -27.078  1.00  0.00    -0.388 OA
HETATM   37  H39 UNL     1     -10.002  46.036 -26.901  1.00  0.00     0.210 HD
ENDBRANCH  28  36
ENDBRANCH  22  23
ENDBRANCH  10  22
BRANCH   1  38
HETATM   38  C8  UNL     1      -1.351  48.958 -19.137  1.00  0.00     0.008 C 
HETATM   39  C9  UNL     1      -0.568  49.238 -17.844  1.00  0.00     0.014 C 
BRANCH  38  40
HETATM   40  C7  UNL     1      -1.456  50.309 -19.839  1.00  0.00    -0.026 C 
HETATM   41  C6  UNL     1      -0.446  50.947 -20.459  1.00  0.00    -0.026 C 
BRANCH  41  42
HETATM   42  C4  UNL     1      -0.438  52.276 -21.190  1.00  0.00     0.007 C 
HETATM   43  C5  UNL     1      -0.147  52.007 -22.673  1.00  0.00     0.014 C 
BRANCH  42  44
HETATM   44  C2  UNL     1       0.401  53.475 -20.658  1.00  0.00    -0.015 C 
HETATM   45  C1  UNL     1       1.395  54.087 -21.648  1.00  0.00     0.010 C 
HETATM   46  C3  UNL     1       1.091  53.160 -19.327  1.00  0.00     0.010 C 
ENDBRANCH  42  44
ENDBRANCH  41  42
ENDBRANCH  38  40
ENDBRANCH   1  38
TORSDOF 11
ENDMDL
MODEL 7
REMARK minimizedAffinity -9.24582291
REMARK CNNscore 0.268261641
REMARK CNNaffinity 6.64804649
REMARK  11 active torsions:
REMARK  status: ('A' for Active; 'I' for Inactive)
REMARK    1  A    between atoms: C2_2  and  C4_4 
REMARK    2  A    between atoms: C4_4  and  C6_6 
REMARK    3  A    between atoms: C7_7  and  C8_8 
REMARK    4  A    between atoms: C8_8  and  C10_10 
REMARK    5  A    between atoms: C19_19  and  O1_20 
REMARK    6  A    between atoms: O1_20  and  C20_21 
REMARK    7  A    between atoms: C21_23  and  C22_24 
REMARK    8  A    between atoms: C22_24  and  O3_25 
REMARK    9  A    between atoms: C23_26  and  O4_27 
REMARK   10  A    between atoms: C24_28  and  O5_29 
REMARK   11  A    between atoms: C25_30  and  O6_31 
ROOT
HETATM    1  C10 UNL     1       1.502  50.149 -13.924  1.00  0.00     0.001 C 
HETATM    2  C11 UNL     1       1.706  48.746 -14.549  1.00  0.00     0.006 C 
HETATM    3  C12 UNL     1       0.551  48.506 -15.517  1.00  0.00     0.009 C 
HETATM    4  C13 UNL     1      -0.301  49.785 -15.538  1.00  0.00     0.036 C 
HETATM    5  C14 UNL     1      -0.996  50.072 -16.895  1.00  0.00     0.123 C 
HETATM    6  C15 UNL     1      -1.775  48.876 -17.403  1.00  0.00     0.014 C 
HETATM    7  C16 UNL     1      -2.468  49.104 -18.523  1.00  0.00     0.014 C 
HETATM    8  C17 UNL     1      -2.358  50.530 -19.020  1.00  0.00     0.124 C 
HETATM    9  C18 UNL     1      -3.255  50.756 -20.241  1.00  0.00     0.078 C 
HETATM   10  C19 UNL     1      -2.737  50.043 -21.494  1.00  0.00     0.128 C 
HETATM   11  C26 UNL     1      -1.252  50.321 -21.767  1.00  0.00     0.033 C 
HETATM   12  C27 UNL     1      -0.358  50.156 -20.532  1.00  0.00     0.015 C 
HETATM   13  C28 UNL     1      -0.872  50.947 -19.298  1.00  0.00     0.001 C 
HETATM   14  C29 UNL     1      -0.788  52.465 -19.620  1.00  0.00     0.019 C 
HETATM   15  C30 UNL     1      -0.021  50.561 -18.008  1.00  0.00     0.039 C 
HETATM   16  C31 UNL     1       0.914  51.673 -17.494  1.00  0.00     0.010 C 
HETATM   17  C32 UNL     1       1.633  51.297 -16.201  1.00  0.00     0.010 C 
HETATM   18  C33 UNL     1       0.673  50.887 -15.044  1.00  0.00    -0.033 C 
HETATM   19  C34 UNL     1      -0.073  52.134 -14.554  1.00  0.00     0.016 C 
HETATM   20  O7  UNL     1      -2.831  51.342 -17.916  1.00  0.00    -0.223 OA
HETATM   21  O8  UNL     1      -1.962  51.146 -16.702  1.00  0.00    -0.224 OA
ENDROOT
BRANCH  10  22
HETATM   22  O1  UNL     1      -3.499  50.541 -22.600  1.00  0.00    -0.353 OA
BRANCH  22  23
HETATM   23  C20 UNL     1      -2.697  51.142 -23.624  1.00  0.00     0.292 C 
HETATM   24  O2  UNL     1      -1.996  50.165 -24.389  1.00  0.00    -0.348 OA
HETATM   25  C21 UNL     1      -2.667  49.644 -25.548  1.00  0.00     0.179 C 
HETATM   26  C23 UNL     1      -3.135  50.757 -26.517  1.00  0.00     0.180 C 
HETATM   27  C24 UNL     1      -3.145  52.162 -25.887  1.00  0.00     0.183 C 
HETATM   28  C25 UNL     1      -3.624  52.070 -24.448  1.00  0.00     0.204 C 
BRANCH  25  29
HETATM   29  C22 UNL     1      -3.798  48.668 -25.171  1.00  0.00     0.198 C 
BRANCH  29  30
HETATM   30  O3  UNL     1      -5.015  49.057 -25.814  1.00  0.00    -0.398 OA
HETATM   31  H33 UNL     1      -5.659  48.350 -25.644  1.00  0.00     0.209 HD
ENDBRANCH  29  30
ENDBRANCH  25  29
BRANCH  26  32
HETATM   32  O4  UNL     1      -2.275  50.798 -27.672  1.00  0.00    -0.390 OA
HETATM   33  H35 UNL     1      -1.514  51.351 -27.396  1.00  0.00     0.210 HD
ENDBRANCH  26  32
BRANCH  27  34
HETATM   34  O5  UNL     1      -1.833  52.740 -25.968  1.00  0.00    -0.390 OA
HETATM   35  H37 UNL     1      -1.927  53.698 -25.812  1.00  0.00     0.210 HD
ENDBRANCH  27  34
BRANCH  28  36
HETATM   36  O6  UNL     1      -4.983  51.591 -24.441  1.00  0.00    -0.388 OA
HETATM   37  H39 UNL     1      -5.115  51.248 -23.532  1.00  0.00     0.210 HD
ENDBRANCH  28  36
ENDBRANCH  22  23
ENDBRANCH  10  22
BRANCH   1  38
HETATM   38  C8  UNL     1       0.909  50.039 -12.474  1.00  0.00     0.008 C 
HETATM   39  C9  UNL     1       0.958  48.627 -11.871  1.00  0.00     0.014 C 
BRANCH  38  40
HETATM   40  C7  UNL     1      -0.552  50.470 -12.361  1.00  0.00    -0.026 C 
HETATM   41  C6  UNL     1      -1.023  51.426 -11.539  1.00  0.00    -0.026 C 
BRANCH  41  42
HETATM   42  C4  UNL     1      -2.439  51.936 -11.352  1.00  0.00     0.007 C 
HETATM   43  C5  UNL     1      -3.247  51.580 -12.608  1.00  0.00     0.014 C 
BRANCH  42  44
HETATM   44  C2  UNL     1      -2.707  53.403 -10.904  1.00  0.00    -0.015 C 
HETATM   45  C1  UNL     1      -1.771  53.955  -9.827  1.00  0.00     0.010 C 
HETATM   46  C3  UNL     1      -4.170  53.638 -10.519  1.00  0.00     0.010 C 
ENDBRANCH  42  44
ENDBRANCH  41  42
ENDBRANCH  38  40
ENDBRANCH   1  38
TORSDOF 11
ENDMDL
MODEL 8
REMARK minimizedAffinity -10.5109415
REMARK CNNscore 0.24033314
REMARK CNNaffinity 6.34987068
REMARK  11 active torsions:
REMARK  status: ('A' for Active; 'I' for Inactive)
REMARK    1  A    between atoms: C2_2  and  C4_4 
REMARK    2  A    between atoms: C4_4  and  C6_6 
REMARK    3  A    between atoms: C7_7  and  C8_8 
REMARK    4  A    between atoms: C8_8  and  C10_10 
REMARK    5  A    between atoms: C19_19  and  O1_20 
REMARK    6  A    between atoms: O1_20  and  C20_21 
REMARK    7  A    between atoms: C21_23  and  C22_24 
REMARK    8  A    between atoms: C22_24  and  O3_25 
REMARK    9  A    between atoms: C23_26  and  O4_27 
REMARK   10  A    between atoms: C24_28  and  O5_29 
REMARK   11  A    between atoms: C25_30  and  O6_31 
ROOT
HETATM    1  C10 UNL     1       0.044  51.131 -18.911  1.00  0.00     0.001 C 
HETATM    2  C11 UNL     1      -1.055  50.638 -17.936  1.00  0.00     0.006 C 
HETATM    3  C12 UNL     1      -2.395  50.771 -18.654  1.00  0.00     0.009 C 
HETATM    4  C13 UNL     1      -2.103  51.266 -20.080  1.00  0.00     0.036 C 
HETATM    5  C14 UNL     1      -3.106  50.765 -21.152  1.00  0.00     0.123 C 
HETATM    6  C15 UNL     1      -4.545  51.028 -20.755  1.00  0.00     0.014 C 
HETATM    7  C16 UNL     1      -5.443  50.698 -21.690  1.00  0.00     0.014 C 
HETATM    8  C17 UNL     1      -4.820  50.172 -22.966  1.00  0.00     0.124 C 
HETATM    9  C18 UNL     1      -5.889  49.914 -24.031  1.00  0.00     0.078 C 
HETATM   10  C19 UNL     1      -6.773  48.707 -23.700  1.00  0.00     0.128 C 
HETATM   11  C26 UNL     1      -5.961  47.457 -23.334  1.00  0.00     0.033 C 
HETATM   12  C27 UNL     1      -4.849  47.723 -22.313  1.00  0.00     0.015 C 
HETATM   13  C28 UNL     1      -3.928  48.908 -22.711  1.00  0.00     0.001 C 
HETATM   14  C29 UNL     1      -3.161  48.519 -24.006  1.00  0.00     0.019 C 
HETATM   15  C30 UNL     1      -2.938  49.259 -21.513  1.00  0.00     0.039 C 
HETATM   16  C31 UNL     1      -1.462  48.897 -21.767  1.00  0.00     0.010 C 
HETATM   17  C32 UNL     1      -0.537  49.341 -20.637  1.00  0.00     0.010 C 
HETATM   18  C33 UNL     1      -0.623  50.864 -20.315  1.00  0.00    -0.033 C 
HETATM   19  C34 UNL     1       0.009  51.651 -21.470  1.00  0.00     0.016 C 
HETATM   20  O7  UNL     1      -3.941  51.235 -23.412  1.00  0.00    -0.223 OA
HETATM   21  O8  UNL     1      -2.872  51.506 -22.385  1.00  0.00    -0.224 OA
ENDROOT
BRANCH  10  22
HETATM   22  O1  UNL     1      -7.538  48.418 -24.877  1.00  0.00    -0.353 OA
BRANCH  22  23
HETATM   23  C20 UNL     1      -8.946  48.310 -24.633  1.00  0.00     0.292 C 
HETATM   24  O2  UNL     1      -9.707  49.059 -25.577  1.00  0.00    -0.348 OA
HETATM   25  C21 UNL     1     -10.101  48.379 -26.780  1.00  0.00     0.179 C 
HETATM   26  C23 UNL     1     -10.864  47.062 -26.496  1.00  0.00     0.180 C 
HETATM   27  C24 UNL     1     -10.710  46.557 -25.050  1.00  0.00     0.183 C 
HETATM   28  C25 UNL     1      -9.288  46.800 -24.576  1.00  0.00     0.204 C 
BRANCH  25  29
HETATM   29  C22 UNL     1      -8.919  48.185 -27.749  1.00  0.00     0.198 C 
BRANCH  29  30
HETATM   30  O3  UNL     1      -8.699  49.383 -28.500  1.00  0.00    -0.398 OA
HETATM   31  H33 UNL     1      -7.879  49.250 -29.003  1.00  0.00     0.209 HD
ENDBRANCH  29  30
ENDBRANCH  25  29
BRANCH  26  32
HETATM   32  O4  UNL     1     -12.270  47.243 -26.753  1.00  0.00    -0.390 OA
HETATM   33  H35 UNL     1     -12.626  47.633 -25.927  1.00  0.00     0.210 HD
ENDBRANCH  26  32
BRANCH  27  34
HETATM   34  O5  UNL     1     -11.667  47.211 -24.203  1.00  0.00    -0.390 OA
HETATM   35  H37 UNL     1     -11.727  46.695 -23.377  1.00  0.00     0.210 HD
ENDBRANCH  27  34
BRANCH  28  36
HETATM   36  O6  UNL     1      -8.386  46.029 -25.394  1.00  0.00    -0.388 OA
HETATM   37  H39 UNL     1      -7.516  46.463 -25.271  1.00  0.00     0.210 HD
ENDBRANCH  28  36
ENDBRANCH  22  23
ENDBRANCH  10  22
BRANCH   1  38
HETATM   38  C8  UNL     1       0.509  52.586 -18.545  1.00  0.00     0.008 C 
HETATM   39  C9  UNL     1       0.875  53.461 -19.755  1.00  0.00     0.014 C 
BRANCH  38  40
HETATM   40  C7  UNL     1       1.730  52.642 -17.631  1.00  0.00    -0.026 C 
HETATM   41  C6  UNL     1       1.780  52.187 -16.365  1.00  0.00    -0.026 C 
BRANCH  41  42
HETATM   42  C4  UNL     1       2.930  52.183 -15.377  1.00  0.00     0.007 C 
HETATM   43  C5  UNL     1       4.242  52.292 -16.168  1.00  0.00     0.014 C 
BRANCH  42  44
HETATM   44  C2  UNL     1       3.028  51.093 -14.269  1.00  0.00    -0.015 C 
HETATM   45  C1  UNL     1       4.338  50.305 -14.220  1.00  0.00     0.010 C 
HETATM   46  C3  UNL     1       1.826  50.143 -14.277  1.00  0.00     0.010 C 
ENDBRANCH  42  44
ENDBRANCH  41  42
ENDBRANCH  38  40
ENDBRANCH   1  38
TORSDOF 11
ENDMDL
MODEL 9
REMARK minimizedAffinity -8.96377659
REMARK CNNscore 0.219139308
REMARK CNNaffinity 6.2708416
REMARK  11 active torsions:
REMARK  status: ('A' for Active; 'I' for Inactive)
REMARK    1  A    between atoms: C2_2  and  C4_4 
REMARK    2  A    between atoms: C4_4  and  C6_6 
REMARK    3  A    between atoms: C7_7  and  C8_8 
REMARK    4  A    between atoms: C8_8  and  C10_10 
REMARK    5  A    between atoms: C19_19  and  O1_20 
REMARK    6  A    between atoms: O1_20  and  C20_21 
REMARK    7  A    between atoms: C21_23  and  C22_24 
REMARK    8  A    between atoms: C22_24  and  O3_25 
REMARK    9  A    between atoms: C23_26  and  O4_27 
REMARK   10  A    between atoms: C24_28  and  O5_29 
REMARK   11  A    between atoms: C25_30  and  O6_31 
ROOT
HETATM    1  C10 UNL     1      -7.356  46.791 -19.976  1.00  0.00     0.001 C 
HETATM    2  C11 UNL     1      -8.092  48.154 -19.919  1.00  0.00     0.006 C 
HETATM    3  C12 UNL     1      -7.047  49.246 -20.128  1.00  0.00     0.009 C 
HETATM    4  C13 UNL     1      -5.701  48.548 -20.387  1.00  0.00     0.036 C 
HETATM    5  C14 UNL     1      -4.744  49.327 -21.326  1.00  0.00     0.123 C 
HETATM    6  C15 UNL     1      -4.550  50.763 -20.881  1.00  0.00     0.014 C 
HETATM    7  C16 UNL     1      -3.660  51.449 -21.606  1.00  0.00     0.014 C 
HETATM    8  C17 UNL     1      -3.003  50.624 -22.692  1.00  0.00     0.124 C 
HETATM    9  C18 UNL     1      -1.920  51.432 -23.415  1.00  0.00     0.078 C 
HETATM   10  C19 UNL     1      -2.503  52.540 -24.298  1.00  0.00     0.128 C 
HETATM   11  C26 UNL     1      -3.615  52.038 -25.229  1.00  0.00     0.033 C 
HETATM   12  C27 UNL     1      -4.667  51.177 -24.522  1.00  0.00     0.015 C 
HETATM   13  C28 UNL     1      -4.049  50.020 -23.691  1.00  0.00     0.001 C 
HETATM   14  C29 UNL     1      -3.355  49.031 -24.669  1.00  0.00     0.019 C 
HETATM   15  C30 UNL     1      -5.178  49.306 -22.822  1.00  0.00     0.039 C 
HETATM   16  C31 UNL     1      -5.548  47.884 -23.286  1.00  0.00     0.010 C 
HETATM   17  C32 UNL     1      -6.559  47.202 -22.367  1.00  0.00     0.010 C 
HETATM   18  C33 UNL     1      -6.107  47.133 -20.876  1.00  0.00    -0.033 C 
HETATM   19  C34 UNL     1      -4.952  46.131 -20.755  1.00  0.00     0.016 C 
HETATM   20  O7  UNL     1      -2.389  49.514 -21.991  1.00  0.00    -0.223 OA
HETATM   21  O8  UNL     1      -3.432  48.695 -21.277  1.00  0.00    -0.224 OA
ENDROOT
BRANCH  10  22
HETATM   22  O1  UNL     1      -1.428  53.035 -25.106  1.00  0.00    -0.353 OA
BRANCH  22  23
HETATM   23  C20 UNL     1      -0.499  52.020 -25.508  1.00  0.00     0.292 C 
HETATM   24  O2  UNL     1      -0.669  51.658 -26.876  1.00  0.00    -0.348 OA
HETATM   25  C21 UNL     1       0.087  52.403 -27.844  1.00  0.00     0.179 C 
HETATM   26  C23 UNL     1       1.605  52.405 -27.540  1.00  0.00     0.180 C 
HETATM   27  C24 UNL     1       1.950  51.964 -26.107  1.00  0.00     0.183 C 
HETATM   28  C25 UNL     1       0.920  52.524 -25.141  1.00  0.00     0.204 C 
BRANCH  25  29
HETATM   29  C22 UNL     1      -0.480  53.821 -28.055  1.00  0.00     0.198 C 
BRANCH  29  30
HETATM   30  O3  UNL     1      -1.908  53.776 -28.106  1.00  0.00    -0.398 OA
HETATM   31  H33 UNL     1      -2.217  54.696 -28.119  1.00  0.00     0.209 HD
ENDBRANCH  29  30
ENDBRANCH  25  29
BRANCH  26  32
HETATM   32  O4  UNL     1       2.290  51.522 -28.450  1.00  0.00    -0.390 OA
HETATM   33  H35 UNL     1       2.204  50.633 -28.045  1.00  0.00     0.210 HD
ENDBRANCH  26  32
BRANCH  27  34
HETATM   34  O5  UNL     1       2.010  50.531 -26.040  1.00  0.00    -0.390 OA
HETATM   35  H37 UNL     1       2.478  50.296 -25.217  1.00  0.00     0.210 HD
ENDBRANCH  27  34
BRANCH  28  36
HETATM   36  O6  UNL     1       0.987  53.963 -25.172  1.00  0.00    -0.388 OA
HETATM   37  H39 UNL     1       0.124  54.254 -24.811  1.00  0.00     0.210 HD
ENDBRANCH  28  36
ENDBRANCH  22  23
ENDBRANCH  10  22
BRANCH   1  38
HETATM   38  C8  UNL     1      -7.128  46.214 -18.533  1.00  0.00     0.008 C 
HETATM   39  C9  UNL     1      -6.534  44.797 -18.500  1.00  0.00     0.014 C 
BRANCH  38  40
HETATM   40  C7  UNL     1      -8.395  46.134 -17.684  1.00  0.00    -0.026 C 
HETATM   41  C6  UNL     1      -9.477  46.922 -17.819  1.00  0.00    -0.026 C 
BRANCH  41  42
HETATM   42  C4  UNL     1     -10.781  46.926 -17.044  1.00  0.00     0.007 C 
HETATM   43  C5  UNL     1     -10.556  46.177 -15.723  1.00  0.00     0.014 C 
BRANCH  42  44
HETATM   44  C2  UNL     1     -12.113  46.490 -17.721  1.00  0.00    -0.015 C 
HETATM   45  C1  UNL     1     -12.086  46.385 -19.247  1.00  0.00     0.010 C 
HETATM   46  C3  UNL     1     -13.306  47.333 -17.260  1.00  0.00     0.010 C 
ENDBRANCH  42  44
ENDBRANCH  41  42
ENDBRANCH  38  40
ENDBRANCH   1  38
TORSDOF 11
ENDMDL
