MODEL 1
REMARK minimizedAffinity -10.2728157
REMARK  5 active torsions:
REMARK  status: ('A' for Active; 'I' for Inactive)
REMARK    1  A    between atoms: C5_5  and  C6_6 
REMARK    2  A    between atoms: C6_6  and  C7_8 
REMARK    3  A    between atoms: C7_8  and  O2_9 
REMARK    4  A    between atoms: O2_9  and  C8_10 
REMARK    5  A    between atoms: C14_17  and  C15_18 
ROOT
HETATM    1  C8  UNL     1      -1.884   4.872  12.841  1.00  0.00     0.093 A 
HETATM    2  C9  UNL     1      -2.398   3.723  12.241  1.00  0.00     0.076 A 
HETATM    3  C10 UNL     1      -3.779   3.507  12.228  1.00  0.00     0.093 A 
HETATM    4  C11 UNL     1      -4.681   4.406  12.793  1.00  0.00     0.011 A 
HETATM    5  C12 UNL     1      -4.166   5.557  13.395  1.00  0.00     0.042 A 
HETATM    6  C13 UNL     1      -2.784   5.787  13.417  1.00  0.00     0.068 A 
HETATM    7 CL1  UNL     1      -2.223   7.232  14.187  1.00  0.00    -0.081 Cl
HETATM    8  C14 UNL     1      -6.121   4.114  12.735  1.00  0.00    -0.007 A 
HETATM    9  C21 UNL     1      -6.508   2.976  12.136  1.00  0.00     0.095 A 
HETATM   10  C22 UNL     1      -5.569   2.013  11.543  1.00  0.00     0.289 A 
HETATM   11  O3  UNL     1      -5.977   0.982  11.019  1.00  0.00    -0.260 OA
HETATM   12  O4  UNL     1      -4.223   2.323  11.609  1.00  0.00    -0.275 OA
ENDROOT
BRANCH   1  13
HETATM   13  O2  UNL     1      -0.555   5.194  12.910  1.00  0.00    -0.342 OA
BRANCH  13  14
HETATM   14  C7  UNL     1       0.315   4.797  11.865  1.00  0.00     0.254 C 
BRANCH  14  15
HETATM   15  C6  UNL     1       1.257   5.881  11.327  1.00  0.00     0.155 C 
HETATM   16  O1  UNL     1       2.305   6.192  11.895  1.00  0.00    -0.295 OA
BRANCH  15  17
HETATM   17  C5  UNL     1       0.824   6.555  10.030  1.00  0.00     0.062 C 
HETATM   18  C4  UNL     1       1.931   6.429   8.976  1.00  0.00     0.049 C 
HETATM   19  C2  UNL     1       1.808   7.471   7.843  1.00  0.00     0.054 C 
HETATM   20  C1  UNL     1       2.048   6.788   6.487  1.00  0.00     0.045 C 
HETATM   21  C3  UNL     1       2.832   8.607   7.988  1.00  0.00     0.045 C 
HETATM   22  O5  UNL     1       0.470   7.980   7.792  1.00  0.00    -0.381 OA
HETATM   23  C24 UNL     1       0.036   8.685   8.954  1.00  0.00     0.169 C 
HETATM   24  C23 UNL     1       0.458   8.018  10.256  1.00  0.00     0.038 C 
ENDBRANCH  15  17
ENDBRANCH  14  15
ENDBRANCH  13  14
ENDBRANCH   1  13
BRANCH   8  25
HETATM   25  C15 UNL     1      -7.196   4.969  13.269  1.00  0.00    -0.025 A 
HETATM   26  C16 UNL     1      -7.199   5.332  14.622  1.00  0.00     0.012 A 
HETATM   27  C17 UNL     1      -8.219   6.139  15.129  1.00  0.00     0.001 A 
HETATM   28  C18 UNL     1      -9.238   6.588  14.289  1.00  0.00     0.000 A 
HETATM   29  C19 UNL     1      -9.239   6.231  12.940  1.00  0.00     0.001 A 
HETATM   30  C20 UNL     1      -8.222   5.424  12.430  1.00  0.00     0.012 A 
ENDBRANCH   8  25
TORSDOF 5
ENDMDL
MODEL 2
REMARK minimizedAffinity -9.846385
REMARK  5 active torsions:
REMARK  status: ('A' for Active; 'I' for Inactive)
REMARK    1  A    between atoms: C5_5  and  C6_6 
REMARK    2  A    between atoms: C6_6  and  C7_8 
REMARK    3  A    between atoms: C7_8  and  O2_9 
REMARK    4  A    between atoms: O2_9  and  C8_10 
REMARK    5  A    between atoms: C14_17  and  C15_18 
ROOT
HETATM    1  C8  UNL     1      -2.434   5.467  13.313  1.00  0.00     0.093 A 
HETATM    2  C9  UNL     1      -2.972   4.337  12.698  1.00  0.00     0.076 A 
HETATM    3  C10 UNL     1      -4.350   4.113  12.747  1.00  0.00     0.093 A 
HETATM    4  C11 UNL     1      -5.227   4.984  13.390  1.00  0.00     0.011 A 
HETATM    5  C12 UNL     1      -4.688   6.116  14.008  1.00  0.00     0.042 A 
HETATM    6  C13 UNL     1      -3.308   6.354  13.968  1.00  0.00     0.068 A 
HETATM    7 CL1  UNL     1      -2.715   7.774  14.761  1.00  0.00    -0.081 Cl
HETATM    8  C14 UNL     1      -6.666   4.685  13.394  1.00  0.00    -0.007 A 
HETATM    9  C21 UNL     1      -7.078   3.568  12.774  1.00  0.00     0.095 A 
HETATM   10  C22 UNL     1      -6.166   2.633  12.099  1.00  0.00     0.289 A 
HETATM   11  O3  UNL     1      -6.595   1.620  11.558  1.00  0.00    -0.260 OA
HETATM   12  O4  UNL     1      -4.819   2.949  12.108  1.00  0.00    -0.275 OA
ENDROOT
BRANCH   1  13
HETATM   13  O2  UNL     1      -1.104   5.795  13.326  1.00  0.00    -0.342 OA
BRANCH  13  14
HETATM   14  C7  UNL     1      -0.556   6.535  12.250  1.00  0.00     0.254 C 
BRANCH  14  15
HETATM   15  C6  UNL     1       0.128   5.712  11.149  1.00  0.00     0.155 C 
HETATM   16  O1  UNL     1      -0.363   4.681  10.690  1.00  0.00    -0.295 OA
BRANCH  15  17
HETATM   17  C5  UNL     1       1.460   6.255  10.644  1.00  0.00     0.062 C 
HETATM   18  C4  UNL     1       1.269   6.932   9.282  1.00  0.00     0.049 C 
HETATM   19  C2  UNL     1       2.584   7.060   8.481  1.00  0.00     0.054 C 
HETATM   20  C1  UNL     1       2.673   8.463   7.859  1.00  0.00     0.045 C 
HETATM   21  C3  UNL     1       2.671   6.031   7.343  1.00  0.00     0.045 C 
HETATM   22  O5  UNL     1       3.705   6.952   9.366  1.00  0.00    -0.381 OA
HETATM   23  C24 UNL     1       3.838   5.704  10.043  1.00  0.00     0.169 C 
HETATM   24  C23 UNL     1       2.513   5.155  10.558  1.00  0.00     0.038 C 
ENDBRANCH  15  17
ENDBRANCH  14  15
ENDBRANCH  13  14
ENDBRANCH   1  13
BRANCH   8  25
HETATM   25  C15 UNL     1      -7.717   5.512  14.014  1.00  0.00    -0.025 A 
HETATM   26  C16 UNL     1      -7.673   5.795  15.386  1.00  0.00     0.012 A 
HETATM   27  C17 UNL     1      -8.669   6.576  15.973  1.00  0.00     0.001 A 
HETATM   28  C18 UNL     1      -9.712   7.079  15.196  1.00  0.00     0.000 A 
HETATM   29  C19 UNL     1      -9.761   6.802  13.829  1.00  0.00     0.001 A 
HETATM   30  C20 UNL     1      -8.767   6.021  13.239  1.00  0.00     0.012 A 
ENDBRANCH   8  25
TORSDOF 5
ENDMDL
MODEL 3
REMARK minimizedAffinity -9.67171574
REMARK  5 active torsions:
REMARK  status: ('A' for Active; 'I' for Inactive)
REMARK    1  A    between atoms: C5_5  and  C6_6 
REMARK    2  A    between atoms: C6_6  and  C7_8 
REMARK    3  A    between atoms: C7_8  and  O2_9 
REMARK    4  A    between atoms: O2_9  and  C8_10 
REMARK    5  A    between atoms: C14_17  and  C15_18 
ROOT
HETATM    1  C8  UNL     1      -0.118   6.211  12.036  1.00  0.00     0.093 A 
HETATM    2  C9  UNL     1       0.215   4.941  11.565  1.00  0.00     0.076 A 
HETATM    3  C10 UNL     1      -0.765   3.948  11.501  1.00  0.00     0.093 A 
HETATM    4  C11 UNL     1      -2.084   4.172  11.889  1.00  0.00     0.011 A 
HETATM    5  C12 UNL     1      -2.418   5.444  12.363  1.00  0.00     0.042 A 
HETATM    6  C13 UNL     1      -1.446   6.450  12.434  1.00  0.00     0.068 A 
HETATM    7 CL1  UNL     1      -1.935   7.997  13.037  1.00  0.00    -0.081 Cl
HETATM    8  C14 UNL     1      -3.061   3.079  11.787  1.00  0.00    -0.007 A 
HETATM    9  C21 UNL     1      -2.634   1.894  11.323  1.00  0.00     0.095 A 
HETATM   10  C22 UNL     1      -1.244   1.637  10.917  1.00  0.00     0.289 A 
HETATM   11  O3  UNL     1      -0.905   0.531  10.510  1.00  0.00    -0.260 OA
HETATM   12  O4  UNL     1      -0.353   2.690  11.019  1.00  0.00    -0.275 OA
ENDROOT
BRANCH   1  13
HETATM   13  O2  UNL     1       0.752   7.263  12.138  1.00  0.00    -0.342 OA
BRANCH  13  14
HETATM   14  C7  UNL     1       2.125   7.065  11.850  1.00  0.00     0.254 C 
BRANCH  14  15
HETATM   15  C6  UNL     1       2.629   7.671  10.533  1.00  0.00     0.155 C 
HETATM   16  O1  UNL     1       1.871   8.158   9.694  1.00  0.00    -0.295 OA
BRANCH  15  17
HETATM   17  C5  UNL     1       4.138   7.643  10.323  1.00  0.00     0.062 C 
HETATM   18  C4  UNL     1       4.743   6.414  11.012  1.00  0.00     0.049 C 
HETATM   19  C2  UNL     1       6.257   6.556  11.281  1.00  0.00     0.054 C 
HETATM   20  C1  UNL     1       6.972   5.249  10.905  1.00  0.00     0.045 C 
HETATM   21  C3  UNL     1       6.556   6.851  12.760  1.00  0.00     0.045 C 
HETATM   22  O5  UNL     1       6.811   7.565  10.429  1.00  0.00    -0.381 OA
HETATM   23  C24 UNL     1       6.304   8.884  10.624  1.00  0.00     0.169 C 
HETATM   24  C23 UNL     1       4.795   8.924  10.829  1.00  0.00     0.038 C 
ENDBRANCH  15  17
ENDBRANCH  14  15
ENDBRANCH  13  14
ENDBRANCH   1  13
BRANCH   8  25
HETATM   25  C15 UNL     1      -4.490   3.163  12.141  1.00  0.00    -0.025 A 
HETATM   26  C16 UNL     1      -5.393   2.207  11.657  1.00  0.00     0.012 A 
HETATM   27  C17 UNL     1      -6.746   2.289  11.990  1.00  0.00     0.001 A 
HETATM   28  C18 UNL     1      -7.203   3.323  12.806  1.00  0.00     0.000 A 
HETATM   29  C19 UNL     1      -6.309   4.277  13.292  1.00  0.00     0.001 A 
HETATM   30  C20 UNL     1      -4.956   4.199  12.961  1.00  0.00     0.012 A 
ENDBRANCH   8  25
TORSDOF 5
ENDMDL
MODEL 4
REMARK minimizedAffinity -9.63776493
REMARK  5 active torsions:
REMARK  status: ('A' for Active; 'I' for Inactive)
REMARK    1  A    between atoms: C5_5  and  C6_6 
REMARK    2  A    between atoms: C6_6  and  C7_8 
REMARK    3  A    between atoms: C7_8  and  O2_9 
REMARK    4  A    between atoms: O2_9  and  C8_10 
REMARK    5  A    between atoms: C14_17  and  C15_18 
ROOT
HETATM    1  C8  UNL     1      -1.483   6.851  13.254  1.00  0.00     0.093 A 
HETATM    2  C9  UNL     1      -2.557   7.583  13.758  1.00  0.00     0.076 A 
HETATM    3  C10 UNL     1      -3.842   7.034  13.730  1.00  0.00     0.093 A 
HETATM    4  C11 UNL     1      -4.103   5.766  13.215  1.00  0.00     0.011 A 
HETATM    5  C12 UNL     1      -3.026   5.033  12.709  1.00  0.00     0.042 A 
HETATM    6  C13 UNL     1      -1.732   5.569  12.730  1.00  0.00     0.068 A 
HETATM    7 CL1  UNL     1      -0.452   4.603  12.078  1.00  0.00    -0.081 Cl
HETATM    8  C14 UNL     1      -5.480   5.254  13.225  1.00  0.00    -0.007 A 
HETATM    9  C21 UNL     1      -6.442   6.042  13.731  1.00  0.00     0.095 A 
HETATM   10  C22 UNL     1      -6.186   7.386  14.270  1.00  0.00     0.289 A 
HETATM   11  O3  UNL     1      -7.104   8.070  14.710  1.00  0.00    -0.260 OA
HETATM   12  O4  UNL     1      -4.877   7.834  14.252  1.00  0.00    -0.275 OA
ENDROOT
BRANCH   1  13
HETATM   13  O2  UNL     1      -0.182   7.279  13.233  1.00  0.00    -0.342 OA
BRANCH  13  14
HETATM   14  C7  UNL     1       0.157   8.450  12.511  1.00  0.00     0.254 C 
BRANCH  14  15
HETATM   15  C6  UNL     1      -0.341   8.512  11.061  1.00  0.00     0.155 C 
HETATM   16  O1  UNL     1      -1.320   9.179  10.724  1.00  0.00    -0.295 OA
BRANCH  15  17
HETATM   17  C5  UNL     1       0.457   7.700  10.048  1.00  0.00     0.062 C 
HETATM   18  C4  UNL     1       1.839   7.360  10.618  1.00  0.00     0.049 C 
HETATM   19  C2  UNL     1       2.870   6.994   9.527  1.00  0.00     0.054 C 
HETATM   20  C1  UNL     1       3.671   5.760   9.970  1.00  0.00     0.045 C 
HETATM   21  C3  UNL     1       3.864   8.135   9.266  1.00  0.00     0.045 C 
HETATM   22  O5  UNL     1       2.191   6.610   8.326  1.00  0.00    -0.381 OA
HETATM   23  C24 UNL     1       1.395   7.625   7.717  1.00  0.00     0.169 C 
HETATM   24  C23 UNL     1       0.588   8.439   8.720  1.00  0.00     0.038 C 
ENDBRANCH  15  17
ENDBRANCH  14  15
ENDBRANCH  13  14
ENDBRANCH   1  13
BRANCH   8  25
HETATM   25  C15 UNL     1      -5.912   3.932  12.735  1.00  0.00    -0.025 A 
HETATM   26  C16 UNL     1      -5.149   3.254  11.775  1.00  0.00     0.012 A 
HETATM   27  C17 UNL     1      -5.559   2.004  11.308  1.00  0.00     0.001 A 
HETATM   28  C18 UNL     1      -6.729   1.425  11.797  1.00  0.00     0.000 A 
HETATM   29  C19 UNL     1      -7.493   2.095  12.754  1.00  0.00     0.001 A 
HETATM   30  C20 UNL     1      -7.087   3.345  13.222  1.00  0.00     0.012 A 
ENDBRANCH   8  25
TORSDOF 5
ENDMDL
MODEL 5
REMARK minimizedAffinity -9.48628044
REMARK  5 active torsions:
REMARK  status: ('A' for Active; 'I' for Inactive)
REMARK    1  A    between atoms: C5_5  and  C6_6 
REMARK    2  A    between atoms: C6_6  and  C7_8 
REMARK    3  A    between atoms: C7_8  and  O2_9 
REMARK    4  A    between atoms: O2_9  and  C8_10 
REMARK    5  A    between atoms: C14_17  and  C15_18 
ROOT
HETATM    1  C8  UNL     1      -0.669   5.653  13.299  1.00  0.00     0.093 A 
HETATM    2  C9  UNL     1      -1.118   6.859  13.838  1.00  0.00     0.076 A 
HETATM    3  C10 UNL     1      -2.491   7.104  13.934  1.00  0.00     0.093 A 
HETATM    4  C11 UNL     1      -3.447   6.183  13.512  1.00  0.00     0.011 A 
HETATM    5  C12 UNL     1      -2.996   4.976  12.971  1.00  0.00     0.042 A 
HETATM    6  C13 UNL     1      -1.624   4.715  12.868  1.00  0.00     0.068 A 
HETATM    7 CL1  UNL     1      -1.144   3.200  12.181  1.00  0.00    -0.081 Cl
HETATM    8  C14 UNL     1      -4.873   6.510  13.650  1.00  0.00    -0.007 A 
HETATM    9  C21 UNL     1      -5.198   7.701  14.179  1.00  0.00     0.095 A 
HETATM   10  C22 UNL     1      -4.202   8.689  14.621  1.00  0.00     0.289 A 
HETATM   11  O3  UNL     1      -4.553   9.767  15.087  1.00  0.00    -0.260 OA
HETATM   12  O4  UNL     1      -2.869   8.345  14.483  1.00  0.00    -0.275 OA
ENDROOT
BRANCH   1  13
HETATM   13  O2  UNL     1       0.646   5.298  13.161  1.00  0.00    -0.342 OA
BRANCH  13  14
HETATM   14  C7  UNL     1       1.490   6.059  12.315  1.00  0.00     0.254 C 
BRANCH  14  15
HETATM   15  C6  UNL     1       1.669   5.524  10.888  1.00  0.00     0.155 C 
HETATM   16  O1  UNL     1       2.239   4.460  10.644  1.00  0.00    -0.295 OA
BRANCH  15  17
HETATM   17  C5  UNL     1       1.086   6.389   9.776  1.00  0.00     0.062 C 
HETATM   18  C4  UNL     1       2.047   6.429   8.582  1.00  0.00     0.049 C 
HETATM   19  C2  UNL     1       1.800   7.633   7.647  1.00  0.00     0.054 C 
HETATM   20  C1  UNL     1       1.853   7.168   6.184  1.00  0.00     0.045 C 
HETATM   21  C3  UNL     1       2.854   8.735   7.832  1.00  0.00     0.045 C 
HETATM   22  O5  UNL     1       0.476   8.142   7.848  1.00  0.00    -0.381 OA
HETATM   23  C24 UNL     1       0.206   8.659   9.150  1.00  0.00     0.169 C 
HETATM   24  C23 UNL     1       0.778   7.799  10.269  1.00  0.00     0.038 C 
ENDBRANCH  15  17
ENDBRANCH  14  15
ENDBRANCH  13  14
ENDBRANCH   1  13
BRANCH   8  25
HETATM   25  C15 UNL     1      -5.999   5.638  13.268  1.00  0.00    -0.025 A 
HETATM   26  C16 UNL     1      -7.305   6.146  13.243  1.00  0.00     0.012 A 
HETATM   27  C17 UNL     1      -8.371   5.319  12.884  1.00  0.00     0.001 A 
HETATM   28  C18 UNL     1      -8.140   3.986  12.548  1.00  0.00     0.000 A 
HETATM   29  C19 UNL     1      -6.841   3.475  12.570  1.00  0.00     0.001 A 
HETATM   30  C20 UNL     1      -5.773   4.298  12.929  1.00  0.00     0.012 A 
ENDBRANCH   8  25
TORSDOF 5
ENDMDL
MODEL 6
REMARK minimizedAffinity -9.4288578
REMARK  5 active torsions:
REMARK  status: ('A' for Active; 'I' for Inactive)
REMARK    1  A    between atoms: C5_5  and  C6_6 
REMARK    2  A    between atoms: C6_6  and  C7_8 
REMARK    3  A    between atoms: C7_8  and  O2_9 
REMARK    4  A    between atoms: O2_9  and  C8_10 
REMARK    5  A    between atoms: C14_17  and  C15_18 
ROOT
HETATM    1  C8  UNL     1      -0.887   6.917  12.589  1.00  0.00     0.093 A 
HETATM    2  C9  UNL     1      -0.437   5.761  11.953  1.00  0.00     0.076 A 
HETATM    3  C10 UNL     1      -1.313   4.688  11.766  1.00  0.00     0.093 A 
HETATM    4  C11 UNL     1      -2.639   4.723  12.191  1.00  0.00     0.011 A 
HETATM    5  C12 UNL     1      -3.090   5.881  12.830  1.00  0.00     0.042 A 
HETATM    6  C13 UNL     1      -2.224   6.965  13.025  1.00  0.00     0.068 A 
HETATM    7 CL1  UNL     1      -2.854   8.361  13.830  1.00  0.00    -0.081 Cl
HETATM    8  C14 UNL     1      -3.502   3.556  11.954  1.00  0.00    -0.007 A 
HETATM    9  C21 UNL     1      -2.967   2.492  11.335  1.00  0.00     0.095 A 
HETATM   10  C22 UNL     1      -1.567   2.435  10.888  1.00  0.00     0.289 A 
HETATM   11  O3  UNL     1      -1.126   1.433  10.337  1.00  0.00    -0.260 OA
HETATM   12  O4  UNL     1      -0.785   3.553  11.121  1.00  0.00    -0.275 OA
ENDROOT
BRANCH   1  13
HETATM   13  O2  UNL     1      -0.126   8.031  12.822  1.00  0.00    -0.342 OA
BRANCH  13  14
HETATM   14  C7  UNL     1       1.201   7.885  13.297  1.00  0.00     0.254 C 
BRANCH  14  15
HETATM   15  C6  UNL     1       2.232   8.864  12.720  1.00  0.00     0.155 C 
HETATM   16  O1  UNL     1       2.349  10.021  13.126  1.00  0.00    -0.295 OA
BRANCH  15  17
HETATM   17  C5  UNL     1       3.120   8.316  11.609  1.00  0.00     0.062 C 
HETATM   18  C4  UNL     1       2.264   7.614  10.548  1.00  0.00     0.049 C 
HETATM   19  C2  UNL     1       3.071   6.625   9.678  1.00  0.00     0.054 C 
HETATM   20  C1  UNL     1       2.677   6.799   8.203  1.00  0.00     0.045 C 
HETATM   21  C3  UNL     1       2.807   5.163  10.069  1.00  0.00     0.045 C 
HETATM   22  O5  UNL     1       4.466   6.939   9.751  1.00  0.00    -0.381 OA
HETATM   23  C24 UNL     1       5.058   6.818  11.043  1.00  0.00     0.169 C 
HETATM   24  C23 UNL     1       4.181   7.368  12.160  1.00  0.00     0.038 C 
ENDBRANCH  15  17
ENDBRANCH  14  15
ENDBRANCH  13  14
ENDBRANCH   1  13
BRANCH   8  25
HETATM   25  C15 UNL     1      -4.924   3.447  12.327  1.00  0.00    -0.025 A 
HETATM   26  C16 UNL     1      -5.509   4.409  13.161  1.00  0.00     0.012 A 
HETATM   27  C17 UNL     1      -6.854   4.303  13.517  1.00  0.00     0.001 A 
HETATM   28  C18 UNL     1      -7.621   3.240  13.043  1.00  0.00     0.000 A 
HETATM   29  C19 UNL     1      -7.045   2.279  12.212  1.00  0.00     0.001 A 
HETATM   30  C20 UNL     1      -5.700   2.381  11.854  1.00  0.00     0.012 A 
ENDBRANCH   8  25
TORSDOF 5
ENDMDL
MODEL 7
REMARK minimizedAffinity -9.42410278
REMARK  5 active torsions:
REMARK  status: ('A' for Active; 'I' for Inactive)
REMARK    1  A    between atoms: C5_5  and  C6_6 
REMARK    2  A    between atoms: C6_6  and  C7_8 
REMARK    3  A    between atoms: C7_8  and  O2_9 
REMARK    4  A    between atoms: O2_9  and  C8_10 
REMARK    5  A    between atoms: C14_17  and  C15_18 
ROOT
HETATM    1  C8  UNL     1      -2.157   4.772  12.738  1.00  0.00     0.093 A 
HETATM    2  C9  UNL     1      -2.792   3.687  12.134  1.00  0.00     0.076 A 
HETATM    3  C10 UNL     1      -4.173   3.526  12.276  1.00  0.00     0.093 A 
HETATM    4  C11 UNL     1      -4.958   4.417  13.004  1.00  0.00     0.011 A 
HETATM    5  C12 UNL     1      -4.322   5.504  13.611  1.00  0.00     0.042 A 
HETATM    6  C13 UNL     1      -2.938   5.678  13.477  1.00  0.00     0.068 A 
HETATM    7 CL1  UNL     1      -2.222   7.044  14.264  1.00  0.00    -0.081 Cl
HETATM    8  C14 UNL     1      -6.406   4.185  13.104  1.00  0.00    -0.007 A 
HETATM    9  C21 UNL     1      -6.916   3.108  12.486  1.00  0.00     0.095 A 
HETATM   10  C22 UNL     1      -6.100   2.152  11.722  1.00  0.00     0.289 A 
HETATM   11  O3  UNL     1      -6.615   1.177  11.187  1.00  0.00    -0.260 OA
HETATM   12  O4  UNL     1      -4.742   2.405  11.642  1.00  0.00    -0.275 OA
ENDROOT
BRANCH   1  13
HETATM   13  O2  UNL     1      -0.816   5.036  12.664  1.00  0.00    -0.342 OA
BRANCH  13  14
HETATM   14  C7  UNL     1      -0.351   6.058  11.799  1.00  0.00     0.254 C 
BRANCH  14  15
HETATM   15  C6  UNL     1       0.969   6.729  12.201  1.00  0.00     0.155 C 
HETATM   16  O1  UNL     1       1.033   7.603  13.067  1.00  0.00    -0.295 OA
BRANCH  15  17
HETATM   17  C5  UNL     1       2.213   6.242  11.467  1.00  0.00     0.062 C 
HETATM   18  C4  UNL     1       3.429   7.078  11.881  1.00  0.00     0.049 C 
HETATM   19  C2  UNL     1       4.588   7.005  10.863  1.00  0.00     0.054 C 
HETATM   20  C1  UNL     1       5.919   6.826  11.610  1.00  0.00     0.045 C 
HETATM   21  C3  UNL     1       4.691   8.279  10.011  1.00  0.00     0.045 C 
HETATM   22  O5  UNL     1       4.442   5.841  10.041  1.00  0.00    -0.381 OA
HETATM   23  C24 UNL     1       3.270   5.804   9.228  1.00  0.00     0.169 C 
HETATM   24  C23 UNL     1       2.019   6.283   9.954  1.00  0.00     0.038 C 
ENDBRANCH  15  17
ENDBRANCH  14  15
ENDBRANCH  13  14
ENDBRANCH   1  13
BRANCH   8  25
HETATM   25  C15 UNL     1      -7.369   5.042  13.820  1.00  0.00    -0.025 A 
HETATM   26  C16 UNL     1      -7.353   5.102  15.220  1.00  0.00     0.012 A 
HETATM   27  C17 UNL     1      -8.266   5.911  15.898  1.00  0.00     0.001 A 
HETATM   28  C18 UNL     1      -9.198   6.663  15.184  1.00  0.00     0.000 A 
HETATM   29  C19 UNL     1      -9.218   6.610  13.790  1.00  0.00     0.001 A 
HETATM   30  C20 UNL     1      -8.307   5.801  13.108  1.00  0.00     0.012 A 
ENDBRANCH   8  25
TORSDOF 5
ENDMDL
MODEL 8
REMARK minimizedAffinity -9.11387825
REMARK  5 active torsions:
REMARK  status: ('A' for Active; 'I' for Inactive)
REMARK    1  A    between atoms: C5_5  and  C6_6 
REMARK    2  A    between atoms: C6_6  and  C7_8 
REMARK    3  A    between atoms: C7_8  and  O2_9 
REMARK    4  A    between atoms: O2_9  and  C8_10 
REMARK    5  A    between atoms: C14_17  and  C15_18 
ROOT
HETATM    1  C8  UNL     1      -0.799   6.365  12.773  1.00  0.00     0.093 A 
HETATM    2  C9  UNL     1      -1.734   7.286  13.246  1.00  0.00     0.076 A 
HETATM    3  C10 UNL     1      -3.084   6.931  13.309  1.00  0.00     0.093 A 
HETATM    4  C11 UNL     1      -3.546   5.677  12.918  1.00  0.00     0.011 A 
HETATM    5  C12 UNL     1      -2.610   4.754  12.444  1.00  0.00     0.042 A 
HETATM    6  C13 UNL     1      -1.253   5.095  12.374  1.00  0.00     0.068 A 
HETATM    7 CL1  UNL     1      -0.155   3.901  11.768  1.00  0.00    -0.081 Cl
HETATM    8  C14 UNL     1      -4.981   5.374  13.020  1.00  0.00    -0.007 A 
HETATM    9  C21 UNL     1      -5.796   6.334  13.485  1.00  0.00     0.095 A 
HETATM   10  C22 UNL     1      -5.326   7.667  13.893  1.00  0.00     0.289 A 
HETATM   11  O3  UNL     1      -6.115   8.512  14.301  1.00  0.00    -0.260 OA
HETATM   12  O4  UNL     1      -3.968   7.915  13.792  1.00  0.00    -0.275 OA
ENDROOT
BRANCH   1  13
HETATM   13  O2  UNL     1       0.547   6.595  12.671  1.00  0.00    -0.342 OA
BRANCH  13  14
HETATM   14  C7  UNL     1       1.128   7.672  13.386  1.00  0.00     0.254 C 
BRANCH  14  15
HETATM   15  C6  UNL     1       2.661   7.703  13.424  1.00  0.00     0.155 C 
HETATM   16  O1  UNL     1       3.294   8.047  14.423  1.00  0.00    -0.295 OA
BRANCH  15  17
HETATM   17  C5  UNL     1       3.367   7.270  12.144  1.00  0.00     0.062 C 
HETATM   18  C4  UNL     1       4.884   7.242  12.363  1.00  0.00     0.049 C 
HETATM   19  C2  UNL     1       5.687   7.308  11.045  1.00  0.00     0.054 C 
HETATM   20  C1  UNL     1       6.835   6.288  11.091  1.00  0.00     0.045 C 
HETATM   21  C3  UNL     1       6.298   8.698  10.808  1.00  0.00     0.045 C 
HETATM   22  O5  UNL     1       4.855   6.912   9.948  1.00  0.00    -0.381 OA
HETATM   23  C24 UNL     1       3.724   7.746   9.702  1.00  0.00     0.169 C 
HETATM   24  C23 UNL     1       3.007   8.179  10.974  1.00  0.00     0.038 C 
ENDBRANCH  15  17
ENDBRANCH  14  15
ENDBRANCH  13  14
ENDBRANCH   1  13
BRANCH   8  25
HETATM   25  C15 UNL     1      -5.620   4.094  12.664  1.00  0.00    -0.025 A 
HETATM   26  C16 UNL     1      -5.060   3.282  11.668  1.00  0.00     0.012 A 
HETATM   27  C17 UNL     1      -5.666   2.071  11.329  1.00  0.00     0.001 A 
HETATM   28  C18 UNL     1      -6.830   1.665  11.980  1.00  0.00     0.000 A 
HETATM   29  C19 UNL     1      -7.391   2.469  12.973  1.00  0.00     0.001 A 
HETATM   30  C20 UNL     1      -6.789   3.680  13.314  1.00  0.00     0.012 A 
ENDBRANCH   8  25
TORSDOF 5
ENDMDL
MODEL 9
REMARK minimizedAffinity -9.0586853
REMARK  5 active torsions:
REMARK  status: ('A' for Active; 'I' for Inactive)
REMARK    1  A    between atoms: C5_5  and  C6_6 
REMARK    2  A    between atoms: C6_6  and  C7_8 
REMARK    3  A    between atoms: C7_8  and  O2_9 
REMARK    4  A    between atoms: O2_9  and  C8_10 
REMARK    5  A    between atoms: C14_17  and  C15_18 
ROOT
HETATM    1  C8  UNL     1      -0.681   6.359  14.129  1.00  0.00     0.093 A 
HETATM    2  C9  UNL     1      -0.421   5.492  13.068  1.00  0.00     0.076 A 
HETATM    3  C10 UNL     1      -1.466   4.754  12.505  1.00  0.00     0.093 A 
HETATM    4  C11 UNL     1      -2.779   4.849  12.962  1.00  0.00     0.011 A 
HETATM    5  C12 UNL     1      -3.039   5.717  14.026  1.00  0.00     0.042 A 
HETATM    6  C13 UNL     1      -2.002   6.463  14.601  1.00  0.00     0.068 A 
HETATM    7 CL1  UNL     1      -2.403   7.511  15.920  1.00  0.00    -0.081 Cl
HETATM    8  C14 UNL     1      -3.826   4.045  12.315  1.00  0.00    -0.007 A 
HETATM    9  C21 UNL     1      -3.467   3.240  11.303  1.00  0.00     0.095 A 
HETATM   10  C22 UNL     1      -2.085   3.120  10.815  1.00  0.00     0.289 A 
HETATM   11  O3  UNL     1      -1.810   2.360   9.894  1.00  0.00    -0.260 OA
HETATM   12  O4  UNL     1      -1.126   3.897  11.441  1.00  0.00    -0.275 OA
ENDROOT
BRANCH   1  13
HETATM   13  O2  UNL     1       0.257   7.136  14.755  1.00  0.00    -0.342 OA
BRANCH  13  14
HETATM   14  C7  UNL     1       1.605   7.087  14.324  1.00  0.00     0.254 C 
BRANCH  14  15
HETATM   15  C6  UNL     1       1.956   7.964  13.115  1.00  0.00     0.155 C 
HETATM   16  O1  UNL     1       1.662   9.159  13.054  1.00  0.00    -0.295 OA
BRANCH  15  17
HETATM   17  C5  UNL     1       2.704   7.268  11.984  1.00  0.00     0.062 C 
HETATM   18  C4  UNL     1       4.217   7.414  12.185  1.00  0.00     0.049 C 
HETATM   19  C2  UNL     1       5.024   7.195  10.886  1.00  0.00     0.054 C 
HETATM   20  C1  UNL     1       6.246   6.312  11.182  1.00  0.00     0.045 C 
HETATM   21  C3  UNL     1       5.529   8.519  10.290  1.00  0.00     0.045 C 
HETATM   22  O5  UNL     1       4.234   6.467   9.939  1.00  0.00    -0.381 OA
HETATM   23  C24 UNL     1       3.045   7.119   9.497  1.00  0.00     0.169 C 
HETATM   24  C23 UNL     1       2.286   7.812  10.621  1.00  0.00     0.038 C 
ENDBRANCH  15  17
ENDBRANCH  14  15
ENDBRANCH  13  14
ENDBRANCH   1  13
BRANCH   8  25
HETATM   25  C15 UNL     1      -5.257   4.048  12.670  1.00  0.00    -0.025 A 
HETATM   26  C16 UNL     1      -6.048   2.920  12.413  1.00  0.00     0.012 A 
HETATM   27  C17 UNL     1      -7.403   2.923  12.746  1.00  0.00     0.001 A 
HETATM   28  C18 UNL     1      -7.975   4.049  13.337  1.00  0.00     0.000 A 
HETATM   29  C19 UNL     1      -7.193   5.175  13.596  1.00  0.00     0.001 A 
HETATM   30  C20 UNL     1      -5.837   5.176  13.264  1.00  0.00     0.012 A 
ENDBRANCH   8  25
TORSDOF 5
ENDMDL
