MODEL 1
REMARK minimizedAffinity -8.22215652
REMARK CNNscore 0.437091142
REMARK CNNaffinity 6.99067116
REMARK  8 active torsions:
REMARK  status: ('A' for Active; 'I' for Inactive)
REMARK    1  A    between atoms: C4_4  and  C5_5 
REMARK    2  A    between atoms: C5_5  and  C6_6 
REMARK    3  A    between atoms: C6_6  and  C7_7 
REMARK    4  A    between atoms: C7_7  and  C9_9 
REMARK    5  A    between atoms: C21_21  and  C22_22 
REMARK    6  A    between atoms: C22_22  and  C23_23 
REMARK    7  A    between atoms: C23_23  and  C24_24 
REMARK    8  A    between atoms: C24_24  and  O1_25 
ROOT
HETATM    1  C9  UNL     1       1.759   6.972  13.625  1.00  0.00    -0.002 C 
HETATM    2  C10 UNL     1       1.792   7.500  15.084  1.00  0.00     0.006 C 
HETATM    3  C11 UNL     1       0.388   7.248  15.685  1.00  0.00     0.011 C 
HETATM    4  C12 UNL     1      -0.550   7.303  14.464  1.00  0.00    -0.032 C 
HETATM    5  C13 UNL     1      -0.717   8.815  14.146  1.00  0.00     0.016 C 
HETATM    6  C14 UNL     1      -1.949   6.633  14.616  1.00  0.00     0.003 C 
HETATM    7  C15 UNL     1      -2.811   7.160  15.777  1.00  0.00     0.010 C 
HETATM    8  C16 UNL     1      -4.035   6.266  15.967  1.00  0.00     0.035 C 
HETATM    9  C17 UNL     1      -4.881   6.130  14.691  1.00  0.00    -0.073 C 
HETATM   10  C18 UNL     1      -6.194   6.488  14.711  1.00  0.00    -0.085 C 
HETATM   11  C19 UNL     1      -6.815   7.208  15.897  1.00  0.00     0.043 C 
HETATM   12  C20 UNL     1      -7.228   6.269  13.641  1.00  0.00     0.043 C 
HETATM   13  C21 UNL     1      -3.999   5.531  13.553  1.00  0.00     0.023 C 
HETATM   14  C25 UNL     1      -2.774   6.522  13.250  1.00  0.00    -0.032 C 
HETATM   15  C26 UNL     1      -3.341   7.891  12.780  1.00  0.00     0.016 C 
HETATM   16  C27 UNL     1      -1.842   5.970  12.110  1.00  0.00     0.011 C 
HETATM   17  C28 UNL     1      -0.397   6.538  12.058  1.00  0.00     0.011 C 
HETATM   18  C29 UNL     1       0.288   6.468  13.427  1.00  0.00    -0.032 C 
HETATM   19  C30 UNL     1       0.389   4.926  13.781  1.00  0.00     0.016 C 
ENDROOT
BRANCH   1  20
HETATM   20  C7  UNL     1       2.488   7.776  12.510  1.00  0.00    -0.014 C 
HETATM   21  C8  UNL     1       1.923   9.205  12.437  1.00  0.00     0.010 C 
BRANCH  20  22
HETATM   22  C6  UNL     1       2.644   7.173  11.098  1.00  0.00     0.008 C 
BRANCH  22  23
HETATM   23  C5  UNL     1       3.393   8.007  10.051  1.00  0.00     0.028 C 
BRANCH  23  24
HETATM   24  C4  UNL     1       3.088   7.518   8.659  1.00  0.00    -0.025 C 
HETATM   25  C2  UNL     1       1.933   7.636   7.973  1.00  0.00    -0.091 C 
HETATM   26  C1  UNL     1       1.797   7.045   6.595  1.00  0.00     0.042 C 
HETATM   27  C3  UNL     1       0.700   8.341   8.466  1.00  0.00     0.042 C 
ENDBRANCH  23  24
ENDBRANCH  22  23
ENDBRANCH  20  22
ENDBRANCH   1  20
BRANCH  13  28
HETATM   28  C22 UNL     1      -4.647   4.827  12.327  1.00  0.00     0.012 C 
BRANCH  28  29
HETATM   29  C23 UNL     1      -4.635   3.301  12.222  1.00  0.00     0.027 C 
BRANCH  29  30
HETATM   30  C24 UNL     1      -5.730   2.805  11.281  1.00  0.00     0.164 C 
BRANCH  30  31
HETATM   31  O1  UNL     1      -5.446   1.476  10.863  1.00  0.00    -0.401 OA
HETATM   32  H42 UNL     1      -4.563   1.479  10.454  1.00  0.00     0.209 HD
ENDBRANCH  30  31
ENDBRANCH  29  30
ENDBRANCH  28  29
ENDBRANCH  13  28
TORSDOF 8
ENDMDL
MODEL 2
REMARK minimizedAffinity -8.24092007
REMARK CNNscore 0.429633141
REMARK CNNaffinity 7.38400221
REMARK  8 active torsions:
REMARK  status: ('A' for Active; 'I' for Inactive)
REMARK    1  A    between atoms: C4_4  and  C5_5 
REMARK    2  A    between atoms: C5_5  and  C6_6 
REMARK    3  A    between atoms: C6_6  and  C7_7 
REMARK    4  A    between atoms: C7_7  and  C9_9 
REMARK    5  A    between atoms: C21_21  and  C22_22 
REMARK    6  A    between atoms: C22_22  and  C23_23 
REMARK    7  A    between atoms: C23_23  and  C24_24 
REMARK    8  A    between atoms: C24_24  and  O1_25 
ROOT
HETATM    1  C9  UNL     1      -0.425   7.331  14.429  1.00  0.00    -0.002 C 
HETATM    2  C10 UNL     1      -0.547   8.163  15.733  1.00  0.00     0.006 C 
HETATM    3  C11 UNL     1      -2.013   8.033  16.213  1.00  0.00     0.011 C 
HETATM    4  C12 UNL     1      -2.808   7.812  14.911  1.00  0.00    -0.032 C 
HETATM    5  C13 UNL     1      -2.917   9.216  14.257  1.00  0.00     0.016 C 
HETATM    6  C14 UNL     1      -4.224   7.175  15.047  1.00  0.00     0.003 C 
HETATM    7  C15 UNL     1      -5.202   7.932  15.962  1.00  0.00     0.010 C 
HETATM    8  C16 UNL     1      -6.453   7.088  16.203  1.00  0.00     0.035 C 
HETATM    9  C17 UNL     1      -7.152   6.669  14.900  1.00  0.00    -0.073 C 
HETATM   10  C18 UNL     1      -8.455   7.008  14.695  1.00  0.00    -0.085 C 
HETATM   11  C19 UNL     1      -9.194   7.963  15.619  1.00  0.00     0.043 C 
HETATM   12  C20 UNL     1      -9.365   6.552  13.588  1.00  0.00     0.043 C 
HETATM   13  C21 UNL     1      -6.157   5.847  14.025  1.00  0.00     0.023 C 
HETATM   14  C25 UNL     1      -4.893   6.761  13.654  1.00  0.00    -0.032 C 
HETATM   15  C26 UNL     1      -5.385   7.990  12.838  1.00  0.00     0.016 C 
HETATM   16  C27 UNL     1      -3.847   5.986  12.772  1.00  0.00     0.011 C 
HETATM   17  C28 UNL     1      -2.398   6.544  12.761  1.00  0.00     0.011 C 
HETATM   18  C29 UNL     1      -1.871   6.780  14.181  1.00  0.00    -0.032 C 
HETATM   19  C30 UNL     1      -1.832   5.353  14.869  1.00  0.00     0.016 C 
ENDROOT
BRANCH   1  20
HETATM   20  C7  UNL     1       0.436   7.882  13.255  1.00  0.00    -0.014 C 
HETATM   21  C8  UNL     1      -0.395   8.862  12.409  1.00  0.00     0.010 C 
BRANCH  20  22
HETATM   22  C6  UNL     1       1.227   6.911  12.353  1.00  0.00     0.008 C 
BRANCH  22  23
HETATM   23  C5  UNL     1       0.574   6.475  11.036  1.00  0.00     0.028 C 
BRANCH  23  24
HETATM   24  C4  UNL     1       1.447   6.833   9.861  1.00  0.00    -0.025 C 
HETATM   25  C2  UNL     1       1.177   7.693   8.859  1.00  0.00    -0.091 C 
HETATM   26  C1  UNL     1       2.162   7.896   7.738  1.00  0.00     0.042 C 
HETATM   27  C3  UNL     1      -0.071   8.522   8.740  1.00  0.00     0.042 C 
ENDBRANCH  23  24
ENDBRANCH  22  23
ENDBRANCH  20  22
ENDBRANCH   1  20
BRANCH  13  28
HETATM   28  C22 UNL     1      -6.674   4.887  12.916  1.00  0.00     0.012 C 
BRANCH  28  29
HETATM   29  C23 UNL     1      -6.313   3.401  12.957  1.00  0.00     0.027 C 
BRANCH  29  30
HETATM   30  C24 UNL     1      -7.546   2.528  12.736  1.00  0.00     0.164 C 
BRANCH  30  31
HETATM   31  O1  UNL     1      -8.715   3.227  13.145  1.00  0.00    -0.401 OA
HETATM   32  H42 UNL     1      -8.591   3.487  14.074  1.00  0.00     0.209 HD
ENDBRANCH  30  31
ENDBRANCH  29  30
ENDBRANCH  28  29
ENDBRANCH  13  28
TORSDOF 8
ENDMDL
MODEL 3
REMARK minimizedAffinity -6.40788031
REMARK CNNscore 0.355406642
REMARK CNNaffinity 5.34283066
REMARK  8 active torsions:
REMARK  status: ('A' for Active; 'I' for Inactive)
REMARK    1  A    between atoms: C4_4  and  C5_5 
REMARK    2  A    between atoms: C5_5  and  C6_6 
REMARK    3  A    between atoms: C6_6  and  C7_7 
REMARK    4  A    between atoms: C7_7  and  C9_9 
REMARK    5  A    between atoms: C21_21  and  C22_22 
REMARK    6  A    between atoms: C22_22  and  C23_23 
REMARK    7  A    between atoms: C23_23  and  C24_24 
REMARK    8  A    between atoms: C24_24  and  O1_25 
ROOT
HETATM    1  C9  UNL     1       5.008   8.362  11.937  1.00  0.00    -0.002 C 
HETATM    2  C10 UNL     1       3.788   9.006  12.647  1.00  0.00     0.006 C 
HETATM    3  C11 UNL     1       4.347   9.890  13.788  1.00  0.00     0.011 C 
HETATM    4  C12 UNL     1       5.669   9.198  14.174  1.00  0.00    -0.032 C 
HETATM    5  C13 UNL     1       5.252   7.973  15.032  1.00  0.00     0.016 C 
HETATM    6  C14 UNL     1       6.717  10.056  14.945  1.00  0.00     0.003 C 
HETATM    7  C15 UNL     1       6.220  10.680  16.261  1.00  0.00     0.010 C 
HETATM    8  C16 UNL     1       7.247  11.683  16.786  1.00  0.00     0.035 C 
HETATM    9  C17 UNL     1       8.641  11.066  16.978  1.00  0.00    -0.073 C 
HETATM   10  C18 UNL     1       9.233  11.107  18.203  1.00  0.00    -0.085 C 
HETATM   11  C19 UNL     1       8.485  11.565  19.445  1.00  0.00     0.043 C 
HETATM   12  C20 UNL     1      10.644  10.729  18.561  1.00  0.00     0.043 C 
HETATM   13  C21 UNL     1       9.146  10.503  15.614  1.00  0.00     0.023 C 
HETATM   14  C25 UNL     1       8.146   9.356  15.108  1.00  0.00    -0.032 C 
HETATM   15  C26 UNL     1       8.133   8.205  16.153  1.00  0.00     0.016 C 
HETATM   16  C27 UNL     1       8.600   8.749  13.730  1.00  0.00     0.011 C 
HETATM   17  C28 UNL     1       7.509   8.021  12.898  1.00  0.00     0.011 C 
HETATM   18  C29 UNL     1       6.247   8.878  12.746  1.00  0.00    -0.032 C 
HETATM   19  C30 UNL     1       6.694  10.164  11.935  1.00  0.00     0.016 C 
ENDROOT
BRANCH   1  20
HETATM   20  C7  UNL     1       4.918   6.882  11.465  1.00  0.00    -0.014 C 
HETATM   21  C8  UNL     1       6.330   6.311  11.253  1.00  0.00     0.010 C 
BRANCH  20  22
HETATM   22  C6  UNL     1       3.988   6.498  10.294  1.00  0.00     0.008 C 
BRANCH  22  23
HETATM   23  C5  UNL     1       3.666   7.584   9.260  1.00  0.00     0.028 C 
BRANCH  23  24
HETATM   24  C4  UNL     1       2.202   7.940   9.296  1.00  0.00    -0.025 C 
HETATM   25  C2  UNL     1       1.313   7.896   8.284  1.00  0.00    -0.091 C 
HETATM   26  C1  UNL     1      -0.112   8.333   8.498  1.00  0.00     0.042 C 
HETATM   27  C3  UNL     1       1.610   7.425   6.888  1.00  0.00     0.042 C 
ENDBRANCH  23  24
ENDBRANCH  22  23
ENDBRANCH  20  22
ENDBRANCH   1  20
BRANCH  13  28
HETATM   28  C22 UNL     1      10.662  10.270  15.358  1.00  0.00     0.012 C 
BRANCH  28  29
HETATM   29  C23 UNL     1      11.431  11.190  14.408  1.00  0.00     0.027 C 
BRANCH  29  30
HETATM   30  C24 UNL     1      12.602  10.457  13.759  1.00  0.00     0.164 C 
BRANCH  30  31
HETATM   31  O1  UNL     1      12.524  10.575  12.344  1.00  0.00    -0.401 OA
HETATM   32  H42 UNL     1      11.658  10.231  12.068  1.00  0.00     0.209 HD
ENDBRANCH  30  31
ENDBRANCH  29  30
ENDBRANCH  28  29
ENDBRANCH  13  28
TORSDOF 8
ENDMDL
MODEL 4
REMARK minimizedAffinity -6.20396996
REMARK CNNscore 0.348234475
REMARK CNNaffinity 6.83051682
REMARK  8 active torsions:
REMARK  status: ('A' for Active; 'I' for Inactive)
REMARK    1  A    between atoms: C4_4  and  C5_5 
REMARK    2  A    between atoms: C5_5  and  C6_6 
REMARK    3  A    between atoms: C6_6  and  C7_7 
REMARK    4  A    between atoms: C7_7  and  C9_9 
REMARK    5  A    between atoms: C21_21  and  C22_22 
REMARK    6  A    between atoms: C22_22  and  C23_23 
REMARK    7  A    between atoms: C23_23  and  C24_24 
REMARK    8  A    between atoms: C24_24  and  O1_25 
ROOT
HETATM    1  C9  UNL     1     -11.793   8.168  14.459  1.00  0.00    -0.002 C 
HETATM    2  C10 UNL     1     -11.421   9.593  14.946  1.00  0.00     0.006 C 
HETATM    3  C11 UNL     1      -9.881   9.715  14.849  1.00  0.00     0.011 C 
HETATM    4  C12 UNL     1      -9.386   8.268  15.041  1.00  0.00    -0.032 C 
HETATM    5  C13 UNL     1      -9.487   8.003  16.568  1.00  0.00     0.016 C 
HETATM    6  C14 UNL     1      -7.948   7.940  14.538  1.00  0.00     0.003 C 
HETATM    7  C15 UNL     1      -6.825   8.806  15.137  1.00  0.00     0.010 C 
HETATM    8  C16 UNL     1      -5.516   8.555  14.390  1.00  0.00     0.035 C 
HETATM    9  C17 UNL     1      -5.105   7.074  14.383  1.00  0.00    -0.073 C 
HETATM   10  C18 UNL     1      -3.897   6.708  14.893  1.00  0.00    -0.085 C 
HETATM   11  C19 UNL     1      -3.014   7.682  15.655  1.00  0.00     0.043 C 
HETATM   12  C20 UNL     1      -3.235   5.359  14.822  1.00  0.00     0.043 C 
HETATM   13  C21 UNL     1      -6.232   6.232  13.710  1.00  0.00     0.023 C 
HETATM   14  C25 UNL     1      -7.587   6.382  14.555  1.00  0.00    -0.032 C 
HETATM   15  C26 UNL     1      -7.343   5.840  15.992  1.00  0.00     0.016 C 
HETATM   16  C27 UNL     1      -8.766   5.556  13.923  1.00  0.00     0.011 C 
HETATM   17  C28 UNL     1     -10.206   5.987  14.317  1.00  0.00     0.011 C 
HETATM   18  C29 UNL     1     -10.414   7.495  14.136  1.00  0.00    -0.032 C 
HETATM   19  C30 UNL     1     -10.236   7.772  12.586  1.00  0.00     0.016 C 
ENDROOT
BRANCH   1  20
HETATM   20  C7  UNL     1     -12.916   7.382  15.195  1.00  0.00    -0.014 C 
HETATM   21  C8  UNL     1     -13.379   6.195  14.334  1.00  0.00     0.010 C 
BRANCH  20  22
HETATM   22  C6  UNL     1     -14.125   8.135  15.790  1.00  0.00     0.008 C 
BRANCH  22  23
HETATM   23  C5  UNL     1     -14.724   9.279  14.963  1.00  0.00     0.028 C 
BRANCH  23  24
HETATM   24  C4  UNL     1     -15.271   8.766  13.656  1.00  0.00    -0.025 C 
HETATM   25  C2  UNL     1     -16.394   9.152  13.018  1.00  0.00    -0.091 C 
HETATM   26  C1  UNL     1     -16.807   8.493  11.729  1.00  0.00     0.042 C 
HETATM   27  C3  UNL     1     -17.325  10.238  13.481  1.00  0.00     0.042 C 
ENDBRANCH  23  24
ENDBRANCH  22  23
ENDBRANCH  20  22
ENDBRANCH   1  20
BRANCH  13  28
HETATM   28  C22 UNL     1      -5.932   4.827  13.115  1.00  0.00     0.012 C 
BRANCH  28  29
HETATM   29  C23 UNL     1      -6.967   4.129  12.231  1.00  0.00     0.027 C 
BRANCH  29  30
HETATM   30  C24 UNL     1      -6.965   2.620  12.466  1.00  0.00     0.164 C 
BRANCH  30  31
HETATM   31  O1  UNL     1      -8.298   2.147  12.597  1.00  0.00    -0.401 OA
HETATM   32  H42 UNL     1      -8.717   2.645  13.319  1.00  0.00     0.209 HD
ENDBRANCH  30  31
ENDBRANCH  29  30
ENDBRANCH  28  29
ENDBRANCH  13  28
TORSDOF 8
ENDMDL
MODEL 5
REMARK minimizedAffinity -5.79040384
REMARK CNNscore 0.345718414
REMARK CNNaffinity 5.69608307
REMARK  8 active torsions:
REMARK  status: ('A' for Active; 'I' for Inactive)
REMARK    1  A    between atoms: C4_4  and  C5_5 
REMARK    2  A    between atoms: C5_5  and  C6_6 
REMARK    3  A    between atoms: C6_6  and  C7_7 
REMARK    4  A    between atoms: C7_7  and  C9_9 
REMARK    5  A    between atoms: C21_21  and  C22_22 
REMARK    6  A    between atoms: C22_22  and  C23_23 
REMARK    7  A    between atoms: C23_23  and  C24_24 
REMARK    8  A    between atoms: C24_24  and  O1_25 
ROOT
HETATM    1  C9  UNL     1     -10.072  -7.553  -5.941  1.00  0.00    -0.002 C 
HETATM    2  C10 UNL     1      -8.554  -7.718  -6.215  1.00  0.00     0.006 C 
HETATM    3  C11 UNL     1      -7.942  -8.390  -4.962  1.00  0.00     0.011 C 
HETATM    4  C12 UNL     1      -8.860  -7.930  -3.812  1.00  0.00    -0.032 C 
HETATM    5  C13 UNL     1      -8.429  -6.469  -3.508  1.00  0.00     0.016 C 
HETATM    6  C14 UNL     1      -8.834  -8.777  -2.505  1.00  0.00     0.003 C 
HETATM    7  C15 UNL     1      -7.452  -8.930  -1.845  1.00  0.00     0.010 C 
HETATM    8  C16 UNL     1      -7.518  -9.969  -0.727  1.00  0.00     0.035 C 
HETATM    9  C17 UNL     1      -8.584  -9.643   0.331  1.00  0.00    -0.073 C 
HETATM   10  C18 UNL     1      -8.219  -9.507   1.635  1.00  0.00    -0.085 C 
HETATM   11  C19 UNL     1      -6.761  -9.467   2.065  1.00  0.00     0.043 C 
HETATM   12  C20 UNL     1      -9.115  -9.368   2.836  1.00  0.00     0.043 C 
HETATM   13  C21 UNL     1      -9.981  -9.561  -0.357  1.00  0.00     0.023 C 
HETATM   14  C25 UNL     1      -9.970  -8.386  -1.448  1.00  0.00    -0.032 C 
HETATM   15  C26 UNL     1      -9.682  -7.037  -0.731  1.00  0.00     0.016 C 
HETATM   16  C27 UNL     1     -11.355  -8.254  -2.182  1.00  0.00     0.011 C 
HETATM   17  C28 UNL     1     -11.346  -7.537  -3.559  1.00  0.00     0.011 C 
HETATM   18  C29 UNL     1     -10.269  -8.109  -4.489  1.00  0.00    -0.032 C 
HETATM   19  C30 UNL     1     -10.672  -9.621  -4.737  1.00  0.00     0.016 C 
ENDROOT
BRANCH   1  20
HETATM   20  C7  UNL     1     -10.791  -6.254  -6.407  1.00  0.00    -0.014 C 
HETATM   21  C8  UNL     1     -11.693  -6.556  -7.616  1.00  0.00     0.010 C 
BRANCH  20  22
HETATM   22  C6  UNL     1      -9.981  -4.960  -6.635  1.00  0.00     0.008 C 
BRANCH  22  23
HETATM   23  C5  UNL     1      -9.984  -3.914  -5.514  1.00  0.00     0.028 C 
BRANCH  23  24
HETATM   24  C4  UNL     1      -9.043  -2.782  -5.833  1.00  0.00    -0.025 C 
HETATM   25  C2  UNL     1      -9.214  -1.468  -5.588  1.00  0.00    -0.091 C 
HETATM   26  C1  UNL     1      -8.173  -0.468  -6.019  1.00  0.00     0.042 C 
HETATM   27  C3  UNL     1     -10.397  -0.863  -4.885  1.00  0.00     0.042 C 
ENDBRANCH  23  24
ENDBRANCH  22  23
ENDBRANCH  20  22
ENDBRANCH   1  20
BRANCH  13  28
HETATM   28  C22 UNL     1     -11.288  -9.735   0.468  1.00  0.00     0.012 C 
BRANCH  28  29
HETATM   29  C23 UNL     1     -11.838  -8.569   1.292  1.00  0.00     0.027 C 
BRANCH  29  30
HETATM   30  C24 UNL     1     -13.196  -8.112   0.763  1.00  0.00     0.164 C 
BRANCH  30  31
HETATM   31  O1  UNL     1     -13.414  -6.748   1.097  1.00  0.00    -0.401 OA
HETATM   32  H42 UNL     1     -13.333  -6.666   2.063  1.00  0.00     0.209 HD
ENDBRANCH  30  31
ENDBRANCH  29  30
ENDBRANCH  28  29
ENDBRANCH  13  28
TORSDOF 8
ENDMDL
MODEL 6
REMARK minimizedAffinity -6.93757486
REMARK CNNscore 0.345046192
REMARK CNNaffinity 6.3686595
REMARK  8 active torsions:
REMARK  status: ('A' for Active; 'I' for Inactive)
REMARK    1  A    between atoms: C4_4  and  C5_5 
REMARK    2  A    between atoms: C5_5  and  C6_6 
REMARK    3  A    between atoms: C6_6  and  C7_7 
REMARK    4  A    between atoms: C7_7  and  C9_9 
REMARK    5  A    between atoms: C21_21  and  C22_22 
REMARK    6  A    between atoms: C22_22  and  C23_23 
REMARK    7  A    between atoms: C23_23  and  C24_24 
REMARK    8  A    between atoms: C24_24  and  O1_25 
ROOT
HETATM    1  C9  UNL     1      -0.733   6.813  12.507  1.00  0.00    -0.002 C 
HETATM    2  C10 UNL     1      -2.023   6.062  12.930  1.00  0.00     0.006 C 
HETATM    3  C11 UNL     1      -2.848   7.040  13.802  1.00  0.00     0.011 C 
HETATM    4  C12 UNL     1      -1.781   7.946  14.447  1.00  0.00    -0.032 C 
HETATM    5  C13 UNL     1      -1.165   7.099  15.593  1.00  0.00     0.016 C 
HETATM    6  C14 UNL     1      -2.263   9.321  15.000  1.00  0.00     0.003 C 
HETATM    7  C15 UNL     1      -3.385   9.254  16.050  1.00  0.00     0.010 C 
HETATM    8  C16 UNL     1      -3.929  10.655  16.326  1.00  0.00     0.035 C 
HETATM    9  C17 UNL     1      -2.839  11.644  16.768  1.00  0.00    -0.073 C 
HETATM   10  C18 UNL     1      -2.957  12.286  17.963  1.00  0.00    -0.085 C 
HETATM   11  C19 UNL     1      -4.028  11.915  18.976  1.00  0.00     0.043 C 
HETATM   12  C20 UNL     1      -2.109  13.408  18.496  1.00  0.00     0.043 C 
HETATM   13  C21 UNL     1      -1.752  11.741  15.654  1.00  0.00     0.023 C 
HETATM   14  C25 UNL     1      -1.078  10.302  15.440  1.00  0.00    -0.032 C 
HETATM   15  C26 UNL     1      -0.399   9.863  16.768  1.00  0.00     0.016 C 
HETATM   16  C27 UNL     1       0.028  10.334  14.323  1.00  0.00     0.011 C 
HETATM   17  C28 UNL     1       0.397   8.973  13.671  1.00  0.00     0.011 C 
HETATM   18  C29 UNL     1      -0.850   8.211  13.206  1.00  0.00    -0.032 C 
HETATM   19  C30 UNL     1      -1.516   9.116  12.088  1.00  0.00     0.016 C 
ENDROOT
BRANCH   1  20
HETATM   20  C7  UNL     1       0.619   6.043  12.474  1.00  0.00    -0.014 C 
HETATM   21  C8  UNL     1       1.628   6.712  13.423  1.00  0.00     0.010 C 
BRANCH  20  22
HETATM   22  C6  UNL     1       1.280   5.697  11.123  1.00  0.00     0.008 C 
BRANCH  22  23
HETATM   23  C5  UNL     1       1.943   6.841  10.345  1.00  0.00     0.028 C 
BRANCH  23  24
HETATM   24  C4  UNL     1       1.696   6.696   8.865  1.00  0.00    -0.025 C 
HETATM   25  C2  UNL     1       2.186   7.455   7.865  1.00  0.00    -0.091 C 
HETATM   26  C1  UNL     1       1.795   7.184   6.436  1.00  0.00     0.042 C 
HETATM   27  C3  UNL     1       3.140   8.605   8.036  1.00  0.00     0.042 C 
ENDBRANCH  23  24
ENDBRANCH  22  23
ENDBRANCH  20  22
ENDBRANCH   1  20
BRANCH  13  28
HETATM   28  C22 UNL     1      -0.809  12.975  15.566  1.00  0.00     0.012 C 
BRANCH  28  29
HETATM   29  C23 UNL     1      -1.347  14.320  15.074  1.00  0.00     0.027 C 
BRANCH  29  30
HETATM   30  C24 UNL     1      -1.362  14.383  13.549  1.00  0.00     0.164 C 
BRANCH  30  31
HETATM   31  O1  UNL     1      -2.681  14.646  13.087  1.00  0.00    -0.401 OA
HETATM   32  H42 UNL     1      -3.262  13.955  13.447  1.00  0.00     0.209 HD
ENDBRANCH  30  31
ENDBRANCH  29  30
ENDBRANCH  28  29
ENDBRANCH  13  28
TORSDOF 8
ENDMDL
MODEL 7
REMARK minimizedAffinity -6.36953831
REMARK CNNscore 0.329565912
REMARK CNNaffinity 6.21616983
REMARK  8 active torsions:
REMARK  status: ('A' for Active; 'I' for Inactive)
REMARK    1  A    between atoms: C4_4  and  C5_5 
REMARK    2  A    between atoms: C5_5  and  C6_6 
REMARK    3  A    between atoms: C6_6  and  C7_7 
REMARK    4  A    between atoms: C7_7  and  C9_9 
REMARK    5  A    between atoms: C21_21  and  C22_22 
REMARK    6  A    between atoms: C22_22  and  C23_23 
REMARK    7  A    between atoms: C23_23  and  C24_24 
REMARK    8  A    between atoms: C24_24  and  O1_25 
ROOT
HETATM    1  C9  UNL     1       0.148   7.141  13.419  1.00  0.00    -0.002 C 
HETATM    2  C10 UNL     1       1.533   6.968  14.097  1.00  0.00     0.006 C 
HETATM    3  C11 UNL     1       1.488   7.768  15.422  1.00  0.00     0.011 C 
HETATM    4  C12 UNL     1       0.482   8.900  15.133  1.00  0.00    -0.032 C 
HETATM    5  C13 UNL     1       1.267   9.934  14.280  1.00  0.00     0.016 C 
HETATM    6  C14 UNL     1      -0.162   9.604  16.365  1.00  0.00     0.003 C 
HETATM    7  C15 UNL     1       0.830  10.226  17.363  1.00  0.00     0.010 C 
HETATM    8  C16 UNL     1       0.094  10.662  18.629  1.00  0.00     0.035 C 
HETATM    9  C17 UNL     1      -1.062  11.634  18.346  1.00  0.00    -0.073 C 
HETATM   10  C18 UNL     1      -1.073  12.859  18.939  1.00  0.00    -0.085 C 
HETATM   11  C19 UNL     1       0.120  13.388  19.719  1.00  0.00     0.043 C 
HETATM   12  C20 UNL     1      -2.181  13.876  18.938  1.00  0.00     0.043 C 
HETATM   13  C21 UNL     1      -2.083  10.950  17.386  1.00  0.00     0.023 C 
HETATM   14  C25 UNL     1      -1.359  10.599  15.999  1.00  0.00    -0.032 C 
HETATM   15  C26 UNL     1      -0.862  11.920  15.345  1.00  0.00     0.016 C 
HETATM   16  C27 UNL     1      -2.340   9.902  14.986  1.00  0.00     0.011 C 
HETATM   17  C28 UNL     1      -1.687   9.076  13.844  1.00  0.00     0.011 C 
HETATM   18  C29 UNL     1      -0.641   8.093  14.382  1.00  0.00    -0.032 C 
HETATM   19  C30 UNL     1      -1.435   7.085  15.311  1.00  0.00     0.016 C 
ENDROOT
BRANCH   1  20
HETATM   20  C7  UNL     1       0.076   7.321  11.875  1.00  0.00    -0.014 C 
HETATM   21  C8  UNL     1      -0.418   6.022  11.216  1.00  0.00     0.010 C 
BRANCH  20  22
HETATM   22  C6  UNL     1       1.281   7.904  11.107  1.00  0.00     0.008 C 
BRANCH  22  23
HETATM   23  C5  UNL     1       2.259   6.912  10.464  1.00  0.00     0.028 C 
BRANCH  23  24
HETATM   24  C4  UNL     1       1.934   6.707   9.007  1.00  0.00    -0.025 C 
HETATM   25  C2  UNL     1       2.295   7.476   7.961  1.00  0.00    -0.091 C 
HETATM   26  C1  UNL     1       1.840   7.135   6.567  1.00  0.00     0.042 C 
HETATM   27  C3  UNL     1       3.160   8.703   8.044  1.00  0.00     0.042 C 
ENDBRANCH  23  24
ENDBRANCH  22  23
ENDBRANCH  20  22
ENDBRANCH   1  20
BRANCH  13  28
HETATM   28  C22 UNL     1      -3.554  11.447  17.300  1.00  0.00     0.012 C 
BRANCH  28  29
HETATM   29  C23 UNL     1      -3.921  12.605  16.370  1.00  0.00     0.027 C 
BRANCH  29  30
HETATM   30  C24 UNL     1      -5.378  13.023  16.558  1.00  0.00     0.164 C 
BRANCH  30  31
HETATM   31  O1  UNL     1      -5.483  13.947  17.632  1.00  0.00    -0.401 OA
HETATM   32  H42 UNL     1      -5.101  13.526  18.421  1.00  0.00     0.209 HD
ENDBRANCH  30  31
ENDBRANCH  29  30
ENDBRANCH  28  29
ENDBRANCH  13  28
TORSDOF 8
ENDMDL
MODEL 8
REMARK minimizedAffinity -6.00196838
REMARK CNNscore 0.280496508
REMARK CNNaffinity 5.46428823
REMARK  8 active torsions:
REMARK  status: ('A' for Active; 'I' for Inactive)
REMARK    1  A    between atoms: C4_4  and  C5_5 
REMARK    2  A    between atoms: C5_5  and  C6_6 
REMARK    3  A    between atoms: C6_6  and  C7_7 
REMARK    4  A    between atoms: C7_7  and  C9_9 
REMARK    5  A    between atoms: C21_21  and  C22_22 
REMARK    6  A    between atoms: C22_22  and  C23_23 
REMARK    7  A    between atoms: C23_23  and  C24_24 
REMARK    8  A    between atoms: C24_24  and  O1_25 
ROOT
HETATM    1  C9  UNL     1       3.981   8.420  12.090  1.00  0.00    -0.002 C 
HETATM    2  C10 UNL     1       3.385   7.959  13.447  1.00  0.00     0.006 C 
HETATM    3  C11 UNL     1       4.256   8.592  14.559  1.00  0.00     0.011 C 
HETATM    4  C12 UNL     1       5.643   8.736  13.901  1.00  0.00    -0.032 C 
HETATM    5  C13 UNL     1       6.257   7.309  13.929  1.00  0.00     0.016 C 
HETATM    6  C14 UNL     1       6.630   9.753  14.549  1.00  0.00     0.003 C 
HETATM    7  C15 UNL     1       6.941   9.515  16.037  1.00  0.00     0.010 C 
HETATM    8  C16 UNL     1       7.714  10.704  16.607  1.00  0.00     0.035 C 
HETATM    9  C17 UNL     1       9.005  11.006  15.831  1.00  0.00    -0.073 C 
HETATM   10  C18 UNL     1      10.199  11.005  16.484  1.00  0.00    -0.085 C 
HETATM   11  C19 UNL     1      10.334  10.518  17.918  1.00  0.00     0.043 C 
HETATM   12  C20 UNL     1      11.540  11.443  15.960  1.00  0.00     0.043 C 
HETATM   13  C21 UNL     1       8.650  11.309  14.343  1.00  0.00     0.023 C 
HETATM   14  C25 UNL     1       7.952  10.022  13.689  1.00  0.00    -0.032 C 
HETATM   15  C26 UNL     1       8.950   8.831  13.736  1.00  0.00     0.016 C 
HETATM   16  C27 UNL     1       7.566  10.266  12.184  1.00  0.00     0.011 C 
HETATM   17  C28 UNL     1       6.470   9.340  11.588  1.00  0.00     0.011 C 
HETATM   18  C29 UNL     1       5.228   9.283  12.486  1.00  0.00    -0.032 C 
HETATM   19  C30 UNL     1       4.648  10.757  12.514  1.00  0.00     0.016 C 
ENDROOT
BRANCH   1  20
HETATM   20  C7  UNL     1       4.046   7.410  10.908  1.00  0.00    -0.014 C 
HETATM   21  C8  UNL     1       5.255   6.475  11.081  1.00  0.00     0.010 C 
BRANCH  20  22
HETATM   22  C6  UNL     1       3.945   7.915   9.452  1.00  0.00     0.008 C 
BRANCH  22  23
HETATM   23  C5  UNL     1       2.620   7.691   8.714  1.00  0.00     0.028 C 
BRANCH  23  24
HETATM   24  C4  UNL     1       1.744   6.725   9.469  1.00  0.00    -0.025 C 
HETATM   25  C2  UNL     1       0.669   7.004  10.233  1.00  0.00    -0.091 C 
HETATM   26  C1  UNL     1      -0.067   5.903  10.950  1.00  0.00     0.042 C 
HETATM   27  C3  UNL     1       0.091   8.375  10.451  1.00  0.00     0.042 C 
ENDBRANCH  23  24
ENDBRANCH  22  23
ENDBRANCH  20  22
ENDBRANCH   1  20
BRANCH  13  28
HETATM   28  C22 UNL     1       9.629  12.109  13.436  1.00  0.00     0.012 C 
BRANCH  28  29
HETATM   29  C23 UNL     1      10.710  11.377  12.639  1.00  0.00     0.027 C 
BRANCH  29  30
HETATM   30  C24 UNL     1      10.691  11.796  11.171  1.00  0.00     0.164 C 
BRANCH  30  31
HETATM   31  O1  UNL     1      11.609  11.004  10.428  1.00  0.00    -0.401 OA
HETATM   32  H42 UNL     1      12.483  11.101  10.842  1.00  0.00     0.209 HD
ENDBRANCH  30  31
ENDBRANCH  29  30
ENDBRANCH  28  29
ENDBRANCH  13  28
TORSDOF 8
ENDMDL
MODEL 9
REMARK minimizedAffinity -5.81000376
REMARK CNNscore 0.236020952
REMARK CNNaffinity 6.67937994
REMARK  8 active torsions:
REMARK  status: ('A' for Active; 'I' for Inactive)
REMARK    1  A    between atoms: C4_4  and  C5_5 
REMARK    2  A    between atoms: C5_5  and  C6_6 
REMARK    3  A    between atoms: C6_6  and  C7_7 
REMARK    4  A    between atoms: C7_7  and  C9_9 
REMARK    5  A    between atoms: C21_21  and  C22_22 
REMARK    6  A    between atoms: C22_22  and  C23_23 
REMARK    7  A    between atoms: C23_23  and  C24_24 
REMARK    8  A    between atoms: C24_24  and  O1_25 
ROOT
HETATM    1  C9  UNL     1     -11.961   8.536  14.600  1.00  0.00    -0.002 C 
HETATM    2  C10 UNL     1     -11.544   9.976  15.000  1.00  0.00     0.006 C 
HETATM    3  C11 UNL     1     -10.002  10.046  14.884  1.00  0.00     0.011 C 
HETATM    4  C12 UNL     1      -9.547   8.599  15.159  1.00  0.00    -0.032 C 
HETATM    5  C13 UNL     1      -9.643   8.428  16.700  1.00  0.00     0.016 C 
HETATM    6  C14 UNL     1      -8.124   8.201  14.666  1.00  0.00     0.003 C 
HETATM    7  C15 UNL     1      -6.972   9.067  15.204  1.00  0.00     0.010 C 
HETATM    8  C16 UNL     1      -5.677   8.734  14.465  1.00  0.00     0.035 C 
HETATM    9  C17 UNL     1      -5.309   7.244  14.542  1.00  0.00    -0.073 C 
HETATM   10  C18 UNL     1      -4.108   6.873  15.064  1.00  0.00    -0.085 C 
HETATM   11  C19 UNL     1      -3.190   7.864  15.762  1.00  0.00     0.043 C 
HETATM   12  C20 UNL     1      -3.486   5.503  15.069  1.00  0.00     0.043 C 
HETATM   13  C21 UNL     1      -6.466   6.397  13.928  1.00  0.00     0.023 C 
HETATM   14  C25 UNL     1      -7.808   6.636  14.773  1.00  0.00    -0.032 C 
HETATM   15  C26 UNL     1      -7.568   6.173  16.237  1.00  0.00     0.016 C 
HETATM   16  C27 UNL     1      -9.016   5.810  14.199  1.00  0.00     0.011 C 
HETATM   17  C28 UNL     1     -10.439   6.305  14.576  1.00  0.00     0.011 C 
HETATM   18  C29 UNL     1     -10.606   7.805  14.308  1.00  0.00    -0.032 C 
HETATM   19  C30 UNL     1     -10.433   7.985  12.743  1.00  0.00     0.016 C 
ENDROOT
BRANCH   1  20
HETATM   20  C7  UNL     1     -13.100   7.829  15.390  1.00  0.00    -0.014 C 
HETATM   21  C8  UNL     1     -13.710   6.703  14.537  1.00  0.00     0.010 C 
BRANCH  20  22
HETATM   22  C6  UNL     1     -14.205   8.664  16.070  1.00  0.00     0.008 C 
BRANCH  22  23
HETATM   23  C5  UNL     1     -14.140   8.819  17.594  1.00  0.00     0.028 C 
BRANCH  23  24
HETATM   24  C4  UNL     1     -12.826   9.424  18.015  1.00  0.00    -0.025 C 
HETATM   25  C2  UNL     1     -12.605  10.330  18.989  1.00  0.00    -0.091 C 
HETATM   26  C1  UNL     1     -11.217  10.857  19.243  1.00  0.00     0.042 C 
HETATM   27  C3  UNL     1     -13.656  10.897  19.902  1.00  0.00     0.042 C 
ENDBRANCH  23  24
ENDBRANCH  22  23
ENDBRANCH  20  22
ENDBRANCH   1  20
BRANCH  13  28
HETATM   28  C22 UNL     1      -6.211   4.951  13.415  1.00  0.00     0.012 C 
BRANCH  28  29
HETATM   29  C23 UNL     1      -7.246   4.258  12.526  1.00  0.00     0.027 C 
BRANCH  29  30
HETATM   30  C24 UNL     1      -7.062   2.742  12.547  1.00  0.00     0.164 C 
BRANCH  30  31
HETATM   31  O1  UNL     1      -8.329   2.100  12.606  1.00  0.00    -0.401 OA
HETATM   32  H42 UNL     1      -8.794   2.440  13.389  1.00  0.00     0.209 HD
ENDBRANCH  30  31
ENDBRANCH  29  30
ENDBRANCH  28  29
ENDBRANCH  13  28
TORSDOF 8
ENDMDL
