MODEL 1
REMARK minimizedAffinity -10.4007378
REMARK CNNscore 0.631415606
REMARK CNNaffinity 6.88511133
REMARK  10 active torsions:
REMARK  status: ('A' for Active; 'I' for Inactive)
REMARK    1  A    between atoms: C2_2  and  C3_4 
REMARK    2  A    between atoms: C3_4  and  O2_5 
REMARK    3  A    between atoms: N1_15  and  O3_17 
REMARK    4  A    between atoms: O3_17  and  C13_18 
REMARK    5  A    between atoms: C13_18  and  C14_19 
REMARK       I    between atoms: C14_19  and  N2_21 
REMARK    6  A    between atoms: N2_21  and  C15_22 
REMARK    7  A    between atoms: C15_22  and  C16_23 
REMARK    8  A    between atoms: C15_22  and  C25_33 
REMARK    9  A    between atoms: C16_23  and  C17_24 
REMARK   10  A    between atoms: C25_33  and  O6_35 
ROOT
HETATM    1  C3  UNL     1      -0.395  52.884 -25.799  1.00  0.00     0.125 C 
HETATM    2  C4  UNL     1       0.451  51.846 -26.599  1.00  0.00     0.047 C 
HETATM    3  C5  UNL     1      -0.304  50.504 -26.526  1.00  0.00     0.009 C 
HETATM    4  C6  UNL     1      -1.650  50.857 -25.903  1.00  0.00     0.002 C 
HETATM    5  C7  UNL     1      -2.505  49.746 -25.275  1.00  0.00    -0.004 C 
HETATM    6  C8  UNL     1      -2.726  48.524 -26.187  1.00  0.00     0.010 C 
HETATM    7  C9  UNL     1      -4.161  48.366 -26.673  1.00  0.00     0.035 C 
HETATM    8  C10 UNL     1      -5.195  48.437 -25.571  1.00  0.00    -0.069 C 
HETATM    9  C11 UNL     1      -6.376  47.819 -25.744  1.00  0.00     0.030 C 
HETATM   10  C12 UNL     1      -7.497  47.988 -24.784  1.00  0.00     0.032 C 
HETATM   11  N1  UNL     1      -8.554  47.246 -24.959  1.00  0.00    -0.271 N 
ATOM     12  H1  UNL     1      -8.648  46.552 -25.701  1.00  0.00     0.194 HD
HETATM   13  C26 UNL     1      -7.356  49.005 -23.671  1.00  0.00     0.060 C 
HETATM   14  C27 UNL     1      -6.214  49.993 -23.912  1.00  0.00     0.020 C 
HETATM   15  C28 UNL     1      -4.890  49.320 -24.357  1.00  0.00    -0.016 C 
HETATM   16  C29 UNL     1      -4.343  48.448 -23.201  1.00  0.00     0.020 C 
HETATM   17  C30 UNL     1      -3.846  50.398 -24.805  1.00  0.00     0.002 C 
HETATM   18  C31 UNL     1      -3.567  51.533 -23.793  1.00  0.00     0.007 C 
HETATM   19  C32 UNL     1      -2.606  52.593 -24.372  1.00  0.00     0.013 C 
HETATM   20  C33 UNL     1      -1.289  51.979 -24.888  1.00  0.00    -0.002 C 
HETATM   21  C34 UNL     1      -0.467  51.466 -23.670  1.00  0.00     0.019 C 
ENDROOT
BRANCH  11  22
HETATM   22  O3  UNL     1      -9.548  47.517 -24.005  1.00  0.00    -0.271 OA
BRANCH  22  23
HETATM   23  C13 UNL     1     -10.358  46.356 -23.872  1.00  0.00     0.303 C 
BRANCH  23  24
HETATM   24  C14 UNL     1     -11.833  46.703 -24.043  1.00  0.00     0.244 C 
HETATM   25  O4  UNL     1     -12.261  47.335 -25.004  1.00  0.00    -0.271 OA
HETATM   26  N2  UNL     1     -12.657  46.191 -23.057  1.00  0.00    -0.344 N 
HETATM   27  H18 UNL     1     -12.267  45.448 -22.488  1.00  0.00     0.163 HD
BRANCH  26  28
HETATM   28  C15 UNL     1     -14.118  46.221 -23.211  1.00  0.00     0.186 C 
BRANCH  28  29
HETATM   29  C16 UNL     1     -14.500  46.970 -24.495  1.00  0.00     0.077 C 
BRANCH  29  30
HETATM   30  C17 UNL     1     -15.548  46.279 -25.313  1.00  0.00    -0.028 A 
HETATM   31  C18 UNL     1     -15.329  45.530 -26.450  1.00  0.00     0.096 A 
HETATM   32  N3  UNL     1     -16.538  45.074 -26.904  1.00  0.00    -0.365 N 
HETATM   33  C19 UNL     1     -17.553  45.511 -26.083  1.00  0.00     0.042 A 
HETATM   34  H23 UNL     1     -16.677  44.498 -27.722  1.00  0.00     0.165 HD
HETATM   35  C20 UNL     1     -18.932  45.287 -26.163  1.00  0.00     0.030 A 
HETATM   36  C24 UNL     1     -16.964  46.277 -25.078  1.00  0.00    -0.002 A 
HETATM   37  C21 UNL     1     -19.738  45.862 -25.177  1.00  0.00     0.002 A 
HETATM   38  C22 UNL     1     -19.184  46.635 -24.160  1.00  0.00     0.001 A 
HETATM   39  C23 UNL     1     -17.801  46.852 -24.099  1.00  0.00     0.014 A 
ENDBRANCH  29  30
ENDBRANCH  28  29
BRANCH  28  40
HETATM   40  C25 UNL     1     -14.686  46.956 -21.999  1.00  0.00     0.163 C 
HETATM   41  O5  UNL     1     -14.314  48.047 -21.589  1.00  0.00    -0.648 OA
BRANCH  40  42
HETATM   42  O6  UNL     1     -15.693  46.302 -21.394  1.00  0.00    -0.775 OA
HETATM   43  H28 UNL     1     -15.993  46.894 -20.678  1.00  0.00     0.167 HD
ENDBRANCH  40  42
ENDBRANCH  28  40
ENDBRANCH  26  28
ENDBRANCH  23  24
ENDBRANCH  22  23
ENDBRANCH  11  22
BRANCH   1  44
HETATM   44  C2  UNL     1       0.515  53.871 -25.021  1.00  0.00     0.158 C 
HETATM   45  C1  UNL     1       0.268  55.345 -25.217  1.00  0.00     0.094 C 
HETATM   46  O1  UNL     1       1.396  53.496 -24.242  1.00  0.00    -0.295 OA
ENDBRANCH   1  44
BRANCH   1  47
HETATM   47  O2  UNL     1      -1.188  53.565 -26.777  1.00  0.00    -0.381 OA
HETATM   48  H4  UNL     1      -1.735  54.237 -26.344  1.00  0.00     0.211 HD
ENDBRANCH   1  47
TORSDOF 10
ENDMDL
MODEL 2
REMARK minimizedAffinity -9.85817242
REMARK CNNscore 0.403761625
REMARK CNNaffinity 6.48290825
REMARK  10 active torsions:
REMARK  status: ('A' for Active; 'I' for Inactive)
REMARK    1  A    between atoms: C2_2  and  C3_4 
REMARK    2  A    between atoms: C3_4  and  O2_5 
REMARK    3  A    between atoms: N1_15  and  O3_17 
REMARK    4  A    between atoms: O3_17  and  C13_18 
REMARK    5  A    between atoms: C13_18  and  C14_19 
REMARK       I    between atoms: C14_19  and  N2_21 
REMARK    6  A    between atoms: N2_21  and  C15_22 
REMARK    7  A    between atoms: C15_22  and  C16_23 
REMARK    8  A    between atoms: C15_22  and  C25_33 
REMARK    9  A    between atoms: C16_23  and  C17_24 
REMARK   10  A    between atoms: C25_33  and  O6_35 
ROOT
HETATM    1  C3  UNL     1      -1.215  52.400 -26.369  1.00  0.00     0.125 C 
HETATM    2  C4  UNL     1      -0.990  51.168 -27.298  1.00  0.00     0.047 C 
HETATM    3  C5  UNL     1      -1.732  49.981 -26.652  1.00  0.00     0.009 C 
HETATM    4  C6  UNL     1      -2.541  50.607 -25.522  1.00  0.00     0.002 C 
HETATM    5  C7  UNL     1      -3.068  49.715 -24.388  1.00  0.00    -0.004 C 
HETATM    6  C8  UNL     1      -3.833  48.467 -24.867  1.00  0.00     0.010 C 
HETATM    7  C9  UNL     1      -5.327  48.502 -24.564  1.00  0.00     0.035 C 
HETATM    8  C10 UNL     1      -5.655  48.844 -23.127  1.00  0.00    -0.069 C 
HETATM    9  C11 UNL     1      -6.816  48.415 -22.604  1.00  0.00     0.030 C 
HETATM   10  C12 UNL     1      -7.281  48.854 -21.264  1.00  0.00     0.032 C 
HETATM   11  N1  UNL     1      -8.349  48.283 -20.782  1.00  0.00    -0.271 N 
ATOM     12  H1  UNL     1      -8.869  47.548 -21.262  1.00  0.00     0.194 HD
HETATM   13  C26 UNL     1      -6.502  49.933 -20.540  1.00  0.00     0.060 C 
HETATM   14  C27 UNL     1      -5.546  50.693 -21.460  1.00  0.00     0.020 C 
HETATM   15  C28 UNL     1      -4.697  49.773 -22.375  1.00  0.00    -0.016 C 
HETATM   16  C29 UNL     1      -3.732  48.933 -21.505  1.00  0.00     0.020 C 
HETATM   17  C30 UNL     1      -3.921  50.618 -23.440  1.00  0.00     0.002 C 
HETATM   18  C31 UNL     1      -3.064  51.781 -22.890  1.00  0.00     0.007 C 
HETATM   19  C32 UNL     1      -2.426  52.610 -24.024  1.00  0.00     0.013 C 
HETATM   20  C33 UNL     1      -1.613  51.743 -25.007  1.00  0.00    -0.002 C 
HETATM   21  C34 UNL     1      -0.344  51.216 -24.274  1.00  0.00     0.019 C 
ENDROOT
BRANCH  11  22
HETATM   22  O3  UNL     1      -8.697  48.801 -19.524  1.00  0.00    -0.271 OA
BRANCH  22  23
HETATM   23  C13 UNL     1      -9.113  47.717 -18.703  1.00  0.00     0.303 C 
BRANCH  23  24
HETATM   24  C14 UNL     1     -10.489  47.213 -19.126  1.00  0.00     0.244 C 
HETATM   25  O4  UNL     1     -10.644  46.254 -19.876  1.00  0.00    -0.271 OA
HETATM   26  N2  UNL     1     -11.546  47.888 -18.545  1.00  0.00    -0.344 N 
HETATM   27  H18 UNL     1     -11.326  48.449 -17.729  1.00  0.00     0.163 HD
BRANCH  26  28
HETATM   28  C15 UNL     1     -12.917  47.368 -18.651  1.00  0.00     0.186 C 
BRANCH  28  29
HETATM   29  C16 UNL     1     -13.778  48.316 -19.496  1.00  0.00     0.077 C 
BRANCH  29  30
HETATM   30  C17 UNL     1     -14.653  47.618 -20.491  1.00  0.00    -0.028 A 
HETATM   31  C18 UNL     1     -14.290  47.233 -21.765  1.00  0.00     0.096 A 
HETATM   32  N3  UNL     1     -15.370  46.633 -22.357  1.00  0.00    -0.365 N 
HETATM   33  C19 UNL     1     -16.441  46.615 -21.493  1.00  0.00     0.042 A 
HETATM   34  H23 UNL     1     -15.388  46.252 -23.292  1.00  0.00     0.165 HD
HETATM   35  C20 UNL     1     -17.733  46.106 -21.672  1.00  0.00     0.030 A 
HETATM   36  C24 UNL     1     -16.025  47.234 -20.315  1.00  0.00    -0.002 A 
HETATM   37  C21 UNL     1     -18.629  46.228 -20.608  1.00  0.00     0.002 A 
HETATM   38  C22 UNL     1     -18.248  46.842 -19.418  1.00  0.00     0.001 A 
HETATM   39  C23 UNL     1     -16.953  47.351 -19.258  1.00  0.00     0.014 A 
ENDBRANCH  29  30
ENDBRANCH  28  29
BRANCH  28  40
HETATM   40  C25 UNL     1     -13.481  47.286 -17.235  1.00  0.00     0.163 C 
HETATM   41  O5  UNL     1     -14.571  47.712 -16.877  1.00  0.00    -0.648 OA
BRANCH  40  42
HETATM   42  O6  UNL     1     -12.669  46.661 -16.365  1.00  0.00    -0.775 OA
HETATM   43  H28 UNL     1     -13.163  46.633 -15.524  1.00  0.00     0.167 HD
ENDBRANCH  40  42
ENDBRANCH  28  40
ENDBRANCH  26  28
ENDBRANCH  23  24
ENDBRANCH  22  23
ENDBRANCH  11  22
BRANCH   1  44
HETATM   44  C2  UNL     1       0.053  53.292 -26.301  1.00  0.00     0.158 C 
HETATM   45  C1  UNL     1      -0.050  54.589 -25.539  1.00  0.00     0.094 C 
HETATM   46  O1  UNL     1       1.127  52.967 -26.815  1.00  0.00    -0.295 OA
ENDBRANCH   1  44
BRANCH   1  47
HETATM   47  O2  UNL     1      -2.322  53.109 -26.936  1.00  0.00    -0.381 OA
HETATM   48  H4  UNL     1      -2.509  53.899 -26.408  1.00  0.00     0.211 HD
ENDBRANCH   1  47
TORSDOF 10
ENDMDL
MODEL 3
REMARK minimizedAffinity -9.41296768
REMARK CNNscore 0.361910701
REMARK CNNaffinity 7.2236495
REMARK  10 active torsions:
REMARK  status: ('A' for Active; 'I' for Inactive)
REMARK    1  A    between atoms: C2_2  and  C3_4 
REMARK    2  A    between atoms: C3_4  and  O2_5 
REMARK    3  A    between atoms: N1_15  and  O3_17 
REMARK    4  A    between atoms: O3_17  and  C13_18 
REMARK    5  A    between atoms: C13_18  and  C14_19 
REMARK       I    between atoms: C14_19  and  N2_21 
REMARK    6  A    between atoms: N2_21  and  C15_22 
REMARK    7  A    between atoms: C15_22  and  C16_23 
REMARK    8  A    between atoms: C15_22  and  C25_33 
REMARK    9  A    between atoms: C16_23  and  C17_24 
REMARK   10  A    between atoms: C25_33  and  O6_35 
ROOT
HETATM    1  C3  UNL     1      -3.605  50.884 -25.210  1.00  0.00     0.125 C 
HETATM    2  C4  UNL     1      -3.681  49.370 -25.575  1.00  0.00     0.047 C 
HETATM    3  C5  UNL     1      -3.242  48.586 -24.322  1.00  0.00     0.009 C 
HETATM    4  C6  UNL     1      -3.159  49.641 -23.223  1.00  0.00     0.002 C 
HETATM    5  C7  UNL     1      -2.351  49.341 -21.952  1.00  0.00    -0.004 C 
HETATM    6  C8  UNL     1      -2.702  48.001 -21.279  1.00  0.00     0.010 C 
HETATM    7  C9  UNL     1      -3.405  48.148 -19.934  1.00  0.00     0.035 C 
HETATM    8  C10 UNL     1      -2.709  49.091 -18.977  1.00  0.00    -0.069 C 
HETATM    9  C11 UNL     1      -2.887  48.926 -17.655  1.00  0.00     0.030 C 
HETATM   10  C12 UNL     1      -2.378  49.911 -16.667  1.00  0.00     0.032 C 
HETATM   11  N1  UNL     1      -2.476  49.601 -15.405  1.00  0.00    -0.271 N 
ATOM     12  H1  UNL     1      -2.865  48.723 -15.061  1.00  0.00     0.194 HD
HETATM   13  C26 UNL     1      -1.784  51.210 -17.173  1.00  0.00     0.060 C 
HETATM   14  C27 UNL     1      -2.132  51.492 -18.635  1.00  0.00     0.020 C 
HETATM   15  C28 UNL     1      -1.933  50.271 -19.570  1.00  0.00    -0.016 C 
HETATM   16  C29 UNL     1      -0.427  49.921 -19.643  1.00  0.00     0.020 C 
HETATM   17  C30 UNL     1      -2.524  50.562 -20.991  1.00  0.00     0.002 C 
HETATM   18  C31 UNL     1      -2.036  51.859 -21.676  1.00  0.00     0.007 C 
HETATM   19  C32 UNL     1      -2.753  52.103 -23.019  1.00  0.00     0.013 C 
HETATM   20  C33 UNL     1      -2.643  50.899 -23.977  1.00  0.00    -0.002 C 
HETATM   21  C34 UNL     1      -1.164  50.772 -24.448  1.00  0.00     0.019 C 
ENDROOT
BRANCH  11  22
HETATM   22  O3  UNL     1      -1.984  50.622 -14.575  1.00  0.00    -0.271 OA
BRANCH  22  23
HETATM   23  C13 UNL     1      -3.034  51.026 -13.706  1.00  0.00     0.303 C 
BRANCH  23  24
HETATM   24  C14 UNL     1      -2.486  51.839 -12.537  1.00  0.00     0.244 C 
HETATM   25  O4  UNL     1      -3.209  52.418 -11.732  1.00  0.00    -0.271 OA
HETATM   26  N2  UNL     1      -1.108  51.816 -12.424  1.00  0.00    -0.344 N 
HETATM   27  H18 UNL     1      -0.627  51.085 -12.937  1.00  0.00     0.163 HD
BRANCH  26  28
HETATM   28  C15 UNL     1      -0.446  52.334 -11.218  1.00  0.00     0.186 C 
BRANCH  28  29
HETATM   29  C16 UNL     1      -0.017  53.792 -11.435  1.00  0.00     0.077 C 
BRANCH  29  30
HETATM   30  C17 UNL     1       0.343  54.514 -10.173  1.00  0.00    -0.028 A 
HETATM   31  C18 UNL     1      -0.441  54.615  -9.043  1.00  0.00     0.096 A 
HETATM   32  N3  UNL     1       0.239  55.358  -8.114  1.00  0.00    -0.365 N 
HETATM   33  C19 UNL     1       1.461  55.748  -8.614  1.00  0.00     0.042 A 
HETATM   34  H23 UNL     1      -0.097  55.591  -7.191  1.00  0.00     0.165 HD
HETATM   35  C20 UNL     1       2.474  56.509  -8.019  1.00  0.00     0.030 A 
HETATM   36  C24 UNL     1       1.552  55.240  -9.909  1.00  0.00    -0.002 A 
HETATM   37  C21 UNL     1       3.625  56.754  -8.772  1.00  0.00     0.002 A 
HETATM   38  C22 UNL     1       3.750  56.263 -10.070  1.00  0.00     0.001 A 
HETATM   39  C23 UNL     1       2.723  55.508 -10.651  1.00  0.00     0.014 A 
ENDBRANCH  29  30
ENDBRANCH  28  29
BRANCH  28  40
HETATM   40  C25 UNL     1       0.786  51.468 -10.970  1.00  0.00     0.163 C 
HETATM   41  O5  UNL     1       1.906  51.679 -11.414  1.00  0.00    -0.648 OA
BRANCH  40  42
HETATM   42  O6  UNL     1       0.552  50.413 -10.170  1.00  0.00    -0.775 OA
HETATM   43  H28 UNL     1       1.419  49.979 -10.054  1.00  0.00     0.167 HD
ENDBRANCH  40  42
ENDBRANCH  28  40
ENDBRANCH  26  28
ENDBRANCH  23  24
ENDBRANCH  22  23
ENDBRANCH  11  22
BRANCH   1  44
HETATM   44  C2  UNL     1      -3.112  51.729 -26.415  1.00  0.00     0.158 C 
HETATM   45  C1  UNL     1      -2.826  51.000 -27.703  1.00  0.00     0.094 C 
HETATM   46  O1  UNL     1      -2.977  52.955 -26.361  1.00  0.00    -0.295 OA
ENDBRANCH   1  44
BRANCH   1  47
HETATM   47  O2  UNL     1      -4.934  51.251 -24.825  1.00  0.00    -0.381 OA
HETATM   48  H4  UNL     1      -4.959  52.191 -24.593  1.00  0.00     0.211 HD
ENDBRANCH   1  47
TORSDOF 10
ENDMDL
MODEL 4
REMARK minimizedAffinity -9.92992115
REMARK CNNscore 0.330249637
REMARK CNNaffinity 6.34446859
REMARK  10 active torsions:
REMARK  status: ('A' for Active; 'I' for Inactive)
REMARK    1  A    between atoms: C2_2  and  C3_4 
REMARK    2  A    between atoms: C3_4  and  O2_5 
REMARK    3  A    between atoms: N1_15  and  O3_17 
REMARK    4  A    between atoms: O3_17  and  C13_18 
REMARK    5  A    between atoms: C13_18  and  C14_19 
REMARK       I    between atoms: C14_19  and  N2_21 
REMARK    6  A    between atoms: N2_21  and  C15_22 
REMARK    7  A    between atoms: C15_22  and  C16_23 
REMARK    8  A    between atoms: C15_22  and  C25_33 
REMARK    9  A    between atoms: C16_23  and  C17_24 
REMARK   10  A    between atoms: C25_33  and  O6_35 
ROOT
HETATM    1  C3  UNL     1      -0.443  52.644 -25.026  1.00  0.00     0.125 C 
HETATM    2  C4  UNL     1       0.400  51.641 -25.871  1.00  0.00     0.047 C 
HETATM    3  C5  UNL     1      -0.417  50.336 -25.961  1.00  0.00     0.009 C 
HETATM    4  C6  UNL     1      -1.780  50.699 -25.380  1.00  0.00     0.002 C 
HETATM    5  C7  UNL     1      -2.717  49.581 -24.902  1.00  0.00    -0.004 C 
HETATM    6  C8  UNL     1      -2.940  48.457 -25.931  1.00  0.00     0.010 C 
HETATM    7  C9  UNL     1      -4.351  48.413 -26.505  1.00  0.00     0.035 C 
HETATM    8  C10 UNL     1      -5.442  48.437 -25.456  1.00  0.00    -0.069 C 
HETATM    9  C11 UNL     1      -6.638  47.897 -25.747  1.00  0.00     0.030 C 
HETATM   10  C12 UNL     1      -7.802  48.035 -24.836  1.00  0.00     0.032 C 
HETATM   11  N1  UNL     1      -8.880  47.365 -25.134  1.00  0.00    -0.271 N 
ATOM     12  H1  UNL     1      -8.962  46.744 -25.939  1.00  0.00     0.194 HD
HETATM   13  C26 UNL     1      -7.679  48.941 -23.629  1.00  0.00     0.060 C 
HETATM   14  C27 UNL     1      -6.483  49.889 -23.718  1.00  0.00     0.020 C 
HETATM   15  C28 UNL     1      -5.167  49.193 -24.153  1.00  0.00    -0.016 C 
HETATM   16  C29 UNL     1      -4.726  48.196 -23.055  1.00  0.00     0.020 C 
HETATM   17  C30 UNL     1      -4.052  50.254 -24.445  1.00  0.00     0.002 C 
HETATM   18  C31 UNL     1      -3.781  51.280 -23.321  1.00  0.00     0.007 C 
HETATM   19  C32 UNL     1      -2.743  52.337 -23.749  1.00  0.00     0.013 C 
HETATM   20  C33 UNL     1      -1.427  51.708 -24.250  1.00  0.00    -0.002 C 
HETATM   21  C34 UNL     1      -0.699  51.048 -23.041  1.00  0.00     0.019 C 
ENDROOT
BRANCH  11  22
HETATM   22  O3  UNL     1      -9.913  47.599 -24.212  1.00  0.00    -0.271 OA
BRANCH  22  23
HETATM   23  C13 UNL     1     -10.496  46.345 -23.878  1.00  0.00     0.303 C 
BRANCH  23  24
HETATM   24  C14 UNL     1     -11.893  46.537 -23.295  1.00  0.00     0.244 C 
HETATM   25  O4  UNL     1     -12.098  47.127 -22.238  1.00  0.00    -0.271 OA
HETATM   26  N2  UNL     1     -12.913  46.046 -24.088  1.00  0.00    -0.344 N 
HETATM   27  H18 UNL     1     -12.677  45.854 -25.056  1.00  0.00     0.163 HD
BRANCH  26  28
HETATM   28  C15 UNL     1     -14.315  46.372 -23.793  1.00  0.00     0.186 C 
BRANCH  28  29
HETATM   29  C16 UNL     1     -14.955  45.254 -22.959  1.00  0.00     0.077 C 
BRANCH  29  30
HETATM   30  C17 UNL     1     -16.110  45.706 -22.120  1.00  0.00    -0.028 A 
HETATM   31  C18 UNL     1     -17.440  45.408 -22.339  1.00  0.00     0.096 A 
HETATM   32  N3  UNL     1     -18.182  46.011 -21.358  1.00  0.00    -0.365 N 
HETATM   33  C19 UNL     1     -17.363  46.701 -20.494  1.00  0.00     0.042 A 
HETATM   34  H23 UNL     1     -19.187  45.960 -21.270  1.00  0.00     0.165 HD
HETATM   35  C20 UNL     1     -17.685  47.454 -19.358  1.00  0.00     0.030 A 
HETATM   36  C24 UNL     1     -16.056  46.535 -20.950  1.00  0.00    -0.002 A 
HETATM   37  C21 UNL     1     -16.634  48.054 -18.661  1.00  0.00     0.002 A 
HETATM   38  C22 UNL     1     -15.317  47.911 -19.090  1.00  0.00     0.001 A 
HETATM   39  C23 UNL     1     -15.013  47.158 -20.231  1.00  0.00     0.014 A 
ENDBRANCH  29  30
ENDBRANCH  28  29
BRANCH  28  40
HETATM   40  C25 UNL     1     -15.043  46.495 -25.130  1.00  0.00     0.163 C 
HETATM   41  O5  UNL     1     -14.556  46.271 -26.229  1.00  0.00    -0.648 OA
BRANCH  40  42
HETATM   42  O6  UNL     1     -16.331  46.863 -25.011  1.00  0.00    -0.775 OA
HETATM   43  H28 UNL     1     -16.686  46.856 -25.921  1.00  0.00     0.167 HD
ENDBRANCH  40  42
ENDBRANCH  28  40
ENDBRANCH  26  28
ENDBRANCH  23  24
ENDBRANCH  22  23
ENDBRANCH  11  22
BRANCH   1  44
HETATM   44  C2  UNL     1       0.464  53.512 -24.114  1.00  0.00     0.158 C 
HETATM   45  C1  UNL     1       0.683  53.039 -22.700  1.00  0.00     0.094 C 
HETATM   46  O1  UNL     1       1.023  54.539 -24.511  1.00  0.00    -0.295 OA
ENDBRANCH   1  44
BRANCH   1  47
HETATM   47  O2  UNL     1      -1.149  53.447 -25.978  1.00  0.00    -0.381 OA
HETATM   48  H4  UNL     1      -1.689  54.104 -25.515  1.00  0.00     0.211 HD
ENDBRANCH   1  47
TORSDOF 10
ENDMDL
MODEL 5
REMARK minimizedAffinity -10.1429625
REMARK CNNscore 0.267436951
REMARK CNNaffinity 6.21685934
REMARK  10 active torsions:
REMARK  status: ('A' for Active; 'I' for Inactive)
REMARK    1  A    between atoms: C2_2  and  C3_4 
REMARK    2  A    between atoms: C3_4  and  O2_5 
REMARK    3  A    between atoms: N1_15  and  O3_17 
REMARK    4  A    between atoms: O3_17  and  C13_18 
REMARK    5  A    between atoms: C13_18  and  C14_19 
REMARK       I    between atoms: C14_19  and  N2_21 
REMARK    6  A    between atoms: N2_21  and  C15_22 
REMARK    7  A    between atoms: C15_22  and  C16_23 
REMARK    8  A    between atoms: C15_22  and  C25_33 
REMARK    9  A    between atoms: C16_23  and  C17_24 
REMARK   10  A    between atoms: C25_33  and  O6_35 
ROOT
HETATM    1  C3  UNL     1      -0.705  52.722 -25.542  1.00  0.00     0.125 C 
HETATM    2  C4  UNL     1       0.136  51.704 -26.371  1.00  0.00     0.047 C 
HETATM    3  C5  UNL     1      -0.633  50.367 -26.348  1.00  0.00     0.009 C 
HETATM    4  C6  UNL     1      -1.979  50.713 -25.722  1.00  0.00     0.002 C 
HETATM    5  C7  UNL     1      -2.849  49.590 -25.137  1.00  0.00    -0.004 C 
HETATM    6  C8  UNL     1      -3.075  48.402 -26.091  1.00  0.00     0.010 C 
HETATM    7  C9  UNL     1      -4.509  48.274 -26.591  1.00  0.00     0.035 C 
HETATM    8  C10 UNL     1      -5.550  48.318 -25.493  1.00  0.00    -0.069 C 
HETATM    9  C11 UNL     1      -6.736  47.718 -25.694  1.00  0.00     0.030 C 
HETATM   10  C12 UNL     1      -7.861  47.865 -24.737  1.00  0.00     0.032 C 
HETATM   11  N1  UNL     1      -8.923  47.140 -24.943  1.00  0.00    -0.271 N 
ATOM     12  H1  UNL     1      -9.020  46.472 -25.708  1.00  0.00     0.194 HD
HETATM   13  C26 UNL     1      -7.717  48.843 -23.588  1.00  0.00     0.060 C 
HETATM   14  C27 UNL     1      -6.564  49.827 -23.789  1.00  0.00     0.020 C 
HETATM   15  C28 UNL     1      -5.244  49.156 -24.249  1.00  0.00    -0.016 C 
HETATM   16  C29 UNL     1      -4.713  48.241 -23.120  1.00  0.00     0.020 C 
HETATM   17  C30 UNL     1      -4.186  50.239 -24.654  1.00  0.00     0.002 C 
HETATM   18  C31 UNL     1      -3.903  51.337 -23.603  1.00  0.00     0.007 C 
HETATM   19  C32 UNL     1      -2.928  52.405 -24.139  1.00  0.00     0.013 C 
HETATM   20  C33 UNL     1      -1.613  51.797 -24.668  1.00  0.00    -0.002 C 
HETATM   21  C34 UNL     1      -0.805  51.234 -23.462  1.00  0.00     0.019 C 
ENDROOT
BRANCH  11  22
HETATM   22  O3  UNL     1      -9.921  47.389 -23.986  1.00  0.00    -0.271 OA
BRANCH  22  23
HETATM   23  C13 UNL     1     -10.879  46.341 -24.068  1.00  0.00     0.303 C 
BRANCH  23  24
HETATM   24  C14 UNL     1     -12.189  46.753 -23.402  1.00  0.00     0.244 C 
HETATM   25  O4  UNL     1     -13.160  47.155 -24.037  1.00  0.00    -0.271 OA
HETATM   26  N2  UNL     1     -12.213  46.574 -22.032  1.00  0.00    -0.344 N 
HETATM   27  H18 UNL     1     -11.496  45.969 -21.645  1.00  0.00     0.163 HD
BRANCH  26  28
HETATM   28  C15 UNL     1     -13.472  46.683 -21.283  1.00  0.00     0.186 C 
BRANCH  28  29
HETATM   29  C16 UNL     1     -14.555  47.328 -22.159  1.00  0.00     0.077 C 
BRANCH  29  30
HETATM   30  C17 UNL     1     -15.834  46.551 -22.216  1.00  0.00    -0.028 A 
HETATM   31  C18 UNL     1     -16.236  45.720 -23.242  1.00  0.00     0.096 A 
HETATM   32  N3  UNL     1     -17.462  45.202 -22.919  1.00  0.00    -0.365 N 
HETATM   33  C19 UNL     1     -17.876  45.677 -21.696  1.00  0.00     0.042 A 
HETATM   34  H23 UNL     1     -17.994  44.560 -23.489  1.00  0.00     0.165 HD
HETATM   35  C20 UNL     1     -19.050  45.416 -20.980  1.00  0.00     0.030 A 
HETATM   36  C24 UNL     1     -16.878  46.533 -21.232  1.00  0.00    -0.002 A 
HETATM   37  C21 UNL     1     -19.208  46.047 -19.744  1.00  0.00     0.002 A 
HETATM   38  C22 UNL     1     -18.233  46.910 -19.251  1.00  0.00     0.001 A 
HETATM   39  C23 UNL     1     -17.065  47.164 -19.983  1.00  0.00     0.014 A 
ENDBRANCH  29  30
ENDBRANCH  28  29
BRANCH  28  40
HETATM   40  C25 UNL     1     -13.203  47.567 -20.068  1.00  0.00     0.163 C 
HETATM   41  O5  UNL     1     -14.045  47.963 -19.274  1.00  0.00    -0.648 OA
BRANCH  40  42
HETATM   42  O6  UNL     1     -11.905  47.879 -19.905  1.00  0.00    -0.775 OA
HETATM   43  H28 UNL     1     -11.866  48.397 -19.078  1.00  0.00     0.167 HD
ENDBRANCH  40  42
ENDBRANCH  28  40
ENDBRANCH  26  28
ENDBRANCH  23  24
ENDBRANCH  22  23
ENDBRANCH  11  22
BRANCH   1  44
HETATM   44  C2  UNL     1       0.209  53.674 -24.725  1.00  0.00     0.158 C 
HETATM   45  C1  UNL     1       0.690  53.191 -23.381  1.00  0.00     0.094 C 
HETATM   46  O1  UNL     1       0.571  54.777 -25.145  1.00  0.00    -0.295 OA
ENDBRANCH   1  44
BRANCH   1  47
HETATM   47  O2  UNL     1      -1.486  53.444 -26.501  1.00  0.00    -0.381 OA
HETATM   48  H4  UNL     1      -2.029  54.106 -26.049  1.00  0.00     0.211 HD
ENDBRANCH   1  47
TORSDOF 10
ENDMDL
MODEL 6
REMARK minimizedAffinity -10.3713074
REMARK CNNscore 0.227015585
REMARK CNNaffinity 6.19119453
REMARK  10 active torsions:
REMARK  status: ('A' for Active; 'I' for Inactive)
REMARK    1  A    between atoms: C2_2  and  C3_4 
REMARK    2  A    between atoms: C3_4  and  O2_5 
REMARK    3  A    between atoms: N1_15  and  O3_17 
REMARK    4  A    between atoms: O3_17  and  C13_18 
REMARK    5  A    between atoms: C13_18  and  C14_19 
REMARK       I    between atoms: C14_19  and  N2_21 
REMARK    6  A    between atoms: N2_21  and  C15_22 
REMARK    7  A    between atoms: C15_22  and  C16_23 
REMARK    8  A    between atoms: C15_22  and  C25_33 
REMARK    9  A    between atoms: C16_23  and  C17_24 
REMARK   10  A    between atoms: C25_33  and  O6_35 
ROOT
HETATM    1  C3  UNL     1      -0.530  52.788 -25.366  1.00  0.00     0.125 C 
HETATM    2  C4  UNL     1       0.327  51.748 -26.151  1.00  0.00     0.047 C 
HETATM    3  C5  UNL     1      -0.448  50.416 -26.117  1.00  0.00     0.009 C 
HETATM    4  C6  UNL     1      -1.808  50.781 -25.533  1.00  0.00     0.002 C 
HETATM    5  C7  UNL     1      -2.697  49.675 -24.945  1.00  0.00    -0.004 C 
HETATM    6  C8  UNL     1      -2.906  48.466 -25.877  1.00  0.00     0.010 C 
HETATM    7  C9  UNL     1      -4.327  48.333 -26.410  1.00  0.00     0.035 C 
HETATM    8  C10 UNL     1      -5.394  48.406 -25.340  1.00  0.00    -0.069 C 
HETATM    9  C11 UNL     1      -6.577  47.807 -25.557  1.00  0.00     0.030 C 
HETATM   10  C12 UNL     1      -7.725  47.980 -24.631  1.00  0.00     0.032 C 
HETATM   11  N1  UNL     1      -8.786  47.255 -24.847  1.00  0.00    -0.271 N 
ATOM     12  H1  UNL     1      -8.866  46.570 -25.600  1.00  0.00     0.194 HD
HETATM   13  C26 UNL     1      -7.605  48.983 -23.502  1.00  0.00     0.060 C 
HETATM   14  C27 UNL     1      -6.443  49.958 -23.695  1.00  0.00     0.020 C 
HETATM   15  C28 UNL     1      -5.115  49.271 -24.107  1.00  0.00    -0.016 C 
HETATM   16  C29 UNL     1      -4.617  48.379 -22.945  1.00  0.00     0.020 C 
HETATM   17  C30 UNL     1      -4.043  50.340 -24.509  1.00  0.00     0.002 C 
HETATM   18  C31 UNL     1      -3.781  51.460 -23.476  1.00  0.00     0.007 C 
HETATM   19  C32 UNL     1      -2.788  52.512 -24.012  1.00  0.00     0.013 C 
HETATM   20  C33 UNL     1      -1.464  51.886 -24.494  1.00  0.00    -0.002 C 
HETATM   21  C34 UNL     1      -0.688  51.348 -23.257  1.00  0.00     0.019 C 
ENDROOT
BRANCH  11  22
HETATM   22  O3  UNL     1      -9.806  47.529 -23.921  1.00  0.00    -0.271 OA
BRANCH  22  23
HETATM   23  C13 UNL     1     -10.710  46.431 -23.926  1.00  0.00     0.303 C 
BRANCH  23  24
HETATM   24  C14 UNL     1     -12.000  46.796 -24.653  1.00  0.00     0.244 C 
HETATM   25  O4  UNL     1     -12.045  47.633 -25.551  1.00  0.00    -0.271 OA
HETATM   26  N2  UNL     1     -13.103  46.061 -24.261  1.00  0.00    -0.344 N 
HETATM   27  H18 UNL     1     -12.914  45.208 -23.746  1.00  0.00     0.163 HD
BRANCH  26  28
HETATM   28  C15 UNL     1     -14.353  46.114 -25.033  1.00  0.00     0.186 C 
BRANCH  28  29
HETATM   29  C16 UNL     1     -15.277  47.201 -24.469  1.00  0.00     0.077 C 
BRANCH  29  30
HETATM   30  C17 UNL     1     -15.571  47.052 -23.008  1.00  0.00    -0.028 A 
HETATM   31  C18 UNL     1     -14.712  47.349 -21.971  1.00  0.00     0.096 A 
HETATM   32  N3  UNL     1     -15.350  47.071 -20.791  1.00  0.00    -0.365 N 
HETATM   33  C19 UNL     1     -16.619  46.596 -21.033  1.00  0.00     0.042 A 
HETATM   34  H23 UNL     1     -14.956  47.196 -19.869  1.00  0.00     0.165 HD
HETATM   35  C20 UNL     1     -17.614  46.193 -20.135  1.00  0.00     0.030 A 
HETATM   36  C24 UNL     1     -16.785  46.564 -22.417  1.00  0.00    -0.002 A 
HETATM   37  C21 UNL     1     -18.826  45.747 -20.670  1.00  0.00     0.002 A 
HETATM   38  C22 UNL     1     -19.026  45.701 -22.048  1.00  0.00     0.001 A 
HETATM   39  C23 UNL     1     -18.016  46.104 -22.932  1.00  0.00     0.014 A 
ENDBRANCH  29  30
ENDBRANCH  28  29
BRANCH  28  40
HETATM   40  C25 UNL     1     -15.025  44.749 -24.901  1.00  0.00     0.163 C 
HETATM   41  O5  UNL     1     -16.045  44.399 -25.479  1.00  0.00    -0.648 OA
BRANCH  40  42
HETATM   42  O6  UNL     1     -14.374  43.904 -24.083  1.00  0.00    -0.775 OA
HETATM   43  H28 UNL     1     -14.874  43.066 -24.127  1.00  0.00     0.167 HD
ENDBRANCH  40  42
ENDBRANCH  28  40
ENDBRANCH  26  28
ENDBRANCH  23  24
ENDBRANCH  22  23
ENDBRANCH  11  22
BRANCH   1  44
HETATM   44  C2  UNL     1       0.369  53.754 -24.548  1.00  0.00     0.158 C 
HETATM   45  C1  UNL     1       0.897  53.259 -23.226  1.00  0.00     0.094 C 
HETATM   46  O1  UNL     1       0.680  54.879 -24.951  1.00  0.00    -0.295 OA
ENDBRANCH   1  44
BRANCH   1  47
HETATM   47  O2  UNL     1      -1.283  53.491 -26.360  1.00  0.00    -0.381 OA
HETATM   48  H4  UNL     1      -1.834  54.166 -25.937  1.00  0.00     0.211 HD
ENDBRANCH   1  47
TORSDOF 10
ENDMDL
MODEL 7
REMARK minimizedAffinity -9.91678619
REMARK CNNscore 0.194261134
REMARK CNNaffinity 6.39438772
REMARK  10 active torsions:
REMARK  status: ('A' for Active; 'I' for Inactive)
REMARK    1  A    between atoms: C2_2  and  C3_4 
REMARK    2  A    between atoms: C3_4  and  O2_5 
REMARK    3  A    between atoms: N1_15  and  O3_17 
REMARK    4  A    between atoms: O3_17  and  C13_18 
REMARK    5  A    between atoms: C13_18  and  C14_19 
REMARK       I    between atoms: C14_19  and  N2_21 
REMARK    6  A    between atoms: N2_21  and  C15_22 
REMARK    7  A    between atoms: C15_22  and  C16_23 
REMARK    8  A    between atoms: C15_22  and  C25_33 
REMARK    9  A    between atoms: C16_23  and  C17_24 
REMARK   10  A    between atoms: C25_33  and  O6_35 
ROOT
HETATM    1  C3  UNL     1      -1.319  52.233 -26.682  1.00  0.00     0.125 C 
HETATM    2  C4  UNL     1      -1.872  50.879 -27.221  1.00  0.00     0.047 C 
HETATM    3  C5  UNL     1      -2.064  49.957 -26.000  1.00  0.00     0.009 C 
HETATM    4  C6  UNL     1      -1.846  50.869 -24.797  1.00  0.00     0.002 C 
HETATM    5  C7  UNL     1      -1.528  50.249 -23.429  1.00  0.00    -0.004 C 
HETATM    6  C8  UNL     1      -2.503  49.138 -22.995  1.00  0.00     0.010 C 
HETATM    7  C9  UNL     1      -3.389  49.518 -21.814  1.00  0.00     0.035 C 
HETATM    8  C10 UNL     1      -2.632  50.091 -20.636  1.00  0.00    -0.069 C 
HETATM    9  C11 UNL     1      -3.159  49.978 -19.405  1.00  0.00     0.030 C 
HETATM   10  C12 UNL     1      -2.560  50.662 -18.231  1.00  0.00     0.032 C 
HETATM   11  N1  UNL     1      -3.057  50.387 -17.058  1.00  0.00    -0.271 N 
ATOM     12  H1  UNL     1      -3.816  49.723 -16.901  1.00  0.00     0.194 HD
HETATM   13  C26 UNL     1      -1.421  51.635 -18.457  1.00  0.00     0.060 C 
HETATM   14  C27 UNL     1      -1.290  52.065 -19.919  1.00  0.00     0.020 C 
HETATM   15  C28 UNL     1      -1.354  50.885 -20.923  1.00  0.00    -0.016 C 
HETATM   16  C29 UNL     1      -0.118  49.975 -20.726  1.00  0.00     0.020 C 
HETATM   17  C30 UNL     1      -1.446  51.417 -22.394  1.00  0.00     0.002 C 
HETATM   18  C31 UNL     1      -0.361  52.435 -22.816  1.00  0.00     0.007 C 
HETATM   19  C32 UNL     1      -0.603  52.971 -24.242  1.00  0.00     0.013 C 
HETATM   20  C33 UNL     1      -0.735  51.842 -25.285  1.00  0.00    -0.002 C 
HETATM   21  C34 UNL     1       0.652  51.156 -25.455  1.00  0.00     0.019 C 
ENDROOT
BRANCH  11  22
HETATM   22  O3  UNL     1      -2.423  51.113 -16.037  1.00  0.00    -0.271 OA
BRANCH  22  23
HETATM   23  C13 UNL     1      -3.277  51.111 -14.900  1.00  0.00     0.303 C 
BRANCH  23  24
HETATM   24  C14 UNL     1      -2.534  51.605 -13.663  1.00  0.00     0.244 C 
HETATM   25  O4  UNL     1      -3.105  52.102 -12.697  1.00  0.00    -0.271 OA
HETATM   26  N2  UNL     1      -1.169  51.388 -13.695  1.00  0.00    -0.344 N 
HETATM   27  H18 UNL     1      -0.837  50.716 -14.379  1.00  0.00     0.163 HD
BRANCH  26  28
HETATM   28  C15 UNL     1      -0.352  51.574 -12.487  1.00  0.00     0.186 C 
BRANCH  28  29
HETATM   29  C16 UNL     1       0.232  52.992 -12.456  1.00  0.00     0.077 C 
BRANCH  29  30
HETATM   30  C17 UNL     1      -0.003  53.719 -11.168  1.00  0.00    -0.028 A 
HETATM   31  C18 UNL     1      -1.180  53.738 -10.448  1.00  0.00     0.096 A 
HETATM   32  N3  UNL     1      -0.991  54.517  -9.337  1.00  0.00    -0.365 N 
HETATM   33  C19 UNL     1       0.293  55.013  -9.313  1.00  0.00     0.042 A 
HETATM   34  H23 UNL     1      -1.687  54.706  -8.630  1.00  0.00     0.165 HD
HETATM   35  C20 UNL     1       0.918  55.842  -8.374  1.00  0.00     0.030 A 
HETATM   36  C24 UNL     1       0.936  54.536 -10.454  1.00  0.00    -0.002 A 
HETATM   37  C21 UNL     1       2.250  56.192  -8.607  1.00  0.00     0.002 A 
HETATM   38  C22 UNL     1       2.923  55.736  -9.738  1.00  0.00     0.001 A 
HETATM   39  C23 UNL     1       2.280  54.910 -10.669  1.00  0.00     0.014 A 
ENDBRANCH  29  30
ENDBRANCH  28  29
BRANCH  28  40
HETATM   40  C25 UNL     1       0.782  50.553 -12.545  1.00  0.00     0.163 C 
HETATM   41  O5  UNL     1       1.963  50.811 -12.730  1.00  0.00    -0.648 OA
BRANCH  40  42
HETATM   42  O6  UNL     1       0.378  49.286 -12.346  1.00  0.00    -0.775 OA
HETATM   43  H28 UNL     1       1.194  48.750 -12.359  1.00  0.00     0.167 HD
ENDBRANCH  40  42
ENDBRANCH  28  40
ENDBRANCH  26  28
ENDBRANCH  23  24
ENDBRANCH  22  23
ENDBRANCH  11  22
BRANCH   1  44
HETATM   44  C2  UNL     1      -0.280  52.845 -27.659  1.00  0.00     0.158 C 
HETATM   45  C1  UNL     1       0.514  51.891 -28.516  1.00  0.00     0.094 C 
HETATM   46  O1  UNL     1      -0.106  54.062 -27.775  1.00  0.00    -0.295 OA
ENDBRANCH   1  44
BRANCH   1  47
HETATM   47  O2  UNL     1      -2.462  53.082 -26.538  1.00  0.00    -0.381 OA
HETATM   48  H4  UNL     1      -2.185  53.952 -26.213  1.00  0.00     0.211 HD
ENDBRANCH   1  47
TORSDOF 10
ENDMDL
MODEL 8
REMARK minimizedAffinity -8.88821793
REMARK CNNscore 0.187939465
REMARK CNNaffinity 6.03584433
REMARK  10 active torsions:
REMARK  status: ('A' for Active; 'I' for Inactive)
REMARK    1  A    between atoms: C2_2  and  C3_4 
REMARK    2  A    between atoms: C3_4  and  O2_5 
REMARK    3  A    between atoms: N1_15  and  O3_17 
REMARK    4  A    between atoms: O3_17  and  C13_18 
REMARK    5  A    between atoms: C13_18  and  C14_19 
REMARK       I    between atoms: C14_19  and  N2_21 
REMARK    6  A    between atoms: N2_21  and  C15_22 
REMARK    7  A    between atoms: C15_22  and  C16_23 
REMARK    8  A    between atoms: C15_22  and  C25_33 
REMARK    9  A    between atoms: C16_23  and  C17_24 
REMARK   10  A    between atoms: C25_33  and  O6_35 
ROOT
HETATM    1  C3  UNL     1      -6.683  42.459 -20.480  1.00  0.00     0.125 C 
HETATM    2  C4  UNL     1      -8.218  42.363 -20.737  1.00  0.00     0.047 C 
HETATM    3  C5  UNL     1      -8.695  43.777 -21.122  1.00  0.00     0.009 C 
HETATM    4  C6  UNL     1      -7.410  44.577 -21.303  1.00  0.00     0.002 C 
HETATM    5  C7  UNL     1      -7.466  46.112 -21.265  1.00  0.00    -0.004 C 
HETATM    6  C8  UNL     1      -8.528  46.731 -22.192  1.00  0.00     0.010 C 
HETATM    7  C9  UNL     1      -7.948  47.497 -23.375  1.00  0.00     0.035 C 
HETATM    8  C10 UNL     1      -6.883  48.501 -22.993  1.00  0.00    -0.069 C 
HETATM    9  C11 UNL     1      -6.673  49.563 -23.790  1.00  0.00     0.030 C 
HETATM   10  C12 UNL     1      -5.536  50.494 -23.572  1.00  0.00     0.032 C 
HETATM   11  N1  UNL     1      -5.490  51.568 -24.308  1.00  0.00    -0.271 N 
ATOM     12  H1  UNL     1      -6.193  51.812 -25.008  1.00  0.00     0.194 HD
HETATM   13  C26 UNL     1      -4.500  50.146 -22.523  1.00  0.00     0.060 C 
HETATM   14  C27 UNL     1      -4.569  48.682 -22.085  1.00  0.00     0.020 C 
HETATM   15  C28 UNL     1      -6.007  48.190 -21.776  1.00  0.00    -0.016 C 
HETATM   16  C29 UNL     1      -6.550  48.939 -20.536  1.00  0.00     0.020 C 
HETATM   17  C30 UNL     1      -6.025  46.639 -21.563  1.00  0.00     0.002 C 
HETATM   18  C31 UNL     1      -5.024  46.085 -20.522  1.00  0.00     0.007 C 
HETATM   19  C32 UNL     1      -5.051  44.544 -20.464  1.00  0.00     0.013 C 
HETATM   20  C33 UNL     1      -6.467  43.985 -20.217  1.00  0.00    -0.002 C 
HETATM   21  C34 UNL     1      -6.899  44.346 -18.765  1.00  0.00     0.019 C 
ENDROOT
BRANCH  11  22
HETATM   22  O3  UNL     1      -4.359  52.350 -24.024  1.00  0.00    -0.271 OA
BRANCH  22  23
HETATM   23  C13 UNL     1      -3.468  52.252 -25.128  1.00  0.00     0.303 C 
BRANCH  23  24
HETATM   24  C14 UNL     1      -2.116  51.703 -24.684  1.00  0.00     0.244 C 
HETATM   25  O4  UNL     1      -1.809  50.519 -24.797  1.00  0.00    -0.271 OA
HETATM   26  N2  UNL     1      -1.242  52.660 -24.204  1.00  0.00    -0.344 N 
HETATM   27  H18 UNL     1      -1.465  53.624 -24.427  1.00  0.00     0.163 HD
BRANCH  26  28
HETATM   28  C15 UNL     1       0.173  52.336 -23.976  1.00  0.00     0.186 C 
BRANCH  28  29
HETATM   29  C16 UNL     1       0.826  53.409 -23.094  1.00  0.00     0.077 C 
BRANCH  29  30
HETATM   30  C17 UNL     1       0.667  53.169 -21.624  1.00  0.00    -0.028 A 
HETATM   31  C18 UNL     1       0.965  54.063 -20.617  1.00  0.00     0.096 A 
HETATM   32  N3  UNL     1       0.686  53.465 -19.416  1.00  0.00    -0.365 N 
HETATM   33  C19 UNL     1       0.207  52.191 -19.615  1.00  0.00     0.042 A 
HETATM   34  H23 UNL     1       0.808  53.891 -18.508  1.00  0.00     0.165 HD
HETATM   35  C20 UNL     1      -0.203  51.229 -18.685  1.00  0.00     0.030 A 
HETATM   36  C24 UNL     1       0.190  51.972 -20.992  1.00  0.00    -0.002 A 
HETATM   37  C21 UNL     1      -0.651  50.001 -19.178  1.00  0.00     0.002 A 
HETATM   38  C22 UNL     1      -0.679  49.747 -20.547  1.00  0.00     0.001 A 
HETATM   39  C23 UNL     1      -0.261  50.720 -21.464  1.00  0.00     0.014 A 
ENDBRANCH  29  30
ENDBRANCH  28  29
BRANCH  28  40
HETATM   40  C25 UNL     1       0.858  52.307 -25.340  1.00  0.00     0.163 C 
HETATM   41  O5  UNL     1       1.274  51.306 -25.906  1.00  0.00    -0.648 OA
BRANCH  40  42
HETATM   42  O6  UNL     1       0.958  53.516 -25.920  1.00  0.00    -0.775 OA
HETATM   43  H28 UNL     1       1.362  53.351 -26.793  1.00  0.00     0.167 HD
ENDBRANCH  40  42
ENDBRANCH  28  40
ENDBRANCH  26  28
ENDBRANCH  23  24
ENDBRANCH  22  23
ENDBRANCH  11  22
BRANCH   1  44
HETATM   44  C2  UNL     1      -6.251  41.542 -19.305  1.00  0.00     0.158 C 
HETATM   45  C1  UNL     1      -5.321  40.398 -19.622  1.00  0.00     0.094 C 
HETATM   46  O1  UNL     1      -6.614  41.732 -18.140  1.00  0.00    -0.295 OA
ENDBRANCH   1  44
BRANCH   1  47
HETATM   47  O2  UNL     1      -6.064  42.061 -21.708  1.00  0.00    -0.381 OA
HETATM   48  H4  UNL     1      -5.100  42.089 -21.612  1.00  0.00     0.211 HD
ENDBRANCH   1  47
TORSDOF 10
ENDMDL
MODEL 9
REMARK minimizedAffinity -9.51973629
REMARK CNNscore 0.173255205
REMARK CNNaffinity 6.77603722
REMARK  10 active torsions:
REMARK  status: ('A' for Active; 'I' for Inactive)
REMARK    1  A    between atoms: C2_2  and  C3_4 
REMARK    2  A    between atoms: C3_4  and  O2_5 
REMARK    3  A    between atoms: N1_15  and  O3_17 
REMARK    4  A    between atoms: O3_17  and  C13_18 
REMARK    5  A    between atoms: C13_18  and  C14_19 
REMARK       I    between atoms: C14_19  and  N2_21 
REMARK    6  A    between atoms: N2_21  and  C15_22 
REMARK    7  A    between atoms: C15_22  and  C16_23 
REMARK    8  A    between atoms: C15_22  and  C25_33 
REMARK    9  A    between atoms: C16_23  and  C17_24 
REMARK   10  A    between atoms: C25_33  and  O6_35 
ROOT
HETATM    1  C3  UNL     1      -0.390  51.528 -25.414  1.00  0.00     0.125 C 
HETATM    2  C4  UNL     1       0.110  52.961 -25.770  1.00  0.00     0.047 C 
HETATM    3  C5  UNL     1       0.326  53.703 -24.435  1.00  0.00     0.009 C 
HETATM    4  C6  UNL     1       0.177  52.621 -23.371  1.00  0.00     0.002 C 
HETATM    5  C7  UNL     1      -0.103  53.029 -21.916  1.00  0.00    -0.004 C 
HETATM    6  C8  UNL     1       0.861  54.094 -21.360  1.00  0.00     0.010 C 
HETATM    7  C9  UNL     1       1.801  53.574 -20.279  1.00  0.00     0.035 C 
HETATM    8  C10 UNL     1       1.103  52.815 -19.171  1.00  0.00    -0.069 C 
HETATM    9  C11 UNL     1       1.674  52.765 -17.955  1.00  0.00     0.030 C 
HETATM   10  C12 UNL     1       1.137  51.902 -16.872  1.00  0.00     0.032 C 
HETATM   11  N1  UNL     1       1.672  52.020 -15.690  1.00  0.00    -0.271 N 
ATOM     12  H1  UNL     1       2.421  52.676 -15.464  1.00  0.00     0.194 HD
HETATM   13  C26 UNL     1       0.014  50.939 -17.198  1.00  0.00     0.060 C 
HETATM   14  C27 UNL     1      -0.163  50.721 -18.700  1.00  0.00     0.020 C 
HETATM   15  C28 UNL     1      -0.165  52.034 -19.525  1.00  0.00    -0.016 C 
HETATM   16  C29 UNL     1      -1.414  52.870 -19.156  1.00  0.00     0.020 C 
HETATM   17  C30 UNL     1      -0.118  51.722 -21.059  1.00  0.00     0.002 C 
HETATM   18  C31 UNL     1      -1.193  50.745 -21.587  1.00  0.00     0.007 C 
HETATM   19  C32 UNL     1      -0.994  50.427 -23.083  1.00  0.00     0.013 C 
HETATM   20  C33 UNL     1      -0.929  51.697 -23.956  1.00  0.00    -0.002 C 
HETATM   21  C34 UNL     1      -2.337  52.359 -23.977  1.00  0.00     0.019 C 
ENDROOT
BRANCH  11  22
HETATM   22  O3  UNL     1       1.096  51.136 -14.763  1.00  0.00    -0.271 OA
BRANCH  22  23
HETATM   23  C13 UNL     1       0.045  51.823 -14.096  1.00  0.00     0.303 C 
BRANCH  23  24
HETATM   24  C14 UNL     1       0.545  52.444 -12.795  1.00  0.00     0.244 C 
HETATM   25  O4  UNL     1      -0.208  52.934 -11.959  1.00  0.00    -0.271 OA
HETATM   26  N2  UNL     1       1.912  52.352 -12.609  1.00  0.00    -0.344 N 
HETATM   27  H18 UNL     1       2.401  51.681 -13.192  1.00  0.00     0.163 HD
BRANCH  26  28
HETATM   28  C15 UNL     1       2.514  52.672 -11.307  1.00  0.00     0.186 C 
BRANCH  28  29
HETATM   29  C16 UNL     1       3.526  53.816 -11.459  1.00  0.00     0.077 C 
BRANCH  29  30
HETATM   30  C17 UNL     1       3.566  54.752 -10.290  1.00  0.00    -0.028 A 
HETATM   31  C18 UNL     1       2.513  55.508  -9.817  1.00  0.00     0.096 A 
HETATM   32  N3  UNL     1       2.954  56.233  -8.742  1.00  0.00    -0.365 N 
HETATM   33  C19 UNL     1       4.282  55.968  -8.498  1.00  0.00     0.042 A 
HETATM   34  H23 UNL     1       2.393  56.873  -8.198  1.00  0.00     0.165 HD
HETATM   35  C20 UNL     1       5.134  56.476  -7.510  1.00  0.00     0.030 A 
HETATM   36  C24 UNL     1       4.698  55.047  -9.458  1.00  0.00    -0.002 A 
HETATM   37  C21 UNL     1       6.455  56.022  -7.499  1.00  0.00     0.002 A 
HETATM   38  C22 UNL     1       6.904  55.104  -8.444  1.00  0.00     0.001 A 
HETATM   39  C23 UNL     1       6.039  54.610  -9.429  1.00  0.00     0.014 A 
ENDBRANCH  29  30
ENDBRANCH  28  29
BRANCH  28  40
HETATM   40  C25 UNL     1       3.230  51.416 -10.818  1.00  0.00     0.163 C 
HETATM   41  O5  UNL     1       4.041  51.369  -9.903  1.00  0.00    -0.648 OA
BRANCH  40  42
HETATM   42  O6  UNL     1       2.875  50.300 -11.478  1.00  0.00    -0.775 OA
HETATM   43  H28 UNL     1       3.360  49.575 -11.040  1.00  0.00     0.167 HD
ENDBRANCH  40  42
ENDBRANCH  28  40
ENDBRANCH  26  28
ENDBRANCH  23  24
ENDBRANCH  22  23
ENDBRANCH  11  22
BRANCH   1  44
HETATM   44  C2  UNL     1      -1.451  51.033 -26.433  1.00  0.00     0.158 C 
HETATM   45  C1  UNL     1      -1.724  51.908 -27.631  1.00  0.00     0.094 C 
HETATM   46  O1  UNL     1      -2.045  49.958 -26.311  1.00  0.00    -0.295 OA
ENDBRANCH   1  44
BRANCH   1  47
HETATM   47  O2  UNL     1       0.778  50.700 -25.434  1.00  0.00    -0.381 OA
HETATM   48  H4  UNL     1       0.534  49.786 -25.229  1.00  0.00     0.211 HD
ENDBRANCH   1  47
TORSDOF 10
ENDMDL
