MODEL 1
REMARK minimizedAffinity -7.19197178
REMARK CNNscore 0.444144934
REMARK CNNaffinity 6.98232603
REMARK  13 active torsions:
REMARK  status: ('A' for Active; 'I' for Inactive)
REMARK    1  A    between atoms: O1_2  and  C2_3 
REMARK    2  A    between atoms: C2_3  and  C3_5 
REMARK    3  A    between atoms: C16_18  and  C17_19 
REMARK    4  A    between atoms: C17_19  and  C18_20 
REMARK    5  A    between atoms: C18_20  and  O4_22 
REMARK    6  A    between atoms: C24_32  and  C25_33 
REMARK    7  A    between atoms: C25_33  and  C26_34 
REMARK    8  A    between atoms: C26_34  and  C27_35 
REMARK    9  A    between atoms: C27_35  and  O9_36 
REMARK   10  A    between atoms: C29_39  and  C30_40 
REMARK   11  A    between atoms: C30_40  and  C32_42 
REMARK   12  A    between atoms: C43_53  and  O10_54 
REMARK   13  A    between atoms: C44_55  and  O11_56 
ROOT
HETATM    1  C3  UNL     1      -3.559  50.211 -23.270  1.00  0.00     0.020 C 
HETATM    2  C4  UNL     1      -3.984  50.389 -22.003  1.00  0.00     0.003 C 
HETATM    3  C5  UNL     1      -4.806  49.372 -21.173  1.00  0.00     0.026 C 
HETATM    4  C6  UNL     1      -6.114  50.128 -20.946  1.00  0.00    -0.012 C 
HETATM    5  C7  UNL     1      -7.096  49.806 -20.097  1.00  0.00     0.002 C 
HETATM    6  C8  UNL     1      -7.159  48.482 -19.421  1.00  0.00     0.144 C 
HETATM    7  C9  UNL     1      -6.211  48.518 -18.235  1.00  0.00     0.036 C 
HETATM    8  C10 UNL     1      -4.745  48.277 -18.682  1.00  0.00     0.009 C 
HETATM    9  C11 UNL     1      -4.074  49.212 -19.769  1.00  0.00     0.007 C 
HETATM   10  C12 UNL     1      -2.564  48.824 -19.874  1.00  0.00     0.033 C 
HETATM   11  C13 UNL     1      -1.931  48.061 -21.014  1.00  0.00    -0.030 C 
HETATM   12  C14 UNL     1      -2.355  47.616 -22.206  1.00  0.00    -0.023 C 
HETATM   13  C15 UNL     1      -3.703  47.736 -22.901  1.00  0.00     0.047 C 
HETATM   14  C16 UNL     1      -3.755  48.875 -23.963  1.00  0.00     0.044 C 
HETATM   15  C19 UNL     1      -4.844  47.925 -21.870  1.00  0.00     0.149 C 
HETATM   16  O5  UNL     1      -6.030  47.247 -22.315  1.00  0.00    -0.351 OA
HETATM   17  C20 UNL     1      -7.036  47.883 -23.065  1.00  0.00     0.297 C 
HETATM   18  O6  UNL     1      -8.029  48.405 -22.175  1.00  0.00    -0.347 OA
HETATM   19  C21 UNL     1      -8.783  47.379 -21.507  1.00  0.00     0.191 C 
HETATM   20  C22 UNL     1      -9.415  47.986 -20.240  1.00  0.00     0.204 C 
HETATM   21  O7  UNL     1      -8.511  48.155 -19.097  1.00  0.00    -0.379 OA
HETATM   22  C23 UNL     1      -9.723  46.733 -22.577  1.00  0.00     0.148 A 
HETATM   23  O8  UNL     1     -11.053  47.269 -22.417  1.00  0.00    -0.332 OA
HETATM   24  C24 UNL     1     -12.098  46.415 -22.139  1.00  0.00     0.075 A 
HETATM   25  C28 UNL     1     -11.939  45.090 -22.057  1.00  0.00     0.072 A 
HETATM   26  N1  UNL     1     -12.790  44.047 -21.816  1.00  0.00    -0.357 N 
HETATM   27  C29 UNL     1     -12.136  42.826 -21.893  1.00  0.00     0.014 A 
HETATM   28  C38 UNL     1     -10.816  43.022 -22.140  1.00  0.00     0.039 A 
HETATM   29  C39 UNL     1     -10.643  44.459 -22.253  1.00  0.00     0.001 A 
HETATM   30  C40 UNL     1      -9.560  45.204 -22.507  1.00  0.00    -0.027 A 
HETATM   31  C41 UNL     1      -8.165  44.677 -22.773  1.00  0.00     0.041 C 
HETATM   32  C42 UNL     1      -7.434  45.394 -23.921  1.00  0.00     0.050 C 
HETATM   33  C43 UNL     1      -7.727  46.909 -24.096  1.00  0.00     0.136 C 
HETATM   34  C44 UNL     1      -9.246  47.161 -24.005  1.00  0.00     0.199 C 
HETATM   35  H34 UNL     1     -13.796  44.145 -21.884  1.00  0.00     0.166 HD
ENDROOT
BRANCH  27  36
HETATM   36  C30 UNL     1     -12.831  41.498 -21.699  1.00  0.00     0.035 C 
HETATM   37  C31 UNL     1     -13.691  41.147 -22.923  1.00  0.00     0.017 C 
BRANCH  36  38
HETATM   38  C32 UNL     1     -13.591  41.430 -20.341  1.00  0.00    -0.005 C 
HETATM   39  C33 UNL     1     -15.134  41.542 -20.439  1.00  0.00     0.005 C 
HETATM   40  C34 UNL     1     -15.865  40.325 -19.884  1.00  0.00     0.000 C 
HETATM   41  C35 UNL     1     -15.453  39.999 -18.452  1.00  0.00     0.000 C 
HETATM   42  C36 UNL     1     -13.943  40.116 -18.210  1.00  0.00     0.000 C 
HETATM   43  C37 UNL     1     -13.151  40.209 -19.511  1.00  0.00     0.005 C 
ENDBRANCH  36  38
ENDBRANCH  27  36
BRANCH  24  44
HETATM   44  C25 UNL     1     -13.409  47.121 -21.897  1.00  0.00     0.069 C 
BRANCH  44  45
HETATM   45  C26 UNL     1     -14.376  47.050 -23.084  1.00  0.00     0.033 C 
BRANCH  45  46
HETATM   46  C27 UNL     1     -15.761  46.531 -22.712  1.00  0.00     0.164 C 
BRANCH  46  47
HETATM   47  O9  UNL     1     -16.023  46.754 -21.333  1.00  0.00    -0.401 OA
HETATM   48  H33 UNL     1     -16.101  47.714 -21.203  1.00  0.00     0.209 HD
ENDBRANCH  46  47
ENDBRANCH  45  46
ENDBRANCH  44  45
ENDBRANCH  24  44
BRANCH  34  49
HETATM   49  O11 UNL     1      -9.916  46.492 -25.100  1.00  0.00    -0.389 OA
HETATM   50  H57 UNL     1     -10.349  45.684 -24.753  1.00  0.00     0.210 HD
ENDBRANCH  34  49
BRANCH  33  51
HETATM   51  O10 UNL     1      -7.276  47.254 -25.425  1.00  0.00    -0.382 OA
HETATM   52  H55 UNL     1      -8.001  46.975 -26.023  1.00  0.00     0.210 HD
ENDBRANCH  33  51
BRANCH  14  53
HETATM   53  C17 UNL     1      -3.095  48.582 -25.319  1.00  0.00     0.120 C 
BRANCH  53  54
HETATM   54  C18 UNL     1      -3.885  48.587 -26.600  1.00  0.00     0.140 C 
HETATM   55  O3  UNL     1      -3.486  48.287 -27.718  1.00  0.00    -0.650 OA
BRANCH  54  56
HETATM   56  O4  UNL     1      -5.205  48.757 -26.379  1.00  0.00    -0.776 OA
HETATM   57  H21 UNL     1      -5.606  48.723 -27.272  1.00  0.00     0.167 HD
ENDBRANCH  54  56
ENDBRANCH  53  54
ENDBRANCH  14  53
BRANCH   1  58
HETATM   58  C2  UNL     1      -2.981  51.365 -23.997  1.00  0.00     0.289 C 
HETATM   59  O2  UNL     1      -3.626  52.175 -24.635  1.00  0.00    -0.260 OA
BRANCH  58  60
HETATM   60  O1  UNL     1      -1.647  51.432 -23.732  1.00  0.00    -0.323 OA
HETATM   61  C1  UNL     1      -0.882  52.114 -24.725  1.00  0.00     0.213 C 
ENDBRANCH  58  60
ENDBRANCH   1  58
TORSDOF 13
ENDMDL
MODEL 2
REMARK minimizedAffinity -7.12256575
REMARK CNNscore 0.343655348
REMARK CNNaffinity 6.84295464
REMARK  13 active torsions:
REMARK  status: ('A' for Active; 'I' for Inactive)
REMARK    1  A    between atoms: O1_2  and  C2_3 
REMARK    2  A    between atoms: C2_3  and  C3_5 
REMARK    3  A    between atoms: C16_18  and  C17_19 
REMARK    4  A    between atoms: C17_19  and  C18_20 
REMARK    5  A    between atoms: C18_20  and  O4_22 
REMARK    6  A    between atoms: C24_32  and  C25_33 
REMARK    7  A    between atoms: C25_33  and  C26_34 
REMARK    8  A    between atoms: C26_34  and  C27_35 
REMARK    9  A    between atoms: C27_35  and  O9_36 
REMARK   10  A    between atoms: C29_39  and  C30_40 
REMARK   11  A    between atoms: C30_40  and  C32_42 
REMARK   12  A    between atoms: C43_53  and  O10_54 
REMARK   13  A    between atoms: C44_55  and  O11_56 
ROOT
HETATM    1  C3  UNL     1      -3.522  50.217 -23.420  1.00  0.00     0.020 C 
HETATM    2  C4  UNL     1      -3.885  50.437 -22.140  1.00  0.00     0.003 C 
HETATM    3  C5  UNL     1      -4.643  49.439 -21.230  1.00  0.00     0.026 C 
HETATM    4  C6  UNL     1      -5.953  50.180 -20.964  1.00  0.00    -0.012 C 
HETATM    5  C7  UNL     1      -6.883  49.875 -20.054  1.00  0.00     0.002 C 
HETATM    6  C8  UNL     1      -6.885  48.577 -19.325  1.00  0.00     0.144 C 
HETATM    7  C9  UNL     1      -5.878  48.677 -18.192  1.00  0.00     0.036 C 
HETATM    8  C10 UNL     1      -4.433  48.445 -18.705  1.00  0.00     0.009 C 
HETATM    9  C11 UNL     1      -3.837  49.348 -19.861  1.00  0.00     0.007 C 
HETATM   10  C12 UNL     1      -2.327  48.982 -20.029  1.00  0.00     0.033 C 
HETATM   11  C13 UNL     1      -1.739  48.187 -21.170  1.00  0.00    -0.030 C 
HETATM   12  C14 UNL     1      -2.214  47.688 -22.320  1.00  0.00    -0.023 C 
HETATM   13  C15 UNL     1      -3.598  47.756 -22.949  1.00  0.00     0.047 C 
HETATM   14  C16 UNL     1      -3.727  48.851 -24.049  1.00  0.00     0.044 C 
HETATM   15  C19 UNL     1      -4.688  47.966 -21.868  1.00  0.00     0.149 C 
HETATM   16  O5  UNL     1      -5.882  47.249 -22.224  1.00  0.00    -0.351 OA
HETATM   17  C20 UNL     1      -6.938  47.838 -22.945  1.00  0.00     0.297 C 
HETATM   18  O6  UNL     1      -7.894  48.376 -22.025  1.00  0.00    -0.347 OA
HETATM   19  C21 UNL     1      -8.592  47.365 -21.280  1.00  0.00     0.191 C 
HETATM   20  C22 UNL     1      -9.170  48.010 -20.006  1.00  0.00     0.204 C 
HETATM   21  O7  UNL     1      -8.213  48.239 -18.919  1.00  0.00    -0.379 OA
HETATM   22  C23 UNL     1      -9.573  46.660 -22.273  1.00  0.00     0.148 A 
HETATM   23  O8  UNL     1     -10.903  47.179 -22.066  1.00  0.00    -0.332 OA
HETATM   24  C24 UNL     1     -11.916  46.318 -21.701  1.00  0.00     0.075 A 
HETATM   25  C28 UNL     1     -11.727  45.000 -21.576  1.00  0.00     0.072 A 
HETATM   26  N1  UNL     1     -12.543  43.952 -21.251  1.00  0.00    -0.357 N 
HETATM   27  C29 UNL     1     -11.871  42.741 -21.315  1.00  0.00     0.014 A 
HETATM   28  C38 UNL     1     -10.568  42.951 -21.638  1.00  0.00     0.039 A 
HETATM   29  C39 UNL     1     -10.430  44.385 -21.815  1.00  0.00     0.001 A 
HETATM   30  C40 UNL     1      -9.377  45.138 -22.153  1.00  0.00    -0.027 A 
HETATM   31  C41 UNL     1      -7.986  44.626 -22.471  1.00  0.00     0.041 C 
HETATM   32  C42 UNL     1      -7.329  45.310 -23.682  1.00  0.00     0.050 C 
HETATM   33  C43 UNL     1      -7.661  46.812 -23.900  1.00  0.00     0.136 C 
HETATM   34  C44 UNL     1      -9.178  47.039 -23.740  1.00  0.00     0.199 C 
HETATM   35  H34 UNL     1     -13.553  44.031 -21.270  1.00  0.00     0.166 HD
ENDROOT
BRANCH  27  36
HETATM   36  C30 UNL     1     -12.528  41.410 -21.034  1.00  0.00     0.035 C 
HETATM   37  C31 UNL     1     -12.848  41.263 -19.538  1.00  0.00     0.017 C 
BRANCH  36  38
HETATM   38  C32 UNL     1     -11.719  40.222 -21.635  1.00  0.00    -0.005 C 
HETATM   39  C33 UNL     1     -11.551  38.995 -20.702  1.00  0.00     0.005 C 
HETATM   40  C34 UNL     1     -12.142  37.713 -21.277  1.00  0.00     0.000 C 
HETATM   41  C35 UNL     1     -11.600  37.393 -22.667  1.00  0.00     0.000 C 
HETATM   42  C36 UNL     1     -11.496  38.621 -23.579  1.00  0.00     0.000 C 
HETATM   43  C37 UNL     1     -12.254  39.823 -23.024  1.00  0.00     0.005 C 
ENDBRANCH  36  38
ENDBRANCH  27  36
BRANCH  24  44
HETATM   44  C25 UNL     1     -13.226  47.010 -21.418  1.00  0.00     0.069 C 
BRANCH  44  45
HETATM   45  C26 UNL     1     -13.360  47.508 -19.975  1.00  0.00     0.033 C 
BRANCH  45  46
HETATM   46  C27 UNL     1     -14.763  47.995 -19.626  1.00  0.00     0.164 C 
BRANCH  46  47
HETATM   47  O9  UNL     1     -14.705  49.254 -18.970  1.00  0.00    -0.401 OA
HETATM   48  H33 UNL     1     -14.397  49.907 -19.622  1.00  0.00     0.209 HD
ENDBRANCH  46  47
ENDBRANCH  45  46
ENDBRANCH  44  45
ENDBRANCH  24  44
BRANCH  34  49
HETATM   49  O11 UNL     1      -9.891  46.316 -24.772  1.00  0.00    -0.389 OA
HETATM   50  H57 UNL     1     -10.289  45.516 -24.372  1.00  0.00     0.210 HD
ENDBRANCH  34  49
BRANCH  33  51
HETATM   51  O10 UNL     1      -7.285  47.111 -25.263  1.00  0.00    -0.382 OA
HETATM   52  H55 UNL     1      -8.034  46.796 -25.811  1.00  0.00     0.210 HD
ENDBRANCH  33  51
BRANCH  14  53
HETATM   53  C17 UNL     1      -3.132  48.516 -25.426  1.00  0.00     0.120 C 
BRANCH  53  54
HETATM   54  C18 UNL     1      -3.964  48.564 -26.679  1.00  0.00     0.140 C 
HETATM   55  O3  UNL     1      -3.581  48.389 -27.829  1.00  0.00    -0.650 OA
BRANCH  54  56
HETATM   56  O4  UNL     1      -5.284  48.611 -26.408  1.00  0.00    -0.776 OA
HETATM   57  H21 UNL     1      -5.711  48.618 -27.289  1.00  0.00     0.167 HD
ENDBRANCH  54  56
ENDBRANCH  53  54
ENDBRANCH  14  53
BRANCH   1  58
HETATM   58  C2  UNL     1      -3.005  51.351 -24.219  1.00  0.00     0.289 C 
HETATM   59  O2  UNL     1      -3.696  52.218 -24.719  1.00  0.00    -0.260 OA
BRANCH  58  60
HETATM   60  O1  UNL     1      -1.643  51.325 -24.195  1.00  0.00    -0.323 OA
HETATM   61  C1  UNL     1      -1.050  52.301 -23.339  1.00  0.00     0.213 C 
ENDBRANCH  58  60
ENDBRANCH   1  58
TORSDOF 13
ENDMDL
MODEL 3
REMARK minimizedAffinity -7.90281916
REMARK CNNscore 0.311406493
REMARK CNNaffinity 6.70653534
REMARK  13 active torsions:
REMARK  status: ('A' for Active; 'I' for Inactive)
REMARK    1  A    between atoms: O1_2  and  C2_3 
REMARK    2  A    between atoms: C2_3  and  C3_5 
REMARK    3  A    between atoms: C16_18  and  C17_19 
REMARK    4  A    between atoms: C17_19  and  C18_20 
REMARK    5  A    between atoms: C18_20  and  O4_22 
REMARK    6  A    between atoms: C24_32  and  C25_33 
REMARK    7  A    between atoms: C25_33  and  C26_34 
REMARK    8  A    between atoms: C26_34  and  C27_35 
REMARK    9  A    between atoms: C27_35  and  O9_36 
REMARK   10  A    between atoms: C29_39  and  C30_40 
REMARK   11  A    between atoms: C30_40  and  C32_42 
REMARK   12  A    between atoms: C43_53  and  O10_54 
REMARK   13  A    between atoms: C44_55  and  O11_56 
ROOT
HETATM    1  C3  UNL     1      -7.497  47.329 -28.256  1.00  0.00     0.020 C 
HETATM    2  C4  UNL     1      -7.403  46.382 -29.211  1.00  0.00     0.003 C 
HETATM    3  C5  UNL     1      -8.590  45.750 -29.979  1.00  0.00     0.026 C 
HETATM    4  C6  UNL     1      -8.508  44.287 -29.544  1.00  0.00    -0.012 C 
HETATM    5  C7  UNL     1      -9.156  43.247 -30.081  1.00  0.00     0.002 C 
HETATM    6  C8  UNL     1     -10.278  43.421 -31.043  1.00  0.00     0.144 C 
HETATM    7  C9  UNL     1      -9.681  43.694 -32.412  1.00  0.00     0.036 C 
HETATM    8  C10 UNL     1      -9.261  45.180 -32.554  1.00  0.00     0.009 C 
HETATM    9  C11 UNL     1      -8.243  45.828 -31.529  1.00  0.00     0.007 C 
HETATM   10  C12 UNL     1      -7.896  47.265 -32.036  1.00  0.00     0.033 C 
HETATM   11  C13 UNL     1      -8.394  48.554 -31.427  1.00  0.00    -0.030 C 
HETATM   12  C14 UNL     1      -9.109  48.873 -30.338  1.00  0.00    -0.023 C 
HETATM   13  C15 UNL     1      -9.702  48.007 -29.237  1.00  0.00     0.047 C 
HETATM   14  C16 UNL     1      -8.836  47.969 -27.942  1.00  0.00     0.044 C 
HETATM   15  C19 UNL     1      -9.955  46.564 -29.743  1.00  0.00     0.149 C 
HETATM   16  O5  UNL     1     -11.148  46.032 -29.145  1.00  0.00    -0.351 OA
HETATM   17  C20 UNL     1     -11.134  45.272 -27.961  1.00  0.00     0.297 C 
HETATM   18  O6  UNL     1     -11.041  43.882 -28.294  1.00  0.00    -0.347 OA
HETATM   19  C21 UNL     1     -12.222  43.376 -28.939  1.00  0.00     0.191 C 
HETATM   20  C22 UNL     1     -11.846  42.094 -29.706  1.00  0.00     0.204 C 
HETATM   21  O7  UNL     1     -11.158  42.297 -30.985  1.00  0.00    -0.379 OA
HETATM   22  C23 UNL     1     -13.340  43.296 -27.848  1.00  0.00     0.148 A 
HETATM   23  O8  UNL     1     -13.467  41.928 -27.408  1.00  0.00    -0.332 OA
HETATM   24  C24 UNL     1     -14.673  41.278 -27.558  1.00  0.00     0.075 A 
HETATM   25  C28 UNL     1     -15.757  41.884 -28.056  1.00  0.00     0.072 A 
HETATM   26  N1  UNL     1     -17.043  41.482 -28.289  1.00  0.00    -0.357 N 
HETATM   27  C29 UNL     1     -17.823  42.521 -28.775  1.00  0.00     0.014 A 
HETATM   28  C38 UNL     1     -17.064  43.637 -28.928  1.00  0.00     0.039 A 
HETATM   29  C39 UNL     1     -15.732  43.275 -28.478  1.00  0.00     0.001 A 
HETATM   30  C40 UNL     1     -14.602  43.987 -28.394  1.00  0.00    -0.027 A 
HETATM   31  C41 UNL     1     -14.447  45.451 -28.756  1.00  0.00     0.041 C 
HETATM   32  C42 UNL     1     -13.599  46.257 -27.757  1.00  0.00     0.050 C 
HETATM   33  C43 UNL     1     -12.421  45.506 -27.078  1.00  0.00     0.136 C 
HETATM   34  C44 UNL     1     -12.894  44.121 -26.594  1.00  0.00     0.199 C 
HETATM   35  H34 UNL     1     -17.430  40.644 -27.872  1.00  0.00     0.166 HD
ENDROOT
BRANCH  27  36
HETATM   36  C30 UNL     1     -19.292  42.378 -29.097  1.00  0.00     0.035 C 
HETATM   37  C31 UNL     1     -19.742  40.915 -28.954  1.00  0.00     0.017 C 
BRANCH  36  38
HETATM   38  C32 UNL     1     -19.657  43.030 -30.464  1.00  0.00    -0.005 C 
HETATM   39  C33 UNL     1     -18.884  42.477 -31.688  1.00  0.00     0.005 C 
HETATM   40  C34 UNL     1     -19.792  41.872 -32.753  1.00  0.00     0.000 C 
HETATM   41  C35 UNL     1     -20.880  42.840 -33.211  1.00  0.00     0.000 C 
HETATM   42  C36 UNL     1     -21.525  43.621 -32.061  1.00  0.00     0.000 C 
HETATM   43  C37 UNL     1     -21.180  43.036 -30.695  1.00  0.00     0.005 C 
ENDBRANCH  36  38
ENDBRANCH  27  36
BRANCH  24  44
HETATM   44  C25 UNL     1     -14.634  39.826 -27.151  1.00  0.00     0.069 C 
BRANCH  44  45
HETATM   45  C26 UNL     1     -13.814  38.943 -28.098  1.00  0.00     0.033 C 
BRANCH  45  46
HETATM   46  C27 UNL     1     -13.837  37.464 -27.727  1.00  0.00     0.164 C 
BRANCH  46  47
HETATM   47  O9  UNL     1     -13.560  36.660 -28.865  1.00  0.00    -0.401 OA
HETATM   48  H33 UNL     1     -12.632  36.815 -29.110  1.00  0.00     0.209 HD
ENDBRANCH  46  47
ENDBRANCH  45  46
ENDBRANCH  44  45
ENDBRANCH  24  44
BRANCH  34  49
HETATM   49  O11 UNL     1     -13.909  44.281 -25.575  1.00  0.00    -0.389 OA
HETATM   50  H57 UNL     1     -14.783  44.090 -25.974  1.00  0.00     0.210 HD
ENDBRANCH  34  49
BRANCH  33  51
HETATM   51  O10 UNL     1     -12.050  46.300 -25.929  1.00  0.00    -0.382 OA
HETATM   52  H55 UNL     1     -12.694  46.059 -25.231  1.00  0.00     0.210 HD
ENDBRANCH  33  51
BRANCH  14  53
HETATM   53  C17 UNL     1      -8.933  49.191 -27.015  1.00  0.00     0.120 C 
BRANCH  53  54
HETATM   54  C18 UNL     1      -9.394  49.066 -25.589  1.00  0.00     0.140 C 
HETATM   55  O3  UNL     1     -10.156  48.225 -25.127  1.00  0.00    -0.650 OA
BRANCH  54  56
HETATM   56  O4  UNL     1      -8.699  49.871 -24.760  1.00  0.00    -0.776 OA
HETATM   57  H21 UNL     1      -9.073  49.686 -23.874  1.00  0.00     0.167 HD
ENDBRANCH  54  56
ENDBRANCH  53  54
ENDBRANCH  14  53
BRANCH   1  58
HETATM   58  C2  UNL     1      -6.291  47.666 -27.465  1.00  0.00     0.289 C 
HETATM   59  O2  UNL     1      -6.217  47.598 -26.253  1.00  0.00    -0.260 OA
BRANCH  58  60
HETATM   60  O1  UNL     1      -5.264  47.940 -28.317  1.00  0.00    -0.323 OA
HETATM   61  C1  UNL     1      -4.079  48.414 -27.680  1.00  0.00     0.213 C 
ENDBRANCH  58  60
ENDBRANCH   1  58
TORSDOF 13
ENDMDL
MODEL 4
REMARK minimizedAffinity -7.32156229
REMARK CNNscore 0.291869909
REMARK CNNaffinity 6.62889338
REMARK  13 active torsions:
REMARK  status: ('A' for Active; 'I' for Inactive)
REMARK    1  A    between atoms: O1_2  and  C2_3 
REMARK    2  A    between atoms: C2_3  and  C3_5 
REMARK    3  A    between atoms: C16_18  and  C17_19 
REMARK    4  A    between atoms: C17_19  and  C18_20 
REMARK    5  A    between atoms: C18_20  and  O4_22 
REMARK    6  A    between atoms: C24_32  and  C25_33 
REMARK    7  A    between atoms: C25_33  and  C26_34 
REMARK    8  A    between atoms: C26_34  and  C27_35 
REMARK    9  A    between atoms: C27_35  and  O9_36 
REMARK   10  A    between atoms: C29_39  and  C30_40 
REMARK   11  A    between atoms: C30_40  and  C32_42 
REMARK   12  A    between atoms: C43_53  and  O10_54 
REMARK   13  A    between atoms: C44_55  and  O11_56 
ROOT
HETATM    1  C3  UNL     1      -3.630  50.165 -22.867  1.00  0.00     0.020 C 
HETATM    2  C4  UNL     1      -4.102  50.310 -21.613  1.00  0.00     0.003 C 
HETATM    3  C5  UNL     1      -4.947  49.270 -20.837  1.00  0.00     0.026 C 
HETATM    4  C6  UNL     1      -6.268  50.014 -20.640  1.00  0.00    -0.012 C 
HETATM    5  C7  UNL     1      -7.278  49.668 -19.836  1.00  0.00     0.002 C 
HETATM    6  C8  UNL     1      -7.358  48.328 -19.193  1.00  0.00     0.144 C 
HETATM    7  C9  UNL     1      -6.454  48.340 -17.973  1.00  0.00     0.036 C 
HETATM    8  C10 UNL     1      -4.972  48.117 -18.371  1.00  0.00     0.009 C 
HETATM    9  C11 UNL     1      -4.267  49.081 -19.411  1.00  0.00     0.007 C 
HETATM   10  C12 UNL     1      -2.752  48.703 -19.469  1.00  0.00     0.033 C 
HETATM   11  C13 UNL     1      -2.073  47.970 -20.603  1.00  0.00    -0.030 C 
HETATM   12  C14 UNL     1      -2.451  47.551 -21.820  1.00  0.00    -0.023 C 
HETATM   13  C15 UNL     1      -3.773  47.681 -22.561  1.00  0.00     0.047 C 
HETATM   14  C16 UNL     1      -3.793  48.844 -23.597  1.00  0.00     0.044 C 
HETATM   15  C19 UNL     1      -4.952  47.840 -21.568  1.00  0.00     0.149 C 
HETATM   16  O5  UNL     1      -6.117  47.167 -22.072  1.00  0.00    -0.351 OA
HETATM   17  C20 UNL     1      -7.099  47.816 -22.843  1.00  0.00     0.297 C 
HETATM   18  O6  UNL     1      -8.127  48.311 -21.978  1.00  0.00    -0.347 OA
HETATM   19  C21 UNL     1      -8.899  47.266 -21.363  1.00  0.00     0.191 C 
HETATM   20  C22 UNL     1      -9.580  47.841 -20.106  1.00  0.00     0.204 C 
HETATM   21  O7  UNL     1      -8.720  47.987 -18.927  1.00  0.00    -0.379 OA
HETATM   22  C23 UNL     1      -9.795  46.641 -22.481  1.00  0.00     0.148 A 
HETATM   23  O8  UNL     1     -11.133  47.167 -22.358  1.00  0.00    -0.332 OA
HETATM   24  C24 UNL     1     -12.183  46.302 -22.138  1.00  0.00     0.075 A 
HETATM   25  C28 UNL     1     -12.020  44.975 -22.081  1.00  0.00     0.072 A 
HETATM   26  N1  UNL     1     -12.873  43.923 -21.896  1.00  0.00    -0.357 N 
HETATM   27  C29 UNL     1     -12.210  42.707 -21.977  1.00  0.00     0.014 A 
HETATM   28  C38 UNL     1     -10.882  42.916 -22.171  1.00  0.00     0.039 A 
HETATM   29  C39 UNL     1     -10.713  44.356 -22.244  1.00  0.00     0.001 A 
HETATM   30  C40 UNL     1      -9.626  45.112 -22.441  1.00  0.00    -0.027 A 
HETATM   31  C41 UNL     1      -8.219  44.598 -22.668  1.00  0.00     0.041 C 
HETATM   32  C42 UNL     1      -7.451  45.345 -23.771  1.00  0.00     0.050 C 
HETATM   33  C43 UNL     1      -7.746  46.863 -23.922  1.00  0.00     0.136 C 
HETATM   34  C44 UNL     1      -9.268  47.104 -23.881  1.00  0.00     0.199 C 
HETATM   35  H34 UNL     1     -13.876  44.018 -21.998  1.00  0.00     0.166 HD
ENDROOT
BRANCH  27  36
HETATM   36  C30 UNL     1     -12.903  41.372 -21.840  1.00  0.00     0.035 C 
HETATM   37  C31 UNL     1     -12.249  40.527 -20.735  1.00  0.00     0.017 C 
BRANCH  36  38
HETATM   38  C32 UNL     1     -13.038  40.641 -23.209  1.00  0.00    -0.005 C 
HETATM   39  C33 UNL     1     -13.328  41.559 -24.424  1.00  0.00     0.005 C 
HETATM   40  C34 UNL     1     -12.257  41.484 -25.507  1.00  0.00     0.000 C 
HETATM   41  C35 UNL     1     -12.002  40.055 -25.977  1.00  0.00     0.000 C 
HETATM   42  C36 UNL     1     -11.954  39.035 -24.833  1.00  0.00     0.000 C 
HETATM   43  C37 UNL     1     -11.844  39.701 -23.465  1.00  0.00     0.005 C 
ENDBRANCH  36  38
ENDBRANCH  27  36
BRANCH  24  44
HETATM   44  C25 UNL     1     -13.506  46.996 -21.927  1.00  0.00     0.069 C 
BRANCH  44  45
HETATM   45  C26 UNL     1     -14.649  46.408 -22.762  1.00  0.00     0.033 C 
BRANCH  45  46
HETATM   46  C27 UNL     1     -14.693  46.936 -24.193  1.00  0.00     0.164 C 
BRANCH  46  47
HETATM   47  O9  UNL     1     -15.488  48.111 -24.267  1.00  0.00    -0.401 OA
HETATM   48  H33 UNL     1     -15.016  48.811 -23.784  1.00  0.00     0.209 HD
ENDBRANCH  46  47
ENDBRANCH  45  46
ENDBRANCH  44  45
ENDBRANCH  24  44
BRANCH  34  49
HETATM   49  O11 UNL     1      -9.895  46.458 -25.015  1.00  0.00    -0.389 OA
HETATM   50  H57 UNL     1     -10.335  45.641 -24.703  1.00  0.00     0.210 HD
ENDBRANCH  34  49
BRANCH  33  51
HETATM   51  O10 UNL     1      -7.248  47.240 -25.225  1.00  0.00    -0.382 OA
HETATM   52  H55 UNL     1      -7.950  46.972 -25.855  1.00  0.00     0.210 HD
ENDBRANCH  33  51
BRANCH  14  53
HETATM   53  C17 UNL     1      -3.082  48.586 -24.935  1.00  0.00     0.120 C 
BRANCH  53  54
HETATM   54  C18 UNL     1      -3.828  48.603 -26.241  1.00  0.00     0.140 C 
HETATM   55  O3  UNL     1      -3.409  48.256 -27.339  1.00  0.00    -0.650 OA
BRANCH  54  56
HETATM   56  O4  UNL     1      -5.143  48.847 -26.070  1.00  0.00    -0.776 OA
HETATM   57  H21 UNL     1      -5.515  48.813 -26.976  1.00  0.00     0.167 HD
ENDBRANCH  54  56
ENDBRANCH  53  54
ENDBRANCH  14  53
BRANCH   1  58
HETATM   58  C2  UNL     1      -3.033  51.338 -23.544  1.00  0.00     0.289 C 
HETATM   59  O2  UNL     1      -1.879  51.701 -23.413  1.00  0.00    -0.260 OA
BRANCH  58  60
HETATM   60  O1  UNL     1      -3.942  51.856 -24.417  1.00  0.00    -0.323 OA
HETATM   61  C1  UNL     1      -3.393  52.255 -25.673  1.00  0.00     0.213 C 
ENDBRANCH  58  60
ENDBRANCH   1  58
TORSDOF 13
ENDMDL
MODEL 5
REMARK minimizedAffinity -7.26827478
REMARK CNNscore 0.243113875
REMARK CNNaffinity 6.46746254
REMARK  13 active torsions:
REMARK  status: ('A' for Active; 'I' for Inactive)
REMARK    1  A    between atoms: O1_2  and  C2_3 
REMARK    2  A    between atoms: C2_3  and  C3_5 
REMARK    3  A    between atoms: C16_18  and  C17_19 
REMARK    4  A    between atoms: C17_19  and  C18_20 
REMARK    5  A    between atoms: C18_20  and  O4_22 
REMARK    6  A    between atoms: C24_32  and  C25_33 
REMARK    7  A    between atoms: C25_33  and  C26_34 
REMARK    8  A    between atoms: C26_34  and  C27_35 
REMARK    9  A    between atoms: C27_35  and  O9_36 
REMARK   10  A    between atoms: C29_39  and  C30_40 
REMARK   11  A    between atoms: C30_40  and  C32_42 
REMARK   12  A    between atoms: C43_53  and  O10_54 
REMARK   13  A    between atoms: C44_55  and  O11_56 
ROOT
HETATM    1  C3  UNL     1      -6.974  46.226 -31.926  1.00  0.00     0.020 C 
HETATM    2  C4  UNL     1      -7.217  44.935 -32.229  1.00  0.00     0.003 C 
HETATM    3  C5  UNL     1      -8.589  44.224 -32.129  1.00  0.00     0.026 C 
HETATM    4  C6  UNL     1      -8.323  43.166 -31.059  1.00  0.00    -0.012 C 
HETATM    5  C7  UNL     1      -9.101  42.125 -30.742  1.00  0.00     0.002 C 
HETATM    6  C8  UNL     1     -10.501  42.001 -31.232  1.00  0.00     0.144 C 
HETATM    7  C9  UNL     1     -10.451  41.468 -32.654  1.00  0.00     0.036 C 
HETATM    8  C10 UNL     1     -10.142  42.602 -33.666  1.00  0.00     0.009 C 
HETATM    9  C11 UNL     1      -8.834  43.479 -33.514  1.00  0.00     0.007 C 
HETATM   10  C12 UNL     1      -8.725  44.406 -34.768  1.00  0.00     0.033 C 
HETATM   11  C13 UNL     1      -8.993  45.893 -34.786  1.00  0.00    -0.030 C 
HETATM   12  C14 UNL     1      -9.267  46.816 -33.853  1.00  0.00    -0.023 C 
HETATM   13  C15 UNL     1      -9.399  46.709 -32.341  1.00  0.00     0.047 C 
HETATM   14  C16 UNL     1      -8.119  47.157 -31.572  1.00  0.00     0.044 C 
HETATM   15  C19 UNL     1      -9.789  45.270 -31.920  1.00  0.00     0.149 C 
HETATM   16  O5  UNL     1     -10.670  45.309 -30.785  1.00  0.00    -0.351 OA
HETATM   17  C20 UNL     1     -10.209  45.229 -29.458  1.00  0.00     0.297 C 
HETATM   18  O6  UNL     1     -10.216  43.860 -29.039  1.00  0.00    -0.347 OA
HETATM   19  C21 UNL     1     -11.540  43.316 -28.909  1.00  0.00     0.191 C 
HETATM   20  C22 UNL     1     -11.444  41.780 -28.981  1.00  0.00     0.204 C 
HETATM   21  O7  UNL     1     -11.275  41.216 -30.325  1.00  0.00    -0.379 OA
HETATM   22  C23 UNL     1     -12.180  43.968 -27.640  1.00  0.00     0.148 A 
HETATM   23  O8  UNL     1     -12.110  43.030 -26.546  1.00  0.00    -0.332 OA
HETATM   24  C24 UNL     1     -13.273  42.607 -25.941  1.00  0.00     0.075 A 
HETATM   25  C28 UNL     1     -14.477  43.070 -26.297  1.00  0.00     0.072 A 
HETATM   26  N1  UNL     1     -15.750  42.834 -25.860  1.00  0.00    -0.357 N 
HETATM   27  C29 UNL     1     -16.675  43.622 -26.529  1.00  0.00     0.014 A 
HETATM   28  C38 UNL     1     -16.047  44.375 -27.469  1.00  0.00     0.039 A 
HETATM   29  C39 UNL     1     -14.636  44.055 -27.357  1.00  0.00     0.001 A 
HETATM   30  C40 UNL     1     -13.568  44.512 -28.021  1.00  0.00    -0.027 A 
HETATM   31  C41 UNL     1     -13.586  45.565 -29.111  1.00  0.00     0.041 C 
HETATM   32  C42 UNL     1     -12.449  46.595 -29.006  1.00  0.00     0.050 C 
HETATM   33  C43 UNL     1     -11.089  46.079 -28.462  1.00  0.00     0.136 C 
HETATM   34  C44 UNL     1     -11.324  45.206 -27.212  1.00  0.00     0.199 C 
HETATM   35  H34 UNL     1     -15.941  42.383 -24.973  1.00  0.00     0.166 HD
ENDROOT
BRANCH  27  36
HETATM   36  C30 UNL     1     -18.157  43.596 -26.236  1.00  0.00     0.035 C 
HETATM   37  C31 UNL     1     -18.424  43.059 -24.821  1.00  0.00     0.017 C 
BRANCH  36  38
HETATM   38  C32 UNL     1     -18.961  42.872 -27.357  1.00  0.00    -0.005 C 
HETATM   39  C33 UNL     1     -19.258  43.727 -28.615  1.00  0.00     0.005 C 
HETATM   40  C34 UNL     1     -18.676  43.140 -29.896  1.00  0.00     0.000 C 
HETATM   41  C35 UNL     1     -19.112  41.696 -30.127  1.00  0.00     0.000 C 
HETATM   42  C36 UNL     1     -19.086  40.840 -28.855  1.00  0.00     0.000 C 
HETATM   43  C37 UNL     1     -18.328  41.514 -27.716  1.00  0.00     0.005 C 
ENDBRANCH  36  38
ENDBRANCH  27  36
BRANCH  24  44
HETATM   44  C25 UNL     1     -13.058  41.552 -24.884  1.00  0.00     0.069 C 
BRANCH  44  45
HETATM   45  C26 UNL     1     -13.281  40.122 -25.387  1.00  0.00     0.033 C 
BRANCH  45  46
HETATM   46  C27 UNL     1     -14.586  39.499 -24.898  1.00  0.00     0.164 C 
BRANCH  46  47
HETATM   47  O9  UNL     1     -15.639  39.767 -25.814  1.00  0.00    -0.401 OA
HETATM   48  H33 UNL     1     -15.447  39.274 -26.629  1.00  0.00     0.209 HD
ENDBRANCH  46  47
ENDBRANCH  45  46
ENDBRANCH  44  45
ENDBRANCH  24  44
BRANCH  34  49
HETATM   49  O11 UNL     1     -11.900  46.013 -26.156  1.00  0.00    -0.389 OA
HETATM   50  H57 UNL     1     -12.855  45.805 -26.093  1.00  0.00     0.210 HD
ENDBRANCH  34  49
BRANCH  33  51
HETATM   51  O10 UNL     1     -10.340  47.253 -28.077  1.00  0.00    -0.382 OA
HETATM   52  H55 UNL     1     -10.680  47.496 -27.190  1.00  0.00     0.210 HD
ENDBRANCH  33  51
BRANCH  14  53
HETATM   53  C17 UNL     1      -7.895  48.671 -31.433  1.00  0.00     0.120 C 
BRANCH  53  54
HETATM   54  C18 UNL     1      -8.909  49.561 -30.768  1.00  0.00     0.140 C 
HETATM   55  O3  UNL     1      -9.860  49.214 -30.078  1.00  0.00    -0.650 OA
BRANCH  54  56
HETATM   56  O4  UNL     1      -8.553  50.860 -30.817  1.00  0.00    -0.776 OA
HETATM   57  H21 UNL     1      -9.270  51.327 -30.342  1.00  0.00     0.167 HD
ENDBRANCH  54  56
ENDBRANCH  53  54
ENDBRANCH  14  53
BRANCH   1  58
HETATM   58  C2  UNL     1      -5.570  46.691 -31.861  1.00  0.00     0.289 C 
HETATM   59  O2  UNL     1      -4.983  46.979 -30.835  1.00  0.00    -0.260 OA
BRANCH  58  60
HETATM   60  O1  UNL     1      -5.023  46.626 -33.106  1.00  0.00    -0.323 OA
HETATM   61  C1  UNL     1      -4.127  47.694 -33.414  1.00  0.00     0.213 C 
ENDBRANCH  58  60
ENDBRANCH   1  58
TORSDOF 13
ENDMDL
MODEL 6
REMARK minimizedAffinity -6.94651127
REMARK CNNscore 0.19028683
REMARK CNNaffinity 6.55339432
REMARK  13 active torsions:
REMARK  status: ('A' for Active; 'I' for Inactive)
REMARK    1  A    between atoms: O1_2  and  C2_3 
REMARK    2  A    between atoms: C2_3  and  C3_5 
REMARK    3  A    between atoms: C16_18  and  C17_19 
REMARK    4  A    between atoms: C17_19  and  C18_20 
REMARK    5  A    between atoms: C18_20  and  O4_22 
REMARK    6  A    between atoms: C24_32  and  C25_33 
REMARK    7  A    between atoms: C25_33  and  C26_34 
REMARK    8  A    between atoms: C26_34  and  C27_35 
REMARK    9  A    between atoms: C27_35  and  O9_36 
REMARK   10  A    between atoms: C29_39  and  C30_40 
REMARK   11  A    between atoms: C30_40  and  C32_42 
REMARK   12  A    between atoms: C43_53  and  O10_54 
REMARK   13  A    between atoms: C44_55  and  O11_56 
ROOT
HETATM    1  C3  UNL     1      -3.200  50.092 -23.050  1.00  0.00     0.020 C 
HETATM    2  C4  UNL     1      -3.356  50.273 -21.724  1.00  0.00     0.003 C 
HETATM    3  C5  UNL     1      -4.044  49.285 -20.750  1.00  0.00     0.026 C 
HETATM    4  C6  UNL     1      -5.244  50.097 -20.265  1.00  0.00    -0.012 C 
HETATM    5  C7  UNL     1      -6.052  49.810 -19.239  1.00  0.00     0.002 C 
HETATM    6  C8  UNL     1      -6.043  48.482 -18.568  1.00  0.00     0.144 C 
HETATM    7  C9  UNL     1      -4.878  48.459 -17.594  1.00  0.00     0.036 C 
HETATM    8  C10 UNL     1      -3.543  48.157 -18.324  1.00  0.00     0.009 C 
HETATM    9  C11 UNL     1      -3.057  49.074 -19.520  1.00  0.00     0.007 C 
HETATM   10  C12 UNL     1      -1.618  48.618 -19.924  1.00  0.00     0.033 C 
HETATM   11  C13 UNL     1      -1.261  47.841 -21.170  1.00  0.00    -0.030 C 
HETATM   12  C14 UNL     1      -1.934  47.431 -22.255  1.00  0.00    -0.023 C 
HETATM   13  C15 UNL     1      -3.385  47.622 -22.668  1.00  0.00     0.047 C 
HETATM   14  C16 UNL     1      -3.593  48.776 -23.694  1.00  0.00     0.044 C 
HETATM   15  C19 UNL     1      -4.289  47.851 -21.430  1.00  0.00     0.149 C 
HETATM   16  O5  UNL     1      -5.571  47.233 -21.633  1.00  0.00    -0.351 OA
HETATM   17  C20 UNL     1      -6.674  47.925 -22.166  1.00  0.00     0.297 C 
HETATM   18  O6  UNL     1      -7.445  48.480 -21.095  1.00  0.00    -0.347 OA
HETATM   19  C21 UNL     1      -8.100  47.482 -20.294  1.00  0.00     0.191 C 
HETATM   20  C22 UNL     1      -8.438  48.102 -18.925  1.00  0.00     0.204 C 
HETATM   21  O7  UNL     1      -7.319  48.214 -17.983  1.00  0.00    -0.379 OA
HETATM   22  C23 UNL     1      -9.262  46.893 -21.157  1.00  0.00     0.148 A 
HETATM   23  O8  UNL     1     -10.507  47.488 -20.735  1.00  0.00    -0.332 OA
HETATM   24  C24 UNL     1     -11.516  46.680 -20.257  1.00  0.00     0.075 A 
HETATM   25  C28 UNL     1     -11.408  45.348 -20.213  1.00  0.00     0.072 A 
HETATM   26  N1  UNL     1     -12.242  44.342 -19.811  1.00  0.00    -0.357 N 
HETATM   27  C29 UNL     1     -11.676  43.093 -20.020  1.00  0.00     0.014 A 
HETATM   28  C38 UNL     1     -10.423  43.232 -20.524  1.00  0.00     0.039 A 
HETATM   29  C39 UNL     1     -10.207  44.661 -20.665  1.00  0.00     0.001 A 
HETATM   30  C40 UNL     1      -9.162  45.358 -21.126  1.00  0.00    -0.027 A 
HETATM   31  C41 UNL     1      -7.874  44.771 -21.666  1.00  0.00     0.041 C 
HETATM   32  C42 UNL     1      -7.352  45.467 -22.934  1.00  0.00     0.050 C 
HETATM   33  C43 UNL     1      -7.602  46.997 -23.042  1.00  0.00     0.136 C 
HETATM   34  C44 UNL     1      -9.058  47.317 -22.651  1.00  0.00     0.199 C 
HETATM   35  H34 UNL     1     -13.236  44.488 -19.677  1.00  0.00     0.166 HD
ENDROOT
BRANCH  27  36
HETATM   36  C30 UNL     1     -12.381  41.797 -19.696  1.00  0.00     0.035 C 
HETATM   37  C31 UNL     1     -13.619  41.610 -20.587  1.00  0.00     0.017 C 
BRANCH  36  38
HETATM   38  C32 UNL     1     -12.662  41.651 -18.171  1.00  0.00    -0.005 C 
HETATM   39  C33 UNL     1     -11.582  42.254 -17.237  1.00  0.00     0.005 C 
HETATM   40  C34 UNL     1     -12.118  43.345 -16.318  1.00  0.00     0.000 C 
HETATM   41  C35 UNL     1     -13.320  42.881 -15.500  1.00  0.00     0.000 C 
HETATM   42  C36 UNL     1     -14.323  42.050 -16.308  1.00  0.00     0.000 C 
HETATM   43  C37 UNL     1     -14.078  42.141 -17.811  1.00  0.00     0.005 C 
ENDBRANCH  36  38
ENDBRANCH  27  36
BRANCH  24  44
HETATM   44  C25 UNL     1     -12.718  47.443 -19.757  1.00  0.00     0.069 C 
BRANCH  44  45
HETATM   45  C26 UNL     1     -12.757  47.598 -18.233  1.00  0.00     0.033 C 
BRANCH  45  46
HETATM   46  C27 UNL     1     -13.962  46.925 -17.583  1.00  0.00     0.164 C 
BRANCH  46  47
HETATM   47  O9  UNL     1     -13.804  46.877 -16.171  1.00  0.00    -0.401 OA
HETATM   48  H33 UNL     1     -13.853  47.790 -15.842  1.00  0.00     0.209 HD
ENDBRANCH  46  47
ENDBRANCH  45  46
ENDBRANCH  44  45
ENDBRANCH  24  44
BRANCH  34  49
HETATM   49  O11 UNL     1      -9.964  46.694 -23.593  1.00  0.00    -0.389 OA
HETATM   50  H57 UNL     1     -10.357  45.902 -23.169  1.00  0.00     0.210 HD
ENDBRANCH  34  49
BRANCH  33  51
HETATM   51  O10 UNL     1      -7.407  47.337 -24.433  1.00  0.00    -0.382 OA
HETATM   52  H55 UNL     1      -8.248  47.099 -24.876  1.00  0.00     0.210 HD
ENDBRANCH  33  51
BRANCH  14  53
HETATM   53  C17 UNL     1      -3.230  48.469 -25.156  1.00  0.00     0.120 C 
BRANCH  53  54
HETATM   54  C18 UNL     1      -4.219  48.663 -26.273  1.00  0.00     0.140 C 
HETATM   55  O3  UNL     1      -5.235  48.011 -26.483  1.00  0.00    -0.650 OA
BRANCH  54  56
HETATM   56  O4  UNL     1      -4.004  49.810 -26.947  1.00  0.00    -0.776 OA
HETATM   57  H21 UNL     1      -4.712  49.830 -27.623  1.00  0.00     0.167 HD
ENDBRANCH  54  56
ENDBRANCH  53  54
ENDBRANCH  14  53
BRANCH   1  58
HETATM   58  C2  UNL     1      -2.723  51.227 -23.873  1.00  0.00     0.289 C 
HETATM   59  O2  UNL     1      -1.566  51.596 -23.941  1.00  0.00    -0.260 OA
BRANCH  58  60
HETATM   60  O1  UNL     1      -3.760  51.699 -24.621  1.00  0.00    -0.323 OA
HETATM   61  C1  UNL     1      -4.952  51.955 -23.880  1.00  0.00     0.213 C 
ENDBRANCH  58  60
ENDBRANCH   1  58
TORSDOF 13
ENDMDL
MODEL 7
REMARK minimizedAffinity -6.89670229
REMARK CNNscore 0.177898049
REMARK CNNaffinity 6.26973677
REMARK  13 active torsions:
REMARK  status: ('A' for Active; 'I' for Inactive)
REMARK    1  A    between atoms: O1_2  and  C2_3 
REMARK    2  A    between atoms: C2_3  and  C3_5 
REMARK    3  A    between atoms: C16_18  and  C17_19 
REMARK    4  A    between atoms: C17_19  and  C18_20 
REMARK    5  A    between atoms: C18_20  and  O4_22 
REMARK    6  A    between atoms: C24_32  and  C25_33 
REMARK    7  A    between atoms: C25_33  and  C26_34 
REMARK    8  A    between atoms: C26_34  and  C27_35 
REMARK    9  A    between atoms: C27_35  and  O9_36 
REMARK   10  A    between atoms: C29_39  and  C30_40 
REMARK   11  A    between atoms: C30_40  and  C32_42 
REMARK   12  A    between atoms: C43_53  and  O10_54 
REMARK   13  A    between atoms: C44_55  and  O11_56 
ROOT
HETATM    1  C3  UNL     1      -4.516  50.634 -22.911  1.00  0.00     0.020 C 
HETATM    2  C4  UNL     1      -4.975  50.174 -21.730  1.00  0.00     0.003 C 
HETATM    3  C5  UNL     1      -5.676  48.813 -21.499  1.00  0.00     0.026 C 
HETATM    4  C6  UNL     1      -7.070  49.244 -21.046  1.00  0.00    -0.012 C 
HETATM    5  C7  UNL     1      -8.016  48.474 -20.497  1.00  0.00     0.002 C 
HETATM    6  C8  UNL     1      -7.925  46.988 -20.491  1.00  0.00     0.144 C 
HETATM    7  C9  UNL     1      -7.003  46.582 -19.354  1.00  0.00     0.036 C 
HETATM    8  C10 UNL     1      -5.513  46.723 -19.763  1.00  0.00     0.009 C 
HETATM    9  C11 UNL     1      -4.948  48.112 -20.270  1.00  0.00     0.007 C 
HETATM   10  C12 UNL     1      -3.401  47.972 -20.436  1.00  0.00     0.033 C 
HETATM   11  C13 UNL     1      -2.665  47.878 -21.753  1.00  0.00    -0.030 C 
HETATM   12  C14 UNL     1      -3.016  47.978 -23.043  1.00  0.00    -0.023 C 
HETATM   13  C15 UNL     1      -4.360  48.259 -23.699  1.00  0.00     0.047 C 
HETATM   14  C16 UNL     1      -4.538  49.743 -24.140  1.00  0.00     0.044 C 
HETATM   15  C19 UNL     1      -5.528  47.842 -22.770  1.00  0.00     0.149 C 
HETATM   16  O5  UNL     1      -6.617  47.320 -23.549  1.00  0.00    -0.351 OA
HETATM   17  C20 UNL     1      -7.684  48.118 -24.001  1.00  0.00     0.297 C 
HETATM   18  O6  UNL     1      -8.744  48.075 -23.040  1.00  0.00    -0.347 OA
HETATM   19  C21 UNL     1      -9.375  46.786 -22.953  1.00  0.00     0.191 C 
HETATM   20  C22 UNL     1     -10.092  46.686 -21.593  1.00  0.00     0.204 C 
HETATM   21  O7  UNL     1      -9.231  46.412 -20.438  1.00  0.00    -0.379 OA
HETATM   22  C23 UNL     1     -10.215  46.599 -24.258  1.00  0.00     0.148 A 
HETATM   23  O8  UNL     1     -11.603  46.865 -23.965  1.00  0.00    -0.332 OA
HETATM   24  C24 UNL     1     -12.539  45.875 -24.168  1.00  0.00     0.075 A 
HETATM   25  C28 UNL     1     -12.220  44.679 -24.677  1.00  0.00     0.072 A 
HETATM   26  N1  UNL     1     -12.940  43.558 -24.985  1.00  0.00    -0.357 N 
HETATM   27  C29 UNL     1     -12.141  42.579 -25.556  1.00  0.00     0.014 A 
HETATM   28  C38 UNL     1     -10.851  43.002 -25.601  1.00  0.00     0.039 A 
HETATM   29  C39 UNL     1     -10.854  44.344 -25.048  1.00  0.00     0.001 A 
HETATM   30  C40 UNL     1      -9.868  45.231 -24.869  1.00  0.00    -0.027 A 
HETATM   31  C41 UNL     1      -8.415  45.029 -25.250  1.00  0.00     0.041 C 
HETATM   32  C42 UNL     1      -7.763  46.258 -25.904  1.00  0.00     0.050 C 
HETATM   33  C43 UNL     1      -8.237  47.650 -25.402  1.00  0.00     0.136 C 
HETATM   34  C44 UNL     1      -9.776  47.674 -25.309  1.00  0.00     0.199 C 
HETATM   35  H34 UNL     1     -13.949  43.572 -25.068  1.00  0.00     0.166 HD
ENDROOT
BRANCH  27  36
HETATM   36  C30 UNL     1     -12.670  41.243 -26.023  1.00  0.00     0.035 C 
HETATM   37  C31 UNL     1     -13.556  41.411 -27.267  1.00  0.00     0.017 C 
BRANCH  36  38
HETATM   38  C32 UNL     1     -13.336  40.442 -24.865  1.00  0.00    -0.005 C 
HETATM   39  C33 UNL     1     -12.525  40.387 -23.545  1.00  0.00     0.005 C 
HETATM   40  C34 UNL     1     -13.266  40.986 -22.355  1.00  0.00     0.000 C 
HETATM   41  C35 UNL     1     -14.644  40.362 -22.151  1.00  0.00     0.000 C 
HETATM   42  C36 UNL     1     -15.416  40.148 -23.459  1.00  0.00     0.000 C 
HETATM   43  C37 UNL     1     -14.790  40.895 -24.633  1.00  0.00     0.005 C 
ENDBRANCH  36  38
ENDBRANCH  27  36
BRANCH  24  44
HETATM   44  C25 UNL     1     -13.929  46.255 -23.723  1.00  0.00     0.069 C 
BRANCH  44  45
HETATM   45  C26 UNL     1     -14.766  46.921 -24.820  1.00  0.00     0.033 C 
BRANCH  45  46
HETATM   46  C27 UNL     1     -16.240  47.075 -24.455  1.00  0.00     0.164 C 
BRANCH  46  47
HETATM   47  O9  UNL     1     -16.444  46.790 -23.078  1.00  0.00    -0.401 OA
HETATM   48  H33 UNL     1     -16.012  47.496 -22.568  1.00  0.00     0.209 HD
ENDBRANCH  46  47
ENDBRANCH  45  46
ENDBRANCH  44  45
ENDBRANCH  24  44
BRANCH  34  49
HETATM   49  O11 UNL     1     -10.346  47.507 -26.630  1.00  0.00    -0.389 OA
HETATM   50  H57 UNL     1     -10.681  46.590 -26.710  1.00  0.00     0.210 HD
ENDBRANCH  34  49
BRANCH  33  51
HETATM   51  O10 UNL     1      -7.815  48.602 -26.403  1.00  0.00    -0.382 OA
HETATM   52  H55 UNL     1      -8.493  48.551 -27.109  1.00  0.00     0.210 HD
ENDBRANCH  33  51
BRANCH  14  53
HETATM   53  C17 UNL     1      -3.830  50.164 -25.437  1.00  0.00     0.120 C 
BRANCH  53  54
HETATM   54  C18 UNL     1      -2.923  49.224 -26.182  1.00  0.00     0.140 C 
HETATM   55  O3  UNL     1      -3.253  48.331 -26.954  1.00  0.00    -0.650 OA
BRANCH  54  56
HETATM   56  O4  UNL     1      -1.629  49.593 -26.096  1.00  0.00    -0.776 OA
HETATM   57  H21 UNL     1      -1.150  48.926 -26.629  1.00  0.00     0.167 HD
ENDBRANCH  54  56
ENDBRANCH  53  54
ENDBRANCH  14  53
BRANCH   1  58
HETATM   58  C2  UNL     1      -4.074  52.044 -23.005  1.00  0.00     0.289 C 
HETATM   59  O2  UNL     1      -4.762  52.959 -23.417  1.00  0.00    -0.260 OA
BRANCH  58  60
HETATM   60  O1  UNL     1      -2.837  52.159 -22.447  1.00  0.00    -0.323 OA
HETATM   61  C1  UNL     1      -1.762  52.137 -23.387  1.00  0.00     0.213 C 
ENDBRANCH  58  60
ENDBRANCH   1  58
TORSDOF 13
ENDMDL
MODEL 8
REMARK minimizedAffinity -9.0532608
REMARK CNNscore 0.171011373
REMARK CNNaffinity 5.81305695
REMARK  13 active torsions:
REMARK  status: ('A' for Active; 'I' for Inactive)
REMARK    1  A    between atoms: O1_2  and  C2_3 
REMARK    2  A    between atoms: C2_3  and  C3_5 
REMARK    3  A    between atoms: C16_18  and  C17_19 
REMARK    4  A    between atoms: C17_19  and  C18_20 
REMARK    5  A    between atoms: C18_20  and  O4_22 
REMARK    6  A    between atoms: C24_32  and  C25_33 
REMARK    7  A    between atoms: C25_33  and  C26_34 
REMARK    8  A    between atoms: C26_34  and  C27_35 
REMARK    9  A    between atoms: C27_35  and  O9_36 
REMARK   10  A    between atoms: C29_39  and  C30_40 
REMARK   11  A    between atoms: C30_40  and  C32_42 
REMARK   12  A    between atoms: C43_53  and  O10_54 
REMARK   13  A    between atoms: C44_55  and  O11_56 
ROOT
HETATM    1  C3  UNL     1      -7.732  46.285 -31.609  1.00  0.00     0.020 C 
HETATM    2  C4  UNL     1      -7.956  44.965 -31.451  1.00  0.00     0.003 C 
HETATM    3  C5  UNL     1      -9.269  44.325 -30.937  1.00  0.00     0.026 C 
HETATM    4  C6  UNL     1      -8.813  43.661 -29.638  1.00  0.00    -0.012 C 
HETATM    5  C7  UNL     1      -9.493  42.777 -28.900  1.00  0.00     0.002 C 
HETATM    6  C8  UNL     1     -10.940  42.505 -29.120  1.00  0.00     0.144 C 
HETATM    7  C9  UNL     1     -11.062  41.548 -30.293  1.00  0.00     0.036 C 
HETATM    8  C10 UNL     1     -10.945  42.300 -31.644  1.00  0.00     0.009 C 
HETATM    9  C11 UNL     1      -9.668  43.179 -31.966  1.00  0.00     0.007 C 
HETATM   10  C12 UNL     1      -9.773  43.658 -33.449  1.00  0.00     0.033 C 
HETATM   11  C13 UNL     1     -10.106  45.063 -33.896  1.00  0.00    -0.030 C 
HETATM   12  C14 UNL     1     -10.290  46.235 -33.273  1.00  0.00    -0.023 C 
HETATM   13  C15 UNL     1     -10.209  46.615 -31.802  1.00  0.00     0.047 C 
HETATM   14  C16 UNL     1      -8.858  47.282 -31.405  1.00  0.00     0.044 C 
HETATM   15  C19 UNL     1     -10.475  45.385 -30.897  1.00  0.00     0.149 C 
HETATM   16  O5  UNL     1     -11.193  45.784 -29.719  1.00  0.00    -0.351 OA
HETATM   17  C20 UNL     1     -10.552  46.129 -28.514  1.00  0.00     0.297 C 
HETATM   18  O6  UNL     1     -10.441  44.965 -27.689  1.00  0.00    -0.347 OA
HETATM   19  C21 UNL     1     -11.709  44.493 -27.206  1.00  0.00     0.191 C 
HETATM   20  C22 UNL     1     -11.556  43.013 -26.803  1.00  0.00     0.204 C 
HETATM   21  O7  UNL     1     -11.548  42.051 -27.910  1.00  0.00    -0.379 OA
HETATM   22  C23 UNL     1     -12.198  45.515 -26.128  1.00  0.00     0.148 A 
HETATM   23  O8  UNL     1     -11.937  44.974 -24.816  1.00  0.00    -0.332 OA
HETATM   24  C24 UNL     1     -12.988  44.767 -23.948  1.00  0.00     0.075 A 
HETATM   25  C28 UNL     1     -14.248  45.095 -24.256  1.00  0.00     0.072 A 
HETATM   26  N1  UNL     1     -15.438  45.012 -23.589  1.00  0.00    -0.357 N 
HETATM   27  C29 UNL     1     -16.479  45.548 -24.331  1.00  0.00     0.014 A 
HETATM   28  C38 UNL     1     -16.020  45.962 -25.540  1.00  0.00     0.039 A 
HETATM   29  C39 UNL     1     -14.593  45.692 -25.537  1.00  0.00     0.001 A 
HETATM   30  C40 UNL     1     -13.648  45.913 -26.458  1.00  0.00    -0.027 A 
HETATM   31  C41 UNL     1     -13.861  46.564 -27.809  1.00  0.00     0.041 C 
HETATM   32  C42 UNL     1     -12.767  47.572 -28.198  1.00  0.00     0.050 C 
HETATM   33  C43 UNL     1     -11.324  47.254 -27.721  1.00  0.00     0.136 C 
HETATM   34  C44 UNL     1     -11.347  46.824 -26.240  1.00  0.00     0.199 C 
HETATM   35  H34 UNL     1     -15.485  44.867 -22.587  1.00  0.00     0.166 HD
ENDROOT
BRANCH  27  36
HETATM   36  C30 UNL     1     -17.904  45.619 -23.835  1.00  0.00     0.035 C 
HETATM   37  C31 UNL     1     -18.566  46.940 -24.257  1.00  0.00     0.017 C 
BRANCH  36  38
HETATM   38  C32 UNL     1     -18.007  45.310 -22.311  1.00  0.00    -0.005 C 
HETATM   39  C33 UNL     1     -17.596  46.471 -21.370  1.00  0.00     0.005 C 
HETATM   40  C34 UNL     1     -18.716  46.921 -20.441  1.00  0.00     0.000 C 
HETATM   41  C35 UNL     1     -19.300  45.769 -19.628  1.00  0.00     0.000 C 
HETATM   42  C36 UNL     1     -19.501  44.487 -20.445  1.00  0.00     0.000 C 
HETATM   43  C37 UNL     1     -19.388  44.731 -21.947  1.00  0.00     0.005 C 
ENDBRANCH  36  38
ENDBRANCH  27  36
BRANCH  24  44
HETATM   44  C25 UNL     1     -12.584  44.103 -22.656  1.00  0.00     0.069 C 
BRANCH  44  45
HETATM   45  C26 UNL     1     -12.645  45.034 -21.440  1.00  0.00     0.033 C 
BRANCH  45  46
HETATM   46  C27 UNL     1     -12.092  46.430 -21.711  1.00  0.00     0.164 C 
BRANCH  46  47
HETATM   47  O9  UNL     1     -13.131  47.397 -21.654  1.00  0.00    -0.401 OA
HETATM   48  H33 UNL     1     -13.428  47.450 -20.730  1.00  0.00     0.209 HD
ENDBRANCH  46  47
ENDBRANCH  45  46
ENDBRANCH  44  45
ENDBRANCH  24  44
BRANCH  34  49
HETATM   49  O11 UNL     1     -11.808  47.925 -25.421  1.00  0.00    -0.389 OA
HETATM   50  H57 UNL     1     -12.735  47.751 -25.158  1.00  0.00     0.210 HD
ENDBRANCH  34  49
BRANCH  33  51
HETATM   51  O10 UNL     1     -10.582  48.488 -27.837  1.00  0.00    -0.382 OA
HETATM   52  H55 UNL     1     -10.808  49.001 -27.033  1.00  0.00     0.210 HD
ENDBRANCH  33  51
BRANCH  14  53
HETATM   53  C17 UNL     1      -8.684  48.761 -31.784  1.00  0.00     0.120 C 
BRANCH  53  54
HETATM   54  C18 UNL     1      -8.668  49.846 -30.742  1.00  0.00     0.140 C 
HETATM   55  O3  UNL     1      -8.872  51.042 -30.913  1.00  0.00    -0.650 OA
BRANCH  54  56
HETATM   56  O4  UNL     1      -8.617  49.345 -29.491  1.00  0.00    -0.776 OA
HETATM   57  H21 UNL     1      -8.632  50.136 -28.913  1.00  0.00     0.167 HD
ENDBRANCH  54  56
ENDBRANCH  53  54
ENDBRANCH  14  53
BRANCH   1  58
HETATM   58  C2  UNL     1      -6.354  46.745 -31.895  1.00  0.00     0.289 C 
HETATM   59  O2  UNL     1      -5.559  47.117 -31.053  1.00  0.00    -0.260 OA
BRANCH  58  60
HETATM   60  O1  UNL     1      -6.094  46.567 -33.221  1.00  0.00    -0.323 OA
HETATM   61  C1  UNL     1      -5.635  47.739 -33.894  1.00  0.00     0.213 C 
ENDBRANCH  58  60
ENDBRANCH   1  58
TORSDOF 13
ENDMDL
MODEL 9
REMARK minimizedAffinity -8.68096066
REMARK CNNscore 0.164736673
REMARK CNNaffinity 6.10694742
REMARK  13 active torsions:
REMARK  status: ('A' for Active; 'I' for Inactive)
REMARK    1  A    between atoms: O1_2  and  C2_3 
REMARK    2  A    between atoms: C2_3  and  C3_5 
REMARK    3  A    between atoms: C16_18  and  C17_19 
REMARK    4  A    between atoms: C17_19  and  C18_20 
REMARK    5  A    between atoms: C18_20  and  O4_22 
REMARK    6  A    between atoms: C24_32  and  C25_33 
REMARK    7  A    between atoms: C25_33  and  C26_34 
REMARK    8  A    between atoms: C26_34  and  C27_35 
REMARK    9  A    between atoms: C27_35  and  O9_36 
REMARK   10  A    between atoms: C29_39  and  C30_40 
REMARK   11  A    between atoms: C30_40  and  C32_42 
REMARK   12  A    between atoms: C43_53  and  O10_54 
REMARK   13  A    between atoms: C44_55  and  O11_56 
ROOT
HETATM    1  C3  UNL     1      -7.512  46.548 -31.222  1.00  0.00     0.020 C 
HETATM    2  C4  UNL     1      -7.558  45.216 -31.021  1.00  0.00     0.003 C 
HETATM    3  C5  UNL     1      -8.829  44.391 -30.701  1.00  0.00     0.026 C 
HETATM    4  C6  UNL     1      -8.519  43.857 -29.303  1.00  0.00    -0.012 C 
HETATM    5  C7  UNL     1      -9.179  42.901 -28.639  1.00  0.00     0.002 C 
HETATM    6  C8  UNL     1     -10.503  42.392 -29.088  1.00  0.00     0.144 C 
HETATM    7  C9  UNL     1     -10.264  41.386 -30.200  1.00  0.00     0.036 C 
HETATM    8  C10 UNL     1     -10.021  42.099 -31.557  1.00  0.00     0.009 C 
HETATM    9  C11 UNL     1      -8.856  43.160 -31.708  1.00  0.00     0.007 C 
HETATM   10  C12 UNL     1      -8.763  43.562 -33.215  1.00  0.00     0.033 C 
HETATM   11  C13 UNL     1      -9.221  44.878 -33.802  1.00  0.00    -0.030 C 
HETATM   12  C14 UNL     1      -9.691  46.027 -33.296  1.00  0.00    -0.023 C 
HETATM   13  C15 UNL     1      -9.935  46.467 -31.861  1.00  0.00     0.047 C 
HETATM   14  C16 UNL     1      -8.795  47.357 -31.280  1.00  0.00     0.044 C 
HETATM   15  C19 UNL     1     -10.169  45.244 -30.938  1.00  0.00     0.149 C 
HETATM   16  O5  UNL     1     -11.141  45.564 -29.929  1.00  0.00    -0.351 OA
HETATM   17  C20 UNL     1     -10.788  46.051 -28.657  1.00  0.00     0.297 C 
HETATM   18  O6  UNL     1     -10.651  44.950 -27.752  1.00  0.00    -0.347 OA
HETATM   19  C21 UNL     1     -11.899  44.297 -27.466  1.00  0.00     0.191 C 
HETATM   20  C22 UNL     1     -11.598  42.877 -26.949  1.00  0.00     0.204 C 
HETATM   21  O7  UNL     1     -11.243  41.889 -27.974  1.00  0.00    -0.379 OA
HETATM   22  C23 UNL     1     -12.724  45.265 -26.557  1.00  0.00     0.148 A 
HETATM   23  O8  UNL     1     -12.625  44.821 -25.187  1.00  0.00    -0.332 OA
HETATM   24  C24 UNL     1     -13.771  44.478 -24.502  1.00  0.00     0.075 A 
HETATM   25  C28 UNL     1     -14.990  44.587 -25.043  1.00  0.00     0.072 A 
HETATM   26  N1  UNL     1     -16.254  44.337 -24.587  1.00  0.00    -0.357 N 
HETATM   27  C29 UNL     1     -17.214  44.671 -25.531  1.00  0.00     0.014 A 
HETATM   28  C38 UNL     1     -16.612  45.110 -26.667  1.00  0.00     0.039 A 
HETATM   29  C39 UNL     1     -15.185  45.074 -26.400  1.00  0.00     0.001 A 
HETATM   30  C40 UNL     1     -14.134  45.411 -27.156  1.00  0.00    -0.027 A 
HETATM   31  C41 UNL     1     -14.197  45.971 -28.563  1.00  0.00     0.041 C 
HETATM   32  C42 UNL     1     -13.217  47.128 -28.821  1.00  0.00     0.050 C 
HETATM   33  C43 UNL     1     -11.852  47.064 -28.082  1.00  0.00     0.136 C 
HETATM   34  C44 UNL     1     -12.077  46.690 -26.603  1.00  0.00     0.199 C 
HETATM   35  H34 UNL     1     -16.458  44.223 -23.601  1.00  0.00     0.166 HD
ENDROOT
BRANCH  27  36
HETATM   36  C30 UNL     1     -18.699  44.529 -25.293  1.00  0.00     0.035 C 
HETATM   37  C31 UNL     1     -19.493  44.900 -26.556  1.00  0.00     0.017 C 
BRANCH  36  38
HETATM   38  C32 UNL     1     -19.158  45.275 -24.005  1.00  0.00    -0.005 C 
HETATM   39  C33 UNL     1     -19.806  44.382 -22.917  1.00  0.00     0.005 C 
HETATM   40  C34 UNL     1     -19.061  44.412 -21.588  1.00  0.00     0.000 C 
HETATM   41  C35 UNL     1     -18.870  45.830 -21.057  1.00  0.00     0.000 C 
HETATM   42  C36 UNL     1     -18.469  46.837 -22.141  1.00  0.00     0.000 C 
HETATM   43  C37 UNL     1     -18.031  46.157 -23.434  1.00  0.00     0.005 C 
ENDBRANCH  36  38
ENDBRANCH  27  36
BRANCH  24  44
HETATM   44  C25 UNL     1     -13.510  43.935 -23.120  1.00  0.00     0.069 C 
BRANCH  44  45
HETATM   45  C26 UNL     1     -13.833  44.928 -21.997  1.00  0.00     0.033 C 
BRANCH  45  46
HETATM   46  C27 UNL     1     -12.608  45.668 -21.468  1.00  0.00     0.164 C 
BRANCH  46  47
HETATM   47  O9  UNL     1     -12.832  47.071 -21.478  1.00  0.00    -0.401 OA
HETATM   48  H33 UNL     1     -13.514  47.262 -20.812  1.00  0.00     0.209 HD
ENDBRANCH  46  47
ENDBRANCH  45  46
ENDBRANCH  44  45
ENDBRANCH  24  44
BRANCH  34  49
HETATM   49  O11 UNL     1     -12.840  47.730 -25.948  1.00  0.00    -0.389 OA
HETATM   50  H57 UNL     1     -13.762  47.418 -25.839  1.00  0.00     0.210 HD
ENDBRANCH  34  49
BRANCH  33  51
HETATM   51  O10 UNL     1     -11.299  48.397 -28.148  1.00  0.00    -0.382 OA
HETATM   52  H55 UNL     1     -11.741  48.895 -27.428  1.00  0.00     0.210 HD
ENDBRANCH  33  51
BRANCH  14  53
HETATM   53  C17 UNL     1      -8.784  48.830 -31.717  1.00  0.00     0.120 C 
BRANCH  53  54
HETATM   54  C18 UNL     1      -8.740  49.951 -30.714  1.00  0.00     0.140 C 
HETATM   55  O3  UNL     1      -8.871  51.149 -30.934  1.00  0.00    -0.650 OA
BRANCH  54  56
HETATM   56  O4  UNL     1      -8.755  49.495 -29.445  1.00  0.00    -0.776 OA
HETATM   57  H21 UNL     1      -8.744  50.306 -28.896  1.00  0.00     0.167 HD
ENDBRANCH  54  56
ENDBRANCH  53  54
ENDBRANCH  14  53
BRANCH   1  58
HETATM   58  C2  UNL     1      -6.192  47.214 -31.295  1.00  0.00     0.289 C 
HETATM   59  O2  UNL     1      -5.598  47.680 -30.342  1.00  0.00    -0.260 OA
BRANCH  58  60
HETATM   60  O1  UNL     1      -5.712  47.107 -32.566  1.00  0.00    -0.323 OA
HETATM   61  C1  UNL     1      -4.330  46.760 -32.647  1.00  0.00     0.213 C 
ENDBRANCH  58  60
ENDBRANCH   1  58
TORSDOF 13
ENDMDL
