MODEL 1
REMARK minimizedAffinity -8.73736191
REMARK CNNscore 0.595818698
REMARK CNNaffinity 7.57004023
REMARK  14 active torsions:
REMARK  status: ('A' for Active; 'I' for Inactive)
REMARK    1  A    between atoms: C19_20  and  O2_21 
REMARK    2  A    between atoms: C19_20  and  C20_22 
REMARK    3  A    between atoms: C20_22  and  C21_24 
REMARK    4  A    between atoms: C21_24  and  O4_25 
REMARK    5  A    between atoms: O4_25  and  C22_26 
REMARK    6  A    between atoms: C22_26  and  C23_28 
REMARK    7  A    between atoms: C23_28  and  C24_29 
REMARK    8  A    between atoms: C24_29  and  C25_30 
REMARK       I    between atoms: C25_30  and  N1_32 
REMARK    9  A    between atoms: N1_32  and  C26_33 
REMARK   10  A    between atoms: C26_33  and  C27_34 
REMARK   11  A    between atoms: C27_34  and  C28_35 
REMARK   12  A    between atoms: C27_34  and  C30_39 
REMARK   13  A    between atoms: C28_35  and  C29_36 
REMARK   14  A    between atoms: C29_36  and  O8_38 
ROOT
HETATM    1  C20 UNL     1      -6.159   4.535  13.361  1.00  0.00     0.185 C 
HETATM    2  O3  UNL     1      -6.702   3.925  12.430  1.00  0.00    -0.292 OA
ENDROOT
BRANCH   1   3
HETATM    3  C19 UNL     1      -7.033   5.075  14.510  1.00  0.00     0.128 C 
HETATM    4  C14 UNL     1      -7.997   6.227  14.087  1.00  0.00    -0.002 C 
HETATM    5  C13 UNL     1      -9.235   5.825  13.267  1.00  0.00     0.013 C 
HETATM    6  C15 UNL     1      -7.213   7.331  13.327  1.00  0.00     0.019 C 
HETATM    7  C16 UNL     1      -8.495   6.676  15.483  1.00  0.00     0.002 C 
HETATM    8  C12 UNL     1     -10.266   6.966  13.172  1.00  0.00     0.007 C 
HETATM    9  C11 UNL     1     -10.678   7.533  14.553  1.00  0.00     0.002 C 
HETATM   10  C2  UNL     1     -11.703   8.724  14.494  1.00  0.00    -0.016 C 
HETATM   11  C10 UNL     1      -9.423   7.894  15.428  1.00  0.00    -0.004 C 
HETATM   12  C1  UNL     1     -11.104   9.969  13.793  1.00  0.00     0.020 C 
HETATM   13  C3  UNL     1     -12.999   8.389  13.701  1.00  0.00     0.022 C 
HETATM   14  C7  UNL     1     -12.045   9.042  15.956  1.00  0.00    -0.068 C 
HETATM   15  C4  UNL     1     -13.958   7.484  14.451  1.00  0.00     0.084 C 
HETATM   16  C5  UNL     1     -14.325   8.125  15.766  1.00  0.00     0.149 C 
HETATM   17  O1  UNL     1     -15.440   8.013  16.266  1.00  0.00    -0.293 OA
HETATM   18  C6  UNL     1     -13.251   8.824  16.512  1.00  0.00     0.053 C 
HETATM   19  C8  UNL     1     -10.884   9.472  16.818  1.00  0.00     0.035 C 
HETATM   20  C9  UNL     1      -9.835   8.357  16.841  1.00  0.00     0.010 C 
HETATM   21  C17 UNL     1      -7.215   6.768  16.308  1.00  0.00     0.009 C 
HETATM   22  C18 UNL     1      -6.305   5.655  15.745  1.00  0.00     0.047 C 
BRANCH   3  23
HETATM   23  O2  UNL     1      -7.796   3.945  14.975  1.00  0.00    -0.381 OA
HETATM   24  H27 UNL     1      -8.065   3.447  14.176  1.00  0.00     0.211 HD
ENDBRANCH   3  23
ENDBRANCH   1   3
BRANCH   1  25
HETATM   25  C21 UNL     1      -4.656   4.778  13.398  1.00  0.00     0.260 C 
BRANCH  25  26
HETATM   26  O4  UNL     1      -4.051   4.648  12.111  1.00  0.00    -0.314 OA
BRANCH  26  27
HETATM   27  C22 UNL     1      -2.879   3.952  12.109  1.00  0.00     0.259 C 
HETATM   28  O5  UNL     1      -2.748   2.796  11.726  1.00  0.00    -0.265 OA
BRANCH  27  29
HETATM   29  C23 UNL     1      -1.755   4.816  12.627  1.00  0.00     0.120 C 
BRANCH  29  30
HETATM   30  C24 UNL     1      -0.896   5.320  11.473  1.00  0.00     0.112 C 
BRANCH  30  31
HETATM   31  C25 UNL     1       0.328   6.058  11.978  1.00  0.00     0.218 C 
HETATM   32  O6  UNL     1       0.996   5.682  12.938  1.00  0.00    -0.274 OA
HETATM   33  N1  UNL     1       0.608   7.197  11.264  1.00  0.00    -0.360 N 
HETATM   34  H34 UNL     1       0.078   7.384  10.414  1.00  0.00     0.162 HD
BRANCH  33  35
HETATM   35  C26 UNL     1       1.798   7.979  11.527  1.00  0.00     0.132 C 
BRANCH  35  36
HETATM   36  C27 UNL     1       3.018   7.603  10.651  1.00  0.00     0.046 C 
BRANCH  36  37
HETATM   37  C28 UNL     1       3.952   6.610  11.377  1.00  0.00     0.120 C 
BRANCH  37  38
HETATM   38  C29 UNL     1       5.409   7.000  11.418  1.00  0.00     0.140 C 
HETATM   39  O7  UNL     1       5.916   7.908  12.058  1.00  0.00    -0.650 OA
BRANCH  38  40
HETATM   40  O8  UNL     1       6.172   6.192  10.655  1.00  0.00    -0.776 OA
HETATM   41  H40 UNL     1       7.081   6.557  10.730  1.00  0.00     0.167 HD
ENDBRANCH  38  40
ENDBRANCH  37  38
ENDBRANCH  36  37
BRANCH  36  42
HETATM   42  C30 UNL     1       2.650   7.299   9.200  1.00  0.00    -0.052 A 
HETATM   43  C31 UNL     1       3.036   6.061   8.647  1.00  0.00     0.007 A 
HETATM   44  C32 UNL     1       2.718   5.722   7.330  1.00  0.00     0.001 A 
HETATM   45  C33 UNL     1       1.998   6.611   6.536  1.00  0.00     0.000 A 
HETATM   46  C34 UNL     1       1.594   7.834   7.066  1.00  0.00     0.001 A 
HETATM   47  C35 UNL     1       1.912   8.171   8.387  1.00  0.00     0.007 A 
ENDBRANCH  36  42
ENDBRANCH  35  36
ENDBRANCH  33  35
ENDBRANCH  30  31
ENDBRANCH  29  30
ENDBRANCH  27  29
ENDBRANCH  26  27
ENDBRANCH  25  26
ENDBRANCH   1  25
TORSDOF 14
ENDMDL
MODEL 2
REMARK minimizedAffinity -8.28578568
REMARK CNNscore 0.571545005
REMARK CNNaffinity 7.09670496
REMARK  14 active torsions:
REMARK  status: ('A' for Active; 'I' for Inactive)
REMARK    1  A    between atoms: C19_20  and  O2_21 
REMARK    2  A    between atoms: C19_20  and  C20_22 
REMARK    3  A    between atoms: C20_22  and  C21_24 
REMARK    4  A    between atoms: C21_24  and  O4_25 
REMARK    5  A    between atoms: O4_25  and  C22_26 
REMARK    6  A    between atoms: C22_26  and  C23_28 
REMARK    7  A    between atoms: C23_28  and  C24_29 
REMARK    8  A    between atoms: C24_29  and  C25_30 
REMARK       I    between atoms: C25_30  and  N1_32 
REMARK    9  A    between atoms: N1_32  and  C26_33 
REMARK   10  A    between atoms: C26_33  and  C27_34 
REMARK   11  A    between atoms: C27_34  and  C28_35 
REMARK   12  A    between atoms: C27_34  and  C30_39 
REMARK   13  A    between atoms: C28_35  and  C29_36 
REMARK   14  A    between atoms: C29_36  and  O8_38 
ROOT
HETATM    1  C20 UNL     1      -6.890   5.708  14.979  1.00  0.00     0.185 C 
HETATM    2  O3  UNL     1      -7.019   4.494  14.768  1.00  0.00    -0.292 OA
ENDROOT
BRANCH   1   3
HETATM    3  C19 UNL     1      -6.014   6.544  14.026  1.00  0.00     0.128 C 
HETATM    4  C14 UNL     1      -4.482   6.383  14.267  1.00  0.00    -0.002 C 
HETATM    5  C13 UNL     1      -3.841   5.069  13.786  1.00  0.00     0.013 C 
HETATM    6  C15 UNL     1      -4.149   6.596  15.768  1.00  0.00     0.019 C 
HETATM    7  C16 UNL     1      -3.954   7.515  13.352  1.00  0.00     0.002 C 
HETATM    8  C12 UNL     1      -2.302   5.139  13.783  1.00  0.00     0.007 C 
HETATM    9  C11 UNL     1      -1.747   6.348  12.991  1.00  0.00     0.002 C 
HETATM   10  C2  UNL     1      -0.179   6.472  12.996  1.00  0.00    -0.016 C 
HETATM   11  C10 UNL     1      -2.433   7.692  13.429  1.00  0.00    -0.004 C 
HETATM   12  C1  UNL     1       0.377   6.729  14.419  1.00  0.00     0.020 C 
HETATM   13  C3  UNL     1       0.547   5.189  12.497  1.00  0.00     0.022 C 
HETATM   14  C7  UNL     1       0.141   7.654  12.071  1.00  0.00    -0.068 C 
HETATM   15  C4  UNL     1       0.479   4.994  10.994  1.00  0.00     0.084 C 
HETATM   16  C5  UNL     1       1.063   6.202  10.307  1.00  0.00     0.149 C 
HETATM   17  O1  UNL     1       1.699   6.123   9.260  1.00  0.00    -0.293 OA
HETATM   18  C6  UNL     1       0.757   7.534  10.881  1.00  0.00     0.053 C 
HETATM   19  C8  UNL     1      -0.430   8.985  12.494  1.00  0.00     0.035 C 
HETATM   20  C9  UNL     1      -1.956   8.877  12.564  1.00  0.00     0.010 C 
HETATM   21  C17 UNL     1      -4.847   8.702  13.698  1.00  0.00     0.009 C 
HETATM   22  C18 UNL     1      -6.217   8.077  14.034  1.00  0.00     0.047 C 
BRANCH   3  23
HETATM   23  O2  UNL     1      -6.351   6.090  12.700  1.00  0.00    -0.381 OA
HETATM   24  H27 UNL     1      -6.447   5.118  12.758  1.00  0.00     0.211 HD
ENDBRANCH   3  23
ENDBRANCH   1   3
BRANCH   1  25
HETATM   25  C21 UNL     1      -7.562   6.396  16.161  1.00  0.00     0.260 C 
BRANCH  25  26
HETATM   26  O4  UNL     1      -8.986   6.402  16.052  1.00  0.00    -0.314 OA
BRANCH  26  27
HETATM   27  C22 UNL     1      -9.490   7.451  15.344  1.00  0.00     0.259 C 
HETATM   28  O5  UNL     1      -9.538   8.609  15.739  1.00  0.00    -0.265 OA
BRANCH  27  29
HETATM   29  C23 UNL     1      -9.966   6.988  13.988  1.00  0.00     0.120 C 
BRANCH  29  30
HETATM   30  C24 UNL     1     -11.221   7.747  13.576  1.00  0.00     0.112 C 
BRANCH  30  31
HETATM   31  C25 UNL     1     -12.474   7.057  14.077  1.00  0.00     0.218 C 
HETATM   32  O6  UNL     1     -12.507   5.876  14.412  1.00  0.00    -0.274 OA
HETATM   33  N1  UNL     1     -13.573   7.880  14.105  1.00  0.00    -0.360 N 
HETATM   34  H34 UNL     1     -13.445   8.874  13.919  1.00  0.00     0.162 HD
BRANCH  33  35
HETATM   35  C26 UNL     1     -14.836   7.433  14.653  1.00  0.00     0.132 C 
BRANCH  35  36
HETATM   36  C27 UNL     1     -15.832   6.884  13.602  1.00  0.00     0.046 C 
BRANCH  36  37
HETATM   37  C28 UNL     1     -15.379   7.222  12.164  1.00  0.00     0.120 C 
BRANCH  37  38
HETATM   38  C29 UNL     1     -16.053   8.416  11.534  1.00  0.00     0.140 C 
HETATM   39  O7  UNL     1     -15.583   9.529  11.366  1.00  0.00    -0.650 OA
BRANCH  38  40
HETATM   40  O8  UNL     1     -17.302   8.129  11.116  1.00  0.00    -0.776 OA
HETATM   41  H40 UNL     1     -17.650   8.977  10.761  1.00  0.00     0.167 HD
ENDBRANCH  38  40
ENDBRANCH  37  38
ENDBRANCH  36  37
BRANCH  36  42
HETATM   42  C30 UNL     1     -16.284   5.453  13.886  1.00  0.00    -0.052 A 
HETATM   43  C31 UNL     1     -15.439   4.610  14.636  1.00  0.00     0.007 A 
HETATM   44  C32 UNL     1     -15.804   3.295  14.937  1.00  0.00     0.001 A 
HETATM   45  C33 UNL     1     -17.028   2.796  14.500  1.00  0.00     0.000 A 
HETATM   46  C34 UNL     1     -17.885   3.615  13.769  1.00  0.00     0.001 A 
HETATM   47  C35 UNL     1     -17.518   4.933  13.470  1.00  0.00     0.007 A 
ENDBRANCH  36  42
ENDBRANCH  35  36
ENDBRANCH  33  35
ENDBRANCH  30  31
ENDBRANCH  29  30
ENDBRANCH  27  29
ENDBRANCH  26  27
ENDBRANCH  25  26
ENDBRANCH   1  25
TORSDOF 14
ENDMDL
MODEL 3
REMARK minimizedAffinity -8.05349445
REMARK CNNscore 0.443276376
REMARK CNNaffinity 6.57335615
REMARK  14 active torsions:
REMARK  status: ('A' for Active; 'I' for Inactive)
REMARK    1  A    between atoms: C19_20  and  O2_21 
REMARK    2  A    between atoms: C19_20  and  C20_22 
REMARK    3  A    between atoms: C20_22  and  C21_24 
REMARK    4  A    between atoms: C21_24  and  O4_25 
REMARK    5  A    between atoms: O4_25  and  C22_26 
REMARK    6  A    between atoms: C22_26  and  C23_28 
REMARK    7  A    between atoms: C23_28  and  C24_29 
REMARK    8  A    between atoms: C24_29  and  C25_30 
REMARK       I    between atoms: C25_30  and  N1_32 
REMARK    9  A    between atoms: N1_32  and  C26_33 
REMARK   10  A    between atoms: C26_33  and  C27_34 
REMARK   11  A    between atoms: C27_34  and  C28_35 
REMARK   12  A    between atoms: C27_34  and  C30_39 
REMARK   13  A    between atoms: C28_35  and  C29_36 
REMARK   14  A    between atoms: C29_36  and  O8_38 
ROOT
HETATM    1  C20 UNL     1       2.847  10.920  17.160  1.00  0.00     0.185 C 
HETATM    2  O3  UNL     1       3.635  11.240  16.261  1.00  0.00    -0.292 OA
ENDROOT
BRANCH   1   3
HETATM    3  C19 UNL     1       1.751   9.880  16.857  1.00  0.00     0.128 C 
HETATM    4  C14 UNL     1       1.488   9.660  15.335  1.00  0.00    -0.002 C 
HETATM    5  C13 UNL     1       2.543   8.849  14.562  1.00  0.00     0.013 C 
HETATM    6  C15 UNL     1       1.268  11.024  14.626  1.00  0.00     0.019 C 
HETATM    7  C16 UNL     1       0.208   8.793  15.413  1.00  0.00     0.002 C 
HETATM    8  C12 UNL     1       2.045   8.426  13.166  1.00  0.00     0.007 C 
HETATM    9  C11 UNL     1       0.689   7.679  13.202  1.00  0.00     0.002 C 
HETATM   10  C2  UNL     1       0.132   7.264  11.792  1.00  0.00    -0.016 C 
HETATM   11  C10 UNL     1      -0.384   8.466  14.038  1.00  0.00    -0.004 C 
HETATM   12  C1  UNL     1      -0.196   8.496  10.912  1.00  0.00     0.020 C 
HETATM   13  C3  UNL     1       1.132   6.416  10.954  1.00  0.00     0.022 C 
HETATM   14  C7  UNL     1      -1.140   6.452  12.077  1.00  0.00    -0.068 C 
HETATM   15  C4  UNL     1       1.260   4.979  11.425  1.00  0.00     0.084 C 
HETATM   16  C5  UNL     1      -0.097   4.323  11.402  1.00  0.00     0.149 C 
HETATM   17  O1  UNL     1      -0.254   3.140  11.117  1.00  0.00    -0.293 OA
HETATM   18  C6  UNL     1      -1.259   5.132  11.844  1.00  0.00     0.053 C 
HETATM   19  C8  UNL     1      -2.233   7.190  12.808  1.00  0.00     0.035 C 
HETATM   20  C9  UNL     1      -1.699   7.668  14.161  1.00  0.00     0.010 C 
HETATM   21  C17 UNL     1      -0.662   9.530  16.427  1.00  0.00     0.009 C 
HETATM   22  C18 UNL     1       0.339  10.148  17.427  1.00  0.00     0.047 C 
BRANCH   3  23
HETATM   23  O2  UNL     1       2.211   8.653  17.455  1.00  0.00    -0.381 OA
HETATM   24  H27 UNL     1       3.173   8.605  17.281  1.00  0.00     0.211 HD
ENDBRANCH   3  23
ENDBRANCH   1   3
BRANCH   1  25
HETATM   25  C21 UNL     1       2.920  11.532  18.553  1.00  0.00     0.260 C 
BRANCH  25  26
HETATM   26  O4  UNL     1       3.398  10.607  19.531  1.00  0.00    -0.314 OA
BRANCH  26  27
HETATM   27  C22 UNL     1       2.487  10.282  20.490  1.00  0.00     0.259 C 
HETATM   28  O5  UNL     1       1.279  10.464  20.403  1.00  0.00    -0.265 OA
BRANCH  27  29
HETATM   29  C23 UNL     1       3.175   9.643  21.672  1.00  0.00     0.120 C 
BRANCH  29  30
HETATM   30  C24 UNL     1       3.472  10.686  22.743  1.00  0.00     0.112 C 
BRANCH  30  31
HETATM   31  C25 UNL     1       4.944  11.044  22.770  1.00  0.00     0.218 C 
HETATM   32  O6  UNL     1       5.768  10.469  23.477  1.00  0.00    -0.274 OA
HETATM   33  N1  UNL     1       5.264  12.087  21.935  1.00  0.00    -0.360 N 
HETATM   34  H34 UNL     1       4.552  12.440  21.298  1.00  0.00     0.162 HD
BRANCH  33  35
HETATM   35  C26 UNL     1       6.637  12.506  21.743  1.00  0.00     0.132 C 
BRANCH  35  36
HETATM   36  C27 UNL     1       7.358  12.952  23.039  1.00  0.00     0.046 C 
BRANCH  36  37
HETATM   37  C28 UNL     1       8.803  12.408  23.098  1.00  0.00     0.120 C 
BRANCH  37  38
HETATM   38  C29 UNL     1       9.622  12.604  21.846  1.00  0.00     0.140 C 
HETATM   39  O7  UNL     1      10.132  13.639  21.448  1.00  0.00    -0.650 OA
BRANCH  38  40
HETATM   40  O8  UNL     1       9.783  11.454  21.161  1.00  0.00    -0.776 OA
HETATM   41  H40 UNL     1      10.294  11.707  20.360  1.00  0.00     0.167 HD
ENDBRANCH  38  40
ENDBRANCH  37  38
ENDBRANCH  36  37
BRANCH  36  42
HETATM   42  C30 UNL     1       7.140  14.425  23.376  1.00  0.00    -0.052 A 
HETATM   43  C31 UNL     1       8.218  15.169  23.897  1.00  0.00     0.007 A 
HETATM   44  C32 UNL     1       8.083  16.523  24.214  1.00  0.00     0.001 A 
HETATM   45  C33 UNL     1       6.866  17.167  24.008  1.00  0.00     0.000 A 
HETATM   46  C34 UNL     1       5.791  16.456  23.480  1.00  0.00     0.001 A 
HETATM   47  C35 UNL     1       5.929  15.100  23.163  1.00  0.00     0.007 A 
ENDBRANCH  36  42
ENDBRANCH  35  36
ENDBRANCH  33  35
ENDBRANCH  30  31
ENDBRANCH  29  30
ENDBRANCH  27  29
ENDBRANCH  26  27
ENDBRANCH  25  26
ENDBRANCH   1  25
TORSDOF 14
ENDMDL
MODEL 4
REMARK minimizedAffinity -9.49848938
REMARK CNNscore 0.419220001
REMARK CNNaffinity 6.99650621
REMARK  14 active torsions:
REMARK  status: ('A' for Active; 'I' for Inactive)
REMARK    1  A    between atoms: C19_20  and  O2_21 
REMARK    2  A    between atoms: C19_20  and  C20_22 
REMARK    3  A    between atoms: C20_22  and  C21_24 
REMARK    4  A    between atoms: C21_24  and  O4_25 
REMARK    5  A    between atoms: O4_25  and  C22_26 
REMARK    6  A    between atoms: C22_26  and  C23_28 
REMARK    7  A    between atoms: C23_28  and  C24_29 
REMARK    8  A    between atoms: C24_29  and  C25_30 
REMARK       I    between atoms: C25_30  and  N1_32 
REMARK    9  A    between atoms: N1_32  and  C26_33 
REMARK   10  A    between atoms: C26_33  and  C27_34 
REMARK   11  A    between atoms: C27_34  and  C28_35 
REMARK   12  A    between atoms: C27_34  and  C30_39 
REMARK   13  A    between atoms: C28_35  and  C29_36 
REMARK   14  A    between atoms: C29_36  and  O8_38 
ROOT
HETATM    1  C20 UNL     1      -1.265   8.099  14.668  1.00  0.00     0.185 C 
HETATM    2  O3  UNL     1      -0.241   7.421  14.823  1.00  0.00    -0.292 OA
ENDROOT
BRANCH   1   3
HETATM    3  C19 UNL     1      -2.376   7.571  13.739  1.00  0.00     0.128 C 
HETATM    4  C14 UNL     1      -3.635   7.043  14.491  1.00  0.00    -0.002 C 
HETATM    5  C13 UNL     1      -4.574   8.102  15.095  1.00  0.00     0.013 C 
HETATM    6  C15 UNL     1      -3.217   6.037  15.597  1.00  0.00     0.019 C 
HETATM    7  C16 UNL     1      -4.387   6.381  13.310  1.00  0.00     0.002 C 
HETATM    8  C12 UNL     1      -5.924   7.501  15.533  1.00  0.00     0.007 C 
HETATM    9  C11 UNL     1      -6.634   6.710  14.407  1.00  0.00     0.002 C 
HETATM   10  C2  UNL     1      -7.999   6.052  14.828  1.00  0.00    -0.016 C 
HETATM   11  C10 UNL     1      -5.671   5.663  13.738  1.00  0.00    -0.004 C 
HETATM   12  C1  UNL     1      -7.808   4.969  15.920  1.00  0.00     0.020 C 
HETATM   13  C3  UNL     1      -9.018   7.064  15.427  1.00  0.00     0.022 C 
HETATM   14  C7  UNL     1      -8.566   5.429  13.545  1.00  0.00    -0.068 C 
HETATM   15  C4  UNL     1      -9.668   7.963  14.391  1.00  0.00     0.084 C 
HETATM   16  C5  UNL     1     -10.356   7.112  13.354  1.00  0.00     0.149 C 
HETATM   17  O1  UNL     1     -11.405   7.450  12.813  1.00  0.00    -0.293 OA
HETATM   18  C6  UNL     1      -9.667   5.875  12.913  1.00  0.00     0.053 C 
HETATM   19  C8  UNL     1      -7.713   4.360  12.908  1.00  0.00     0.035 C 
HETATM   20  C9  UNL     1      -6.349   4.954  12.548  1.00  0.00     0.010 C 
HETATM   21  C17 UNL     1      -3.302   5.578  12.600  1.00  0.00     0.009 C 
HETATM   22  C18 UNL     1      -2.013   6.407  12.788  1.00  0.00     0.047 C 
BRANCH   3  23
HETATM   23  O2  UNL     1      -2.738   8.688  12.903  1.00  0.00    -0.381 OA
HETATM   24  H27 UNL     1      -2.741   9.476  13.483  1.00  0.00     0.211 HD
ENDBRANCH   3  23
ENDBRANCH   1   3
BRANCH   1  25
HETATM   25  C21 UNL     1      -1.454   9.445  15.357  1.00  0.00     0.260 C 
BRANCH  25  26
HETATM   26  O4  UNL     1      -0.980   9.439  16.704  1.00  0.00    -0.314 OA
BRANCH  26  27
HETATM   27  C22 UNL     1       0.120  10.214  16.915  1.00  0.00     0.259 C 
HETATM   28  O5  UNL     1       1.205  10.061  16.367  1.00  0.00    -0.265 OA
BRANCH  27  29
HETATM   29  C23 UNL     1      -0.191  11.307  17.908  1.00  0.00     0.120 C 
BRANCH  29  30
HETATM   30  C24 UNL     1       0.046  10.816  19.332  1.00  0.00     0.112 C 
BRANCH  30  31
HETATM   31  C25 UNL     1       0.796  11.846  20.153  1.00  0.00     0.218 C 
HETATM   32  O6  UNL     1       0.600  13.055  20.064  1.00  0.00    -0.274 OA
HETATM   33  N1  UNL     1       1.729  11.293  20.996  1.00  0.00    -0.360 N 
HETATM   34  H34 UNL     1       1.758  10.279  21.096  1.00  0.00     0.162 HD
BRANCH  33  35
HETATM   35  C26 UNL     1       2.471  12.106  21.937  1.00  0.00     0.132 C 
BRANCH  35  36
HETATM   36  C27 UNL     1       3.552  11.337  22.734  1.00  0.00     0.046 C 
BRANCH  36  37
HETATM   37  C28 UNL     1       3.641   9.861  22.286  1.00  0.00     0.120 C 
BRANCH  37  38
HETATM   38  C29 UNL     1       2.680   8.916  22.966  1.00  0.00     0.140 C 
HETATM   39  O7  UNL     1       2.497   8.781  24.165  1.00  0.00    -0.650 OA
BRANCH  38  40
HETATM   40  O8  UNL     1       1.966   8.195  22.078  1.00  0.00    -0.776 OA
HETATM   41  H40 UNL     1       1.409   7.600  22.627  1.00  0.00     0.167 HD
ENDBRANCH  38  40
ENDBRANCH  37  38
ENDBRANCH  36  37
BRANCH  36  42
HETATM   42  C30 UNL     1       4.859  12.112  22.886  1.00  0.00    -0.052 A 
HETATM   43  C31 UNL     1       6.070  11.394  22.957  1.00  0.00     0.007 A 
HETATM   44  C32 UNL     1       7.298  12.049  23.085  1.00  0.00     0.001 A 
HETATM   45  C33 UNL     1       7.343  13.439  23.134  1.00  0.00     0.000 A 
HETATM   46  C34 UNL     1       6.160  14.170  23.050  1.00  0.00     0.001 A 
HETATM   47  C35 UNL     1       4.931  13.512  22.921  1.00  0.00     0.007 A 
ENDBRANCH  36  42
ENDBRANCH  35  36
ENDBRANCH  33  35
ENDBRANCH  30  31
ENDBRANCH  29  30
ENDBRANCH  27  29
ENDBRANCH  26  27
ENDBRANCH  25  26
ENDBRANCH   1  25
TORSDOF 14
ENDMDL
MODEL 5
REMARK minimizedAffinity -8.35895252
REMARK CNNscore 0.372607172
REMARK CNNaffinity 6.86788416
REMARK  14 active torsions:
REMARK  status: ('A' for Active; 'I' for Inactive)
REMARK    1  A    between atoms: C19_20  and  O2_21 
REMARK    2  A    between atoms: C19_20  and  C20_22 
REMARK    3  A    between atoms: C20_22  and  C21_24 
REMARK    4  A    between atoms: C21_24  and  O4_25 
REMARK    5  A    between atoms: O4_25  and  C22_26 
REMARK    6  A    between atoms: C22_26  and  C23_28 
REMARK    7  A    between atoms: C23_28  and  C24_29 
REMARK    8  A    between atoms: C24_29  and  C25_30 
REMARK       I    between atoms: C25_30  and  N1_32 
REMARK    9  A    between atoms: N1_32  and  C26_33 
REMARK   10  A    between atoms: C26_33  and  C27_34 
REMARK   11  A    between atoms: C27_34  and  C28_35 
REMARK   12  A    between atoms: C27_34  and  C30_39 
REMARK   13  A    between atoms: C28_35  and  C29_36 
REMARK   14  A    between atoms: C29_36  and  O8_38 
ROOT
HETATM    1  C20 UNL     1      -5.995   4.889  13.788  1.00  0.00     0.185 C 
HETATM    2  O3  UNL     1      -6.403   4.369  12.741  1.00  0.00    -0.292 OA
ENDROOT
BRANCH   1   3
HETATM    3  C19 UNL     1      -7.020   5.343  14.846  1.00  0.00     0.128 C 
HETATM    4  C14 UNL     1      -7.987   6.463  14.352  1.00  0.00    -0.002 C 
HETATM    5  C13 UNL     1      -9.101   6.035  13.382  1.00  0.00     0.013 C 
HETATM    6  C15 UNL     1      -7.179   7.631  13.724  1.00  0.00     0.019 C 
HETATM    7  C16 UNL     1      -8.662   6.834  15.695  1.00  0.00     0.002 C 
HETATM    8  C12 UNL     1     -10.172   7.129  13.206  1.00  0.00     0.007 C 
HETATM    9  C11 UNL     1     -10.766   7.623  14.549  1.00  0.00     0.002 C 
HETATM   10  C2  UNL     1     -11.838   8.766  14.411  1.00  0.00    -0.016 C 
HETATM   11  C10 UNL     1      -9.640   8.009  15.574  1.00  0.00    -0.004 C 
HETATM   12  C1  UNL     1     -11.228  10.064  13.824  1.00  0.00     0.020 C 
HETATM   13  C3  UNL     1     -13.016   8.401  13.463  1.00  0.00     0.022 C 
HETATM   14  C7  UNL     1     -12.360   9.011  15.833  1.00  0.00    -0.068 C 
HETATM   15  C4  UNL     1     -14.007   7.423  14.067  1.00  0.00     0.084 C 
HETATM   16  C5  UNL     1     -14.553   7.995  15.351  1.00  0.00     0.149 C 
HETATM   17  O1  UNL     1     -15.711   7.813  15.715  1.00  0.00    -0.293 OA
HETATM   18  C6  UNL     1     -13.608   8.715  16.238  1.00  0.00     0.053 C 
HETATM   19  C8  UNL     1     -11.328   9.461  16.837  1.00  0.00     0.035 C 
HETATM   20  C9  UNL     1     -10.233   8.397  16.944  1.00  0.00     0.010 C 
HETATM   21  C17 UNL     1      -7.491   6.954  16.665  1.00  0.00     0.009 C 
HETATM   22  C18 UNL     1      -6.467   5.909  16.175  1.00  0.00     0.047 C 
BRANCH   3  23
HETATM   23  O2  UNL     1      -7.772   4.161  15.182  1.00  0.00    -0.381 OA
HETATM   24  H27 UNL     1      -7.922   3.682  14.342  1.00  0.00     0.211 HD
ENDBRANCH   3  23
ENDBRANCH   1   3
BRANCH   1  25
HETATM   25  C21 UNL     1      -4.511   5.105  14.056  1.00  0.00     0.260 C 
BRANCH  25  26
HETATM   26  O4  UNL     1      -4.129   6.476  13.938  1.00  0.00    -0.314 OA
BRANCH  26  27
HETATM   27  C22 UNL     1      -3.145   6.861  14.799  1.00  0.00     0.259 C 
HETATM   28  O5  UNL     1      -3.204   6.773  16.019  1.00  0.00    -0.265 OA
BRANCH  27  29
HETATM   29  C23 UNL     1      -1.959   7.395  14.034  1.00  0.00     0.120 C 
BRANCH  29  30
HETATM   30  C24 UNL     1      -2.342   7.674  12.585  1.00  0.00     0.112 C 
BRANCH  30  31
HETATM   31  C25 UNL     1      -1.208   8.343  11.833  1.00  0.00     0.218 C 
HETATM   32  O6  UNL     1      -1.368   9.299  11.079  1.00  0.00    -0.274 OA
HETATM   33  N1  UNL     1       0.015   7.764  12.069  1.00  0.00    -0.360 N 
HETATM   34  H34 UNL     1       0.086   7.048  12.790  1.00  0.00     0.162 HD
BRANCH  33  35
HETATM   35  C26 UNL     1       1.233   8.327  11.525  1.00  0.00     0.132 C 
BRANCH  35  36
HETATM   36  C27 UNL     1       2.208   7.285  10.926  1.00  0.00     0.046 C 
BRANCH  36  37
HETATM   37  C28 UNL     1       2.258   5.999  11.781  1.00  0.00     0.120 C 
BRANCH  37  38
HETATM   38  C29 UNL     1       0.946   5.269  11.935  1.00  0.00     0.140 C 
HETATM   39  O7  UNL     1       0.341   5.043  12.970  1.00  0.00    -0.650 OA
BRANCH  38  40
HETATM   40  O8  UNL     1       0.442   4.879  10.747  1.00  0.00    -0.776 OA
HETATM   41  H40 UNL     1      -0.381   4.391  10.970  1.00  0.00     0.167 HD
ENDBRANCH  38  40
ENDBRANCH  37  38
ENDBRANCH  36  37
BRANCH  36  42
HETATM   42  C30 UNL     1       2.069   7.125   9.413  1.00  0.00    -0.052 A 
HETATM   43  C31 UNL     1       1.198   7.987   8.717  1.00  0.00     0.007 A 
HETATM   44  C32 UNL     1       1.038   7.896   7.332  1.00  0.00     0.001 A 
HETATM   45  C33 UNL     1       1.754   6.945   6.610  1.00  0.00     0.000 A 
HETATM   46  C34 UNL     1       2.632   6.093   7.275  1.00  0.00     0.001 A 
HETATM   47  C35 UNL     1       2.791   6.187   8.663  1.00  0.00     0.007 A 
ENDBRANCH  36  42
ENDBRANCH  35  36
ENDBRANCH  33  35
ENDBRANCH  30  31
ENDBRANCH  29  30
ENDBRANCH  27  29
ENDBRANCH  26  27
ENDBRANCH  25  26
ENDBRANCH   1  25
TORSDOF 14
ENDMDL
MODEL 6
REMARK minimizedAffinity -7.87789345
REMARK CNNscore 0.37153995
REMARK CNNaffinity 6.38747168
REMARK  14 active torsions:
REMARK  status: ('A' for Active; 'I' for Inactive)
REMARK    1  A    between atoms: C19_20  and  O2_21 
REMARK    2  A    between atoms: C19_20  and  C20_22 
REMARK    3  A    between atoms: C20_22  and  C21_24 
REMARK    4  A    between atoms: C21_24  and  O4_25 
REMARK    5  A    between atoms: O4_25  and  C22_26 
REMARK    6  A    between atoms: C22_26  and  C23_28 
REMARK    7  A    between atoms: C23_28  and  C24_29 
REMARK    8  A    between atoms: C24_29  and  C25_30 
REMARK       I    between atoms: C25_30  and  N1_32 
REMARK    9  A    between atoms: N1_32  and  C26_33 
REMARK   10  A    between atoms: C26_33  and  C27_34 
REMARK   11  A    between atoms: C27_34  and  C28_35 
REMARK   12  A    between atoms: C27_34  and  C30_39 
REMARK   13  A    between atoms: C28_35  and  C29_36 
REMARK   14  A    between atoms: C29_36  and  O8_38 
ROOT
HETATM    1  C20 UNL     1      -0.900   8.367  15.303  1.00  0.00     0.185 C 
HETATM    2  O3  UNL     1      -1.819   8.998  15.842  1.00  0.00    -0.292 OA
ENDROOT
BRANCH   1   3
HETATM    3  C19 UNL     1      -0.987   8.062  13.795  1.00  0.00     0.128 C 
HETATM    4  C14 UNL     1       0.380   8.145  13.050  1.00  0.00    -0.002 C 
HETATM    5  C13 UNL     1       1.363   6.983  13.280  1.00  0.00     0.013 C 
HETATM    6  C15 UNL     1       1.088   9.488  13.375  1.00  0.00     0.019 C 
HETATM    7  C16 UNL     1      -0.114   8.048  11.586  1.00  0.00     0.002 C 
HETATM    8  C12 UNL     1       2.530   7.001  12.273  1.00  0.00     0.007 C 
HETATM    9  C11 UNL     1       2.063   7.048  10.797  1.00  0.00     0.002 C 
HETATM   10  C2  UNL     1       3.229   7.104   9.743  1.00  0.00    -0.016 C 
HETATM   11  C10 UNL     1       1.014   8.193  10.558  1.00  0.00    -0.004 C 
HETATM   12  C1  UNL     1       4.061   8.405   9.866  1.00  0.00     0.020 C 
HETATM   13  C3  UNL     1       4.256   5.944   9.891  1.00  0.00     0.022 C 
HETATM   14  C7  UNL     1       2.543   7.031   8.371  1.00  0.00    -0.068 C 
HETATM   15  C4  UNL     1       3.745   4.607   9.388  1.00  0.00     0.084 C 
HETATM   16  C5  UNL     1       3.340   4.739   7.942  1.00  0.00     0.149 C 
HETATM   17  O1  UNL     1       3.490   3.831   7.129  1.00  0.00    -0.293 OA
HETATM   18  C6  UNL     1       2.644   5.983   7.534  1.00  0.00     0.053 C 
HETATM   19  C8  UNL     1       1.584   8.153   8.062  1.00  0.00     0.035 C 
HETATM   20  C9  UNL     1       0.472   8.168   9.114  1.00  0.00     0.010 C 
HETATM   21  C17 UNL     1      -1.280   9.030  11.536  1.00  0.00     0.009 C 
HETATM   22  C18 UNL     1      -1.913   8.959  12.941  1.00  0.00     0.047 C 
BRANCH   3  23
HETATM   23  O2  UNL     1      -1.513   6.724  13.706  1.00  0.00    -0.381 OA
HETATM   24  H27 UNL     1      -1.078   6.209  14.415  1.00  0.00     0.211 HD
ENDBRANCH   3  23
ENDBRANCH   1   3
BRANCH   1  25
HETATM   25  C21 UNL     1       0.308   7.873  16.089  1.00  0.00     0.260 C 
BRANCH  25  26
HETATM   26  O4  UNL     1       0.877   8.891  16.913  1.00  0.00    -0.314 OA
BRANCH  26  27
HETATM   27  C22 UNL     1       2.177   9.182  16.628  1.00  0.00     0.259 C 
HETATM   28  O5  UNL     1       3.029   8.361  16.312  1.00  0.00    -0.265 OA
BRANCH  27  29
HETATM   29  C23 UNL     1       2.418  10.668  16.738  1.00  0.00     0.120 C 
BRANCH  29  30
HETATM   30  C24 UNL     1       1.988  11.178  18.109  1.00  0.00     0.112 C 
BRANCH  30  31
HETATM   31  C25 UNL     1       2.958  10.744  19.188  1.00  0.00     0.218 C 
HETATM   32  O6  UNL     1       2.726   9.835  19.981  1.00  0.00    -0.274 OA
HETATM   33  N1  UNL     1       4.119  11.478  19.202  1.00  0.00    -0.360 N 
HETATM   34  H34 UNL     1       4.288  12.140  18.445  1.00  0.00     0.162 HD
BRANCH  33  35
HETATM   35  C26 UNL     1       5.212  11.145  20.091  1.00  0.00     0.132 C 
BRANCH  35  36
HETATM   36  C27 UNL     1       5.712  12.324  20.960  1.00  0.00     0.046 C 
BRANCH  36  37
HETATM   37  C28 UNL     1       6.508  13.348  20.121  1.00  0.00     0.120 C 
BRANCH  37  38
HETATM   38  C29 UNL     1       8.010  13.244  20.222  1.00  0.00     0.140 C 
HETATM   39  O7  UNL     1       8.665  12.907  21.195  1.00  0.00    -0.650 OA
BRANCH  38  40
HETATM   40  O8  UNL     1       8.619  13.552  19.059  1.00  0.00    -0.776 OA
HETATM   41  H40 UNL     1       9.580  13.486  19.253  1.00  0.00     0.167 HD
ENDBRANCH  38  40
ENDBRANCH  37  38
ENDBRANCH  36  37
BRANCH  36  42
HETATM   42  C30 UNL     1       4.651  12.864  21.917  1.00  0.00    -0.052 A 
HETATM   43  C31 UNL     1       3.869  11.948  22.650  1.00  0.00     0.007 A 
HETATM   44  C32 UNL     1       2.892  12.382  23.549  1.00  0.00     0.001 A 
HETATM   45  C33 UNL     1       2.680  13.745  23.742  1.00  0.00     0.000 A 
HETATM   46  C34 UNL     1       3.451  14.667  23.039  1.00  0.00     0.001 A 
HETATM   47  C35 UNL     1       4.430  14.230  22.140  1.00  0.00     0.007 A 
ENDBRANCH  36  42
ENDBRANCH  35  36
ENDBRANCH  33  35
ENDBRANCH  30  31
ENDBRANCH  29  30
ENDBRANCH  27  29
ENDBRANCH  26  27
ENDBRANCH  25  26
ENDBRANCH   1  25
TORSDOF 14
ENDMDL
MODEL 7
REMARK minimizedAffinity -7.9920435
REMARK CNNscore 0.339052796
REMARK CNNaffinity 6.05411577
REMARK  14 active torsions:
REMARK  status: ('A' for Active; 'I' for Inactive)
REMARK    1  A    between atoms: C19_20  and  O2_21 
REMARK    2  A    between atoms: C19_20  and  C20_22 
REMARK    3  A    between atoms: C20_22  and  C21_24 
REMARK    4  A    between atoms: C21_24  and  O4_25 
REMARK    5  A    between atoms: O4_25  and  C22_26 
REMARK    6  A    between atoms: C22_26  and  C23_28 
REMARK    7  A    between atoms: C23_28  and  C24_29 
REMARK    8  A    between atoms: C24_29  and  C25_30 
REMARK       I    between atoms: C25_30  and  N1_32 
REMARK    9  A    between atoms: N1_32  and  C26_33 
REMARK   10  A    between atoms: C26_33  and  C27_34 
REMARK   11  A    between atoms: C27_34  and  C28_35 
REMARK   12  A    between atoms: C27_34  and  C30_39 
REMARK   13  A    between atoms: C28_35  and  C29_36 
REMARK   14  A    between atoms: C29_36  and  O8_38 
ROOT
HETATM    1  C20 UNL     1       1.668  10.421  17.047  1.00  0.00     0.185 C 
HETATM    2  O3  UNL     1       0.453  10.200  16.950  1.00  0.00    -0.292 OA
ENDROOT
BRANCH   1   3
HETATM    3  C19 UNL     1       2.567  10.207  15.814  1.00  0.00     0.128 C 
HETATM    4  C14 UNL     1       2.106   9.041  14.887  1.00  0.00    -0.002 C 
HETATM    5  C13 UNL     1       0.873   9.305  14.005  1.00  0.00     0.013 C 
HETATM    6  C15 UNL     1       1.874   7.752  15.721  1.00  0.00     0.019 C 
HETATM    7  C16 UNL     1       3.334   8.953  13.948  1.00  0.00     0.002 C 
HETATM    8  C12 UNL     1       0.693   8.228  12.918  1.00  0.00     0.007 C 
HETATM    9  C11 UNL     1       1.959   8.018  12.051  1.00  0.00     0.002 C 
HETATM   10  C2  UNL     1       1.824   6.900  10.953  1.00  0.00    -0.016 C 
HETATM   11  C10 UNL     1       3.239   7.805  12.937  1.00  0.00    -0.004 C 
HETATM   12  C1  UNL     1       1.617   5.497  11.577  1.00  0.00     0.020 C 
HETATM   13  C3  UNL     1       0.612   7.108  10.000  1.00  0.00     0.022 C 
HETATM   14  C7  UNL     1       3.136   6.947  10.157  1.00  0.00    -0.068 C 
HETATM   15  C4  UNL     1       0.819   8.211   8.979  1.00  0.00     0.084 C 
HETATM   16  C5  UNL     1       2.053   7.912   8.165  1.00  0.00     0.149 C 
HETATM   17  O1  UNL     1       2.141   8.193   6.973  1.00  0.00    -0.293 OA
HETATM   18  C6  UNL     1       3.226   7.350   8.877  1.00  0.00     0.053 C 
HETATM   19  C8  UNL     1       4.389   6.670  10.950  1.00  0.00     0.035 C 
HETATM   20  C9  UNL     1       4.513   7.704  12.072  1.00  0.00     0.010 C 
HETATM   21  C17 UNL     1       4.521   8.989  14.905  1.00  0.00     0.009 C 
HETATM   22  C18 UNL     1       4.059   9.892  16.068  1.00  0.00     0.047 C 
BRANCH   3  23
HETATM   23  O2  UNL     1       2.526  11.453  15.090  1.00  0.00    -0.381 OA
HETATM   24  H27 UNL     1       1.600  11.765  15.132  1.00  0.00     0.211 HD
ENDBRANCH   3  23
ENDBRANCH   1   3
BRANCH   1  25
HETATM   25  C21 UNL     1       2.301  10.886  18.352  1.00  0.00     0.260 C 
BRANCH  25  26
HETATM   26  O4  UNL     1       2.646   9.798  19.210  1.00  0.00    -0.314 OA
BRANCH  26  27
HETATM   27  C22 UNL     1       2.307   9.982  20.516  1.00  0.00     0.259 C 
HETATM   28  O5  UNL     1       1.170  10.175  20.928  1.00  0.00    -0.265 OA
BRANCH  27  29
HETATM   29  C23 UNL     1       3.533   9.896  21.393  1.00  0.00     0.120 C 
BRANCH  29  30
HETATM   30  C24 UNL     1       3.267  10.547  22.745  1.00  0.00     0.112 C 
BRANCH  30  31
HETATM   31  C25 UNL     1       3.556  12.034  22.708  1.00  0.00     0.218 C 
HETATM   32  O6  UNL     1       2.692  12.886  22.520  1.00  0.00    -0.274 OA
HETATM   33  N1  UNL     1       4.884  12.333  22.891  1.00  0.00    -0.360 N 
HETATM   34  H34 UNL     1       5.523  11.584  23.152  1.00  0.00     0.162 HD
BRANCH  33  35
HETATM   35  C26 UNL     1       5.340  13.704  22.994  1.00  0.00     0.132 C 
BRANCH  35  36
HETATM   36  C27 UNL     1       6.868  13.856  23.189  1.00  0.00     0.046 C 
BRANCH  36  37
HETATM   37  C28 UNL     1       7.656  13.065  22.121  1.00  0.00     0.120 C 
BRANCH  37  38
HETATM   38  C29 UNL     1       8.879  12.336  22.623  1.00  0.00     0.140 C 
HETATM   39  O7  UNL     1       8.910  11.329  23.311  1.00  0.00    -0.650 OA
BRANCH  38  40
HETATM   40  O8  UNL     1      10.021  12.912  22.198  1.00  0.00    -0.776 OA
HETATM   41  H40 UNL     1      10.739  12.381  22.609  1.00  0.00     0.167 HD
ENDBRANCH  38  40
ENDBRANCH  37  38
ENDBRANCH  36  37
BRANCH  36  42
HETATM   42  C30 UNL     1       7.303  15.293  23.471  1.00  0.00    -0.052 A 
HETATM   43  C31 UNL     1       8.480  15.513  24.213  1.00  0.00     0.007 A 
HETATM   44  C32 UNL     1       8.934  16.805  24.493  1.00  0.00     0.001 A 
HETATM   45  C33 UNL     1       8.223  17.908  24.027  1.00  0.00     0.000 A 
HETATM   46  C34 UNL     1       7.064  17.714  23.279  1.00  0.00     0.001 A 
HETATM   47  C35 UNL     1       6.612  16.419  22.999  1.00  0.00     0.007 A 
ENDBRANCH  36  42
ENDBRANCH  35  36
ENDBRANCH  33  35
ENDBRANCH  30  31
ENDBRANCH  29  30
ENDBRANCH  27  29
ENDBRANCH  26  27
ENDBRANCH  25  26
ENDBRANCH   1  25
TORSDOF 14
ENDMDL
MODEL 8
REMARK minimizedAffinity -9.25709724
REMARK CNNscore 0.333661675
REMARK CNNaffinity 6.39201975
REMARK  14 active torsions:
REMARK  status: ('A' for Active; 'I' for Inactive)
REMARK    1  A    between atoms: C19_20  and  O2_21 
REMARK    2  A    between atoms: C19_20  and  C20_22 
REMARK    3  A    between atoms: C20_22  and  C21_24 
REMARK    4  A    between atoms: C21_24  and  O4_25 
REMARK    5  A    between atoms: O4_25  and  C22_26 
REMARK    6  A    between atoms: C22_26  and  C23_28 
REMARK    7  A    between atoms: C23_28  and  C24_29 
REMARK    8  A    between atoms: C24_29  and  C25_30 
REMARK       I    between atoms: C25_30  and  N1_32 
REMARK    9  A    between atoms: N1_32  and  C26_33 
REMARK   10  A    between atoms: C26_33  and  C27_34 
REMARK   11  A    between atoms: C27_34  and  C28_35 
REMARK   12  A    between atoms: C27_34  and  C30_39 
REMARK   13  A    between atoms: C28_35  and  C29_36 
REMARK   14  A    between atoms: C29_36  and  O8_38 
ROOT
HETATM    1  C20 UNL     1      -0.937   8.012  15.262  1.00  0.00     0.185 C 
HETATM    2  O3  UNL     1      -0.462   7.095  15.946  1.00  0.00    -0.292 OA
ENDROOT
BRANCH   1   3
HETATM    3  C19 UNL     1      -1.011   7.842  13.732  1.00  0.00     0.128 C 
HETATM    4  C14 UNL     1       0.375   7.905  13.020  1.00  0.00    -0.002 C 
HETATM    5  C13 UNL     1       1.283   6.671  13.164  1.00  0.00     0.013 C 
HETATM    6  C15 UNL     1       1.154   9.171  13.470  1.00  0.00     0.019 C 
HETATM    7  C16 UNL     1      -0.092   7.963  11.545  1.00  0.00     0.002 C 
HETATM    8  C12 UNL     1       2.470   6.704  12.182  1.00  0.00     0.007 C 
HETATM    9  C11 UNL     1       2.039   6.904  10.708  1.00  0.00     0.002 C 
HETATM   10  C2  UNL     1       3.227   6.978   9.681  1.00  0.00    -0.016 C 
HETATM   11  C10 UNL     1       1.064   8.126  10.551  1.00  0.00    -0.004 C 
HETATM   12  C1  UNL     1       4.131   8.212   9.929  1.00  0.00     0.020 C 
HETATM   13  C3  UNL     1       4.181   5.751   9.746  1.00  0.00     0.022 C 
HETATM   14  C7  UNL     1       2.568   7.063   8.298  1.00  0.00    -0.068 C 
HETATM   15  C4  UNL     1       3.603   4.494   9.122  1.00  0.00     0.084 C 
HETATM   16  C5  UNL     1       3.238   4.772   7.686  1.00  0.00     0.149 C 
HETATM   17  O1  UNL     1       3.352   3.929   6.800  1.00  0.00    -0.293 OA
HETATM   18  C6  UNL     1       2.625   6.086   7.375  1.00  0.00     0.053 C 
HETATM   19  C8  UNL     1       1.683   8.264   8.071  1.00  0.00     0.035 C 
HETATM   20  C9  UNL     1       0.552   8.257   9.102  1.00  0.00     0.010 C 
HETATM   21  C17 UNL     1      -1.198   9.014  11.560  1.00  0.00     0.009 C 
HETATM   22  C18 UNL     1      -1.864   8.863  12.944  1.00  0.00     0.047 C 
BRANCH   3  23
HETATM   23  O2  UNL     1      -1.612   6.550  13.520  1.00  0.00    -0.381 OA
HETATM   24  H27 UNL     1      -1.223   5.952  14.189  1.00  0.00     0.211 HD
ENDBRANCH   3  23
ENDBRANCH   1   3
BRANCH   1  25
HETATM   25  C21 UNL     1      -1.439   9.307  15.888  1.00  0.00     0.260 C 
BRANCH  25  26
HETATM   26  O4  UNL     1      -0.672   9.696  17.028  1.00  0.00    -0.314 OA
BRANCH  26  27
HETATM   27  C22 UNL     1       0.270  10.646  16.774  1.00  0.00     0.259 C 
HETATM   28  O5  UNL     1       0.185  11.506  15.906  1.00  0.00    -0.265 OA
BRANCH  27  29
HETATM   29  C23 UNL     1       1.429  10.505  17.730  1.00  0.00     0.120 C 
BRANCH  29  30
HETATM   30  C24 UNL     1       1.490  11.701  18.674  1.00  0.00     0.112 C 
BRANCH  30  31
HETATM   31  C25 UNL     1       1.451  11.262  20.124  1.00  0.00     0.218 C 
HETATM   32  O6  UNL     1       0.681  10.406  20.551  1.00  0.00    -0.274 OA
HETATM   33  N1  UNL     1       2.354  11.928  20.916  1.00  0.00    -0.360 N 
HETATM   34  H34 UNL     1       3.035  12.543  20.472  1.00  0.00     0.162 HD
BRANCH  33  35
HETATM   35  C26 UNL     1       2.540  11.574  22.308  1.00  0.00     0.132 C 
BRANCH  35  36
HETATM   36  C27 UNL     1       3.870  10.840  22.609  1.00  0.00     0.046 C 
BRANCH  36  37
HETATM   37  C28 UNL     1       3.784   9.342  22.242  1.00  0.00     0.120 C 
BRANCH  37  38
HETATM   38  C29 UNL     1       2.613   8.594  22.831  1.00  0.00     0.140 C 
HETATM   39  O7  UNL     1       1.829   7.866  22.245  1.00  0.00    -0.650 OA
BRANCH  38  40
HETATM   40  O8  UNL     1       2.506   8.787  24.161  1.00  0.00    -0.776 OA
HETATM   41  H40 UNL     1       1.701   8.289  24.424  1.00  0.00     0.167 HD
ENDBRANCH  38  40
ENDBRANCH  37  38
ENDBRANCH  36  37
BRANCH  36  42
HETATM   42  C30 UNL     1       5.105  11.613  22.151  1.00  0.00    -0.052 A 
HETATM   43  C31 UNL     1       5.737  12.484  23.062  1.00  0.00     0.007 A 
HETATM   44  C32 UNL     1       6.877  13.208  22.705  1.00  0.00     0.001 A 
HETATM   45  C33 UNL     1       7.417  13.071  21.429  1.00  0.00     0.000 A 
HETATM   46  C34 UNL     1       6.818  12.204  20.518  1.00  0.00     0.001 A 
HETATM   47  C35 UNL     1       5.677  11.479  20.878  1.00  0.00     0.007 A 
ENDBRANCH  36  42
ENDBRANCH  35  36
ENDBRANCH  33  35
ENDBRANCH  30  31
ENDBRANCH  29  30
ENDBRANCH  27  29
ENDBRANCH  26  27
ENDBRANCH  25  26
ENDBRANCH   1  25
TORSDOF 14
ENDMDL
MODEL 9
REMARK minimizedAffinity -8.40890789
REMARK CNNscore 0.307963341
REMARK CNNaffinity 6.73912382
REMARK  14 active torsions:
REMARK  status: ('A' for Active; 'I' for Inactive)
REMARK    1  A    between atoms: C19_20  and  O2_21 
REMARK    2  A    between atoms: C19_20  and  C20_22 
REMARK    3  A    between atoms: C20_22  and  C21_24 
REMARK    4  A    between atoms: C21_24  and  O4_25 
REMARK    5  A    between atoms: O4_25  and  C22_26 
REMARK    6  A    between atoms: C22_26  and  C23_28 
REMARK    7  A    between atoms: C23_28  and  C24_29 
REMARK    8  A    between atoms: C24_29  and  C25_30 
REMARK       I    between atoms: C25_30  and  N1_32 
REMARK    9  A    between atoms: N1_32  and  C26_33 
REMARK   10  A    between atoms: C26_33  and  C27_34 
REMARK   11  A    between atoms: C27_34  and  C28_35 
REMARK   12  A    between atoms: C27_34  and  C30_39 
REMARK   13  A    between atoms: C28_35  and  C29_36 
REMARK   14  A    between atoms: C29_36  and  O8_38 
ROOT
HETATM    1  C20 UNL     1      -1.064   8.879  14.466  1.00  0.00     0.185 C 
HETATM    2  O3  UNL     1       0.026   8.320  14.648  1.00  0.00    -0.292 OA
ENDROOT
BRANCH   1   3
HETATM    3  C19 UNL     1      -2.150   8.149  13.651  1.00  0.00     0.128 C 
HETATM    4  C14 UNL     1      -3.361   7.659  14.504  1.00  0.00    -0.002 C 
HETATM    5  C13 UNL     1      -4.359   8.734  14.968  1.00  0.00     0.013 C 
HETATM    6  C15 UNL     1      -2.861   6.857  15.736  1.00  0.00     0.019 C 
HETATM    7  C16 UNL     1      -4.083   6.783  13.451  1.00  0.00     0.002 C 
HETATM    8  C12 UNL     1      -5.660   8.120  15.521  1.00  0.00     0.007 C 
HETATM    9  C11 UNL     1      -6.332   7.127  14.541  1.00  0.00     0.002 C 
HETATM   10  C2  UNL     1      -7.644   6.454  15.087  1.00  0.00    -0.016 C 
HETATM   11  C10 UNL     1      -5.311   6.056  14.011  1.00  0.00    -0.004 C 
HETATM   12  C1  UNL     1      -7.366   5.559  16.322  1.00  0.00     0.020 C 
HETATM   13  C3  UNL     1      -8.718   7.477  15.555  1.00  0.00     0.022 C 
HETATM   14  C7  UNL     1      -8.186   5.612  13.924  1.00  0.00    -0.068 C 
HETATM   15  C4  UNL     1      -9.442   8.168  14.415  1.00  0.00     0.084 C 
HETATM   16  C5  UNL     1     -10.087   7.131  13.531  1.00  0.00     0.149 C 
HETATM   17  O1  UNL     1     -11.163   7.317  12.971  1.00  0.00    -0.293 OA
HETATM   18  C6  UNL     1      -9.323   5.888  13.261  1.00  0.00     0.053 C 
HETATM   19  C8  UNL     1      -7.273   4.517  13.432  1.00  0.00     0.035 C 
HETATM   20  C9  UNL     1      -5.957   5.136  12.955  1.00  0.00     0.010 C 
HETATM   21  C17 UNL     1      -2.958   5.954  12.841  1.00  0.00     0.009 C 
HETATM   22  C18 UNL     1      -1.725   6.882  12.874  1.00  0.00     0.047 C 
BRANCH   3  23
HETATM   23  O2  UNL     1      -2.598   9.104  12.670  1.00  0.00    -0.381 OA
HETATM   24  H27 UNL     1      -2.645   9.968  13.127  1.00  0.00     0.211 HD
ENDBRANCH   3  23
ENDBRANCH   1   3
BRANCH   1  25
HETATM   25  C21 UNL     1      -1.358  10.271  15.011  1.00  0.00     0.260 C 
BRANCH  25  26
HETATM   26  O4  UNL     1      -0.194  10.905  15.542  1.00  0.00    -0.314 OA
BRANCH  26  27
HETATM   27  C22 UNL     1      -0.389  11.527  16.739  1.00  0.00     0.259 C 
HETATM   28  O5  UNL     1      -0.470  12.738  16.898  1.00  0.00    -0.265 OA
BRANCH  27  29
HETATM   29  C23 UNL     1      -0.514  10.507  17.844  1.00  0.00     0.120 C 
BRANCH  29  30
HETATM   30  C24 UNL     1       0.404  10.867  19.007  1.00  0.00     0.112 C 
BRANCH  30  31
HETATM   31  C25 UNL     1       1.860  10.649  18.648  1.00  0.00     0.218 C 
HETATM   32  O6  UNL     1       2.268   9.658  18.048  1.00  0.00    -0.274 OA
HETATM   33  N1  UNL     1       2.682  11.663  19.075  1.00  0.00    -0.360 N 
HETATM   34  H34 UNL     1       2.259  12.504  19.467  1.00  0.00     0.162 HD
BRANCH  33  35
HETATM   35  C26 UNL     1       4.089  11.688  18.735  1.00  0.00     0.132 C 
BRANCH  35  36
HETATM   36  C27 UNL     1       5.032  11.239  19.878  1.00  0.00     0.046 C 
BRANCH  36  37
HETATM   37  C28 UNL     1       6.359  12.031  19.860  1.00  0.00     0.120 C 
BRANCH  37  38
HETATM   38  C29 UNL     1       7.558  11.278  19.338  1.00  0.00     0.140 C 
HETATM   39  O7  UNL     1       8.730  11.461  19.625  1.00  0.00    -0.650 OA
BRANCH  38  40
HETATM   40  O8  UNL     1       7.207  10.294  18.486  1.00  0.00    -0.776 OA
HETATM   41  H40 UNL     1       8.058   9.902  18.189  1.00  0.00     0.167 HD
ENDBRANCH  38  40
ENDBRANCH  37  38
ENDBRANCH  36  37
BRANCH  36  42
HETATM   42  C30 UNL     1       4.322  11.076  21.220  1.00  0.00    -0.052 A 
HETATM   43  C31 UNL     1       4.008   9.777  21.668  1.00  0.00     0.007 A 
HETATM   44  C32 UNL     1       3.370   9.564  22.893  1.00  0.00     0.001 A 
HETATM   45  C33 UNL     1       3.038  10.648  23.702  1.00  0.00     0.000 A 
HETATM   46  C34 UNL     1       3.351  11.939  23.285  1.00  0.00     0.001 A 
HETATM   47  C35 UNL     1       3.992  12.150  22.059  1.00  0.00     0.007 A 
ENDBRANCH  36  42
ENDBRANCH  35  36
ENDBRANCH  33  35
ENDBRANCH  30  31
ENDBRANCH  29  30
ENDBRANCH  27  29
ENDBRANCH  26  27
ENDBRANCH  25  26
ENDBRANCH   1  25
TORSDOF 14
ENDMDL
