MODEL 1
REMARK minimizedAffinity -6.22311926
REMARK CNNscore 0.578220248
REMARK CNNaffinity 5.08785439
REMARK  6 active torsions:
REMARK  status: ('A' for Active; 'I' for Inactive)
REMARK    1  A    between atoms: C2_2  and  C30_31 
REMARK    2  A    between atoms: C3_3  and  C4_4 
REMARK    3  A    between atoms: C4_4  and  C5_5 
REMARK    4  A    between atoms: C5_5  and  C6_6 
REMARK    5  A    between atoms: C6_6  and  C8_8 
REMARK    6  A    between atoms: C30_31  and  O3_33 
ROOT
HETATM    1  C8  UNL     1      10.721  12.254  17.358  1.00  0.00    -0.002 C 
HETATM    2  C9  UNL     1      10.628  11.045  18.326  1.00  0.00     0.007 C 
HETATM    3  C10 UNL     1       9.619  10.049  17.706  1.00  0.00     0.015 C 
HETATM    4  C11 UNL     1       8.959  10.817  16.539  1.00  0.00    -0.013 C 
HETATM    5  C12 UNL     1       7.793  11.646  17.171  1.00  0.00     0.021 C 
HETATM    6  C13 UNL     1       8.331  10.025  15.399  1.00  0.00    -0.070 C 
HETATM    7  C14 UNL     1       7.722   8.841  15.600  1.00  0.00    -0.022 C 
HETATM    8  C15 UNL     1       6.969   8.084  14.547  1.00  0.00     0.034 C 
HETATM    9  C16 UNL     1       7.148   8.637  13.116  1.00  0.00     0.013 C 
HETATM   10  C17 UNL     1       6.264   7.941  12.009  1.00  0.00     0.018 C 
HETATM   11  C18 UNL     1       7.171   7.090  11.093  1.00  0.00     0.023 C 
HETATM   12  C19 UNL     1       5.186   6.999  12.589  1.00  0.00     0.023 C 
HETATM   13  C20 UNL     1       5.559   8.948  11.087  1.00  0.00     0.135 C 
HETATM   14  O1  UNL     1       4.451   8.711  10.594  1.00  0.00    -0.297 OA
HETATM   15  C21 UNL     1       6.277  10.212  10.684  1.00  0.00     0.080 C 
HETATM   16  C22 UNL     1       7.362  10.655  11.650  1.00  0.00     0.017 C 
HETATM   17  C23 UNL     1       7.133  10.206  13.111  1.00  0.00    -0.031 C 
HETATM   18  C24 UNL     1       5.799  10.783  13.644  1.00  0.00     0.016 C 
HETATM   19  C25 UNL     1       8.345  10.680  14.012  1.00  0.00     0.024 C 
HETATM   20  C26 UNL     1       8.550  12.216  14.070  1.00  0.00     0.010 C 
HETATM   21  C27 UNL     1       9.679  12.712  15.006  1.00  0.00     0.011 C 
HETATM   22  C28 UNL     1      10.172  11.662  16.020  1.00  0.00    -0.029 C 
HETATM   23  C29 UNL     1      11.292  10.807  15.350  1.00  0.00     0.016 C 
ENDROOT
BRANCH   1  24
HETATM   24  C6  UNL     1      12.066  13.037  17.292  1.00  0.00    -0.014 C 
HETATM   25  C7  UNL     1      12.381  13.723  15.960  1.00  0.00     0.010 C 
BRANCH  24  26
HETATM   26  C5  UNL     1      13.264  12.173  17.780  1.00  0.00     0.008 C 
BRANCH  26  27
HETATM   27  C4  UNL     1      14.015  12.637  19.038  1.00  0.00     0.028 C 
BRANCH  27  28
HETATM   28  C3  UNL     1      15.508  12.489  18.929  1.00  0.00    -0.013 C 
HETATM   29  C2  UNL     1      16.441  12.658  19.886  1.00  0.00     0.008 C 
HETATM   30  C1  UNL     1      17.901  12.434  19.619  1.00  0.00     0.055 C 
BRANCH  29  31
HETATM   31  C30 UNL     1      16.088  13.100  21.254  1.00  0.00     0.171 C 
HETATM   32  O2  UNL     1      15.901  12.399  22.231  1.00  0.00    -0.646 OA
BRANCH  31  33
HETATM   33  O3  UNL     1      15.978  14.438  21.320  1.00  0.00    -0.773 OA
HETATM   34  H46 UNL     1      15.751  14.605  22.258  1.00  0.00     0.167 HD
ENDBRANCH  31  33
ENDBRANCH  29  31
ENDBRANCH  27  28
ENDBRANCH  26  27
ENDBRANCH  24  26
ENDBRANCH   1  24
TORSDOF 6
ENDMDL
MODEL 2
REMARK minimizedAffinity -8.08977509
REMARK CNNscore 0.475696951
REMARK CNNaffinity 6.62184381
REMARK  6 active torsions:
REMARK  status: ('A' for Active; 'I' for Inactive)
REMARK    1  A    between atoms: C2_2  and  C30_31 
REMARK    2  A    between atoms: C3_3  and  C4_4 
REMARK    3  A    between atoms: C4_4  and  C5_5 
REMARK    4  A    between atoms: C5_5  and  C6_6 
REMARK    5  A    between atoms: C6_6  and  C8_8 
REMARK    6  A    between atoms: C30_31  and  O3_33 
ROOT
HETATM    1  C8  UNL     1      -0.499  11.584  17.151  1.00  0.00    -0.002 C 
HETATM    2  C9  UNL     1      -1.624  12.597  17.494  1.00  0.00     0.007 C 
HETATM    3  C10 UNL     1      -2.944  12.010  16.939  1.00  0.00     0.015 C 
HETATM    4  C11 UNL     1      -2.514  10.810  16.065  1.00  0.00    -0.013 C 
HETATM    5  C12 UNL     1      -2.158  11.401  14.662  1.00  0.00     0.021 C 
HETATM    6  C13 UNL     1      -3.521   9.696  15.799  1.00  0.00    -0.070 C 
HETATM    7  C14 UNL     1      -4.838   9.939  15.669  1.00  0.00    -0.022 C 
HETATM    8  C15 UNL     1      -5.856   8.911  15.271  1.00  0.00     0.034 C 
HETATM    9  C16 UNL     1      -5.324   7.460  15.262  1.00  0.00     0.013 C 
HETATM   10  C17 UNL     1      -6.335   6.376  14.722  1.00  0.00     0.018 C 
HETATM   11  C18 UNL     1      -6.818   5.499  15.898  1.00  0.00     0.023 C 
HETATM   12  C19 UNL     1      -7.589   6.984  14.058  1.00  0.00     0.023 C 
HETATM   13  C20 UNL     1      -5.693   5.411  13.712  1.00  0.00     0.135 C 
HETATM   14  O1  UNL     1      -6.340   4.920  12.782  1.00  0.00    -0.297 OA
HETATM   15  C21 UNL     1      -4.267   4.964  13.918  1.00  0.00     0.080 C 
HETATM   16  C22 UNL     1      -3.420   5.919  14.742  1.00  0.00     0.017 C 
HETATM   17  C23 UNL     1      -3.874   7.395  14.666  1.00  0.00    -0.031 C 
HETATM   18  C24 UNL     1      -3.815   7.897  13.203  1.00  0.00     0.016 C 
HETATM   19  C25 UNL     1      -2.954   8.285  15.598  1.00  0.00     0.024 C 
HETATM   20  C26 UNL     1      -1.451   8.286  15.217  1.00  0.00     0.010 C 
HETATM   21  C27 UNL     1      -0.540   9.209  16.062  1.00  0.00     0.011 C 
HETATM   22  C28 UNL     1      -1.297  10.266  16.888  1.00  0.00    -0.029 C 
HETATM   23  C29 UNL     1      -1.697   9.637  18.260  1.00  0.00     0.016 C 
ENDROOT
BRANCH   1  24
HETATM   24  C6  UNL     1       0.724  11.497  18.111  1.00  0.00    -0.014 C 
HETATM   25  C7  UNL     1       1.701  10.347  17.854  1.00  0.00     0.010 C 
BRANCH  24  26
HETATM   26  C5  UNL     1       0.294  11.549  19.605  1.00  0.00     0.008 C 
BRANCH  26  27
HETATM   27  C4  UNL     1       0.895  10.506  20.560  1.00  0.00     0.028 C 
BRANCH  27  28
HETATM   28  C3  UNL     1       2.233  10.912  21.118  1.00  0.00    -0.013 C 
HETATM   29  C2  UNL     1       2.966  10.301  22.070  1.00  0.00     0.008 C 
HETATM   30  C1  UNL     1       4.310  10.820  22.491  1.00  0.00     0.055 C 
BRANCH  29  31
HETATM   31  C30 UNL     1       2.481   9.095  22.778  1.00  0.00     0.171 C 
HETATM   32  O2  UNL     1       2.433   8.915  23.980  1.00  0.00    -0.646 OA
BRANCH  31  33
HETATM   33  O3  UNL     1       2.081   8.150  21.910  1.00  0.00    -0.773 OA
HETATM   34  H46 UNL     1       1.784   7.417  22.488  1.00  0.00     0.167 HD
ENDBRANCH  31  33
ENDBRANCH  29  31
ENDBRANCH  27  28
ENDBRANCH  26  27
ENDBRANCH  24  26
ENDBRANCH   1  24
TORSDOF 6
ENDMDL
MODEL 3
REMARK minimizedAffinity -6.91616392
REMARK CNNscore 0.396480143
REMARK CNNaffinity 5.97183371
REMARK  6 active torsions:
REMARK  status: ('A' for Active; 'I' for Inactive)
REMARK    1  A    between atoms: C2_2  and  C30_31 
REMARK    2  A    between atoms: C3_3  and  C4_4 
REMARK    3  A    between atoms: C4_4  and  C5_5 
REMARK    4  A    between atoms: C5_5  and  C6_6 
REMARK    5  A    between atoms: C6_6  and  C8_8 
REMARK    6  A    between atoms: C30_31  and  O3_33 
ROOT
HETATM    1  C8  UNL     1       4.477  12.524  21.662  1.00  0.00    -0.002 C 
HETATM    2  C9  UNL     1       3.782  13.625  22.506  1.00  0.00     0.007 C 
HETATM    3  C10 UNL     1       2.411  13.902  21.843  1.00  0.00     0.015 C 
HETATM    4  C11 UNL     1       2.458  13.152  20.493  1.00  0.00    -0.013 C 
HETATM    5  C12 UNL     1       3.169  14.116  19.487  1.00  0.00     0.021 C 
HETATM    6  C13 UNL     1       1.146  12.755  19.827  1.00  0.00    -0.070 C 
HETATM    7  C14 UNL     1       0.039  13.515  19.916  1.00  0.00    -0.022 C 
HETATM    8  C15 UNL     1      -1.236  13.250  19.172  1.00  0.00     0.034 C 
HETATM    9  C16 UNL     1      -1.287  11.874  18.470  1.00  0.00     0.013 C 
HETATM   10  C17 UNL     1      -2.561  11.624  17.573  1.00  0.00     0.018 C 
HETATM   11  C18 UNL     1      -3.469  10.578  18.258  1.00  0.00     0.023 C 
HETATM   12  C19 UNL     1      -3.413  12.893  17.349  1.00  0.00     0.023 C 
HETATM   13  C20 UNL     1      -2.215  11.043  16.193  1.00  0.00     0.135 C 
HETATM   14  O1  UNL     1      -2.888  11.306  15.191  1.00  0.00    -0.297 OA
HETATM   15  C21 UNL     1      -1.093  10.041  16.071  1.00  0.00     0.080 C 
HETATM   16  C22 UNL     1      -0.052  10.125  17.173  1.00  0.00     0.017 C 
HETATM   17  C23 UNL     1       0.091  11.528  17.805  1.00  0.00    -0.031 C 
HETATM   18  C24 UNL     1       0.501  12.561  16.727  1.00  0.00     0.016 C 
HETATM   19  C25 UNL     1       1.164  11.483  18.969  1.00  0.00     0.024 C 
HETATM   20  C26 UNL     1       2.591  11.075  18.521  1.00  0.00     0.010 C 
HETATM   21  C27 UNL     1       3.677  11.098  19.624  1.00  0.00     0.011 C 
HETATM   22  C28 UNL     1       3.281  11.879  20.891  1.00  0.00    -0.029 C 
HETATM   23  C29 UNL     1       2.520  10.916  21.855  1.00  0.00     0.016 C 
ENDROOT
BRANCH   1  24
HETATM   24  C6  UNL     1       5.461  11.557  22.388  1.00  0.00    -0.014 C 
HETATM   25  C7  UNL     1       4.821  10.401  23.160  1.00  0.00     0.010 C 
BRANCH  24  26
HETATM   26  C5  UNL     1       6.485  12.328  23.269  1.00  0.00     0.008 C 
BRANCH  26  27
HETATM   27  C4  UNL     1       7.972  12.220  22.896  1.00  0.00     0.028 C 
BRANCH  27  28
HETATM   28  C3  UNL     1       8.512  13.461  22.237  1.00  0.00    -0.013 C 
HETATM   29  C2  UNL     1       9.396  13.557  21.224  1.00  0.00     0.008 C 
HETATM   30  C1  UNL     1       9.807  14.883  20.653  1.00  0.00     0.055 C 
BRANCH  29  31
HETATM   31  C30 UNL     1      10.035  12.363  20.626  1.00  0.00     0.171 C 
HETATM   32  O2  UNL     1       9.482  11.410  20.111  1.00  0.00    -0.646 OA
BRANCH  31  33
HETATM   33  O3  UNL     1      11.375  12.430  20.721  1.00  0.00    -0.773 OA
HETATM   34  H46 UNL     1      11.678  11.602  20.295  1.00  0.00     0.167 HD
ENDBRANCH  31  33
ENDBRANCH  29  31
ENDBRANCH  27  28
ENDBRANCH  26  27
ENDBRANCH  24  26
ENDBRANCH   1  24
TORSDOF 6
ENDMDL
MODEL 4
REMARK minimizedAffinity -6.79802513
REMARK CNNscore 0.348310649
REMARK CNNaffinity 6.37076712
REMARK  6 active torsions:
REMARK  status: ('A' for Active; 'I' for Inactive)
REMARK    1  A    between atoms: C2_2  and  C30_31 
REMARK    2  A    between atoms: C3_3  and  C4_4 
REMARK    3  A    between atoms: C4_4  and  C5_5 
REMARK    4  A    between atoms: C5_5  and  C6_6 
REMARK    5  A    between atoms: C6_6  and  C8_8 
REMARK    6  A    between atoms: C30_31  and  O3_33 
ROOT
HETATM    1  C8  UNL     1     -12.865  10.131  23.040  1.00  0.00    -0.002 C 
HETATM    2  C9  UNL     1     -13.206  10.841  24.378  1.00  0.00     0.007 C 
HETATM    3  C10 UNL     1     -13.732   9.752  25.344  1.00  0.00     0.015 C 
HETATM    4  C11 UNL     1     -13.932   8.497  24.466  1.00  0.00    -0.013 C 
HETATM    5  C12 UNL     1     -15.347   8.643  23.817  1.00  0.00     0.021 C 
HETATM    6  C13 UNL     1     -13.922   7.125  25.130  1.00  0.00    -0.070 C 
HETATM    7  C14 UNL     1     -14.409   6.927  26.369  1.00  0.00    -0.022 C 
HETATM    8  C15 UNL     1     -14.554   5.584  27.020  1.00  0.00     0.034 C 
HETATM    9  C16 UNL     1     -13.861   4.431  26.260  1.00  0.00     0.013 C 
HETATM   10  C17 UNL     1     -14.108   2.989  26.851  1.00  0.00     0.018 C 
HETATM   11  C18 UNL     1     -12.804   2.474  27.500  1.00  0.00     0.023 C 
HETATM   12  C19 UNL     1     -15.206   2.952  27.937  1.00  0.00     0.023 C 
HETATM   13  C20 UNL     1     -14.481   1.957  25.775  1.00  0.00     0.135 C 
HETATM   14  O1  UNL     1     -15.242   1.014  26.016  1.00  0.00    -0.297 OA
HETATM   15  C21 UNL     1     -13.820   2.029  24.421  1.00  0.00     0.080 C 
HETATM   16  C22 UNL     1     -13.302   3.406  24.045  1.00  0.00     0.017 C 
HETATM   17  C23 UNL     1     -14.065   4.574  24.710  1.00  0.00    -0.031 C 
HETATM   18  C24 UNL     1     -15.559   4.535  24.307  1.00  0.00     0.016 C 
HETATM   19  C25 UNL     1     -13.409   5.951  24.286  1.00  0.00     0.024 C 
HETATM   20  C26 UNL     1     -13.438   6.243  22.764  1.00  0.00     0.010 C 
HETATM   21  C27 UNL     1     -12.874   7.617  22.328  1.00  0.00     0.011 C 
HETATM   22  C28 UNL     1     -12.727   8.636  23.474  1.00  0.00    -0.029 C 
HETATM   23  C29 UNL     1     -11.333   8.434  24.147  1.00  0.00     0.016 C 
ENDROOT
BRANCH   1  24
HETATM   24  C6  UNL     1     -11.723  10.728  22.166  1.00  0.00    -0.014 C 
HETATM   25  C7  UNL     1     -11.385   9.961  20.885  1.00  0.00     0.010 C 
BRANCH  24  26
HETATM   26  C5  UNL     1     -10.445  11.022  23.002  1.00  0.00     0.008 C 
BRANCH  26  27
HETATM   27  C4  UNL     1      -9.930  12.469  23.037  1.00  0.00     0.028 C 
BRANCH  27  28
HETATM   28  C3  UNL     1      -8.468  12.589  22.698  1.00  0.00    -0.013 C 
HETATM   29  C2  UNL     1      -7.608  13.573  23.027  1.00  0.00     0.008 C 
HETATM   30  C1  UNL     1      -6.159  13.523  22.637  1.00  0.00     0.055 C 
BRANCH  29  31
HETATM   31  C30 UNL     1      -8.042  14.777  23.771  1.00  0.00     0.171 C 
HETATM   32  O2  UNL     1      -9.116  15.343  23.696  1.00  0.00    -0.646 OA
BRANCH  31  33
HETATM   33  O3  UNL     1      -7.069  15.221  24.586  1.00  0.00    -0.773 OA
HETATM   34  H46 UNL     1      -7.471  16.003  25.019  1.00  0.00     0.167 HD
ENDBRANCH  31  33
ENDBRANCH  29  31
ENDBRANCH  27  28
ENDBRANCH  26  27
ENDBRANCH  24  26
ENDBRANCH   1  24
TORSDOF 6
ENDMDL
MODEL 5
REMARK minimizedAffinity -9.51937199
REMARK CNNscore 0.334372967
REMARK CNNaffinity 6.94060135
REMARK  6 active torsions:
REMARK  status: ('A' for Active; 'I' for Inactive)
REMARK    1  A    between atoms: C2_2  and  C30_31 
REMARK    2  A    between atoms: C3_3  and  C4_4 
REMARK    3  A    between atoms: C4_4  and  C5_5 
REMARK    4  A    between atoms: C5_5  and  C6_6 
REMARK    5  A    between atoms: C6_6  and  C8_8 
REMARK    6  A    between atoms: C30_31  and  O3_33 
ROOT
HETATM    1  C8  UNL     1      -5.078   7.983  15.506  1.00  0.00    -0.002 C 
HETATM    2  C9  UNL     1      -4.836   9.509  15.654  1.00  0.00     0.007 C 
HETATM    3  C10 UNL     1      -3.431   9.800  15.075  1.00  0.00     0.015 C 
HETATM    4  C11 UNL     1      -2.792   8.412  14.851  1.00  0.00    -0.013 C 
HETATM    5  C12 UNL     1      -2.169   7.995  16.224  1.00  0.00     0.021 C 
HETATM    6  C13 UNL     1      -1.668   8.276  13.830  1.00  0.00    -0.070 C 
HETATM    7  C14 UNL     1      -0.772   9.257  13.617  1.00  0.00    -0.022 C 
HETATM    8  C15 UNL     1       0.432   9.130  12.731  1.00  0.00     0.034 C 
HETATM    9  C16 UNL     1       0.448   7.855  11.859  1.00  0.00     0.013 C 
HETATM   10  C17 UNL     1       1.763   7.632  11.016  1.00  0.00     0.018 C 
HETATM   11  C18 UNL     1       1.455   7.864   9.520  1.00  0.00     0.023 C 
HETATM   12  C19 UNL     1       2.909   8.593  11.402  1.00  0.00     0.023 C 
HETATM   13  C20 UNL     1       2.302   6.197  11.118  1.00  0.00     0.135 C 
HETATM   14  O1  UNL     1       3.512   5.953  11.066  1.00  0.00    -0.297 OA
HETATM   15  C21 UNL     1       1.331   5.043  11.176  1.00  0.00     0.080 C 
HETATM   16  C22 UNL     1      -0.047   5.406  11.701  1.00  0.00     0.017 C 
HETATM   17  C23 UNL     1      -0.060   6.611  12.669  1.00  0.00    -0.031 C 
HETATM   18  C24 UNL     1       0.824   6.313  13.905  1.00  0.00     0.016 C 
HETATM   19  C25 UNL     1      -1.547   6.926  13.110  1.00  0.00     0.024 C 
HETATM   20  C26 UNL     1      -2.259   5.773  13.864  1.00  0.00     0.010 C 
HETATM   21  C27 UNL     1      -3.687   6.081  14.376  1.00  0.00     0.011 C 
HETATM   22  C28 UNL     1      -4.042   7.580  14.407  1.00  0.00    -0.029 C 
HETATM   23  C29 UNL     1      -4.605   7.989  13.010  1.00  0.00     0.016 C 
ENDROOT
BRANCH   1  24
HETATM   24  C6  UNL     1      -6.543   7.489  15.320  1.00  0.00    -0.014 C 
HETATM   25  C7  UNL     1      -7.067   6.521  16.384  1.00  0.00     0.010 C 
BRANCH  24  26
HETATM   26  C5  UNL     1      -6.793   6.942  13.885  1.00  0.00     0.008 C 
BRANCH  26  27
HETATM   27  C4  UNL     1      -7.263   5.485  13.747  1.00  0.00     0.028 C 
BRANCH  27  28
HETATM   28  C3  UNL     1      -6.305   4.622  12.972  1.00  0.00    -0.013 C 
HETATM   29  C2  UNL     1      -6.510   3.394  12.457  1.00  0.00     0.008 C 
HETATM   30  C1  UNL     1      -5.451   2.676  11.671  1.00  0.00     0.055 C 
BRANCH  29  31
HETATM   31  C30 UNL     1      -7.783   2.664  12.653  1.00  0.00     0.171 C 
HETATM   32  O2  UNL     1      -8.891   3.142  12.809  1.00  0.00    -0.646 OA
BRANCH  31  33
HETATM   33  O3  UNL     1      -7.586   1.334  12.653  1.00  0.00    -0.773 OA
HETATM   34  H46 UNL     1      -8.485   0.968  12.784  1.00  0.00     0.167 HD
ENDBRANCH  31  33
ENDBRANCH  29  31
ENDBRANCH  27  28
ENDBRANCH  26  27
ENDBRANCH  24  26
ENDBRANCH   1  24
TORSDOF 6
ENDMDL
MODEL 6
REMARK minimizedAffinity -6.26931858
REMARK CNNscore 0.303558916
REMARK CNNaffinity 6.26205254
REMARK  6 active torsions:
REMARK  status: ('A' for Active; 'I' for Inactive)
REMARK    1  A    between atoms: C2_2  and  C30_31 
REMARK    2  A    between atoms: C3_3  and  C4_4 
REMARK    3  A    between atoms: C4_4  and  C5_5 
REMARK    4  A    between atoms: C5_5  and  C6_6 
REMARK    5  A    between atoms: C6_6  and  C8_8 
REMARK    6  A    between atoms: C30_31  and  O3_33 
ROOT
HETATM    1  C8  UNL     1     -13.948   3.747  24.652  1.00  0.00    -0.002 C 
HETATM    2  C9  UNL     1     -14.384   2.287  24.354  1.00  0.00     0.007 C 
HETATM    3  C10 UNL     1     -14.749   1.640  25.711  1.00  0.00     0.015 C 
HETATM    4  C11 UNL     1     -14.268   2.647  26.780  1.00  0.00    -0.013 C 
HETATM    5  C12 UNL     1     -12.752   2.341  27.012  1.00  0.00     0.021 C 
HETATM    6  C13 UNL     1     -14.911   2.617  28.161  1.00  0.00    -0.070 C 
HETATM    7  C14 UNL     1     -15.324   1.470  28.733  1.00  0.00    -0.022 C 
HETATM    8  C15 UNL     1     -15.835   1.359  30.139  1.00  0.00     0.034 C 
HETATM    9  C16 UNL     1     -16.099   2.715  30.829  1.00  0.00     0.013 C 
HETATM   10  C17 UNL     1     -16.511   2.628  32.350  1.00  0.00     0.018 C 
HETATM   11  C18 UNL     1     -18.003   3.003  32.496  1.00  0.00     0.023 C 
HETATM   12  C19 UNL     1     -16.332   1.218  32.954  1.00  0.00     0.023 C 
HETATM   13  C20 UNL     1     -15.738   3.618  33.236  1.00  0.00     0.135 C 
HETATM   14  O1  UNL     1     -15.454   3.353  34.409  1.00  0.00    -0.297 OA
HETATM   15  C21 UNL     1     -15.409   4.989  32.701  1.00  0.00     0.080 C 
HETATM   16  C22 UNL     1     -15.349   5.077  31.186  1.00  0.00     0.017 C 
HETATM   17  C23 UNL     1     -14.971   3.751  30.488  1.00  0.00    -0.031 C 
HETATM   18  C24 UNL     1     -13.575   3.277  30.962  1.00  0.00     0.016 C 
HETATM   19  C25 UNL     1     -14.988   3.949  28.918  1.00  0.00     0.024 C 
HETATM   20  C26 UNL     1     -13.987   5.006  28.386  1.00  0.00     0.010 C 
HETATM   21  C27 UNL     1     -13.926   5.165  26.847  1.00  0.00     0.011 C 
HETATM   22  C28 UNL     1     -14.571   4.006  26.062  1.00  0.00    -0.029 C 
HETATM   23  C29 UNL     1     -16.094   4.302  25.894  1.00  0.00     0.016 C 
ENDROOT
BRANCH   1  24
HETATM   24  C6  UNL     1     -14.197   4.824  23.554  1.00  0.00    -0.014 C 
HETATM   25  C7  UNL     1     -14.508   4.295  22.152  1.00  0.00     0.010 C 
BRANCH  24  26
HETATM   26  C5  UNL     1     -13.065   5.889  23.519  1.00  0.00     0.008 C 
BRANCH  26  27
HETATM   27  C4  UNL     1     -13.459   7.360  23.728  1.00  0.00     0.028 C 
BRANCH  27  28
HETATM   28  C3  UNL     1     -12.509   8.329  23.078  1.00  0.00    -0.013 C 
HETATM   29  C2  UNL     1     -11.786   9.309  23.653  1.00  0.00     0.008 C 
HETATM   30  C1  UNL     1     -10.848  10.174  22.859  1.00  0.00     0.055 C 
BRANCH  29  31
HETATM   31  C30 UNL     1     -11.888   9.614  25.098  1.00  0.00     0.171 C 
HETATM   32  O2  UNL     1     -12.810  10.161  25.673  1.00  0.00    -0.646 OA
BRANCH  31  33
HETATM   33  O3  UNL     1     -10.789   9.210  25.759  1.00  0.00    -0.773 OA
HETATM   34  H46 UNL     1     -10.975   9.458  26.688  1.00  0.00     0.167 HD
ENDBRANCH  31  33
ENDBRANCH  29  31
ENDBRANCH  27  28
ENDBRANCH  26  27
ENDBRANCH  24  26
ENDBRANCH   1  24
TORSDOF 6
ENDMDL
MODEL 7
REMARK minimizedAffinity -7.46818066
REMARK CNNscore 0.287910163
REMARK CNNaffinity 6.31018496
REMARK  6 active torsions:
REMARK  status: ('A' for Active; 'I' for Inactive)
REMARK    1  A    between atoms: C2_2  and  C30_31 
REMARK    2  A    between atoms: C3_3  and  C4_4 
REMARK    3  A    between atoms: C4_4  and  C5_5 
REMARK    4  A    between atoms: C5_5  and  C6_6 
REMARK    5  A    between atoms: C6_6  and  C8_8 
REMARK    6  A    between atoms: C30_31  and  O3_33 
ROOT
HETATM    1  C8  UNL     1     -13.873   7.887  23.193  1.00  0.00    -0.002 C 
HETATM    2  C9  UNL     1     -13.672   7.493  21.705  1.00  0.00     0.007 C 
HETATM    3  C10 UNL     1     -12.758   8.571  21.074  1.00  0.00     0.015 C 
HETATM    4  C11 UNL     1     -12.669   9.693  22.132  1.00  0.00    -0.013 C 
HETATM    5  C12 UNL     1     -13.928  10.595  21.913  1.00  0.00     0.021 C 
HETATM    6  C13 UNL     1     -11.474  10.639  22.103  1.00  0.00    -0.070 C 
HETATM    7  C14 UNL     1     -10.889  11.016  20.951  1.00  0.00    -0.022 C 
HETATM    8  C15 UNL     1      -9.804  12.047  20.848  1.00  0.00     0.034 C 
HETATM    9  C16 UNL     1      -9.209  12.481  22.206  1.00  0.00     0.013 C 
HETATM   10  C17 UNL     1      -8.159  13.658  22.135  1.00  0.00     0.018 C 
HETATM   11  C18 UNL     1      -6.749  13.101  22.434  1.00  0.00     0.023 C 
HETATM   12  C19 UNL     1      -8.097  14.342  20.752  1.00  0.00     0.023 C 
HETATM   13  C20 UNL     1      -8.414  14.749  23.187  1.00  0.00     0.135 C 
HETATM   14  O1  UNL     1      -8.148  15.935  22.968  1.00  0.00    -0.297 OA
HETATM   15  C21 UNL     1      -8.899  14.356  24.560  1.00  0.00     0.080 C 
HETATM   16  C22 UNL     1      -9.632  13.026  24.612  1.00  0.00     0.017 C 
HETATM   17  C23 UNL     1     -10.332  12.636  23.291  1.00  0.00    -0.031 C 
HETATM   18  C24 UNL     1     -11.380  13.707  22.904  1.00  0.00     0.016 C 
HETATM   19  C25 UNL     1     -11.016  11.217  23.448  1.00  0.00     0.024 C 
HETATM   20  C26 UNL     1     -12.112  11.142  24.543  1.00  0.00     0.010 C 
HETATM   21  C27 UNL     1     -12.853   9.789  24.666  1.00  0.00     0.011 C 
HETATM   22  C28 UNL     1     -12.674   8.853  23.455  1.00  0.00    -0.029 C 
HETATM   23  C29 UNL     1     -11.380   8.006  23.665  1.00  0.00     0.016 C 
ENDROOT
BRANCH   1  24
HETATM   24  C6  UNL     1     -14.108   6.745  24.227  1.00  0.00    -0.014 C 
HETATM   25  C7  UNL     1     -13.836   7.097  25.692  1.00  0.00     0.010 C 
BRANCH  24  26
HETATM   26  C5  UNL     1     -13.380   5.433  23.816  1.00  0.00     0.008 C 
BRANCH  26  27
HETATM   27  C4  UNL     1     -13.637   4.177  24.663  1.00  0.00     0.028 C 
BRANCH  27  28
HETATM   28  C3  UNL     1     -12.661   3.065  24.390  1.00  0.00    -0.013 C 
HETATM   29  C2  UNL     1     -12.293   2.053  25.200  1.00  0.00     0.008 C 
HETATM   30  C1  UNL     1     -11.325   0.994  24.757  1.00  0.00     0.055 C 
BRANCH  29  31
HETATM   31  C30 UNL     1     -12.799   1.935  26.586  1.00  0.00     0.171 C 
HETATM   32  O2  UNL     1     -13.891   2.272  27.004  1.00  0.00    -0.646 OA
BRANCH  31  33
HETATM   33  O3  UNL     1     -11.874   1.391  27.397  1.00  0.00    -0.773 OA
HETATM   34  H46 UNL     1     -12.321   1.362  28.268  1.00  0.00     0.167 HD
ENDBRANCH  31  33
ENDBRANCH  29  31
ENDBRANCH  27  28
ENDBRANCH  26  27
ENDBRANCH  24  26
ENDBRANCH   1  24
TORSDOF 6
ENDMDL
MODEL 8
REMARK minimizedAffinity -8.84783077
REMARK CNNscore 0.264038652
REMARK CNNaffinity 6.74572229
REMARK  6 active torsions:
REMARK  status: ('A' for Active; 'I' for Inactive)
REMARK    1  A    between atoms: C2_2  and  C30_31 
REMARK    2  A    between atoms: C3_3  and  C4_4 
REMARK    3  A    between atoms: C4_4  and  C5_5 
REMARK    4  A    between atoms: C5_5  and  C6_6 
REMARK    5  A    between atoms: C6_6  and  C8_8 
REMARK    6  A    between atoms: C30_31  and  O3_33 
ROOT
HETATM    1  C8  UNL     1       0.933   7.168  11.988  1.00  0.00    -0.002 C 
HETATM    2  C9  UNL     1       1.057   5.737  11.398  1.00  0.00     0.007 C 
HETATM    3  C10 UNL     1      -0.252   4.991  11.749  1.00  0.00     0.015 C 
HETATM    4  C11 UNL     1      -0.985   5.911  12.751  1.00  0.00    -0.013 C 
HETATM    5  C12 UNL     1      -0.389   5.581  14.158  1.00  0.00     0.021 C 
HETATM    6  C13 UNL     1      -2.496   5.779  12.901  1.00  0.00    -0.070 C 
HETATM    7  C14 UNL     1      -3.125   4.595  12.788  1.00  0.00    -0.022 C 
HETATM    8  C15 UNL     1      -4.584   4.379  13.061  1.00  0.00     0.034 C 
HETATM    9  C16 UNL     1      -5.396   5.681  13.245  1.00  0.00     0.013 C 
HETATM   10  C17 UNL     1      -6.904   5.481  13.663  1.00  0.00     0.018 C 
HETATM   11  C18 UNL     1      -7.817   5.851  12.472  1.00  0.00     0.023 C 
HETATM   12  C19 UNL     1      -7.242   4.028  14.063  1.00  0.00     0.023 C 
HETATM   13  C20 UNL     1      -7.330   6.396  14.821  1.00  0.00     0.135 C 
HETATM   14  O1  UNL     1      -8.173   6.042  15.652  1.00  0.00    -0.297 OA
HETATM   15  C21 UNL     1      -6.789   7.802  14.891  1.00  0.00     0.080 C 
HETATM   16  C22 UNL     1      -5.466   8.005  14.173  1.00  0.00     0.017 C 
HETATM   17  C23 UNL     1      -4.591   6.733  14.085  1.00  0.00    -0.031 C 
HETATM   18  C24 UNL     1      -4.253   6.218  15.506  1.00  0.00     0.016 C 
HETATM   19  C25 UNL     1      -3.267   7.051  13.278  1.00  0.00     0.024 C 
HETATM   20  C26 UNL     1      -2.365   8.140  13.913  1.00  0.00     0.010 C 
HETATM   21  C27 UNL     1      -1.025   8.415  13.187  1.00  0.00     0.011 C 
HETATM   22  C28 UNL     1      -0.610   7.323  12.183  1.00  0.00    -0.029 C 
HETATM   23  C29 UNL     1      -1.264   7.638  10.801  1.00  0.00     0.016 C 
ENDROOT
BRANCH   1  24
HETATM   24  C6  UNL     1       1.679   8.326  11.261  1.00  0.00    -0.014 C 
HETATM   25  C7  UNL     1       2.166   8.026   9.841  1.00  0.00     0.010 C 
BRANCH  24  26
HETATM   26  C5  UNL     1       2.819   8.921  12.136  1.00  0.00     0.008 C 
BRANCH  26  27
HETATM   27  C4  UNL     1       3.751   7.938  12.861  1.00  0.00     0.028 C 
BRANCH  27  28
HETATM   28  C3  UNL     1       4.710   7.236  11.938  1.00  0.00    -0.013 C 
HETATM   29  C2  UNL     1       5.992   6.889  12.165  1.00  0.00     0.008 C 
HETATM   30  C1  UNL     1       6.809   6.153  11.142  1.00  0.00     0.055 C 
BRANCH  29  31
HETATM   31  C30 UNL     1       6.685   7.233  13.428  1.00  0.00     0.171 C 
HETATM   32  O2  UNL     1       7.498   8.120  13.605  1.00  0.00    -0.646 OA
BRANCH  31  33
HETATM   33  O3  UNL     1       6.313   6.413  14.426  1.00  0.00    -0.773 OA
HETATM   34  H46 UNL     1       6.826   6.738  15.195  1.00  0.00     0.167 HD
ENDBRANCH  31  33
ENDBRANCH  29  31
ENDBRANCH  27  28
ENDBRANCH  26  27
ENDBRANCH  24  26
ENDBRANCH   1  24
TORSDOF 6
ENDMDL
MODEL 9
REMARK minimizedAffinity -6.03634214
REMARK CNNscore 0.237341881
REMARK CNNaffinity 5.07312775
REMARK  6 active torsions:
REMARK  status: ('A' for Active; 'I' for Inactive)
REMARK    1  A    between atoms: C2_2  and  C30_31 
REMARK    2  A    between atoms: C3_3  and  C4_4 
REMARK    3  A    between atoms: C4_4  and  C5_5 
REMARK    4  A    between atoms: C5_5  and  C6_6 
REMARK    5  A    between atoms: C6_6  and  C8_8 
REMARK    6  A    between atoms: C30_31  and  O3_33 
ROOT
HETATM    1  C8  UNL     1       9.907  10.437  15.093  1.00  0.00    -0.002 C 
HETATM    2  C9  UNL     1      10.797   9.327  14.473  1.00  0.00     0.007 C 
HETATM    3  C10 UNL     1       9.852   8.363  13.715  1.00  0.00     0.015 C 
HETATM    4  C11 UNL     1       8.426   8.787  14.132  1.00  0.00    -0.013 C 
HETATM    5  C12 UNL     1       8.134   8.052  15.482  1.00  0.00     0.021 C 
HETATM    6  C13 UNL     1       7.259   8.442  13.215  1.00  0.00    -0.070 C 
HETATM    7  C14 UNL     1       7.231   7.310  12.487  1.00  0.00    -0.022 C 
HETATM    8  C15 UNL     1       6.055   6.851  11.677  1.00  0.00     0.034 C 
HETATM    9  C16 UNL     1       4.937   7.906  11.524  1.00  0.00     0.013 C 
HETATM   10  C17 UNL     1       3.634   7.405  10.788  1.00  0.00     0.018 C 
HETATM   11  C18 UNL     1       3.550   8.065   9.394  1.00  0.00     0.023 C 
HETATM   12  C19 UNL     1       3.601   5.876  10.574  1.00  0.00     0.023 C 
HETATM   13  C20 UNL     1       2.343   7.803  11.522  1.00  0.00     0.135 C 
HETATM   14  O1  UNL     1       1.336   7.089  11.496  1.00  0.00    -0.297 OA
HETATM   15  C21 UNL     1       2.262   9.147  12.202  1.00  0.00     0.080 C 
HETATM   16  C22 UNL     1       3.606   9.734  12.598  1.00  0.00     0.017 C 
HETATM   17  C23 UNL     1       4.704   8.680  12.869  1.00  0.00    -0.031 C 
HETATM   18  C24 UNL     1       4.271   7.742  14.021  1.00  0.00     0.016 C 
HETATM   19  C25 UNL     1       6.065   9.407  13.223  1.00  0.00     0.024 C 
HETATM   20  C26 UNL     1       6.016  10.298  14.490  1.00  0.00     0.010 C 
HETATM   21  C27 UNL     1       7.353  10.958  14.905  1.00  0.00     0.011 C 
HETATM   22  C28 UNL     1       8.600  10.340  14.243  1.00  0.00    -0.029 C 
HETATM   23  C29 UNL     1       8.838  11.044  12.870  1.00  0.00     0.016 C 
ENDROOT
BRANCH   1  24
HETATM   24  C6  UNL     1      10.529  11.852  15.285  1.00  0.00    -0.014 C 
HETATM   25  C7  UNL     1      11.818  12.131  14.508  1.00  0.00     0.010 C 
BRANCH  24  26
HETATM   26  C5  UNL     1      10.684  12.218  16.789  1.00  0.00     0.008 C 
BRANCH  26  27
HETATM   27  C4  UNL     1       9.402  12.411  17.614  1.00  0.00     0.028 C 
BRANCH  27  28
HETATM   28  C3  UNL     1       9.492  13.547  18.597  1.00  0.00    -0.013 C 
HETATM   29  C2  UNL     1       9.333  13.514  19.934  1.00  0.00     0.008 C 
HETATM   30  C1  UNL     1       9.492  14.743  20.782  1.00  0.00     0.055 C 
BRANCH  29  31
HETATM   31  C30 UNL     1       8.966  12.271  20.650  1.00  0.00     0.171 C 
HETATM   32  O2  UNL     1       9.720  11.426  21.093  1.00  0.00    -0.646 OA
BRANCH  31  33
HETATM   33  O3  UNL     1       7.632  12.152  20.764  1.00  0.00    -0.773 OA
HETATM   34  H46 UNL     1       7.517  11.308  21.250  1.00  0.00     0.167 HD
ENDBRANCH  31  33
ENDBRANCH  29  31
ENDBRANCH  27  28
ENDBRANCH  26  27
ENDBRANCH  24  26
ENDBRANCH   1  24
TORSDOF 6
ENDMDL
