MODEL 1
REMARK minimizedAffinity -9.44765663
REMARK CNNscore 0.516200662
REMARK CNNaffinity 7.66062689
REMARK  12 active torsions:
REMARK  status: ('A' for Active; 'I' for Inactive)
REMARK    1  A    between atoms: C3_3  and  O1_4 
REMARK    2  A    between atoms: N1_14  and  O2_16 
REMARK    3  A    between atoms: O2_16  and  C13_17 
REMARK    4  A    between atoms: C13_17  and  C14_18 
REMARK       I    between atoms: C14_18  and  N2_20 
REMARK    5  A    between atoms: N2_20  and  C15_21 
REMARK    6  A    between atoms: C15_21  and  C16_22 
REMARK    7  A    between atoms: C15_21  and  C23_33 
REMARK       I    between atoms: C16_22  and  N3_24 
REMARK    8  A    between atoms: N3_24  and  C17_25 
REMARK    9  A    between atoms: C17_25  and  C18_26 
REMARK   10  A    between atoms: C17_25  and  C19_29 
REMARK   11  A    between atoms: C18_26  and  O6_28 
REMARK   12  A    between atoms: C19_29  and  C21_31 
ROOT
HETATM    1  C1  UNL     1       0.234  54.968  -8.473  1.00  0.00     0.015 C 
HETATM    2  C2  UNL     1       0.620  54.269  -9.366  1.00  0.00    -0.078 C 
HETATM    3  C3  UNL     1       1.131  53.386 -10.437  1.00  0.00     0.128 C 
HETATM    4  C4  UNL     1       2.442  52.700  -9.996  1.00  0.00     0.052 C 
HETATM    5  C5  UNL     1       2.240  51.191 -10.163  1.00  0.00     0.010 C 
HETATM    6  C6  UNL     1       1.107  51.036 -11.186  1.00  0.00     0.002 C 
HETATM    7  C7  UNL     1       1.572  50.862 -12.664  1.00  0.00    -0.004 C 
HETATM    8  C8  UNL     1       2.809  51.678 -13.088  1.00  0.00     0.010 C 
HETATM    9  C9  UNL     1       3.251  51.353 -14.511  1.00  0.00     0.035 C 
HETATM   10  C10 UNL     1       2.125  51.523 -15.496  1.00  0.00    -0.069 C 
HETATM   11  C11 UNL     1       2.304  52.282 -16.592  1.00  0.00     0.030 C 
HETATM   12  C12 UNL     1       1.268  52.359 -17.655  1.00  0.00     0.032 C 
HETATM   13  N1  UNL     1       1.376  53.310 -18.536  1.00  0.00    -0.271 N 
ATOM     14  H1  UNL     1       2.102  54.025 -18.509  1.00  0.00     0.194 HD
HETATM   15  C26 UNL     1       0.180  51.307 -17.625  1.00  0.00     0.060 C 
HETATM   16  C27 UNL     1      -0.304  51.189 -16.180  1.00  0.00     0.020 C 
HETATM   17  C28 UNL     1       0.825  50.781 -15.176  1.00  0.00    -0.016 C 
HETATM   18  C29 UNL     1       1.065  49.256 -15.367  1.00  0.00     0.020 C 
HETATM   19  C30 UNL     1       0.393  51.046 -13.667  1.00  0.00     0.002 C 
HETATM   20  C31 UNL     1      -0.251  52.427 -13.411  1.00  0.00     0.007 C 
HETATM   21  C32 UNL     1      -0.810  52.553 -11.992  1.00  0.00     0.014 C 
HETATM   22  C33 UNL     1       0.158  52.221 -10.841  1.00  0.00     0.003 C 
HETATM   23  C34 UNL     1      -0.725  51.787  -9.627  1.00  0.00     0.020 C 
ENDROOT
BRANCH   3  24
HETATM   24  O1  UNL     1       1.418  54.211 -11.561  1.00  0.00    -0.377 OA
HETATM   25  H2  UNL     1       1.805  55.037 -11.226  1.00  0.00     0.211 HD
ENDBRANCH   3  24
BRANCH  13  26
HETATM   26  O2  UNL     1       0.386  53.245 -19.525  1.00  0.00    -0.271 OA
BRANCH  26  27
HETATM   27  C13 UNL     1       0.979  53.571 -20.778  1.00  0.00     0.303 C 
BRANCH  27  28
HETATM   28  C14 UNL     1       0.600  52.551 -21.851  1.00  0.00     0.244 C 
HETATM   29  O3  UNL     1       0.350  51.373 -21.605  1.00  0.00    -0.271 OA
HETATM   30  N2  UNL     1       0.611  53.046 -23.145  1.00  0.00    -0.346 N 
HETATM   31  H16 UNL     1       0.349  54.021 -23.244  1.00  0.00     0.163 HD
BRANCH  30  32
HETATM   32  C15 UNL     1       0.229  52.177 -24.263  1.00  0.00     0.180 C 
BRANCH  32  33
HETATM   33  C16 UNL     1      -1.318  52.187 -24.363  1.00  0.00     0.241 C 
HETATM   34  O4  UNL     1      -1.932  53.152 -24.820  1.00  0.00    -0.271 OA
HETATM   35  N3  UNL     1      -1.935  51.033 -23.941  1.00  0.00    -0.344 N 
HETATM   36  H18 UNL     1      -1.396  50.386 -23.367  1.00  0.00     0.163 HD
BRANCH  35  37
HETATM   37  C17 UNL     1      -3.393  50.970 -23.762  1.00  0.00     0.186 C 
BRANCH  37  38
HETATM   38  C18 UNL     1      -3.698  51.463 -22.343  1.00  0.00     0.163 C 
HETATM   39  O5  UNL     1      -2.938  51.390 -21.385  1.00  0.00    -0.648 OA
BRANCH  38  40
HETATM   40  O6  UNL     1      -4.911  52.026 -22.206  1.00  0.00    -0.775 OA
HETATM   41  H20 UNL     1      -4.940  52.304 -21.265  1.00  0.00     0.167 HD
ENDBRANCH  38  40
ENDBRANCH  37  38
BRANCH  37  42
HETATM   42  C19 UNL     1      -3.958  49.566 -24.083  1.00  0.00     0.014 C 
HETATM   43  C20 UNL     1      -3.042  48.475 -23.501  1.00  0.00     0.012 C 
BRANCH  42  44
HETATM   44  C21 UNL     1      -4.199  49.270 -25.582  1.00  0.00     0.002 C 
HETATM   45  C22 UNL     1      -3.117  48.436 -26.247  1.00  0.00     0.005 C 
ENDBRANCH  42  44
ENDBRANCH  37  42
ENDBRANCH  35  37
ENDBRANCH  32  33
BRANCH  32  46
HETATM   46  C23 UNL     1       0.944  52.621 -25.562  1.00  0.00     0.009 C 
HETATM   47  C24 UNL     1       1.822  51.507 -26.137  1.00  0.00     0.012 C 
HETATM   48  C25 UNL     1      -0.002  53.153 -26.642  1.00  0.00     0.012 C 
ENDBRANCH  32  46
ENDBRANCH  30  32
ENDBRANCH  27  28
ENDBRANCH  26  27
ENDBRANCH  13  26
TORSDOF 12
ENDMDL
MODEL 2
REMARK minimizedAffinity -8.45084476
REMARK CNNscore 0.407877028
REMARK CNNaffinity 6.73832512
REMARK  12 active torsions:
REMARK  status: ('A' for Active; 'I' for Inactive)
REMARK    1  A    between atoms: C3_3  and  O1_4 
REMARK    2  A    between atoms: N1_14  and  O2_16 
REMARK    3  A    between atoms: O2_16  and  C13_17 
REMARK    4  A    between atoms: C13_17  and  C14_18 
REMARK       I    between atoms: C14_18  and  N2_20 
REMARK    5  A    between atoms: N2_20  and  C15_21 
REMARK    6  A    between atoms: C15_21  and  C16_22 
REMARK    7  A    between atoms: C15_21  and  C23_33 
REMARK       I    between atoms: C16_22  and  N3_24 
REMARK    8  A    between atoms: N3_24  and  C17_25 
REMARK    9  A    between atoms: C17_25  and  C18_26 
REMARK   10  A    between atoms: C17_25  and  C19_29 
REMARK   11  A    between atoms: C18_26  and  O6_28 
REMARK   12  A    between atoms: C19_29  and  C21_31 
ROOT
HETATM    1  C1  UNL     1      -7.728  49.510 -23.249  1.00  0.00     0.015 C 
HETATM    2  C2  UNL     1      -6.558  49.496 -22.991  1.00  0.00    -0.078 C 
HETATM    3  C3  UNL     1      -5.108  49.443 -22.706  1.00  0.00     0.128 C 
HETATM    4  C4  UNL     1      -4.455  48.244 -23.429  1.00  0.00     0.052 C 
HETATM    5  C5  UNL     1      -3.301  48.797 -24.269  1.00  0.00     0.010 C 
HETATM    6  C6  UNL     1      -2.927  50.139 -23.627  1.00  0.00     0.002 C 
HETATM    7  C7  UNL     1      -1.774  50.072 -22.581  1.00  0.00    -0.004 C 
HETATM    8  C8  UNL     1      -1.742  48.819 -21.683  1.00  0.00     0.010 C 
HETATM    9  C9  UNL     1      -0.517  48.792 -20.776  1.00  0.00     0.035 C 
HETATM   10  C10 UNL     1      -0.405  50.051 -19.956  1.00  0.00    -0.069 C 
HETATM   11  C11 UNL     1      -0.258  49.969 -18.621  1.00  0.00     0.030 C 
HETATM   12  C12 UNL     1      -0.003  51.179 -17.797  1.00  0.00     0.032 C 
HETATM   13  N1  UNL     1      -0.149  51.073 -16.509  1.00  0.00    -0.271 N 
ATOM     14  H1  UNL     1      -0.470  50.224 -16.044  1.00  0.00     0.194 HD
HETATM   15  C26 UNL     1       0.422  52.430 -18.535  1.00  0.00     0.060 C 
HETATM   16  C27 UNL     1      -0.502  52.585 -19.743  1.00  0.00     0.020 C 
HETATM   17  C28 UNL     1      -0.448  51.371 -20.729  1.00  0.00    -0.016 C 
HETATM   18  C29 UNL     1       0.870  51.513 -21.543  1.00  0.00     0.020 C 
HETATM   19  C30 UNL     1      -1.677  51.381 -21.739  1.00  0.00     0.002 C 
HETATM   20  C31 UNL     1      -3.053  51.640 -21.085  1.00  0.00     0.007 C 
HETATM   21  C32 UNL     1      -4.165  51.820 -22.121  1.00  0.00     0.014 C 
HETATM   22  C33 UNL     1      -4.305  50.709 -23.178  1.00  0.00     0.003 C 
HETATM   23  C34 UNL     1      -4.980  51.364 -24.425  1.00  0.00     0.020 C 
ENDROOT
BRANCH   3  24
HETATM   24  O1  UNL     1      -4.960  49.250 -21.304  1.00  0.00    -0.377 OA
HETATM   25  H2  UNL     1      -5.651  48.630 -21.020  1.00  0.00     0.211 HD
ENDBRANCH   3  24
BRANCH  13  26
HETATM   26  O2  UNL     1       0.182  52.253 -15.829  1.00  0.00    -0.271 OA
BRANCH  26  27
HETATM   27  C13 UNL     1       1.182  51.951 -14.862  1.00  0.00     0.303 C 
BRANCH  27  28
HETATM   28  C14 UNL     1       0.580  51.830 -13.463  1.00  0.00     0.244 C 
HETATM   29  O3  UNL     1      -0.128  50.888 -13.111  1.00  0.00    -0.271 OA
HETATM   30  N2  UNL     1       0.852  52.899 -12.625  1.00  0.00    -0.346 N 
HETATM   31  H16 UNL     1       1.751  53.347 -12.763  1.00  0.00     0.163 HD
BRANCH  30  32
HETATM   32  C15 UNL     1       0.363  52.886 -11.242  1.00  0.00     0.180 C 
BRANCH  32  33
HETATM   33  C16 UNL     1       1.589  53.031 -10.305  1.00  0.00     0.241 C 
HETATM   34  O4  UNL     1       1.466  53.112  -9.082  1.00  0.00    -0.271 OA
HETATM   35  N3  UNL     1       2.810  53.024 -10.939  1.00  0.00    -0.344 N 
HETATM   36  H18 UNL     1       2.826  53.191 -11.944  1.00  0.00     0.163 HD
BRANCH  35  37
HETATM   37  C17 UNL     1       4.043  53.377 -10.222  1.00  0.00     0.186 C 
BRANCH  37  38
HETATM   38  C18 UNL     1       4.492  52.131  -9.450  1.00  0.00     0.163 C 
HETATM   39  O5  UNL     1       5.630  51.909  -9.053  1.00  0.00    -0.648 OA
BRANCH  38  40
HETATM   40  O6  UNL     1       3.505  51.249  -9.209  1.00  0.00    -0.775 OA
HETATM   41  H20 UNL     1       3.943  50.535  -8.698  1.00  0.00     0.167 HD
ENDBRANCH  38  40
ENDBRANCH  37  38
BRANCH  37  42
HETATM   42  C19 UNL     1       3.864  54.638  -9.343  1.00  0.00     0.014 C 
HETATM   43  C20 UNL     1       3.627  55.876 -10.226  1.00  0.00     0.012 C 
BRANCH  42  44
HETATM   44  C21 UNL     1       5.022  54.938  -8.362  1.00  0.00     0.002 C 
HETATM   45  C22 UNL     1       6.338  55.303  -9.025  1.00  0.00     0.005 C 
ENDBRANCH  42  44
ENDBRANCH  37  42
ENDBRANCH  35  37
ENDBRANCH  32  33
BRANCH  32  46
HETATM   46  C23 UNL     1      -0.714  53.980 -11.039  1.00  0.00     0.009 C 
HETATM   47  C24 UNL     1      -1.968  53.423 -10.362  1.00  0.00     0.012 C 
HETATM   48  C25 UNL     1      -0.213  55.213 -10.282  1.00  0.00     0.012 C 
ENDBRANCH  32  46
ENDBRANCH  30  32
ENDBRANCH  27  28
ENDBRANCH  26  27
ENDBRANCH  13  26
TORSDOF 12
ENDMDL
MODEL 3
REMARK minimizedAffinity -8.52132511
REMARK CNNscore 0.258921415
REMARK CNNaffinity 6.70315313
REMARK  12 active torsions:
REMARK  status: ('A' for Active; 'I' for Inactive)
REMARK    1  A    between atoms: C3_3  and  O1_4 
REMARK    2  A    between atoms: N1_14  and  O2_16 
REMARK    3  A    between atoms: O2_16  and  C13_17 
REMARK    4  A    between atoms: C13_17  and  C14_18 
REMARK       I    between atoms: C14_18  and  N2_20 
REMARK    5  A    between atoms: N2_20  and  C15_21 
REMARK    6  A    between atoms: C15_21  and  C16_22 
REMARK    7  A    between atoms: C15_21  and  C23_33 
REMARK       I    between atoms: C16_22  and  N3_24 
REMARK    8  A    between atoms: N3_24  and  C17_25 
REMARK    9  A    between atoms: C17_25  and  C18_26 
REMARK   10  A    between atoms: C17_25  and  C19_29 
REMARK   11  A    between atoms: C18_26  and  O6_28 
REMARK   12  A    between atoms: C19_29  and  C21_31 
ROOT
HETATM    1  C1  UNL     1      -7.838  49.304 -23.076  1.00  0.00     0.015 C 
HETATM    2  C2  UNL     1      -6.669  49.319 -22.817  1.00  0.00    -0.078 C 
HETATM    3  C3  UNL     1      -5.217  49.306 -22.536  1.00  0.00     0.128 C 
HETATM    4  C4  UNL     1      -4.507  48.233 -23.390  1.00  0.00     0.052 C 
HETATM    5  C5  UNL     1      -3.384  48.936 -24.158  1.00  0.00     0.010 C 
HETATM    6  C6  UNL     1      -3.077  50.212 -23.365  1.00  0.00     0.002 C 
HETATM    7  C7  UNL     1      -1.918  50.082 -22.329  1.00  0.00    -0.004 C 
HETATM    8  C8  UNL     1      -1.821  48.738 -21.582  1.00  0.00     0.010 C 
HETATM    9  C9  UNL     1      -0.594  48.668 -20.680  1.00  0.00     0.035 C 
HETATM   10  C10 UNL     1      -0.543  49.828 -19.720  1.00  0.00    -0.069 C 
HETATM   11  C11 UNL     1      -0.388  49.599 -18.403  1.00  0.00     0.030 C 
HETATM   12  C12 UNL     1      -0.192  50.717 -17.444  1.00  0.00     0.032 C 
HETATM   13  N1  UNL     1      -0.329  50.456 -16.177  1.00  0.00    -0.271 N 
ATOM     14  H1  UNL     1      -0.605  49.545 -15.814  1.00  0.00     0.194 HD
HETATM   15  C26 UNL     1       0.169  52.065 -18.032  1.00  0.00     0.060 C 
HETATM   16  C27 UNL     1      -0.766  52.312 -19.216  1.00  0.00     0.020 C 
HETATM   17  C28 UNL     1      -0.654  51.224 -20.336  1.00  0.00    -0.016 C 
HETATM   18  C29 UNL     1       0.653  51.525 -21.124  1.00  0.00     0.020 C 
HETATM   19  C30 UNL     1      -1.885  51.289 -21.342  1.00  0.00     0.002 C 
HETATM   20  C31 UNL     1      -3.270  51.401 -20.666  1.00  0.00     0.007 C 
HETATM   21  C32 UNL     1      -4.392  51.644 -21.678  1.00  0.00     0.014 C 
HETATM   22  C33 UNL     1      -4.480  50.657 -22.856  1.00  0.00     0.003 C 
HETATM   23  C34 UNL     1      -5.190  51.417 -24.022  1.00  0.00     0.020 C 
ENDROOT
BRANCH   3  24
HETATM   24  O1  UNL     1      -5.056  48.961 -21.165  1.00  0.00    -0.377 OA
HETATM   25  H2  UNL     1      -5.714  48.278 -20.956  1.00  0.00     0.211 HD
ENDBRANCH   3  24
BRANCH  13  26
HETATM   26  O2  UNL     1      -0.055  51.565 -15.365  1.00  0.00    -0.271 OA
BRANCH  26  27
HETATM   27  C13 UNL     1      -0.920  51.522 -14.236  1.00  0.00     0.303 C 
BRANCH  27  28
HETATM   28  C14 UNL     1      -0.137  51.670 -12.932  1.00  0.00     0.244 C 
HETATM   29  O3  UNL     1      -0.344  50.978 -11.938  1.00  0.00    -0.271 OA
HETATM   30  N2  UNL     1       0.801  52.689 -12.937  1.00  0.00    -0.346 N 
HETATM   31  H16 UNL     1       1.246  52.872 -13.830  1.00  0.00     0.163 HD
BRANCH  30  32
HETATM   32  C15 UNL     1       1.645  52.910 -11.759  1.00  0.00     0.180 C 
BRANCH  32  33
HETATM   33  C16 UNL     1       0.740  53.457 -10.624  1.00  0.00     0.241 C 
HETATM   34  O4  UNL     1       0.994  53.253  -9.436  1.00  0.00    -0.271 OA
HETATM   35  N3  UNL     1      -0.331  54.208 -11.046  1.00  0.00    -0.344 N 
HETATM   36  H18 UNL     1      -0.608  54.136 -12.024  1.00  0.00     0.163 HD
BRANCH  35  37
HETATM   37  C17 UNL     1      -1.399  54.603 -10.116  1.00  0.00     0.186 C 
BRANCH  37  38
HETATM   38  C18 UNL     1      -0.728  55.003  -8.798  1.00  0.00     0.163 C 
HETATM   39  O5  UNL     1      -0.049  56.007  -8.620  1.00  0.00    -0.648 OA
BRANCH  38  40
HETATM   40  O6  UNL     1      -0.951  54.147  -7.785  1.00  0.00    -0.775 OA
HETATM   41  H20 UNL     1      -0.482  54.551  -7.023  1.00  0.00     0.167 HD
ENDBRANCH  38  40
ENDBRANCH  37  38
BRANCH  37  42
HETATM   42  C19 UNL     1      -2.479  53.504  -9.972  1.00  0.00     0.014 C 
HETATM   43  C20 UNL     1      -1.876  52.119 -10.263  1.00  0.00     0.012 C 
BRANCH  42  44
HETATM   44  C21 UNL     1      -3.743  53.693 -10.843  1.00  0.00     0.002 C 
HETATM   45  C22 UNL     1      -3.751  52.891 -12.133  1.00  0.00     0.005 C 
ENDBRANCH  42  44
ENDBRANCH  37  42
ENDBRANCH  35  37
ENDBRANCH  32  33
BRANCH  32  46
HETATM   46  C23 UNL     1       2.403  51.613 -11.384  1.00  0.00     0.009 C 
HETATM   47  C24 UNL     1       1.576  50.720 -10.456  1.00  0.00     0.012 C 
HETATM   48  C25 UNL     1       2.890  50.807 -12.591  1.00  0.00     0.012 C 
ENDBRANCH  32  46
ENDBRANCH  30  32
ENDBRANCH  27  28
ENDBRANCH  26  27
ENDBRANCH  13  26
TORSDOF 12
ENDMDL
MODEL 4
REMARK minimizedAffinity -8.79678631
REMARK CNNscore 0.200534388
REMARK CNNaffinity 6.24962378
REMARK  12 active torsions:
REMARK  status: ('A' for Active; 'I' for Inactive)
REMARK    1  A    between atoms: C3_3  and  O1_4 
REMARK    2  A    between atoms: N1_14  and  O2_16 
REMARK    3  A    between atoms: O2_16  and  C13_17 
REMARK    4  A    between atoms: C13_17  and  C14_18 
REMARK       I    between atoms: C14_18  and  N2_20 
REMARK    5  A    between atoms: N2_20  and  C15_21 
REMARK    6  A    between atoms: C15_21  and  C16_22 
REMARK    7  A    between atoms: C15_21  and  C23_33 
REMARK       I    between atoms: C16_22  and  N3_24 
REMARK    8  A    between atoms: N3_24  and  C17_25 
REMARK    9  A    between atoms: C17_25  and  C18_26 
REMARK   10  A    between atoms: C17_25  and  C19_29 
REMARK   11  A    between atoms: C18_26  and  O6_28 
REMARK   12  A    between atoms: C19_29  and  C21_31 
ROOT
HETATM    1  C1  UNL     1      -8.848  41.619 -35.875  1.00  0.00     0.015 C 
HETATM    2  C2  UNL     1      -9.034  42.519 -35.107  1.00  0.00    -0.078 C 
HETATM    3  C3  UNL     1      -9.304  43.644 -34.185  1.00  0.00     0.128 C 
HETATM    4  C4  UNL     1     -10.417  44.554 -34.750  1.00  0.00     0.052 C 
HETATM    5  C5  UNL     1     -11.501  44.662 -33.674  1.00  0.00     0.010 C 
HETATM    6  C6  UNL     1     -10.806  44.325 -32.350  1.00  0.00     0.002 C 
HETATM    7  C7  UNL     1     -10.274  45.554 -31.551  1.00  0.00    -0.004 C 
HETATM    8  C8  UNL     1      -9.690  46.708 -32.390  1.00  0.00     0.010 C 
HETATM    9  C9  UNL     1      -9.304  47.906 -31.529  1.00  0.00     0.035 C 
HETATM   10  C10 UNL     1      -8.367  47.513 -30.417  1.00  0.00    -0.069 C 
HETATM   11  C11 UNL     1      -7.212  48.183 -30.248  1.00  0.00     0.030 C 
HETATM   12  C12 UNL     1      -6.331  47.919 -29.081  1.00  0.00     0.032 C 
HETATM   13  N1  UNL     1      -5.118  48.387 -29.123  1.00  0.00    -0.271 N 
ATOM     14  H1  UNL     1      -4.730  48.882 -29.926  1.00  0.00     0.194 HD
HETATM   15  C26 UNL     1      -6.933  47.137 -27.934  1.00  0.00     0.060 C 
HETATM   16  C27 UNL     1      -7.679  45.945 -28.535  1.00  0.00     0.020 C 
HETATM   17  C28 UNL     1      -8.821  46.357 -29.522  1.00  0.00    -0.016 C 
HETATM   18  C29 UNL     1     -10.014  46.844 -28.651  1.00  0.00     0.020 C 
HETATM   19  C30 UNL     1      -9.302  45.127 -30.409  1.00  0.00     0.002 C 
HETATM   20  C31 UNL     1      -8.162  44.290 -31.030  1.00  0.00     0.007 C 
HETATM   21  C32 UNL     1      -8.678  43.022 -31.715  1.00  0.00     0.014 C 
HETATM   22  C33 UNL     1      -9.796  43.211 -32.757  1.00  0.00     0.003 C 
HETATM   23  C34 UNL     1     -10.577  41.860 -32.822  1.00  0.00     0.020 C 
ENDROOT
BRANCH   3  24
HETATM   24  O1  UNL     1      -8.108  44.409 -34.093  1.00  0.00    -0.377 OA
HETATM   25  H2  UNL     1      -7.712  44.440 -34.978  1.00  0.00     0.211 HD
ENDBRANCH   3  24
BRANCH  13  26
HETATM   26  O2  UNL     1      -4.402  48.137 -27.945  1.00  0.00    -0.271 OA
BRANCH  26  27
HETATM   27  C13 UNL     1      -4.010  49.384 -27.382  1.00  0.00     0.303 C 
BRANCH  27  28
HETATM   28  C14 UNL     1      -3.533  49.215 -25.940  1.00  0.00     0.244 C 
HETATM   29  O3  UNL     1      -3.166  48.140 -25.471  1.00  0.00    -0.271 OA
HETATM   30  N2  UNL     1      -3.595  50.368 -25.174  1.00  0.00    -0.346 N 
HETATM   31  H16 UNL     1      -3.432  51.236 -25.674  1.00  0.00     0.163 HD
BRANCH  30  32
HETATM   32  C15 UNL     1      -3.130  50.347 -23.784  1.00  0.00     0.180 C 
BRANCH  32  33
HETATM   33  C16 UNL     1      -1.633  50.749 -23.779  1.00  0.00     0.241 C 
HETATM   34  O4  UNL     1      -0.980  50.812 -22.737  1.00  0.00    -0.271 OA
HETATM   35  N3  UNL     1      -1.091  50.989 -25.021  1.00  0.00    -0.344 N 
HETATM   36  H18 UNL     1      -1.732  51.148 -25.797  1.00  0.00     0.163 HD
BRANCH  35  37
HETATM   37  C17 UNL     1       0.240  51.594 -25.168  1.00  0.00     0.186 C 
BRANCH  37  38
HETATM   38  C18 UNL     1       0.057  53.114 -25.106  1.00  0.00     0.163 C 
HETATM   39  O5  UNL     1      -0.960  53.723 -25.415  1.00  0.00    -0.648 OA
BRANCH  38  40
HETATM   40  O6  UNL     1       1.135  53.779 -24.653  1.00  0.00    -0.775 OA
HETATM   41  H20 UNL     1       0.852  54.719 -24.652  1.00  0.00     0.167 HD
ENDBRANCH  38  40
ENDBRANCH  37  38
BRANCH  37  42
HETATM   42  C19 UNL     1       0.969  51.092 -26.437  1.00  0.00     0.014 C 
HETATM   43  C20 UNL     1       2.403  51.651 -26.487  1.00  0.00     0.012 C 
BRANCH  42  44
HETATM   44  C21 UNL     1       0.264  51.401 -27.778  1.00  0.00     0.002 C 
HETATM   45  C22 UNL     1       0.621  52.746 -28.388  1.00  0.00     0.005 C 
ENDBRANCH  42  44
ENDBRANCH  37  42
ENDBRANCH  35  37
ENDBRANCH  32  33
BRANCH  32  46
HETATM   46  C23 UNL     1      -4.023  51.252 -22.900  1.00  0.00     0.009 C 
HETATM   47  C24 UNL     1      -4.865  52.215 -23.742  1.00  0.00     0.012 C 
HETATM   48  C25 UNL     1      -4.921  50.482 -21.929  1.00  0.00     0.012 C 
ENDBRANCH  32  46
ENDBRANCH  30  32
ENDBRANCH  27  28
ENDBRANCH  26  27
ENDBRANCH  13  26
TORSDOF 12
ENDMDL
MODEL 5
REMARK minimizedAffinity -8.42285728
REMARK CNNscore 0.198562622
REMARK CNNaffinity 7.00163031
REMARK  12 active torsions:
REMARK  status: ('A' for Active; 'I' for Inactive)
REMARK    1  A    between atoms: C3_3  and  O1_4 
REMARK    2  A    between atoms: N1_14  and  O2_16 
REMARK    3  A    between atoms: O2_16  and  C13_17 
REMARK    4  A    between atoms: C13_17  and  C14_18 
REMARK       I    between atoms: C14_18  and  N2_20 
REMARK    5  A    between atoms: N2_20  and  C15_21 
REMARK    6  A    between atoms: C15_21  and  C16_22 
REMARK    7  A    between atoms: C15_21  and  C23_33 
REMARK       I    between atoms: C16_22  and  N3_24 
REMARK    8  A    between atoms: N3_24  and  C17_25 
REMARK    9  A    between atoms: C17_25  and  C18_26 
REMARK   10  A    between atoms: C17_25  and  C19_29 
REMARK   11  A    between atoms: C18_26  and  O6_28 
REMARK   12  A    between atoms: C19_29  and  C21_31 
ROOT
HETATM    1  C1  UNL     1       3.312  56.996  -8.274  1.00  0.00     0.015 C 
HETATM    2  C2  UNL     1       2.587  56.060  -8.458  1.00  0.00    -0.078 C 
HETATM    3  C3  UNL     1       1.709  54.884  -8.641  1.00  0.00     0.128 C 
HETATM    4  C4  UNL     1       2.048  53.786  -7.609  1.00  0.00     0.052 C 
HETATM    5  C5  UNL     1       0.750  53.445  -6.871  1.00  0.00     0.010 C 
HETATM    6  C6  UNL     1      -0.385  53.883  -7.805  1.00  0.00     0.002 C 
HETATM    7  C7  UNL     1      -0.941  52.764  -8.738  1.00  0.00    -0.004 C 
HETATM    8  C8  UNL     1       0.094  51.765  -9.293  1.00  0.00     0.010 C 
HETATM    9  C9  UNL     1      -0.561  50.648 -10.098  1.00  0.00     0.035 C 
HETATM   10  C10 UNL     1      -1.434  51.192 -11.197  1.00  0.00    -0.069 C 
HETATM   11  C11 UNL     1      -1.268  50.758 -12.460  1.00  0.00     0.030 C 
HETATM   12  C12 UNL     1      -2.200  51.163 -13.544  1.00  0.00     0.032 C 
HETATM   13  N1  UNL     1      -1.831  50.943 -14.771  1.00  0.00    -0.271 N 
ATOM     14  H1  UNL     1      -0.925  50.551 -15.028  1.00  0.00     0.194 HD
HETATM   15  C26 UNL     1      -3.512  51.787 -13.118  1.00  0.00     0.060 C 
HETATM   16  C27 UNL     1      -3.197  52.823 -12.039  1.00  0.00     0.020 C 
HETATM   17  C28 UNL     1      -2.492  52.217 -10.780  1.00  0.00    -0.016 C 
HETATM   18  C29 UNL     1      -3.591  51.487  -9.957  1.00  0.00     0.020 C 
HETATM   19  C30 UNL     1      -1.838  53.348  -9.872  1.00  0.00     0.002 C 
HETATM   20  C31 UNL     1      -1.018  54.406 -10.644  1.00  0.00     0.007 C 
HETATM   21  C32 UNL     1      -0.571  55.562  -9.747  1.00  0.00     0.014 C 
HETATM   22  C33 UNL     1       0.177  55.181  -8.456  1.00  0.00     0.003 C 
HETATM   23  C34 UNL     1      -0.046  56.355  -7.449  1.00  0.00     0.020 C 
ENDROOT
BRANCH   3  24
HETATM   24  O1  UNL     1       1.965  54.366  -9.941  1.00  0.00    -0.377 OA
HETATM   25  H2  UNL     1       2.921  54.432 -10.099  1.00  0.00     0.211 HD
ENDBRANCH   3  24
BRANCH  13  26
HETATM   26  O2  UNL     1      -2.813  51.302 -15.704  1.00  0.00    -0.271 OA
BRANCH  26  27
HETATM   27  C13 UNL     1      -2.746  50.397 -16.801  1.00  0.00     0.303 C 
BRANCH  27  28
HETATM   28  C14 UNL     1      -2.220  51.089 -18.058  1.00  0.00     0.244 C 
HETATM   29  O3  UNL     1      -2.773  52.055 -18.579  1.00  0.00    -0.271 OA
HETATM   30  N2  UNL     1      -1.087  50.507 -18.603  1.00  0.00    -0.346 N 
HETATM   31  H16 UNL     1      -0.446  50.087 -17.938  1.00  0.00     0.163 HD
BRANCH  30  32
HETATM   32  C15 UNL     1      -0.461  51.099 -19.789  1.00  0.00     0.180 C 
BRANCH  32  33
HETATM   33  C16 UNL     1      -1.523  51.133 -20.918  1.00  0.00     0.241 C 
HETATM   34  O4  UNL     1      -1.618  52.086 -21.692  1.00  0.00    -0.271 OA
HETATM   35  N3  UNL     1      -2.315  50.012 -21.005  1.00  0.00    -0.344 N 
HETATM   36  H18 UNL     1      -2.340  49.383 -20.204  1.00  0.00     0.163 HD
BRANCH  35  37
HETATM   37  C17 UNL     1      -3.505  49.984 -21.867  1.00  0.00     0.186 C 
BRANCH  37  38
HETATM   38  C18 UNL     1      -4.633  50.689 -21.104  1.00  0.00     0.163 C 
HETATM   39  O5  UNL     1      -5.265  50.215 -20.168  1.00  0.00    -0.648 OA
BRANCH  38  40
HETATM   40  O6  UNL     1      -4.895  51.935 -21.538  1.00  0.00    -0.775 OA
HETATM   41  H20 UNL     1      -5.610  52.249 -20.944  1.00  0.00     0.167 HD
ENDBRANCH  38  40
ENDBRANCH  37  38
BRANCH  37  42
HETATM   42  C19 UNL     1      -3.852  48.550 -22.334  1.00  0.00     0.014 C 
HETATM   43  C20 UNL     1      -2.702  47.585 -21.997  1.00  0.00     0.012 C 
BRANCH  42  44
HETATM   44  C21 UNL     1      -4.206  48.404 -23.832  1.00  0.00     0.002 C 
HETATM   45  C22 UNL     1      -3.087  48.779 -24.789  1.00  0.00     0.005 C 
ENDBRANCH  42  44
ENDBRANCH  37  42
ENDBRANCH  35  37
ENDBRANCH  32  33
BRANCH  32  46
HETATM   46  C23 UNL     1       0.137  52.487 -19.451  1.00  0.00     0.009 C 
HETATM   47  C24 UNL     1       0.759  52.511 -18.053  1.00  0.00     0.012 C 
HETATM   48  C25 UNL     1       1.145  52.999 -20.483  1.00  0.00     0.012 C 
ENDBRANCH  32  46
ENDBRANCH  30  32
ENDBRANCH  27  28
ENDBRANCH  26  27
ENDBRANCH  13  26
TORSDOF 12
ENDMDL
MODEL 6
REMARK minimizedAffinity -7.70806646
REMARK CNNscore 0.194026858
REMARK CNNaffinity 5.81746674
REMARK  12 active torsions:
REMARK  status: ('A' for Active; 'I' for Inactive)
REMARK    1  A    between atoms: C3_3  and  O1_4 
REMARK    2  A    between atoms: N1_14  and  O2_16 
REMARK    3  A    between atoms: O2_16  and  C13_17 
REMARK    4  A    between atoms: C13_17  and  C14_18 
REMARK       I    between atoms: C14_18  and  N2_20 
REMARK    5  A    between atoms: N2_20  and  C15_21 
REMARK    6  A    between atoms: C15_21  and  C16_22 
REMARK    7  A    between atoms: C15_21  and  C23_33 
REMARK       I    between atoms: C16_22  and  N3_24 
REMARK    8  A    between atoms: N3_24  and  C17_25 
REMARK    9  A    between atoms: C17_25  and  C18_26 
REMARK   10  A    between atoms: C17_25  and  C19_29 
REMARK   11  A    between atoms: C18_26  and  O6_28 
REMARK   12  A    between atoms: C19_29  and  C21_31 
ROOT
HETATM    1  C1  UNL     1      -3.434  52.191 -25.749  1.00  0.00     0.015 C 
HETATM    2  C2  UNL     1      -3.805  51.315 -25.020  1.00  0.00    -0.078 C 
HETATM    3  C3  UNL     1      -4.225  50.204 -24.140  1.00  0.00     0.128 C 
HETATM    4  C4  UNL     1      -3.496  48.898 -24.526  1.00  0.00     0.052 C 
HETATM    5  C5  UNL     1      -2.809  48.375 -23.261  1.00  0.00     0.010 C 
HETATM    6  C6  UNL     1      -3.567  49.005 -22.087  1.00  0.00     0.002 C 
HETATM    7  C7  UNL     1      -4.715  48.130 -21.496  1.00  0.00    -0.004 C 
HETATM    8  C8  UNL     1      -5.531  47.305 -22.511  1.00  0.00     0.010 C 
HETATM    9  C9  UNL     1      -6.550  46.399 -21.828  1.00  0.00     0.035 C 
HETATM   10  C10 UNL     1      -7.455  47.176 -20.907  1.00  0.00    -0.069 C 
HETATM   11  C11 UNL     1      -8.790  47.054 -21.022  1.00  0.00     0.030 C 
HETATM   12  C12 UNL     1      -9.710  47.691 -20.044  1.00  0.00     0.032 C 
HETATM   13  N1  UNL     1     -10.968  47.771 -20.363  1.00  0.00    -0.271 N 
ATOM     14  H1  UNL     1     -11.345  47.463 -21.259  1.00  0.00     0.194 HD
HETATM   15  C26 UNL     1      -9.097  48.179 -18.748  1.00  0.00     0.060 C 
HETATM   16  C27 UNL     1      -7.817  48.935 -19.104  1.00  0.00     0.020 C 
HETATM   17  C28 UNL     1      -6.766  48.058 -19.864  1.00  0.00    -0.016 C 
HETATM   18  C29 UNL     1      -6.096  47.141 -18.803  1.00  0.00     0.020 C 
HETATM   19  C30 UNL     1      -5.643  48.953 -20.551  1.00  0.00     0.002 C 
HETATM   20  C31 UNL     1      -6.175  50.174 -21.334  1.00  0.00     0.007 C 
HETATM   21  C32 UNL     1      -5.049  51.092 -21.813  1.00  0.00     0.014 C 
HETATM   22  C33 UNL     1      -3.915  50.428 -22.616  1.00  0.00     0.003 C 
HETATM   23  C34 UNL     1      -2.651  51.327 -22.430  1.00  0.00     0.020 C 
ENDROOT
BRANCH   3  24
HETATM   24  O1  UNL     1      -5.621  50.010 -24.344  1.00  0.00    -0.377 OA
HETATM   25  H2  UNL     1      -5.796  50.125 -25.292  1.00  0.00     0.211 HD
ENDBRANCH   3  24
BRANCH  13  26
HETATM   26  O2  UNL     1     -11.750  48.327 -19.341  1.00  0.00    -0.271 OA
BRANCH  26  27
HETATM   27  C13 UNL     1     -12.915  47.525 -19.177  1.00  0.00     0.303 C 
BRANCH  27  28
HETATM   28  C14 UNL     1     -13.753  47.500 -20.455  1.00  0.00     0.244 C 
HETATM   29  O3  UNL     1     -14.048  48.511 -21.089  1.00  0.00    -0.271 OA
HETATM   30  N2  UNL     1     -14.206  46.243 -20.821  1.00  0.00    -0.346 N 
HETATM   31  H16 UNL     1     -13.590  45.471 -20.593  1.00  0.00     0.163 HD
BRANCH  30  32
HETATM   32  C15 UNL     1     -14.990  46.079 -22.049  1.00  0.00     0.180 C 
BRANCH  32  33
HETATM   33  C16 UNL     1     -16.486  46.254 -21.683  1.00  0.00     0.241 C 
HETATM   34  O4  UNL     1     -16.844  46.940 -20.725  1.00  0.00    -0.271 OA
HETATM   35  N3  UNL     1     -17.370  45.621 -22.526  1.00  0.00    -0.344 N 
HETATM   36  H18 UNL     1     -17.005  44.893 -23.139  1.00  0.00     0.163 HD
BRANCH  35  37
HETATM   37  C17 UNL     1     -18.795  45.503 -22.187  1.00  0.00     0.186 C 
BRANCH  37  38
HETATM   38  C18 UNL     1     -18.949  44.268 -21.293  1.00  0.00     0.163 C 
HETATM   39  O5  UNL     1     -19.544  43.240 -21.593  1.00  0.00    -0.648 OA
BRANCH  38  40
HETATM   40  O6  UNL     1     -18.346  44.378 -20.095  1.00  0.00    -0.775 OA
HETATM   41  H20 UNL     1     -18.514  43.513 -19.663  1.00  0.00     0.167 HD
ENDBRANCH  38  40
ENDBRANCH  37  38
BRANCH  37  42
HETATM   42  C19 UNL     1     -19.693  45.491 -23.448  1.00  0.00     0.014 C 
HETATM   43  C20 UNL     1     -20.027  44.045 -23.853  1.00  0.00     0.012 C 
BRANCH  42  44
HETATM   44  C21 UNL     1     -19.125  46.238 -24.678  1.00  0.00     0.002 C 
HETATM   45  C22 UNL     1     -18.798  45.349 -25.865  1.00  0.00     0.005 C 
ENDBRANCH  42  44
ENDBRANCH  37  42
ENDBRANCH  35  37
ENDBRANCH  32  33
BRANCH  32  46
HETATM   46  C23 UNL     1     -14.495  47.057 -23.143  1.00  0.00     0.009 C 
HETATM   47  C24 UNL     1     -13.268  46.514 -23.878  1.00  0.00     0.012 C 
HETATM   48  C25 UNL     1     -15.574  47.462 -24.150  1.00  0.00     0.012 C 
ENDBRANCH  32  46
ENDBRANCH  30  32
ENDBRANCH  27  28
ENDBRANCH  26  27
ENDBRANCH  13  26
TORSDOF 12
ENDMDL
MODEL 7
REMARK minimizedAffinity -8.66882229
REMARK CNNscore 0.185950816
REMARK CNNaffinity 6.5904603
REMARK  12 active torsions:
REMARK  status: ('A' for Active; 'I' for Inactive)
REMARK    1  A    between atoms: C3_3  and  O1_4 
REMARK    2  A    between atoms: N1_14  and  O2_16 
REMARK    3  A    between atoms: O2_16  and  C13_17 
REMARK    4  A    between atoms: C13_17  and  C14_18 
REMARK       I    between atoms: C14_18  and  N2_20 
REMARK    5  A    between atoms: N2_20  and  C15_21 
REMARK    6  A    between atoms: C15_21  and  C16_22 
REMARK    7  A    between atoms: C15_21  and  C23_33 
REMARK       I    between atoms: C16_22  and  N3_24 
REMARK    8  A    between atoms: N3_24  and  C17_25 
REMARK    9  A    between atoms: C17_25  and  C18_26 
REMARK   10  A    between atoms: C17_25  and  C19_29 
REMARK   11  A    between atoms: C18_26  and  O6_28 
REMARK   12  A    between atoms: C19_29  and  C21_31 
ROOT
HETATM    1  C1  UNL     1      -7.652  49.579 -23.376  1.00  0.00     0.015 C 
HETATM    2  C2  UNL     1      -6.491  49.562 -23.079  1.00  0.00    -0.078 C 
HETATM    3  C3  UNL     1      -5.050  49.509 -22.752  1.00  0.00     0.128 C 
HETATM    4  C4  UNL     1      -4.345  48.408 -23.575  1.00  0.00     0.052 C 
HETATM    5  C5  UNL     1      -3.178  49.073 -24.311  1.00  0.00     0.010 C 
HETATM    6  C6  UNL     1      -2.859  50.345 -23.517  1.00  0.00     0.002 C 
HETATM    7  C7  UNL     1      -1.738  50.190 -22.445  1.00  0.00    -0.004 C 
HETATM    8  C8  UNL     1      -1.705  48.849 -21.686  1.00  0.00     0.010 C 
HETATM    9  C9  UNL     1      -0.509  48.751 -20.744  1.00  0.00     0.035 C 
HETATM   10  C10 UNL     1      -0.455  49.916 -19.791  1.00  0.00    -0.069 C 
HETATM   11  C11 UNL     1      -0.350  49.694 -18.468  1.00  0.00     0.030 C 
HETATM   12  C12 UNL     1      -0.151  50.814 -17.511  1.00  0.00     0.032 C 
HETATM   13  N1  UNL     1      -0.336  50.567 -16.248  1.00  0.00    -0.271 N 
ATOM     14  H1  UNL     1      -0.651  49.667 -15.887  1.00  0.00     0.194 HD
HETATM   15  C26 UNL     1       0.267  52.146 -18.096  1.00  0.00     0.060 C 
HETATM   16  C27 UNL     1      -0.621  52.410 -19.312  1.00  0.00     0.020 C 
HETATM   17  C28 UNL     1      -0.505  51.311 -20.420  1.00  0.00    -0.016 C 
HETATM   18  C29 UNL     1       0.834  51.567 -21.167  1.00  0.00     0.020 C 
HETATM   19  C30 UNL     1      -1.701  51.403 -21.465  1.00  0.00     0.002 C 
HETATM   20  C31 UNL     1      -3.103  51.561 -20.835  1.00  0.00     0.007 C 
HETATM   21  C32 UNL     1      -4.185  51.828 -21.884  1.00  0.00     0.014 C 
HETATM   22  C33 UNL     1      -4.264  50.835 -23.058  1.00  0.00     0.003 C 
HETATM   23  C34 UNL     1      -4.914  51.606 -24.251  1.00  0.00     0.020 C 
ENDROOT
BRANCH   3  24
HETATM   24  O1  UNL     1      -4.943  49.170 -21.374  1.00  0.00    -0.377 OA
HETATM   25  H2  UNL     1      -5.628  48.508 -21.182  1.00  0.00     0.211 HD
ENDBRANCH   3  24
BRANCH  13  26
HETATM   26  O2  UNL     1      -0.056  51.674 -15.435  1.00  0.00    -0.271 OA
BRANCH  26  27
HETATM   27  C13 UNL     1      -0.459  51.370 -14.104  1.00  0.00     0.303 C 
BRANCH  27  28
HETATM   28  C14 UNL     1       0.743  51.307 -13.162  1.00  0.00     0.244 C 
HETATM   29  O3  UNL     1       0.680  50.873 -12.014  1.00  0.00    -0.271 OA
HETATM   30  N2  UNL     1       1.914  51.831 -13.688  1.00  0.00    -0.346 N 
HETATM   31  H16 UNL     1       2.035  51.717 -14.688  1.00  0.00     0.163 HD
BRANCH  30  32
HETATM   32  C15 UNL     1       3.148  51.795 -12.897  1.00  0.00     0.180 C 
BRANCH  32  33
HETATM   33  C16 UNL     1       2.856  52.469 -11.532  1.00  0.00     0.241 C 
HETATM   34  O4  UNL     1       3.125  51.918 -10.465  1.00  0.00    -0.271 OA
HETATM   35  N3  UNL     1       2.314  53.731 -11.611  1.00  0.00    -0.344 N 
HETATM   36  H18 UNL     1       1.906  54.020 -12.499  1.00  0.00     0.163 HD
BRANCH  35  37
HETATM   37  C17 UNL     1       1.775  54.405 -10.421  1.00  0.00     0.186 C 
BRANCH  37  38
HETATM   38  C18 UNL     1       0.256  54.503 -10.604  1.00  0.00     0.163 C 
HETATM   39  O5  UNL     1      -0.403  53.891 -11.436  1.00  0.00    -0.648 OA
BRANCH  38  40
HETATM   40  O6  UNL     1      -0.349  55.339  -9.741  1.00  0.00    -0.775 OA
HETATM   41  H20 UNL     1      -1.301  55.271  -9.971  1.00  0.00     0.167 HD
ENDBRANCH  38  40
ENDBRANCH  37  38
BRANCH  37  42
HETATM   42  C19 UNL     1       2.473  55.760 -10.154  1.00  0.00     0.014 C 
HETATM   43  C20 UNL     1       3.698  55.920 -11.070  1.00  0.00     0.012 C 
BRANCH  42  44
HETATM   44  C21 UNL     1       2.905  56.010  -8.690  1.00  0.00     0.002 C 
HETATM   45  C22 UNL     1       4.403  55.945  -8.451  1.00  0.00     0.005 C 
ENDBRANCH  42  44
ENDBRANCH  37  42
ENDBRANCH  35  37
ENDBRANCH  32  33
BRANCH  32  46
HETATM   46  C23 UNL     1       3.674  50.344 -12.778  1.00  0.00     0.009 C 
HETATM   47  C24 UNL     1       3.535  49.805 -11.353  1.00  0.00     0.012 C 
HETATM   48  C25 UNL     1       3.039  49.368 -13.773  1.00  0.00     0.012 C 
ENDBRANCH  32  46
ENDBRANCH  30  32
ENDBRANCH  27  28
ENDBRANCH  26  27
ENDBRANCH  13  26
TORSDOF 12
ENDMDL
MODEL 8
REMARK minimizedAffinity -8.6395731
REMARK CNNscore 0.182482228
REMARK CNNaffinity 6.43704033
REMARK  12 active torsions:
REMARK  status: ('A' for Active; 'I' for Inactive)
REMARK    1  A    between atoms: C3_3  and  O1_4 
REMARK    2  A    between atoms: N1_14  and  O2_16 
REMARK    3  A    between atoms: O2_16  and  C13_17 
REMARK    4  A    between atoms: C13_17  and  C14_18 
REMARK       I    between atoms: C14_18  and  N2_20 
REMARK    5  A    between atoms: N2_20  and  C15_21 
REMARK    6  A    between atoms: C15_21  and  C16_22 
REMARK    7  A    between atoms: C15_21  and  C23_33 
REMARK       I    between atoms: C16_22  and  N3_24 
REMARK    8  A    between atoms: N3_24  and  C17_25 
REMARK    9  A    between atoms: C17_25  and  C18_26 
REMARK   10  A    between atoms: C17_25  and  C19_29 
REMARK   11  A    between atoms: C18_26  and  O6_28 
REMARK   12  A    between atoms: C19_29  and  C21_31 
ROOT
HETATM    1  C1  UNL     1      -7.670  49.571 -23.600  1.00  0.00     0.015 C 
HETATM    2  C2  UNL     1      -6.519  49.535 -23.273  1.00  0.00    -0.078 C 
HETATM    3  C3  UNL     1      -5.087  49.462 -22.910  1.00  0.00     0.128 C 
HETATM    4  C4  UNL     1      -4.349  48.443 -23.805  1.00  0.00     0.052 C 
HETATM    5  C5  UNL     1      -3.168  49.177 -24.446  1.00  0.00     0.010 C 
HETATM    6  C6  UNL     1      -2.882  50.377 -23.534  1.00  0.00     0.002 C 
HETATM    7  C7  UNL     1      -1.791  50.135 -22.447  1.00  0.00    -0.004 C 
HETATM    8  C8  UNL     1      -1.768  48.732 -21.808  1.00  0.00     0.010 C 
HETATM    9  C9  UNL     1      -0.599  48.559 -20.844  1.00  0.00     0.035 C 
HETATM   10  C10 UNL     1      -0.582  49.636 -19.791  1.00  0.00    -0.069 C 
HETATM   11  C11 UNL     1      -0.513  49.299 -18.490  1.00  0.00     0.030 C 
HETATM   12  C12 UNL     1      -0.351  50.331 -17.433  1.00  0.00     0.032 C 
HETATM   13  N1  UNL     1      -0.570  49.973 -16.202  1.00  0.00    -0.271 N 
ATOM     14  H1  UNL     1      -0.887  49.042 -15.932  1.00  0.00     0.194 HD
HETATM   15  C26 UNL     1       0.072  51.712 -17.887  1.00  0.00     0.060 C 
HETATM   16  C27 UNL     1      -0.784  52.077 -19.100  1.00  0.00     0.020 C 
HETATM   17  C28 UNL     1      -0.627  51.080 -20.296  1.00  0.00    -0.016 C 
HETATM   18  C29 UNL     1       0.731  51.409 -20.979  1.00  0.00     0.020 C 
HETATM   19  C30 UNL     1      -1.793  51.257 -21.364  1.00  0.00     0.002 C 
HETATM   20  C31 UNL     1      -3.214  51.350 -20.763  1.00  0.00     0.007 C 
HETATM   21  C32 UNL     1      -4.268  51.701 -21.816  1.00  0.00     0.014 C 
HETATM   22  C33 UNL     1      -4.305  50.815 -23.074  1.00  0.00     0.003 C 
HETATM   23  C34 UNL     1      -4.927  51.684 -24.213  1.00  0.00     0.020 C 
ENDROOT
BRANCH   3  24
HETATM   24  O1  UNL     1      -5.017  49.004 -21.564  1.00  0.00    -0.377 OA
HETATM   25  H2  UNL     1      -5.700  48.324 -21.451  1.00  0.00     0.211 HD
ENDBRANCH   3  24
BRANCH  13  26
HETATM   26  O2  UNL     1      -0.323  51.005 -15.287  1.00  0.00    -0.271 OA
BRANCH  26  27
HETATM   27  C13 UNL     1      -1.553  51.363 -14.668  1.00  0.00     0.303 C 
BRANCH  27  28
HETATM   28  C14 UNL     1      -1.634  50.818 -13.242  1.00  0.00     0.244 C 
HETATM   29  O3  UNL     1      -1.261  49.690 -12.928  1.00  0.00    -0.271 OA
HETATM   30  N2  UNL     1      -2.213  51.683 -12.328  1.00  0.00    -0.346 N 
HETATM   31  H16 UNL     1      -2.052  52.671 -12.495  1.00  0.00     0.163 HD
BRANCH  30  32
HETATM   32  C15 UNL     1      -2.315  51.294 -10.918  1.00  0.00     0.180 C 
BRANCH  32  33
HETATM   33  C16 UNL     1      -1.122  51.934 -10.163  1.00  0.00     0.241 C 
HETATM   34  O4  UNL     1      -0.637  51.416  -9.156  1.00  0.00    -0.271 OA
HETATM   35  N3  UNL     1      -0.632  53.091 -10.723  1.00  0.00    -0.344 N 
HETATM   36  H18 UNL     1      -1.219  53.579 -11.399  1.00  0.00     0.163 HD
BRANCH  35  37
HETATM   37  C17 UNL     1       0.339  53.932 -10.008  1.00  0.00     0.186 C 
BRANCH  37  38
HETATM   38  C18 UNL     1      -0.380  55.232  -9.629  1.00  0.00     0.163 C 
HETATM   39  O5  UNL     1      -0.060  55.983  -8.715  1.00  0.00    -0.648 OA
BRANCH  38  40
HETATM   40  O6  UNL     1      -1.434  55.526 -10.411  1.00  0.00    -0.775 OA
HETATM   41  H20 UNL     1      -1.762  56.381 -10.058  1.00  0.00     0.167 HD
ENDBRANCH  38  40
ENDBRANCH  37  38
BRANCH  37  42
HETATM   42  C19 UNL     1       1.639  54.138 -10.822  1.00  0.00     0.014 C 
HETATM   43  C20 UNL     1       2.127  52.797 -11.398  1.00  0.00     0.012 C 
BRANCH  42  44
HETATM   44  C21 UNL     1       2.804  54.810 -10.059  1.00  0.00     0.002 C 
HETATM   45  C22 UNL     1       3.195  56.183 -10.576  1.00  0.00     0.005 C 
ENDBRANCH  42  44
ENDBRANCH  37  42
ENDBRANCH  35  37
ENDBRANCH  32  33
BRANCH  32  46
HETATM   46  C23 UNL     1      -3.699  51.686 -10.346  1.00  0.00     0.009 C 
HETATM   47  C24 UNL     1      -4.219  52.988 -10.960  1.00  0.00     0.012 C 
HETATM   48  C25 UNL     1      -4.758  50.588 -10.473  1.00  0.00     0.012 C 
ENDBRANCH  32  46
ENDBRANCH  30  32
ENDBRANCH  27  28
ENDBRANCH  26  27
ENDBRANCH  13  26
TORSDOF 12
ENDMDL
MODEL 9
REMARK minimizedAffinity -8.00587368
REMARK CNNscore 0.177961245
REMARK CNNaffinity 5.31654978
REMARK  12 active torsions:
REMARK  status: ('A' for Active; 'I' for Inactive)
REMARK    1  A    between atoms: C3_3  and  O1_4 
REMARK    2  A    between atoms: N1_14  and  O2_16 
REMARK    3  A    between atoms: O2_16  and  C13_17 
REMARK    4  A    between atoms: C13_17  and  C14_18 
REMARK       I    between atoms: C14_18  and  N2_20 
REMARK    5  A    between atoms: N2_20  and  C15_21 
REMARK    6  A    between atoms: C15_21  and  C16_22 
REMARK    7  A    between atoms: C15_21  and  C23_33 
REMARK       I    between atoms: C16_22  and  N3_24 
REMARK    8  A    between atoms: N3_24  and  C17_25 
REMARK    9  A    between atoms: C17_25  and  C18_26 
REMARK   10  A    between atoms: C17_25  and  C19_29 
REMARK   11  A    between atoms: C18_26  and  O6_28 
REMARK   12  A    between atoms: C19_29  and  C21_31 
ROOT
HETATM    1  C1  UNL     1     -18.923  45.824 -21.114  1.00  0.00     0.015 C 
HETATM    2  C2  UNL     1     -18.212  45.565 -22.044  1.00  0.00    -0.078 C 
HETATM    3  C3  UNL     1     -17.367  45.207 -23.203  1.00  0.00     0.128 C 
HETATM    4  C4  UNL     1     -17.822  43.864 -23.815  1.00  0.00     0.052 C 
HETATM    5  C5  UNL     1     -18.092  44.113 -25.301  1.00  0.00     0.010 C 
HETATM    6  C6  UNL     1     -17.287  45.367 -25.664  1.00  0.00     0.002 C 
HETATM    7  C7  UNL     1     -15.867  45.094 -26.247  1.00  0.00    -0.004 C 
HETATM    8  C8  UNL     1     -15.098  43.906 -25.637  1.00  0.00     0.010 C 
HETATM    9  C9  UNL     1     -13.774  43.651 -26.348  1.00  0.00     0.035 C 
HETATM   10  C10 UNL     1     -12.917  44.888 -26.388  1.00  0.00    -0.069 C 
HETATM   11  C11 UNL     1     -11.643  44.834 -25.957  1.00  0.00     0.030 C 
HETATM   12  C12 UNL     1     -10.727  45.994 -26.112  1.00  0.00     0.032 C 
HETATM   13  N1  UNL     1      -9.616  45.979 -25.435  1.00  0.00    -0.271 N 
ATOM     14  H1  UNL     1      -9.365  45.242 -24.777  1.00  0.00     0.194 HD
HETATM   15  C26 UNL     1     -11.164  47.088 -27.062  1.00  0.00     0.060 C 
HETATM   16  C27 UNL     1     -12.634  47.389 -26.768  1.00  0.00     0.020 C 
HETATM   17  C28 UNL     1     -13.573  46.151 -26.953  1.00  0.00    -0.016 C 
HETATM   18  C29 UNL     1     -13.773  45.964 -28.483  1.00  0.00     0.020 C 
HETATM   19  C30 UNL     1     -14.994  46.386 -26.275  1.00  0.00     0.002 C 
HETATM   20  C31 UNL     1     -14.942  46.968 -24.845  1.00  0.00     0.007 C 
HETATM   21  C32 UNL     1     -16.329  47.343 -24.319  1.00  0.00     0.014 C 
HETATM   22  C33 UNL     1     -17.407  46.245 -24.382  1.00  0.00     0.003 C 
HETATM   23  C34 UNL     1     -18.786  46.977 -24.434  1.00  0.00     0.020 C 
ENDROOT
BRANCH   3  24
HETATM   24  O1  UNL     1     -16.037  45.048 -22.721  1.00  0.00    -0.377 OA
HETATM   25  H2  UNL     1     -16.090  44.608 -21.857  1.00  0.00     0.211 HD
ENDBRANCH   3  24
BRANCH  13  26
HETATM   26  O2  UNL     1      -8.802  47.086 -25.710  1.00  0.00    -0.271 OA
BRANCH  26  27
HETATM   27  C13 UNL     1      -7.491  46.813 -25.226  1.00  0.00     0.303 C 
BRANCH  27  28
HETATM   28  C14 UNL     1      -6.728  48.105 -24.936  1.00  0.00     0.244 C 
HETATM   29  O3  UNL     1      -7.266  49.129 -24.522  1.00  0.00    -0.271 OA
HETATM   30  N2  UNL     1      -5.374  48.051 -25.228  1.00  0.00    -0.346 N 
HETATM   31  H16 UNL     1      -4.932  47.149 -25.092  1.00  0.00     0.163 HD
BRANCH  30  32
HETATM   32  C15 UNL     1      -4.523  49.214 -24.959  1.00  0.00     0.180 C 
BRANCH  32  33
HETATM   33  C16 UNL     1      -4.002  49.093 -23.504  1.00  0.00     0.241 C 
HETATM   34  O4  UNL     1      -4.024  48.023 -22.893  1.00  0.00    -0.271 OA
HETATM   35  N3  UNL     1      -3.485  50.251 -22.972  1.00  0.00    -0.344 N 
HETATM   36  H18 UNL     1      -3.712  51.130 -23.435  1.00  0.00     0.163 HD
BRANCH  35  37
HETATM   37  C17 UNL     1      -3.163  50.356 -21.542  1.00  0.00     0.186 C 
BRANCH  37  38
HETATM   38  C18 UNL     1      -4.436  50.816 -20.822  1.00  0.00     0.163 C 
HETATM   39  O5  UNL     1      -5.048  50.175 -19.977  1.00  0.00    -0.648 OA
BRANCH  38  40
HETATM   40  O6  UNL     1      -4.859  52.041 -21.183  1.00  0.00    -0.775 OA
HETATM   41  H20 UNL     1      -5.652  52.193 -20.626  1.00  0.00     0.167 HD
ENDBRANCH  38  40
ENDBRANCH  37  38
BRANCH  37  42
HETATM   42  C19 UNL     1      -1.929  51.255 -21.289  1.00  0.00     0.014 C 
HETATM   43  C20 UNL     1      -1.535  51.998 -22.578  1.00  0.00     0.012 C 
BRANCH  42  44
HETATM   44  C21 UNL     1      -0.682  50.533 -20.726  1.00  0.00     0.002 C 
HETATM   45  C22 UNL     1      -0.659  49.032 -20.957  1.00  0.00     0.005 C 
ENDBRANCH  42  44
ENDBRANCH  37  42
ENDBRANCH  35  37
ENDBRANCH  32  33
BRANCH  32  46
HETATM   46  C23 UNL     1      -3.400  49.320 -26.019  1.00  0.00     0.009 C 
HETATM   47  C24 UNL     1      -3.640  48.373 -27.197  1.00  0.00     0.012 C 
HETATM   48  C25 UNL     1      -3.158  50.742 -26.530  1.00  0.00     0.012 C 
ENDBRANCH  32  46
ENDBRANCH  30  32
ENDBRANCH  27  28
ENDBRANCH  26  27
ENDBRANCH  13  26
TORSDOF 12
ENDMDL
