MODEL 1
REMARK minimizedAffinity -9.97375298
REMARK  4 active torsions:
REMARK  status: ('A' for Active; 'I' for Inactive)
REMARK    1  A    between atoms: C4_4  and  C5_5 
REMARK    2  A    between atoms: C5_5  and  C6_6 
REMARK    3  A    between atoms: C6_6  and  C7_7 
REMARK    4  A    between atoms: C7_7  and  C9_9 
ROOT
HETATM    1  C9  UNL     1      -0.519  52.401 -21.624  1.00  0.00    -0.002 C 
HETATM    2  C10 UNL     1      -0.051  52.331 -23.109  1.00  0.00     0.006 C 
HETATM    3  C11 UNL     1      -0.765  51.141 -23.774  1.00  0.00     0.011 C 
HETATM    4  C12 UNL     1      -1.895  50.763 -22.801  1.00  0.00    -0.032 C 
HETATM    5  C13 UNL     1      -3.082  51.734 -23.092  1.00  0.00     0.016 C 
HETATM    6  C14 UNL     1      -2.385  49.288 -22.896  1.00  0.00     0.004 C 
HETATM    7  C15 UNL     1      -2.970  48.909 -24.274  1.00  0.00     0.007 C 
HETATM    8  C16 UNL     1      -4.486  49.021 -24.379  1.00  0.00     0.007 C 
HETATM    9  C17 UNL     1      -5.199  48.041 -23.430  1.00  0.00     0.010 C 
HETATM   10  C18 UNL     1      -6.758  48.061 -23.615  1.00  0.00     0.018 C 
HETATM   11  C19 UNL     1      -7.122  47.376 -24.955  1.00  0.00     0.023 C 
HETATM   12  C20 UNL     1      -7.367  49.477 -23.640  1.00  0.00     0.023 C 
HETATM   13  C21 UNL     1      -7.453  47.265 -22.501  1.00  0.00     0.135 C 
HETATM   14  O1  UNL     1      -8.523  46.676 -22.687  1.00  0.00    -0.297 OA
HETATM   15  C22 UNL     1      -6.812  47.211 -21.138  1.00  0.00     0.080 C 
HETATM   16  C23 UNL     1      -5.807  48.325 -20.939  1.00  0.00     0.018 C 
HETATM   17  C24 UNL     1      -4.707  48.250 -21.982  1.00  0.00    -0.026 A 
HETATM   18  C25 UNL     1      -3.522  47.403 -21.583  1.00  0.00     0.021 A 
HETATM   19  C26 UNL     1      -3.311  48.901 -21.712  1.00  0.00    -0.027 A 
HETATM   20  C27 UNL     1      -3.008  49.566 -20.351  1.00  0.00     0.011 C 
HETATM   21  C28 UNL     1      -2.292  50.926 -20.352  1.00  0.00     0.011 C 
HETATM   22  C29 UNL     1      -1.185  51.001 -21.411  1.00  0.00    -0.032 C 
HETATM   23  C30 UNL     1      -0.075  49.953 -21.079  1.00  0.00     0.016 C 
ENDROOT
BRANCH   1  24
HETATM   24  C7  UNL     1       0.625  52.888 -20.678  1.00  0.00    -0.014 C 
HETATM   25  C8  UNL     1       1.383  54.067 -21.321  1.00  0.00     0.010 C 
BRANCH  24  26
HETATM   26  C6  UNL     1       0.109  53.288 -19.277  1.00  0.00     0.008 C 
BRANCH  26  27
HETATM   27  C5  UNL     1       0.490  52.314 -18.151  1.00  0.00     0.028 C 
BRANCH  27  28
HETATM   28  C4  UNL     1       1.876  52.607 -17.642  1.00  0.00    -0.025 C 
HETATM   29  C2  UNL     1       2.409  52.286 -16.446  1.00  0.00    -0.091 C 
HETATM   30  C1  UNL     1       3.826  52.675 -16.115  1.00  0.00     0.042 C 
HETATM   31  C3  UNL     1       1.707  51.531 -15.352  1.00  0.00     0.042 C 
ENDBRANCH  27  28
ENDBRANCH  26  27
ENDBRANCH  24  26
ENDBRANCH   1  24
TORSDOF 4
ENDMDL
MODEL 2
REMARK minimizedAffinity -9.72613811
REMARK  4 active torsions:
REMARK  status: ('A' for Active; 'I' for Inactive)
REMARK    1  A    between atoms: C4_4  and  C5_5 
REMARK    2  A    between atoms: C5_5  and  C6_6 
REMARK    3  A    between atoms: C6_6  and  C7_7 
REMARK    4  A    between atoms: C7_7  and  C9_9 
ROOT
HETATM    1  C9  UNL     1      -1.246  49.491 -18.981  1.00  0.00    -0.002 C 
HETATM    2  C10 UNL     1      -2.254  48.340 -18.687  1.00  0.00     0.006 C 
HETATM    3  C11 UNL     1      -3.278  48.304 -19.836  1.00  0.00     0.011 C 
HETATM    4  C12 UNL     1      -2.658  49.167 -20.947  1.00  0.00    -0.032 C 
HETATM    5  C13 UNL     1      -1.651  48.255 -21.716  1.00  0.00     0.016 C 
HETATM    6  C14 UNL     1      -3.675  49.790 -21.948  1.00  0.00     0.004 C 
HETATM    7  C15 UNL     1      -4.498  48.748 -22.735  1.00  0.00     0.007 C 
HETATM    8  C16 UNL     1      -3.941  48.396 -24.109  1.00  0.00     0.007 C 
HETATM    9  C17 UNL     1      -3.942  49.609 -25.055  1.00  0.00     0.010 C 
HETATM   10  C18 UNL     1      -3.483  49.232 -26.508  1.00  0.00     0.018 C 
HETATM   11  C19 UNL     1      -4.600  48.412 -27.199  1.00  0.00     0.023 C 
HETATM   12  C20 UNL     1      -2.193  48.390 -26.557  1.00  0.00     0.023 C 
HETATM   13  C21 UNL     1      -3.260  50.491 -27.358  1.00  0.00     0.135 C 
HETATM   14  O1  UNL     1      -3.441  50.497 -28.580  1.00  0.00    -0.297 OA
HETATM   15  C22 UNL     1      -2.798  51.754 -26.678  1.00  0.00     0.080 C 
HETATM   16  C23 UNL     1      -2.182  51.477 -25.324  1.00  0.00     0.018 C 
HETATM   17  C24 UNL     1      -3.179  50.787 -24.411  1.00  0.00    -0.026 A 
HETATM   18  C25 UNL     1      -4.032  51.726 -23.590  1.00  0.00     0.021 A 
HETATM   19  C26 UNL     1      -3.020  50.864 -22.858  1.00  0.00    -0.027 A 
HETATM   20  C27 UNL     1      -1.886  51.705 -22.228  1.00  0.00     0.011 C 
HETATM   21  C28 UNL     1      -1.087  51.092 -21.068  1.00  0.00     0.011 C 
HETATM   22  C29 UNL     1      -1.980  50.311 -20.094  1.00  0.00    -0.032 C 
HETATM   23  C30 UNL     1      -2.997  51.286 -19.422  1.00  0.00     0.016 C 
ENDROOT
BRANCH   1  24
HETATM   24  C7  UNL     1      -0.764  50.188 -17.669  1.00  0.00    -0.014 C 
HETATM   25  C8  UNL     1      -0.142  49.152 -16.712  1.00  0.00     0.010 C 
BRANCH  24  26
HETATM   26  C6  UNL     1       0.239  51.334 -17.939  1.00  0.00     0.008 C 
BRANCH  26  27
HETATM   27  C5  UNL     1       0.711  52.082 -16.683  1.00  0.00     0.028 C 
BRANCH  27  28
HETATM   28  C4  UNL     1       2.180  52.401 -16.774  1.00  0.00    -0.025 C 
HETATM   29  C2  UNL     1       3.152  52.104 -15.889  1.00  0.00    -0.091 C 
HETATM   30  C1  UNL     1       4.576  52.517 -16.157  1.00  0.00     0.042 C 
HETATM   31  C3  UNL     1       2.961  51.356 -14.599  1.00  0.00     0.042 C 
ENDBRANCH  27  28
ENDBRANCH  26  27
ENDBRANCH  24  26
ENDBRANCH   1  24
TORSDOF 4
ENDMDL
MODEL 3
REMARK minimizedAffinity -9.67910767
REMARK  4 active torsions:
REMARK  status: ('A' for Active; 'I' for Inactive)
REMARK    1  A    between atoms: C4_4  and  C5_5 
REMARK    2  A    between atoms: C5_5  and  C6_6 
REMARK    3  A    between atoms: C6_6  and  C7_7 
REMARK    4  A    between atoms: C7_7  and  C9_9 
ROOT
HETATM    1  C9  UNL     1      -1.869  50.002 -18.872  1.00  0.00    -0.002 C 
HETATM    2  C10 UNL     1      -3.380  50.377 -18.927  1.00  0.00     0.006 C 
HETATM    3  C11 UNL     1      -3.614  51.207 -20.202  1.00  0.00     0.011 C 
HETATM    4  C12 UNL     1      -2.346  51.000 -21.048  1.00  0.00    -0.032 C 
HETATM    5  C13 UNL     1      -2.527  49.647 -21.806  1.00  0.00     0.016 C 
HETATM    6  C14 UNL     1      -2.036  52.137 -22.066  1.00  0.00     0.004 C 
HETATM    7  C15 UNL     1      -3.135  52.343 -23.130  1.00  0.00     0.007 C 
HETATM    8  C16 UNL     1      -2.896  51.615 -24.448  1.00  0.00     0.007 C 
HETATM    9  C17 UNL     1      -1.634  52.129 -25.163  1.00  0.00     0.010 C 
HETATM   10  C18 UNL     1      -1.443  51.473 -26.577  1.00  0.00     0.018 C 
HETATM   11  C19 UNL     1      -2.499  52.046 -27.553  1.00  0.00     0.023 C 
HETATM   12  C20 UNL     1      -1.594  49.939 -26.580  1.00  0.00     0.023 C 
HETATM   13  C21 UNL     1      -0.063  51.815 -27.159  1.00  0.00     0.135 C 
HETATM   14  O1  UNL     1       0.128  51.914 -28.375  1.00  0.00    -0.297 OA
HETATM   15  C22 UNL     1       1.092  52.025 -26.214  1.00  0.00     0.080 C 
HETATM   16  C23 UNL     1       0.828  51.422 -24.851  1.00  0.00     0.018 C 
HETATM   17  C24 UNL     1      -0.412  52.032 -24.224  1.00  0.00    -0.026 A 
HETATM   18  C25 UNL     1      -0.151  53.263 -23.389  1.00  0.00     0.021 A 
HETATM   19  C26 UNL     1      -0.613  52.007 -22.674  1.00  0.00    -0.027 A 
HETATM   20  C27 UNL     1       0.482  51.425 -21.752  1.00  0.00     0.011 C 
HETATM   21  C28 UNL     1       0.049  50.494 -20.610  1.00  0.00     0.011 C 
HETATM   22  C29 UNL     1      -1.237  50.973 -19.924  1.00  0.00    -0.032 C 
HETATM   23  C30 UNL     1      -0.984  52.359 -19.251  1.00  0.00     0.016 C 
ENDROOT
BRANCH   1  24
HETATM   24  C7  UNL     1      -1.334  49.965 -17.404  1.00  0.00    -0.014 C 
HETATM   25  C8  UNL     1      -1.683  48.617 -16.743  1.00  0.00     0.010 C 
BRANCH  24  26
HETATM   26  C6  UNL     1       0.187  50.224 -17.318  1.00  0.00     0.008 C 
BRANCH  26  27
HETATM   27  C5  UNL     1       0.632  51.035 -16.092  1.00  0.00     0.028 C 
BRANCH  27  28
HETATM   28  C4  UNL     1       1.844  51.867 -16.417  1.00  0.00    -0.025 C 
HETATM   29  C2  UNL     1       2.956  52.042 -15.676  1.00  0.00    -0.091 C 
HETATM   30  C1  UNL     1       4.070  52.928 -16.171  1.00  0.00     0.042 C 
HETATM   31  C3  UNL     1       3.225  51.407 -14.340  1.00  0.00     0.042 C 
ENDBRANCH  27  28
ENDBRANCH  26  27
ENDBRANCH  24  26
ENDBRANCH   1  24
TORSDOF 4
ENDMDL
MODEL 4
REMARK minimizedAffinity -9.29626751
REMARK  4 active torsions:
REMARK  status: ('A' for Active; 'I' for Inactive)
REMARK    1  A    between atoms: C4_4  and  C5_5 
REMARK    2  A    between atoms: C5_5  and  C6_6 
REMARK    3  A    between atoms: C6_6  and  C7_7 
REMARK    4  A    between atoms: C7_7  and  C9_9 
ROOT
HETATM    1  C9  UNL     1      -3.716  50.084 -24.331  1.00  0.00    -0.002 C 
HETATM    2  C10 UNL     1      -3.735  48.533 -24.177  1.00  0.00     0.006 C 
HETATM    3  C11 UNL     1      -2.710  48.154 -23.092  1.00  0.00     0.011 C 
HETATM    4  C12 UNL     1      -2.380  49.476 -22.380  1.00  0.00    -0.032 C 
HETATM    5  C13 UNL     1      -3.511  49.718 -21.332  1.00  0.00     0.016 C 
HETATM    6  C14 UNL     1      -0.991  49.520 -21.676  1.00  0.00     0.004 C 
HETATM    7  C15 UNL     1      -0.822  48.470 -20.557  1.00  0.00     0.007 C 
HETATM    8  C16 UNL     1      -1.127  48.975 -19.152  1.00  0.00     0.007 C 
HETATM    9  C17 UNL     1      -0.154  50.086 -18.720  1.00  0.00     0.010 C 
HETATM   10  C18 UNL     1      -0.381  50.531 -17.232  1.00  0.00     0.018 C 
HETATM   11  C19 UNL     1       0.122  49.415 -16.283  1.00  0.00     0.023 C 
HETATM   12  C20 UNL     1      -1.856  50.807 -16.879  1.00  0.00     0.023 C 
HETATM   13  C21 UNL     1       0.429  51.794 -16.906  1.00  0.00     0.135 C 
HETATM   14  O1  UNL     1       0.863  52.020 -15.773  1.00  0.00    -0.297 OA
HETATM   15  C22 UNL     1       0.693  52.791 -18.006  1.00  0.00     0.080 C 
HETATM   16  C23 UNL     1      -0.266  52.625 -19.165  1.00  0.00     0.018 C 
HETATM   17  C24 UNL     1      -0.159  51.231 -19.756  1.00  0.00    -0.026 A 
HETATM   18  C25 UNL     1       0.860  51.095 -20.862  1.00  0.00     0.021 A 
HETATM   19  C26 UNL     1      -0.606  50.956 -21.228  1.00  0.00    -0.027 A 
HETATM   20  C27 UNL     1      -1.094  52.114 -22.127  1.00  0.00     0.011 C 
HETATM   21  C28 UNL     1      -2.351  51.889 -22.982  1.00  0.00     0.011 C 
HETATM   22  C29 UNL     1      -2.393  50.483 -23.596  1.00  0.00    -0.032 C 
HETATM   23  C30 UNL     1      -1.192  50.307 -24.577  1.00  0.00     0.016 C 
ENDROOT
BRANCH   1  24
HETATM   24  C7  UNL     1      -3.966  50.522 -25.809  1.00  0.00    -0.014 C 
HETATM   25  C8  UNL     1      -3.439  51.952 -26.038  1.00  0.00     0.010 C 
BRANCH  24  26
HETATM   26  C6  UNL     1      -3.335  49.551 -26.833  1.00  0.00     0.008 C 
BRANCH  26  27
HETATM   27  C5  UNL     1      -4.211  48.343 -27.195  1.00  0.00     0.028 C 
BRANCH  27  28
HETATM   28  C4  UNL     1      -4.737  48.470 -28.601  1.00  0.00    -0.025 C 
HETATM   29  C2  UNL     1      -5.834  47.896 -29.134  1.00  0.00    -0.091 C 
HETATM   30  C1  UNL     1      -6.197  48.140 -30.575  1.00  0.00     0.042 C 
HETATM   31  C3  UNL     1      -6.793  46.997 -28.403  1.00  0.00     0.042 C 
ENDBRANCH  27  28
ENDBRANCH  26  27
ENDBRANCH  24  26
ENDBRANCH   1  24
TORSDOF 4
ENDMDL
MODEL 5
REMARK minimizedAffinity -9.14988804
REMARK  4 active torsions:
REMARK  status: ('A' for Active; 'I' for Inactive)
REMARK    1  A    between atoms: C4_4  and  C5_5 
REMARK    2  A    between atoms: C5_5  and  C6_6 
REMARK    3  A    between atoms: C6_6  and  C7_7 
REMARK    4  A    between atoms: C7_7  and  C9_9 
ROOT
HETATM    1  C9  UNL     1      -0.327  51.353 -24.153  1.00  0.00    -0.002 C 
HETATM    2  C10 UNL     1       0.606  52.555 -23.819  1.00  0.00     0.006 C 
HETATM    3  C11 UNL     1       0.358  52.953 -22.353  1.00  0.00     0.011 C 
HETATM    4  C12 UNL     1      -0.426  51.775 -21.750  1.00  0.00    -0.032 C 
HETATM    5  C13 UNL     1       0.626  50.691 -21.356  1.00  0.00     0.016 C 
HETATM    6  C14 UNL     1      -1.307  52.129 -20.516  1.00  0.00     0.004 C 
HETATM    7  C15 UNL     1      -0.509  52.670 -19.310  1.00  0.00     0.007 C 
HETATM    8  C16 UNL     1      -0.135  51.624 -18.267  1.00  0.00     0.007 C 
HETATM    9  C17 UNL     1      -1.379  51.012 -17.599  1.00  0.00     0.010 C 
HETATM   10  C18 UNL     1      -1.006  50.021 -16.440  1.00  0.00     0.018 C 
HETATM   11  C19 UNL     1      -0.479  50.829 -15.228  1.00  0.00     0.023 C 
HETATM   12  C20 UNL     1       0.081  48.996 -16.819  1.00  0.00     0.023 C 
HETATM   13  C21 UNL     1      -2.242  49.247 -15.959  1.00  0.00     0.135 C 
HETATM   14  O1  UNL     1      -2.361  48.863 -14.792  1.00  0.00    -0.297 OA
HETATM   15  C22 UNL     1      -3.337  48.941 -16.949  1.00  0.00     0.080 C 
HETATM   16  C23 UNL     1      -2.855  49.044 -18.380  1.00  0.00     0.018 C 
HETATM   17  C24 UNL     1      -2.331  50.439 -18.671  1.00  0.00    -0.026 A 
HETATM   18  C25 UNL     1      -3.373  51.406 -19.181  1.00  0.00     0.021 A 
HETATM   19  C26 UNL     1      -2.276  50.976 -20.138  1.00  0.00    -0.027 A 
HETATM   20  C27 UNL     1      -2.823  50.123 -21.305  1.00  0.00     0.011 C 
HETATM   21  C28 UNL     1      -1.986  50.031 -22.591  1.00  0.00     0.011 C 
HETATM   22  C29 UNL     1      -1.348  51.375 -22.967  1.00  0.00    -0.032 C 
HETATM   23  C30 UNL     1      -2.470  52.415 -23.280  1.00  0.00     0.016 C 
ENDROOT
BRANCH   1  24
HETATM   24  C7  UNL     1      -0.826  51.400 -25.632  1.00  0.00    -0.014 C 
HETATM   25  C8  UNL     1       0.230  50.783 -26.571  1.00  0.00     0.010 C 
BRANCH  24  26
HETATM   26  C6  UNL     1      -2.188  50.692 -25.823  1.00  0.00     0.008 C 
BRANCH  26  27
HETATM   27  C5  UNL     1      -2.094  49.183 -26.092  1.00  0.00     0.028 C 
BRANCH  27  28
HETATM   28  C4  UNL     1      -3.196  48.738 -27.017  1.00  0.00    -0.025 C 
HETATM   29  C2  UNL     1      -4.450  48.363 -26.696  1.00  0.00    -0.091 C 
HETATM   30  C1  UNL     1      -5.417  47.941 -27.772  1.00  0.00     0.042 C 
HETATM   31  C3  UNL     1      -5.024  48.328 -25.307  1.00  0.00     0.042 C 
ENDBRANCH  27  28
ENDBRANCH  26  27
ENDBRANCH  24  26
ENDBRANCH   1  24
TORSDOF 4
ENDMDL
MODEL 6
REMARK minimizedAffinity -8.82866383
REMARK  4 active torsions:
REMARK  status: ('A' for Active; 'I' for Inactive)
REMARK    1  A    between atoms: C4_4  and  C5_5 
REMARK    2  A    between atoms: C5_5  and  C6_6 
REMARK    3  A    between atoms: C6_6  and  C7_7 
REMARK    4  A    between atoms: C7_7  and  C9_9 
ROOT
HETATM    1  C9  UNL     1      -1.660  51.722 -21.527  1.00  0.00    -0.002 C 
HETATM    2  C10 UNL     1      -2.797  50.690 -21.793  1.00  0.00     0.006 C 
HETATM    3  C11 UNL     1      -2.893  49.766 -20.565  1.00  0.00     0.011 C 
HETATM    4  C12 UNL     1      -2.085  50.479 -19.468  1.00  0.00    -0.032 C 
HETATM    5  C13 UNL     1      -3.032  51.545 -18.833  1.00  0.00     0.016 C 
HETATM    6  C14 UNL     1      -1.515  49.551 -18.356  1.00  0.00     0.004 C 
HETATM    7  C15 UNL     1      -2.597  48.795 -17.555  1.00  0.00     0.007 C 
HETATM    8  C16 UNL     1      -3.017  49.464 -16.252  1.00  0.00     0.007 C 
HETATM    9  C17 UNL     1      -1.852  49.545 -15.250  1.00  0.00     0.010 C 
HETATM   10  C18 UNL     1      -2.300  50.124 -13.861  1.00  0.00     0.018 C 
HETATM   11  C19 UNL     1      -3.157  49.067 -13.121  1.00  0.00     0.023 C 
HETATM   12  C20 UNL     1      -3.141  51.412 -13.963  1.00  0.00     0.023 C 
HETATM   13  C21 UNL     1      -1.085  50.420 -12.971  1.00  0.00     0.135 C 
HETATM   14  O1  UNL     1      -1.140  50.342 -11.740  1.00  0.00    -0.297 OA
HETATM   15  C22 UNL     1       0.212  50.826 -13.623  1.00  0.00     0.080 C 
HETATM   16  C23 UNL     1       0.004  51.325 -15.037  1.00  0.00     0.018 C 
HETATM   17  C24 UNL     1      -0.642  50.254 -15.896  1.00  0.00    -0.026 A 
HETATM   18  C25 UNL     1       0.335  49.337 -16.594  1.00  0.00     0.021 A 
HETATM   19  C26 UNL     1      -0.487  50.282 -17.451  1.00  0.00    -0.027 A 
HETATM   20  C27 UNL     1       0.387  51.361 -18.131  1.00  0.00     0.011 C 
HETATM   21  C28 UNL     1      -0.166  52.059 -19.383  1.00  0.00     0.011 C 
HETATM   22  C29 UNL     1      -0.899  51.086 -20.316  1.00  0.00    -0.032 C 
HETATM   23  C30 UNL     1       0.107  50.019 -20.851  1.00  0.00     0.016 C 
ENDROOT
BRANCH   1  24
HETATM   24  C7  UNL     1      -0.897  52.094 -22.838  1.00  0.00    -0.014 C 
HETATM   25  C8  UNL     1       0.560  52.482 -22.515  1.00  0.00     0.010 C 
BRANCH  24  26
HETATM   26  C6  UNL     1      -0.926  50.958 -23.886  1.00  0.00     0.008 C 
BRANCH  26  27
HETATM   27  C5  UNL     1      -0.792  51.426 -25.343  1.00  0.00     0.028 C 
BRANCH  27  28
HETATM   28  C4  UNL     1       0.657  51.488 -25.749  1.00  0.00    -0.025 C 
HETATM   29  C2  UNL     1       1.168  51.629 -26.988  1.00  0.00    -0.091 C 
HETATM   30  C1  UNL     1       2.660  51.663 -27.197  1.00  0.00     0.042 C 
HETATM   31  C3  UNL     1       0.368  51.775 -28.253  1.00  0.00     0.042 C 
ENDBRANCH  27  28
ENDBRANCH  26  27
ENDBRANCH  24  26
ENDBRANCH   1  24
TORSDOF 4
ENDMDL
MODEL 7
REMARK minimizedAffinity -8.7714119
REMARK  4 active torsions:
REMARK  status: ('A' for Active; 'I' for Inactive)
REMARK    1  A    between atoms: C4_4  and  C5_5 
REMARK    2  A    between atoms: C5_5  and  C6_6 
REMARK    3  A    between atoms: C6_6  and  C7_7 
REMARK    4  A    between atoms: C7_7  and  C9_9 
ROOT
HETATM    1  C9  UNL     1      -0.098  51.761 -23.469  1.00  0.00    -0.002 C 
HETATM    2  C10 UNL     1       0.234  52.551 -22.167  1.00  0.00     0.006 C 
HETATM    3  C11 UNL     1      -0.872  52.253 -21.139  1.00  0.00     0.011 C 
HETATM    4  C12 UNL     1      -1.619  51.033 -21.703  1.00  0.00    -0.032 C 
HETATM    5  C13 UNL     1      -0.795  49.772 -21.295  1.00  0.00     0.016 C 
HETATM    6  C14 UNL     1      -3.092  50.879 -21.223  1.00  0.00     0.004 C 
HETATM    7  C15 UNL     1      -3.239  50.701 -19.696  1.00  0.00     0.007 C 
HETATM    8  C16 UNL     1      -3.333  49.255 -19.225  1.00  0.00     0.007 C 
HETATM    9  C17 UNL     1      -4.593  48.558 -19.767  1.00  0.00     0.010 C 
HETATM   10  C18 UNL     1      -4.764  47.107 -19.193  1.00  0.00     0.018 C 
HETATM   11  C19 UNL     1      -5.182  47.193 -17.704  1.00  0.00     0.023 C 
HETATM   12  C20 UNL     1      -3.484  46.250 -19.265  1.00  0.00     0.023 C 
HETATM   13  C21 UNL     1      -5.882  46.353 -19.928  1.00  0.00     0.135 C 
HETATM   14  O1  UNL     1      -6.567  45.490 -19.371  1.00  0.00    -0.297 OA
HETATM   15  C22 UNL     1      -6.141  46.673 -21.378  1.00  0.00     0.080 C 
HETATM   16  C23 UNL     1      -4.962  47.367 -22.026  1.00  0.00     0.018 C 
HETATM   17  C24 UNL     1      -4.640  48.664 -21.306  1.00  0.00    -0.026 A 
HETATM   18  C25 UNL     1      -5.369  49.875 -21.840  1.00  0.00     0.021 A 
HETATM   19  C26 UNL     1      -3.866  49.808 -22.038  1.00  0.00    -0.027 A 
HETATM   20  C27 UNL     1      -3.481  49.663 -23.529  1.00  0.00     0.011 C 
HETATM   21  C28 UNL     1      -2.064  50.077 -23.955  1.00  0.00     0.011 C 
HETATM   22  C29 UNL     1      -1.593  51.355 -23.249  1.00  0.00    -0.032 C 
HETATM   23  C30 UNL     1      -2.511  52.548 -23.663  1.00  0.00     0.016 C 
ENDROOT
BRANCH   1  24
HETATM   24  C7  UNL     1       0.332  52.546 -24.749  1.00  0.00    -0.014 C 
HETATM   25  C8  UNL     1       0.796  53.967 -24.372  1.00  0.00     0.010 C 
BRANCH  24  26
HETATM   26  C6  UNL     1       1.437  51.819 -25.550  1.00  0.00     0.008 C 
BRANCH  26  27
HETATM   27  C5  UNL     1       1.040  51.432 -26.982  1.00  0.00     0.028 C 
BRANCH  27  28
HETATM   28  C4  UNL     1      -0.418  51.061 -27.048  1.00  0.00    -0.025 C 
HETATM   29  C2  UNL     1      -1.459  51.840 -27.403  1.00  0.00    -0.091 C 
HETATM   30  C1  UNL     1      -2.860  51.285 -27.401  1.00  0.00     0.042 C 
HETATM   31  C3  UNL     1      -1.368  53.277 -27.834  1.00  0.00     0.042 C 
ENDBRANCH  27  28
ENDBRANCH  26  27
ENDBRANCH  24  26
ENDBRANCH   1  24
TORSDOF 4
ENDMDL
MODEL 8
REMARK minimizedAffinity -8.6159029
REMARK  4 active torsions:
REMARK  status: ('A' for Active; 'I' for Inactive)
REMARK    1  A    between atoms: C4_4  and  C5_5 
REMARK    2  A    between atoms: C5_5  and  C6_6 
REMARK    3  A    between atoms: C6_6  and  C7_7 
REMARK    4  A    between atoms: C7_7  and  C9_9 
ROOT
HETATM    1  C9  UNL     1      -2.038  50.019 -24.126  1.00  0.00    -0.002 C 
HETATM    2  C10 UNL     1      -2.189  51.562 -23.969  1.00  0.00     0.006 C 
HETATM    3  C11 UNL     1      -2.771  51.839 -22.571  1.00  0.00     0.011 C 
HETATM    4  C12 UNL     1      -2.611  50.515 -21.805  1.00  0.00    -0.032 C 
HETATM    5  C13 UNL     1      -1.145  50.479 -21.270  1.00  0.00     0.016 C 
HETATM    6  C14 UNL     1      -3.607  50.307 -20.627  1.00  0.00     0.004 C 
HETATM    7  C15 UNL     1      -3.492  51.369 -19.513  1.00  0.00     0.007 C 
HETATM    8  C16 UNL     1      -2.608  50.971 -18.336  1.00  0.00     0.007 C 
HETATM    9  C17 UNL     1      -3.173  49.754 -17.583  1.00  0.00     0.010 C 
HETATM   10  C18 UNL     1      -2.338  49.408 -16.300  1.00  0.00     0.018 C 
HETATM   11  C19 UNL     1      -2.602  50.481 -15.215  1.00  0.00     0.023 C 
HETATM   12  C20 UNL     1      -0.816  49.357 -16.539  1.00  0.00     0.023 C 
HETATM   13  C21 UNL     1      -2.771  48.059 -15.709  1.00  0.00     0.135 C 
HETATM   14  O1  UNL     1      -2.706  47.822 -14.499  1.00  0.00    -0.297 OA
HETATM   15  C22 UNL     1      -3.283  46.989 -16.640  1.00  0.00     0.080 C 
HETATM   16  C23 UNL     1      -2.868  47.239 -18.074  1.00  0.00     0.018 C 
HETATM   17  C24 UNL     1      -3.392  48.578 -18.560  1.00  0.00    -0.026 A 
HETATM   18  C25 UNL     1      -4.763  48.523 -19.193  1.00  0.00     0.021 A 
HETATM   19  C26 UNL     1      -3.581  48.851 -20.087  1.00  0.00    -0.027 A 
HETATM   20  C27 UNL     1      -3.306  47.735 -21.121  1.00  0.00     0.011 C 
HETATM   21  C28 UNL     1      -2.513  48.099 -22.386  1.00  0.00     0.011 C 
HETATM   22  C29 UNL     1      -2.912  49.469 -22.950  1.00  0.00    -0.032 C 
HETATM   23  C30 UNL     1      -4.407  49.434 -23.398  1.00  0.00     0.016 C 
ENDROOT
BRANCH   1  24
HETATM   24  C7  UNL     1      -2.304  49.558 -25.595  1.00  0.00    -0.014 C 
HETATM   25  C8  UNL     1      -3.422  48.497 -25.627  1.00  0.00     0.010 C 
BRANCH  24  26
HETATM   26  C6  UNL     1      -2.660  50.734 -26.533  1.00  0.00     0.008 C 
BRANCH  26  27
HETATM   27  C5  UNL     1      -1.501  51.225 -27.414  1.00  0.00     0.028 C 
BRANCH  27  28
HETATM   28  C4  UNL     1      -0.188  51.086 -26.690  1.00  0.00    -0.025 C 
HETATM   29  C2  UNL     1       1.045  51.393 -27.139  1.00  0.00    -0.091 C 
HETATM   30  C1  UNL     1       2.251  51.176 -26.261  1.00  0.00     0.042 C 
HETATM   31  C3  UNL     1       1.366  51.969 -28.490  1.00  0.00     0.042 C 
ENDBRANCH  27  28
ENDBRANCH  26  27
ENDBRANCH  24  26
ENDBRANCH   1  24
TORSDOF 4
ENDMDL
MODEL 9
REMARK minimizedAffinity -8.59693336
REMARK  4 active torsions:
REMARK  status: ('A' for Active; 'I' for Inactive)
REMARK    1  A    between atoms: C4_4  and  C5_5 
REMARK    2  A    between atoms: C5_5  and  C6_6 
REMARK    3  A    between atoms: C6_6  and  C7_7 
REMARK    4  A    between atoms: C7_7  and  C9_9 
ROOT
HETATM    1  C9  UNL     1      -1.563  51.212 -21.846  1.00  0.00    -0.002 C 
HETATM    2  C10 UNL     1      -1.882  51.480 -20.345  1.00  0.00     0.006 C 
HETATM    3  C11 UNL     1      -3.339  51.052 -20.088  1.00  0.00     0.011 C 
HETATM    4  C12 UNL     1      -3.729  50.217 -21.319  1.00  0.00    -0.032 C 
HETATM    5  C13 UNL     1      -3.184  48.774 -21.074  1.00  0.00     0.016 C 
HETATM    6  C14 UNL     1      -5.255  50.159 -21.623  1.00  0.00     0.004 C 
HETATM    7  C15 UNL     1      -6.097  49.529 -20.493  1.00  0.00     0.007 C 
HETATM    8  C16 UNL     1      -6.392  48.044 -20.664  1.00  0.00     0.007 C 
HETATM    9  C17 UNL     1      -7.249  47.772 -21.913  1.00  0.00     0.010 C 
HETATM   10  C18 UNL     1      -7.661  46.262 -22.036  1.00  0.00     0.018 C 
HETATM   11  C19 UNL     1      -8.726  45.934 -20.961  1.00  0.00     0.023 C 
HETATM   12  C20 UNL     1      -6.491  45.277 -21.843  1.00  0.00     0.023 C 
HETATM   13  C21 UNL     1      -8.301  45.976 -23.402  1.00  0.00     0.135 C 
HETATM   14  O1  UNL     1      -9.162  45.104 -23.553  1.00  0.00    -0.297 OA
HETATM   15  C22 UNL     1      -7.854  46.781 -24.596  1.00  0.00     0.080 C 
HETATM   16  C23 UNL     1      -6.513  47.444 -24.365  1.00  0.00     0.018 C 
HETATM   17  C24 UNL     1      -6.572  48.371 -23.165  1.00  0.00    -0.026 A 
HETATM   18  C25 UNL     1      -6.974  49.791 -23.489  1.00  0.00     0.021 A 
HETATM   19  C26 UNL     1      -5.552  49.547 -23.019  1.00  0.00    -0.027 A 
HETATM   20  C27 UNL     1      -4.515  49.826 -24.130  1.00  0.00     0.011 C 
HETATM   21  C28 UNL     1      -3.065  50.117 -23.713  1.00  0.00     0.011 C 
HETATM   22  C29 UNL     1      -2.986  51.007 -22.466  1.00  0.00    -0.032 C 
HETATM   23  C30 UNL     1      -3.611  52.403 -22.780  1.00  0.00     0.016 C 
ENDROOT
BRANCH   1  24
HETATM   24  C7  UNL     1      -0.589  52.284 -22.432  1.00  0.00    -0.014 C 
HETATM   25  C8  UNL     1       0.545  52.578 -21.430  1.00  0.00     0.010 C 
BRANCH  24  26
HETATM   26  C6  UNL     1       0.001  51.869 -23.798  1.00  0.00     0.008 C 
BRANCH  26  27
HETATM   27  C5  UNL     1       0.508  53.035 -24.659  1.00  0.00     0.028 C 
BRANCH  27  28
HETATM   28  C4  UNL     1       0.368  52.714 -26.124  1.00  0.00    -0.025 C 
HETATM   29  C2  UNL     1       1.205  52.001 -26.903  1.00  0.00    -0.091 C 
HETATM   30  C1  UNL     1       0.895  51.791 -28.362  1.00  0.00     0.042 C 
HETATM   31  C3  UNL     1       2.479  51.346 -26.446  1.00  0.00     0.042 C 
ENDBRANCH  27  28
ENDBRANCH  26  27
ENDBRANCH  24  26
ENDBRANCH   1  24
TORSDOF 4
ENDMDL
