MODEL 1
REMARK minimizedAffinity -9.20737648
REMARK  9 active torsions:
REMARK  status: ('A' for Active; 'I' for Inactive)
REMARK    1  A    between atoms: C2_2  and  C30_33 
REMARK    2  A    between atoms: C3_3  and  C4_4 
REMARK    3  A    between atoms: C4_4  and  C5_5 
REMARK    4  A    between atoms: C5_5  and  C6_6 
REMARK    5  A    between atoms: C6_6  and  C8_8 
REMARK    6  A    between atoms: C10_10  and  O1_11 
REMARK    7  A    between atoms: C23_24  and  O2_25 
REMARK    8  A    between atoms: C29_31  and  O3_32 
REMARK    9  A    between atoms: C30_33  and  O4_34 
ROOT
HETATM    1  C8  UNL     1      -5.381   6.625  14.260  1.00  0.00     0.001 C 
HETATM    2  C9  UNL     1      -5.463   7.772  15.303  1.00  0.00     0.038 C 
HETATM    3  C10 UNL     1      -4.049   8.394  15.381  1.00  0.00     0.132 C 
HETATM    4  C11 UNL     1      -3.343   7.924  14.084  1.00  0.00     0.016 C 
HETATM    5  C12 UNL     1      -3.827   8.818  12.890  1.00  0.00     0.023 C 
HETATM    6  C13 UNL     1      -1.818   7.950  14.010  1.00  0.00    -0.037 C 
HETATM    7  C14 UNL     1      -1.177   7.095  13.167  1.00  0.00    -0.065 C 
HETATM    8  C15 UNL     1      -1.945   5.999  12.401  1.00  0.00     0.036 C 
HETATM    9  C16 UNL     1      -3.458   5.845  12.675  1.00  0.00     0.015 C 
HETATM   10  C17 UNL     1      -3.850   6.432  14.035  1.00  0.00    -0.026 C 
HETATM   11  C18 UNL     1      -3.225   5.539  15.143  1.00  0.00     0.016 C 
HETATM   12  C19 UNL     1       0.371   7.132  12.981  1.00  0.00    -0.016 C 
HETATM   13  C20 UNL     1       0.906   5.927  13.792  1.00  0.00     0.020 C 
HETATM   14  C21 UNL     1       0.748   6.977  11.475  1.00  0.00     0.016 C 
HETATM   15  C22 UNL     1       1.944   7.805  10.988  1.00  0.00     0.033 C 
HETATM   16  C23 UNL     1       3.034   7.985  12.037  1.00  0.00     0.126 C 
HETATM   17  C24 UNL     1       2.501   8.709  13.312  1.00  0.00    -0.017 C 
HETATM   18  C25 UNL     1       2.747  10.233  13.107  1.00  0.00     0.018 C 
HETATM   19  C26 UNL     1       3.320   8.309  14.558  1.00  0.00     0.018 C 
HETATM   20  C27 UNL     1       0.943   8.505  13.482  1.00  0.00     0.011 C 
HETATM   21  C28 UNL     1       0.423   8.831  14.891  1.00  0.00     0.043 C 
HETATM   22  C29 UNL     1      -1.101   8.940  14.905  1.00  0.00     0.148 C 
ENDROOT
BRANCH   1  23
HETATM   23  C6  UNL     1      -6.320   5.404  14.500  1.00  0.00    -0.013 C 
HETATM   24  C7  UNL     1      -7.212   5.474  15.748  1.00  0.00     0.010 C 
BRANCH  23  25
HETATM   25  C5  UNL     1      -7.223   5.198  13.244  1.00  0.00     0.008 C 
BRANCH  25  26
HETATM   26  C4  UNL     1      -7.014   3.856  12.523  1.00  0.00     0.028 C 
BRANCH  26  27
HETATM   27  C3  UNL     1      -5.575   3.487  12.303  1.00  0.00    -0.022 C 
HETATM   28  C2  UNL     1      -5.072   2.366  11.748  1.00  0.00    -0.064 C 
HETATM   29  C1  UNL     1      -5.887   1.221  11.207  1.00  0.00     0.045 C 
BRANCH  28  30
HETATM   30  C30 UNL     1      -3.579   2.170  11.637  1.00  0.00     0.197 C 
BRANCH  30  31
HETATM   31  O4  UNL     1      -3.304   0.806  11.364  1.00  0.00    -0.397 OA
HETATM   32  H50 UNL     1      -3.895   0.542  10.639  1.00  0.00     0.209 HD
ENDBRANCH  30  31
ENDBRANCH  28  30
ENDBRANCH  26  27
ENDBRANCH  25  26
ENDBRANCH  23  25
ENDBRANCH   1  23
BRANCH   3  33
HETATM   33  O1  UNL     1      -4.101   9.811  15.499  1.00  0.00    -0.394 OA
HETATM   34  H17 UNL     1      -4.699  10.017  16.240  1.00  0.00     0.210 HD
ENDBRANCH   3  33
BRANCH  22  35
HETATM   35  O3  UNL     1      -1.455  10.264  14.518  1.00  0.00    -0.391 OA
HETATM   36  H47 UNL     1      -2.386  10.384  14.798  1.00  0.00     0.210 HD
ENDBRANCH  22  35
BRANCH  16  37
HETATM   37  O2  UNL     1       3.595   6.710  12.338  1.00  0.00    -0.395 OA
HETATM   38  H36 UNL     1       3.960   6.347  11.512  1.00  0.00     0.210 HD
ENDBRANCH  16  37
TORSDOF 9
ENDMDL
MODEL 2
REMARK minimizedAffinity -9.20705032
REMARK  9 active torsions:
REMARK  status: ('A' for Active; 'I' for Inactive)
REMARK    1  A    between atoms: C2_2  and  C30_33 
REMARK    2  A    between atoms: C3_3  and  C4_4 
REMARK    3  A    between atoms: C4_4  and  C5_5 
REMARK    4  A    between atoms: C5_5  and  C6_6 
REMARK    5  A    between atoms: C6_6  and  C8_8 
REMARK    6  A    between atoms: C10_10  and  O1_11 
REMARK    7  A    between atoms: C23_24  and  O2_25 
REMARK    8  A    between atoms: C29_31  and  O3_32 
REMARK    9  A    between atoms: C30_33  and  O4_34 
ROOT
HETATM    1  C8  UNL     1      -2.924   7.774  15.071  1.00  0.00     0.001 C 
HETATM    2  C9  UNL     1      -2.053   8.338  16.227  1.00  0.00     0.038 C 
HETATM    3  C10 UNL     1      -0.604   8.404  15.692  1.00  0.00     0.132 C 
HETATM    4  C11 UNL     1      -0.753   8.334  14.151  1.00  0.00     0.016 C 
HETATM    5  C12 UNL     1      -1.167   9.749  13.616  1.00  0.00     0.023 C 
HETATM    6  C13 UNL     1       0.447   7.921  13.301  1.00  0.00    -0.037 C 
HETATM    7  C14 UNL     1       0.235   7.351  12.083  1.00  0.00    -0.065 C 
HETATM    8  C15 UNL     1      -1.182   6.973  11.610  1.00  0.00     0.036 C 
HETATM    9  C16 UNL     1      -2.358   7.189  12.590  1.00  0.00     0.015 C 
HETATM   10  C17 UNL     1      -1.879   7.236  14.046  1.00  0.00    -0.026 C 
HETATM   11  C18 UNL     1      -1.385   5.815  14.436  1.00  0.00     0.016 C 
HETATM   12  C19 UNL     1       1.416   6.988  11.131  1.00  0.00    -0.016 C 
HETATM   13  C20 UNL     1       1.580   5.453  11.254  1.00  0.00     0.020 C 
HETATM   14  C21 UNL     1       1.074   7.375   9.659  1.00  0.00     0.016 C 
HETATM   15  C22 UNL     1       2.235   7.922   8.816  1.00  0.00     0.033 C 
HETATM   16  C23 UNL     1       3.584   7.300   9.153  1.00  0.00     0.126 C 
HETATM   17  C24 UNL     1       3.982   7.543  10.641  1.00  0.00    -0.017 C 
HETATM   18  C25 UNL     1       4.820   8.856  10.680  1.00  0.00     0.018 C 
HETATM   19  C26 UNL     1       4.917   6.426  11.153  1.00  0.00     0.018 C 
HETATM   20  C27 UNL     1       2.709   7.773  11.548  1.00  0.00     0.011 C 
HETATM   21  C28 UNL     1       2.981   7.616  13.052  1.00  0.00     0.043 C 
HETATM   22  C29 UNL     1       1.822   8.169  13.883  1.00  0.00     0.148 C 
ENDROOT
BRANCH   1  23
HETATM   23  C6  UNL     1      -4.157   6.917  15.490  1.00  0.00    -0.013 C 
HETATM   24  C7  UNL     1      -5.502   7.656  15.549  1.00  0.00     0.010 C 
BRANCH  23  25
HETATM   25  C5  UNL     1      -4.289   5.703  14.519  1.00  0.00     0.008 C 
BRANCH  25  26
HETATM   26  C4  UNL     1      -5.361   5.873  13.429  1.00  0.00     0.028 C 
BRANCH  26  27
HETATM   27  C3  UNL     1      -6.344   4.740  13.343  1.00  0.00    -0.022 C 
HETATM   28  C2  UNL     1      -6.265   3.617  12.602  1.00  0.00    -0.064 C 
HETATM   29  C1  UNL     1      -5.127   3.257  11.685  1.00  0.00     0.045 C 
BRANCH  28  30
HETATM   30  C30 UNL     1      -7.379   2.598  12.637  1.00  0.00     0.197 C 
BRANCH  30  31
HETATM   31  O4  UNL     1      -8.526   3.177  13.240  1.00  0.00    -0.397 OA
HETATM   32  H50 UNL     1      -8.655   4.043  12.817  1.00  0.00     0.209 HD
ENDBRANCH  30  31
ENDBRANCH  28  30
ENDBRANCH  26  27
ENDBRANCH  25  26
ENDBRANCH  23  25
ENDBRANCH   1  23
BRANCH   3  33
HETATM   33  O1  UNL     1       0.068   9.579  16.129  1.00  0.00    -0.394 OA
HETATM   34  H17 UNL     1      -0.032   9.626  17.096  1.00  0.00     0.210 HD
ENDBRANCH   3  33
BRANCH  22  35
HETATM   35  O3  UNL     1       2.019   9.571  14.040  1.00  0.00    -0.391 OA
HETATM   36  H47 UNL     1       1.440   9.840  14.784  1.00  0.00     0.210 HD
ENDBRANCH  22  35
BRANCH  16  37
HETATM   37  O2  UNL     1       3.543   5.913   8.827  1.00  0.00    -0.395 OA
HETATM   38  H36 UNL     1       3.351   5.840   7.876  1.00  0.00     0.210 HD
ENDBRANCH  16  37
TORSDOF 9
ENDMDL
MODEL 3
REMARK minimizedAffinity -9.10678482
REMARK  9 active torsions:
REMARK  status: ('A' for Active; 'I' for Inactive)
REMARK    1  A    between atoms: C2_2  and  C30_33 
REMARK    2  A    between atoms: C3_3  and  C4_4 
REMARK    3  A    between atoms: C4_4  and  C5_5 
REMARK    4  A    between atoms: C5_5  and  C6_6 
REMARK    5  A    between atoms: C6_6  and  C8_8 
REMARK    6  A    between atoms: C10_10  and  O1_11 
REMARK    7  A    between atoms: C23_24  and  O2_25 
REMARK    8  A    between atoms: C29_31  and  O3_32 
REMARK    9  A    between atoms: C30_33  and  O4_34 
ROOT
HETATM    1  C8  UNL     1      -2.107   6.546  13.466  1.00  0.00     0.001 C 
HETATM    2  C9  UNL     1      -2.186   5.784  12.115  1.00  0.00     0.038 C 
HETATM    3  C10 UNL     1      -0.768   5.835  11.500  1.00  0.00     0.132 C 
HETATM    4  C11 UNL     1       0.161   6.192  12.689  1.00  0.00     0.016 C 
HETATM    5  C12 UNL     1       0.419   4.898  13.536  1.00  0.00     0.023 C 
HETATM    6  C13 UNL     1       1.547   6.769  12.409  1.00  0.00    -0.037 C 
HETATM    7  C14 UNL     1       2.142   7.556  13.347  1.00  0.00    -0.065 C 
HETATM    8  C15 UNL     1       1.388   8.001  14.616  1.00  0.00     0.036 C 
HETATM    9  C16 UNL     1      -0.095   7.592  14.761  1.00  0.00     0.015 C 
HETATM   10  C17 UNL     1      -0.732   7.278  13.402  1.00  0.00    -0.026 C 
HETATM   11  C18 UNL     1      -0.835   8.605  12.600  1.00  0.00     0.016 C 
HETATM   12  C19 UNL     1       3.590   8.103  13.159  1.00  0.00    -0.016 C 
HETATM   13  C20 UNL     1       3.414   9.588  12.760  1.00  0.00     0.020 C 
HETATM   14  C21 UNL     1       4.396   7.995  14.490  1.00  0.00     0.016 C 
HETATM   15  C22 UNL     1       5.880   7.628  14.355  1.00  0.00     0.033 C 
HETATM   16  C23 UNL     1       6.540   8.190  13.102  1.00  0.00     0.126 C 
HETATM   17  C24 UNL     1       5.851   7.676  11.801  1.00  0.00    -0.017 C 
HETATM   18  C25 UNL     1       6.608   6.388  11.362  1.00  0.00     0.018 C 
HETATM   19  C26 UNL     1       6.023   8.687  10.647  1.00  0.00     0.018 C 
HETATM   20  C27 UNL     1       4.348   7.267  12.068  1.00  0.00     0.011 C 
HETATM   21  C28 UNL     1       3.501   7.141  10.792  1.00  0.00     0.043 C 
HETATM   22  C29 UNL     1       2.178   6.430  11.075  1.00  0.00     0.148 C 
ENDROOT
BRANCH   1  23
HETATM   23  C6  UNL     1      -3.399   7.296  13.913  1.00  0.00    -0.013 C 
HETATM   24  C7  UNL     1      -3.989   8.286  12.899  1.00  0.00     0.010 C 
BRANCH  23  25
HETATM   25  C5  UNL     1      -4.492   6.250  14.293  1.00  0.00     0.008 C 
BRANCH  25  26
HETATM   26  C4  UNL     1      -5.811   6.397  13.516  1.00  0.00     0.028 C 
BRANCH  26  27
HETATM   27  C3  UNL     1      -6.649   5.151  13.475  1.00  0.00    -0.022 C 
HETATM   28  C2  UNL     1      -6.380   3.979  12.865  1.00  0.00    -0.064 C 
HETATM   29  C1  UNL     1      -5.132   3.673  12.081  1.00  0.00     0.045 C 
BRANCH  28  30
HETATM   30  C30 UNL     1      -7.372   2.842  12.921  1.00  0.00     0.197 C 
BRANCH  30  31
HETATM   31  O4  UNL     1      -8.642   3.346  13.300  1.00  0.00    -0.397 OA
HETATM   32  H50 UNL     1      -8.810   4.126  12.744  1.00  0.00     0.209 HD
ENDBRANCH  30  31
ENDBRANCH  28  30
ENDBRANCH  26  27
ENDBRANCH  25  26
ENDBRANCH  23  25
ENDBRANCH   1  23
BRANCH   3  33
HETATM   33  O1  UNL     1      -0.418   4.606  10.876  1.00  0.00    -0.394 OA
HETATM   34  H17 UNL     1      -1.141   4.378  10.264  1.00  0.00     0.210 HD
ENDBRANCH   3  33
BRANCH  22  35
HETATM   35  O3  UNL     1       2.405   5.026  11.007  1.00  0.00    -0.391 OA
HETATM   36  H47 UNL     1       1.520   4.616  10.915  1.00  0.00     0.210 HD
ENDBRANCH  22  35
BRANCH  16  37
HETATM   37  O2  UNL     1       6.541   9.613  13.184  1.00  0.00    -0.395 OA
HETATM   38  H36 UNL     1       7.037   9.861  13.983  1.00  0.00     0.210 HD
ENDBRANCH  16  37
TORSDOF 9
ENDMDL
MODEL 4
REMARK minimizedAffinity -9.06672955
REMARK  9 active torsions:
REMARK  status: ('A' for Active; 'I' for Inactive)
REMARK    1  A    between atoms: C2_2  and  C30_33 
REMARK    2  A    between atoms: C3_3  and  C4_4 
REMARK    3  A    between atoms: C4_4  and  C5_5 
REMARK    4  A    between atoms: C5_5  and  C6_6 
REMARK    5  A    between atoms: C6_6  and  C8_8 
REMARK    6  A    between atoms: C10_10  and  O1_11 
REMARK    7  A    between atoms: C23_24  and  O2_25 
REMARK    8  A    between atoms: C29_31  and  O3_32 
REMARK    9  A    between atoms: C30_33  and  O4_34 
ROOT
HETATM    1  C8  UNL     1      -1.575   6.215  12.526  1.00  0.00     0.001 C 
HETATM    2  C9  UNL     1      -1.563   6.472  14.057  1.00  0.00     0.038 C 
HETATM    3  C10 UNL     1      -0.146   6.983  14.405  1.00  0.00     0.132 C 
HETATM    4  C11 UNL     1       0.446   7.446  13.050  1.00  0.00     0.016 C 
HETATM    5  C12 UNL     1      -0.134   8.861  12.700  1.00  0.00     0.023 C 
HETATM    6  C13 UNL     1       1.960   7.588  12.903  1.00  0.00    -0.037 C 
HETATM    7  C14 UNL     1       2.524   7.466  11.670  1.00  0.00    -0.065 C 
HETATM    8  C15 UNL     1       1.690   7.036  10.447  1.00  0.00     0.036 C 
HETATM    9  C16 UNL     1       0.205   6.672  10.670  1.00  0.00     0.015 C 
HETATM   10  C17 UNL     1      -0.068   6.277  12.126  1.00  0.00    -0.026 C 
HETATM   11  C18 UNL     1       0.645   4.924  12.400  1.00  0.00     0.016 C 
HETATM   12  C19 UNL     1       4.050   7.686  11.441  1.00  0.00    -0.016 C 
HETATM   13  C20 UNL     1       4.649   6.266  11.296  1.00  0.00     0.020 C 
HETATM   14  C21 UNL     1       4.297   8.509  10.139  1.00  0.00     0.016 C 
HETATM   15  C22 UNL     1       5.451   9.520  10.186  1.00  0.00     0.033 C 
HETATM   16  C23 UNL     1       6.626   9.071  11.045  1.00  0.00     0.126 C 
HETATM   17  C24 UNL     1       6.206   8.829  12.527  1.00  0.00    -0.017 C 
HETATM   18  C25 UNL     1       6.439  10.167  13.291  1.00  0.00     0.018 C 
HETATM   19  C26 UNL     1       7.126   7.789  13.201  1.00  0.00     0.018 C 
HETATM   20  C27 UNL     1       4.668   8.486  12.642  1.00  0.00     0.011 C 
HETATM   21  C28 UNL     1       4.270   7.851  13.983  1.00  0.00     0.043 C 
HETATM   22  C29 UNL     1       2.752   7.852  14.166  1.00  0.00     0.148 C 
ENDROOT
BRANCH   1  23
HETATM   23  C6  UNL     1      -2.494   5.060  12.025  1.00  0.00    -0.013 C 
HETATM   24  C7  UNL     1      -1.778   3.800  11.518  1.00  0.00     0.010 C 
BRANCH  23  25
HETATM   25  C5  UNL     1      -3.477   4.657  13.168  1.00  0.00     0.008 C 
BRANCH  25  26
HETATM   26  C4  UNL     1      -4.875   5.290  13.058  1.00  0.00     0.028 C 
BRANCH  26  27
HETATM   27  C3  UNL     1      -6.009   4.316  13.190  1.00  0.00    -0.022 C 
HETATM   28  C2  UNL     1      -6.312   3.268  12.397  1.00  0.00    -0.064 C 
HETATM   29  C1  UNL     1      -5.535   2.847  11.178  1.00  0.00     0.045 C 
BRANCH  28  30
HETATM   30  C30 UNL     1      -7.521   2.413  12.687  1.00  0.00     0.197 C 
BRANCH  30  31
HETATM   31  O4  UNL     1      -8.549   3.223  13.235  1.00  0.00    -0.397 OA
HETATM   32  H50 UNL     1      -8.619   4.007  12.664  1.00  0.00     0.209 HD
ENDBRANCH  30  31
ENDBRANCH  28  30
ENDBRANCH  26  27
ENDBRANCH  25  26
ENDBRANCH  23  25
ENDBRANCH   1  23
BRANCH   3  33
HETATM   33  O1  UNL     1      -0.183   8.023  15.376  1.00  0.00    -0.394 OA
HETATM   34  H17 UNL     1      -0.715   7.700  16.124  1.00  0.00     0.210 HD
ENDBRANCH   3  33
BRANCH  22  35
HETATM   35  O3  UNL     1       2.372   9.114  14.704  1.00  0.00    -0.391 OA
HETATM   36  H47 UNL     1       1.468   8.990  15.062  1.00  0.00     0.210 HD
ENDBRANCH  22  35
BRANCH  16  37
HETATM   37  O2  UNL     1       7.207   7.910  10.455  1.00  0.00    -0.395 OA
HETATM   38  H36 UNL     1       7.499   8.150   9.559  1.00  0.00     0.210 HD
ENDBRANCH  16  37
TORSDOF 9
ENDMDL
MODEL 5
REMARK minimizedAffinity -8.95618153
REMARK  9 active torsions:
REMARK  status: ('A' for Active; 'I' for Inactive)
REMARK    1  A    between atoms: C2_2  and  C30_33 
REMARK    2  A    between atoms: C3_3  and  C4_4 
REMARK    3  A    between atoms: C4_4  and  C5_5 
REMARK    4  A    between atoms: C5_5  and  C6_6 
REMARK    5  A    between atoms: C6_6  and  C8_8 
REMARK    6  A    between atoms: C10_10  and  O1_11 
REMARK    7  A    between atoms: C23_24  and  O2_25 
REMARK    8  A    between atoms: C29_31  and  O3_32 
REMARK    9  A    between atoms: C30_33  and  O4_34 
ROOT
HETATM    1  C8  UNL     1       4.298   7.440  10.639  1.00  0.00     0.001 C 
HETATM    2  C9  UNL     1       4.360   5.910  10.381  1.00  0.00     0.038 C 
HETATM    3  C10 UNL     1       3.021   5.326  10.888  1.00  0.00     0.132 C 
HETATM    4  C11 UNL     1       2.070   6.548  10.976  1.00  0.00     0.016 C 
HETATM    5  C12 UNL     1       1.544   6.885   9.538  1.00  0.00     0.023 C 
HETATM    6  C13 UNL     1       0.820   6.462  11.849  1.00  0.00    -0.037 C 
HETATM    7  C14 UNL     1       0.286   7.605  12.360  1.00  0.00    -0.065 C 
HETATM    8  C15 UNL     1       0.999   8.963  12.206  1.00  0.00     0.036 C 
HETATM    9  C16 UNL     1       2.383   8.982  11.518  1.00  0.00     0.015 C 
HETATM   10  C17 UNL     1       3.065   7.611  11.579  1.00  0.00    -0.026 C 
HETATM   11  C18 UNL     1       3.441   7.325  13.060  1.00  0.00     0.016 C 
HETATM   12  C19 UNL     1      -1.038   7.594  13.185  1.00  0.00    -0.016 C 
HETATM   13  C20 UNL     1      -0.597   7.743  14.661  1.00  0.00     0.020 C 
HETATM   14  C21 UNL     1      -1.952   8.789  12.774  1.00  0.00     0.016 C 
HETATM   15  C22 UNL     1      -3.460   8.508  12.742  1.00  0.00     0.033 C 
HETATM   16  C23 UNL     1      -3.922   7.519  13.804  1.00  0.00     0.126 C 
HETATM   17  C24 UNL     1      -3.224   6.133  13.652  1.00  0.00    -0.017 C 
HETATM   18  C25 UNL     1      -4.140   5.258  12.746  1.00  0.00     0.018 C 
HETATM   19  C26 UNL     1      -3.143   5.401  15.010  1.00  0.00     0.018 C 
HETATM   20  C27 UNL     1      -1.831   6.266  12.918  1.00  0.00     0.011 C 
HETATM   21  C28 UNL     1      -0.918   5.042  13.088  1.00  0.00     0.043 C 
HETATM   22  C29 UNL     1       0.249   5.083  12.102  1.00  0.00     0.148 C 
ENDROOT
BRANCH   1  23
HETATM   23  C6  UNL     1       5.654   8.144  10.951  1.00  0.00    -0.013 C 
HETATM   24  C7  UNL     1       5.755   9.621  10.546  1.00  0.00     0.010 C 
BRANCH  23  25
HETATM   25  C5  UNL     1       5.956   8.016  12.476  1.00  0.00     0.008 C 
BRANCH  25  26
HETATM   26  C4  UNL     1       7.429   7.722  12.810  1.00  0.00     0.028 C 
BRANCH  26  27
HETATM   27  C3  UNL     1       7.825   8.060  14.219  1.00  0.00    -0.022 C 
HETATM   28  C2  UNL     1       9.064   8.162  14.740  1.00  0.00    -0.064 C 
HETATM   29  C1  UNL     1      10.348   7.956  13.980  1.00  0.00     0.045 C 
BRANCH  28  30
HETATM   30  C30 UNL     1       9.255   8.492  16.201  1.00  0.00     0.197 C 
BRANCH  30  31
HETATM   31  O4  UNL     1       9.041   7.325  16.978  1.00  0.00    -0.397 OA
HETATM   32  H50 UNL     1       9.553   6.613  16.558  1.00  0.00     0.209 HD
ENDBRANCH  30  31
ENDBRANCH  28  30
ENDBRANCH  26  27
ENDBRANCH  25  26
ENDBRANCH  23  25
ENDBRANCH   1  23
BRANCH   3  33
HETATM   33  O1  UNL     1       2.530   4.305  10.027  1.00  0.00    -0.394 OA
HETATM   34  H17 UNL     1       3.252   3.665   9.898  1.00  0.00     0.210 HD
ENDBRANCH   3  33
BRANCH  22  35
HETATM   35  O3  UNL     1      -0.193   4.524  10.869  1.00  0.00    -0.391 OA
HETATM   36  H47 UNL     1       0.621   4.311  10.365  1.00  0.00     0.210 HD
ENDBRANCH  22  35
BRANCH  16  37
HETATM   37  O2  UNL     1      -3.704   8.092  15.091  1.00  0.00    -0.395 OA
HETATM   38  H36 UNL     1      -4.215   8.919  15.135  1.00  0.00     0.210 HD
ENDBRANCH  16  37
TORSDOF 9
ENDMDL
MODEL 6
REMARK minimizedAffinity -8.914958
REMARK  9 active torsions:
REMARK  status: ('A' for Active; 'I' for Inactive)
REMARK    1  A    between atoms: C2_2  and  C30_33 
REMARK    2  A    between atoms: C3_3  and  C4_4 
REMARK    3  A    between atoms: C4_4  and  C5_5 
REMARK    4  A    between atoms: C5_5  and  C6_6 
REMARK    5  A    between atoms: C6_6  and  C8_8 
REMARK    6  A    between atoms: C10_10  and  O1_11 
REMARK    7  A    between atoms: C23_24  and  O2_25 
REMARK    8  A    between atoms: C29_31  and  O3_32 
REMARK    9  A    between atoms: C30_33  and  O4_34 
ROOT
HETATM    1  C8  UNL     1      -2.853   5.188  13.265  1.00  0.00     0.001 C 
HETATM    2  C9  UNL     1      -2.794   4.372  11.945  1.00  0.00     0.038 C 
HETATM    3  C10 UNL     1      -1.412   4.660  11.313  1.00  0.00     0.132 C 
HETATM    4  C11 UNL     1      -0.561   5.228  12.477  1.00  0.00     0.016 C 
HETATM    5  C12 UNL     1      -0.065   4.039  13.371  1.00  0.00     0.023 C 
HETATM    6  C13 UNL     1       0.693   6.040  12.161  1.00  0.00    -0.037 C 
HETATM    7  C14 UNL     1       1.137   6.960  13.062  1.00  0.00    -0.065 C 
HETATM    8  C15 UNL     1       0.318   7.307  14.321  1.00  0.00     0.036 C 
HETATM    9  C16 UNL     1      -1.064   6.638  14.497  1.00  0.00     0.015 C 
HETATM   10  C17 UNL     1      -1.636   6.159  13.159  1.00  0.00    -0.026 C 
HETATM   11  C18 UNL     1      -1.986   7.411  12.308  1.00  0.00     0.016 C 
HETATM   12  C19 UNL     1       2.457   7.757  12.837  1.00  0.00    -0.016 C 
HETATM   13  C20 UNL     1       2.009   9.168  12.385  1.00  0.00     0.020 C 
HETATM   14  C21 UNL     1       3.274   7.852  14.163  1.00  0.00     0.016 C 
HETATM   15  C22 UNL     1       4.800   7.761  14.026  1.00  0.00     0.033 C 
HETATM   16  C23 UNL     1       5.340   8.385  12.746  1.00  0.00     0.126 C 
HETATM   17  C24 UNL     1       4.753   7.702  11.472  1.00  0.00    -0.017 C 
HETATM   18  C25 UNL     1       5.734   6.560  11.074  1.00  0.00     0.018 C 
HETATM   19  C26 UNL     1       4.732   8.681  10.279  1.00  0.00     0.018 C 
HETATM   20  C27 UNL     1       3.353   7.033  11.771  1.00  0.00     0.011 C 
HETATM   21  C28 UNL     1       2.539   6.703  10.509  1.00  0.00     0.043 C 
HETATM   22  C29 UNL     1       1.371   5.771  10.834  1.00  0.00     0.148 C 
ENDROOT
BRANCH   1  23
HETATM   23  C6  UNL     1      -4.259   5.704  13.697  1.00  0.00    -0.013 C 
HETATM   24  C7  UNL     1      -4.503   7.211  13.538  1.00  0.00     0.010 C 
BRANCH  23  25
HETATM   25  C5  UNL     1      -5.354   4.928  12.903  1.00  0.00     0.008 C 
BRANCH  25  26
HETATM   26  C4  UNL     1      -6.557   4.479  13.750  1.00  0.00     0.028 C 
BRANCH  26  27
HETATM   27  C3  UNL     1      -7.660   5.493  13.848  1.00  0.00    -0.022 C 
HETATM   28  C2  UNL     1      -7.988   6.276  14.895  1.00  0.00    -0.064 C 
HETATM   29  C1  UNL     1      -7.279   6.296  16.224  1.00  0.00     0.045 C 
BRANCH  28  30
HETATM   30  C30 UNL     1      -9.159   7.226  14.803  1.00  0.00     0.197 C 
BRANCH  30  31
HETATM   31  O4  UNL     1     -10.322   6.586  15.302  1.00  0.00    -0.397 OA
HETATM   32  H50 UNL     1     -10.075   6.181  16.151  1.00  0.00     0.209 HD
ENDBRANCH  30  31
ENDBRANCH  28  30
ENDBRANCH  26  27
ENDBRANCH  25  26
ENDBRANCH  23  25
ENDBRANCH   1  23
BRANCH   3  33
HETATM   33  O1  UNL     1      -0.843   3.493  10.732  1.00  0.00    -0.394 OA
HETATM   34  H17 UNL     1      -1.513   3.111  10.137  1.00  0.00     0.210 HD
ENDBRANCH   3  33
BRANCH  22  35
HETATM   35  O3  UNL     1       1.854   4.432  10.816  1.00  0.00    -0.391 OA
HETATM   36  H47 UNL     1       1.060   3.862  10.750  1.00  0.00     0.210 HD
ENDBRANCH  22  35
BRANCH  16  37
HETATM   37  O2  UNL     1       5.078   9.786  12.773  1.00  0.00    -0.395 OA
HETATM   38  H36 UNL     1       5.523  10.152  13.557  1.00  0.00     0.210 HD
ENDBRANCH  16  37
TORSDOF 9
ENDMDL
MODEL 7
REMARK minimizedAffinity -8.77483845
REMARK  9 active torsions:
REMARK  status: ('A' for Active; 'I' for Inactive)
REMARK    1  A    between atoms: C2_2  and  C30_33 
REMARK    2  A    between atoms: C3_3  and  C4_4 
REMARK    3  A    between atoms: C4_4  and  C5_5 
REMARK    4  A    between atoms: C5_5  and  C6_6 
REMARK    5  A    between atoms: C6_6  and  C8_8 
REMARK    6  A    between atoms: C10_10  and  O1_11 
REMARK    7  A    between atoms: C23_24  and  O2_25 
REMARK    8  A    between atoms: C29_31  and  O3_32 
REMARK    9  A    between atoms: C30_33  and  O4_34 
ROOT
HETATM    1  C8  UNL     1      -1.273   6.967  13.429  1.00  0.00     0.001 C 
HETATM    2  C9  UNL     1      -1.207   6.780  14.969  1.00  0.00     0.038 C 
HETATM    3  C10 UNL     1       0.246   7.101  15.388  1.00  0.00     0.132 C 
HETATM    4  C11 UNL     1       0.830   7.899  14.194  1.00  0.00     0.016 C 
HETATM    5  C12 UNL     1       0.326   9.381  14.279  1.00  0.00     0.023 C 
HETATM    6  C13 UNL     1       2.345   8.000  14.030  1.00  0.00    -0.037 C 
HETATM    7  C14 UNL     1       2.869   8.204  12.791  1.00  0.00    -0.065 C 
HETATM    8  C15 UNL     1       1.981   8.179  11.531  1.00  0.00     0.036 C 
HETATM    9  C16 UNL     1       0.482   7.841  11.705  1.00  0.00     0.015 C 
HETATM   10  C17 UNL     1       0.224   7.065  13.001  1.00  0.00    -0.026 C 
HETATM   11  C18 UNL     1       0.863   5.656  12.855  1.00  0.00     0.016 C 
HETATM   12  C19 UNL     1       4.399   8.404  12.570  1.00  0.00    -0.016 C 
HETATM   13  C20 UNL     1       4.909   7.055  12.007  1.00  0.00     0.020 C 
HETATM   14  C21 UNL     1       4.662   9.548  11.542  1.00  0.00     0.016 C 
HETATM   15  C22 UNL     1       5.874  10.446  11.823  1.00  0.00     0.033 C 
HETATM   16  C23 UNL     1       7.042   9.714  12.472  1.00  0.00     0.126 C 
HETATM   17  C24 UNL     1       6.647   9.085  13.843  1.00  0.00    -0.017 C 
HETATM   18  C25 UNL     1       6.977  10.140  14.941  1.00  0.00     0.018 C 
HETATM   19  C26 UNL     1       7.521   7.852  14.159  1.00  0.00     0.018 C 
HETATM   20  C27 UNL     1       5.094   8.801  13.920  1.00  0.00     0.011 C 
HETATM   21  C28 UNL     1       4.694   7.833  15.044  1.00  0.00     0.043 C 
HETATM   22  C29 UNL     1       3.184   7.857  15.283  1.00  0.00     0.148 C 
ENDROOT
BRANCH   1  23
HETATM   23  C6  UNL     1      -2.271   6.047  12.663  1.00  0.00    -0.013 C 
HETATM   24  C7  UNL     1      -1.645   4.952  11.788  1.00  0.00     0.010 C 
BRANCH  23  25
HETATM   25  C5  UNL     1      -3.242   5.382  13.687  1.00  0.00     0.008 C 
BRANCH  25  26
HETATM   26  C4  UNL     1      -4.721   5.396  13.264  1.00  0.00     0.028 C 
BRANCH  26  27
HETATM   27  C3  UNL     1      -5.235   4.077  12.762  1.00  0.00    -0.022 C 
HETATM   28  C2  UNL     1      -6.508   3.634  12.722  1.00  0.00    -0.064 C 
HETATM   29  C1  UNL     1      -7.715   4.408  13.182  1.00  0.00     0.045 C 
BRANCH  28  30
HETATM   30  C30 UNL     1      -6.821   2.254  12.196  1.00  0.00     0.197 C 
BRANCH  30  31
HETATM   31  O4  UNL     1      -8.129   1.882  12.603  1.00  0.00    -0.397 OA
HETATM   32  H50 UNL     1      -8.708   2.636  12.399  1.00  0.00     0.209 HD
ENDBRANCH  30  31
ENDBRANCH  28  30
ENDBRANCH  26  27
ENDBRANCH  25  26
ENDBRANCH  23  25
ENDBRANCH   1  23
BRANCH   3  33
HETATM   33  O1  UNL     1       0.296   7.825  16.612  1.00  0.00    -0.394 OA
HETATM   34  H17 UNL     1      -0.235   7.330  17.261  1.00  0.00     0.210 HD
ENDBRANCH   3  33
BRANCH  22  35
HETATM   35  O3  UNL     1       2.893   8.934  16.168  1.00  0.00    -0.391 OA
HETATM   36  H47 UNL     1       1.993   8.758  16.514  1.00  0.00     0.210 HD
ENDBRANCH  22  35
BRANCH  16  37
HETATM   37  O2  UNL     1       7.538   8.740  11.557  1.00  0.00    -0.395 OA
HETATM   38  H36 UNL     1       7.821   9.209  10.753  1.00  0.00     0.210 HD
ENDBRANCH  16  37
TORSDOF 9
ENDMDL
MODEL 8
REMARK minimizedAffinity -8.74519253
REMARK  9 active torsions:
REMARK  status: ('A' for Active; 'I' for Inactive)
REMARK    1  A    between atoms: C2_2  and  C30_33 
REMARK    2  A    between atoms: C3_3  and  C4_4 
REMARK    3  A    between atoms: C4_4  and  C5_5 
REMARK    4  A    between atoms: C5_5  and  C6_6 
REMARK    5  A    between atoms: C6_6  and  C8_8 
REMARK    6  A    between atoms: C10_10  and  O1_11 
REMARK    7  A    between atoms: C23_24  and  O2_25 
REMARK    8  A    between atoms: C29_31  and  O3_32 
REMARK    9  A    between atoms: C30_33  and  O4_34 
ROOT
HETATM    1  C8  UNL     1      -5.894   7.108  14.960  1.00  0.00     0.001 C 
HETATM    2  C9  UNL     1      -5.666   8.527  15.548  1.00  0.00     0.038 C 
HETATM    3  C10 UNL     1      -4.221   8.930  15.171  1.00  0.00     0.132 C 
HETATM    4  C11 UNL     1      -3.838   7.974  14.013  1.00  0.00     0.016 C 
HETATM    5  C12 UNL     1      -4.484   8.502  12.685  1.00  0.00     0.023 C 
HETATM    6  C13 UNL     1      -2.363   7.755  13.681  1.00  0.00    -0.037 C 
HETATM    7  C14 UNL     1      -1.981   6.592  13.084  1.00  0.00    -0.065 C 
HETATM    8  C15 UNL     1      -2.975   5.432  12.878  1.00  0.00     0.036 C 
HETATM    9  C16 UNL     1      -4.407   5.595  13.437  1.00  0.00     0.015 C 
HETATM   10  C17 UNL     1      -4.462   6.634  14.561  1.00  0.00    -0.026 C 
HETATM   11  C18 UNL     1      -3.696   6.061  15.786  1.00  0.00     0.016 C 
HETATM   12  C19 UNL     1      -0.507   6.344  12.641  1.00  0.00    -0.016 C 
HETATM   13  C20 UNL     1       0.086   5.397  13.711  1.00  0.00     0.020 C 
HETATM   14  C21 UNL     1      -0.462   5.664  11.237  1.00  0.00     0.016 C 
HETATM   15  C22 UNL     1       0.671   6.112  10.304  1.00  0.00     0.033 C 
HETATM   16  C23 UNL     1       1.964   6.458  11.030  1.00  0.00     0.126 C 
HETATM   17  C24 UNL     1       1.766   7.619  12.053  1.00  0.00    -0.017 C 
HETATM   18  C25 UNL     1       2.085   8.946  11.302  1.00  0.00     0.018 C 
HETATM   19  C26 UNL     1       2.789   7.524  13.205  1.00  0.00     0.018 C 
HETATM   20  C27 UNL     1       0.265   7.707  12.541  1.00  0.00     0.011 C 
HETATM   21  C28 UNL     1       0.075   8.537  13.820  1.00  0.00     0.043 C 
HETATM   22  C29 UNL     1      -1.401   8.864  14.051  1.00  0.00     0.148 C 
ENDROOT
BRANCH   1  23
HETATM   23  C6  UNL     1      -6.858   6.176  15.755  1.00  0.00    -0.013 C 
HETATM   24  C7  UNL     1      -7.718   6.856  16.830  1.00  0.00     0.010 C 
BRANCH  23  25
HETATM   25  C5  UNL     1      -7.794   5.434  14.752  1.00  0.00     0.008 C 
BRANCH  25  26
HETATM   26  C4  UNL     1      -8.157   6.248  13.499  1.00  0.00     0.028 C 
BRANCH  26  27
HETATM   27  C3  UNL     1      -9.633   6.382  13.252  1.00  0.00    -0.022 C 
HETATM   28  C2  UNL     1     -10.487   7.297  13.752  1.00  0.00    -0.064 C 
HETATM   29  C1  UNL     1     -10.114   8.416  14.689  1.00  0.00     0.045 C 
BRANCH  28  30
HETATM   30  C30 UNL     1     -11.954   7.249  13.398  1.00  0.00     0.197 C 
BRANCH  30  31
HETATM   31  O4  UNL     1     -12.225   8.210  12.391  1.00  0.00    -0.397 OA
HETATM   32  H50 UNL     1     -11.544   8.096  11.706  1.00  0.00     0.209 HD
ENDBRANCH  30  31
ENDBRANCH  28  30
ENDBRANCH  26  27
ENDBRANCH  25  26
ENDBRANCH  23  25
ENDBRANCH   1  23
BRANCH   3  33
HETATM   33  O1  UNL     1      -4.133  10.303  14.807  1.00  0.00    -0.394 OA
HETATM   34  H17 UNL     1      -4.548  10.818  15.522  1.00  0.00     0.210 HD
ENDBRANCH   3  33
BRANCH  22  35
HETATM   35  O3  UNL     1      -1.719  10.031  13.301  1.00  0.00    -0.391 OA
HETATM   36  H47 UNL     1      -2.560  10.368  13.676  1.00  0.00     0.210 HD
ENDBRANCH  22  35
BRANCH  16  37
HETATM   37  O2  UNL     1       2.471   5.278  11.649  1.00  0.00    -0.395 OA
HETATM   38  H36 UNL     1       2.628   4.622  10.948  1.00  0.00     0.210 HD
ENDBRANCH  16  37
TORSDOF 9
ENDMDL
MODEL 9
REMARK minimizedAffinity -8.72922039
REMARK  9 active torsions:
REMARK  status: ('A' for Active; 'I' for Inactive)
REMARK    1  A    between atoms: C2_2  and  C30_33 
REMARK    2  A    between atoms: C3_3  and  C4_4 
REMARK    3  A    between atoms: C4_4  and  C5_5 
REMARK    4  A    between atoms: C5_5  and  C6_6 
REMARK    5  A    between atoms: C6_6  and  C8_8 
REMARK    6  A    between atoms: C10_10  and  O1_11 
REMARK    7  A    between atoms: C23_24  and  O2_25 
REMARK    8  A    between atoms: C29_31  and  O3_32 
REMARK    9  A    between atoms: C30_33  and  O4_34 
ROOT
HETATM    1  C8  UNL     1      -5.763   5.587  14.172  1.00  0.00     0.001 C 
HETATM    2  C9  UNL     1      -5.427   6.381  15.463  1.00  0.00     0.038 C 
HETATM    3  C10 UNL     1      -6.693   7.194  15.819  1.00  0.00     0.132 C 
HETATM    4  C11 UNL     1      -7.835   6.504  15.030  1.00  0.00     0.016 C 
HETATM    5  C12 UNL     1      -8.275   5.211  15.801  1.00  0.00     0.023 C 
HETATM    6  C13 UNL     1      -9.130   7.270  14.763  1.00  0.00    -0.037 C 
HETATM    7  C14 UNL     1      -9.890   6.938  13.684  1.00  0.00    -0.065 C 
HETATM    8  C15 UNL     1      -9.398   5.913  12.642  1.00  0.00     0.036 C 
HETATM    9  C16 UNL     1      -7.978   5.326  12.814  1.00  0.00     0.015 C 
HETATM   10  C17 UNL     1      -7.088   6.236  13.668  1.00  0.00    -0.026 C 
HETATM   11  C18 UNL     1      -6.809   7.534  12.859  1.00  0.00     0.016 C 
HETATM   12  C19 UNL     1     -11.263   7.621  13.406  1.00  0.00    -0.016 C 
HETATM   13  C20 UNL     1     -10.992   8.630  12.265  1.00  0.00     0.020 C 
HETATM   14  C21 UNL     1     -12.320   6.567  12.951  1.00  0.00     0.016 C 
HETATM   15  C22 UNL     1     -13.752   6.781  13.459  1.00  0.00     0.033 C 
HETATM   16  C23 UNL     1     -14.141   8.247  13.597  1.00  0.00     0.126 C 
HETATM   17  C24 UNL     1     -13.214   9.005  14.596  1.00  0.00    -0.017 C 
HETATM   18  C25 UNL     1     -13.886   8.917  15.999  1.00  0.00     0.018 C 
HETATM   19  C26 UNL     1     -13.139  10.508  14.253  1.00  0.00     0.018 C 
HETATM   20  C27 UNL     1     -11.800   8.308  14.711  1.00  0.00     0.011 C 
HETATM   21  C28 UNL     1     -10.718   9.197  15.344  1.00  0.00     0.043 C 
HETATM   22  C29 UNL     1      -9.487   8.378  15.732  1.00  0.00     0.148 C 
ENDROOT
BRANCH   1  23
HETATM   23  C6  UNL     1      -4.576   5.317  13.197  1.00  0.00    -0.013 C 
HETATM   24  C7  UNL     1      -3.170   5.411  13.805  1.00  0.00     0.010 C 
BRANCH  23  25
HETATM   25  C5  UNL     1      -4.755   3.908  12.551  1.00  0.00     0.008 C 
BRANCH  25  26
HETATM   26  C4  UNL     1      -4.309   3.821  11.082  1.00  0.00     0.028 C 
BRANCH  26  27
HETATM   27  C3  UNL     1      -2.930   3.259  10.884  1.00  0.00    -0.022 C 
HETATM   28  C2  UNL     1      -2.482   2.018  11.162  1.00  0.00    -0.064 C 
HETATM   29  C1  UNL     1      -3.312   0.902  11.740  1.00  0.00     0.045 C 
BRANCH  28  30
HETATM   30  C30 UNL     1      -1.040   1.651  10.910  1.00  0.00     0.197 C 
BRANCH  30  31
HETATM   31  O4  UNL     1      -0.940   0.963   9.674  1.00  0.00    -0.397 OA
HETATM   32  H50 UNL     1      -1.442   1.483   9.024  1.00  0.00     0.209 HD
ENDBRANCH  30  31
ENDBRANCH  28  30
ENDBRANCH  26  27
ENDBRANCH  25  26
ENDBRANCH  23  25
ENDBRANCH   1  23
BRANCH   3  33
HETATM   33  O1  UNL     1      -6.928   7.220  17.222  1.00  0.00    -0.394 OA
HETATM   34  H17 UNL     1      -6.102   7.510  17.647  1.00  0.00     0.210 HD
ENDBRANCH   3  33
BRANCH  22  35
HETATM   35  O3  UNL     1      -9.716   7.818  17.021  1.00  0.00    -0.391 OA
HETATM   36  H47 UNL     1      -8.835   7.544  17.353  1.00  0.00     0.210 HD
ENDBRANCH  22  35
BRANCH  16  37
HETATM   37  O2  UNL     1     -14.140   8.846  12.303  1.00  0.00    -0.395 OA
HETATM   38  H36 UNL     1     -14.782   8.363  11.755  1.00  0.00     0.210 HD
ENDBRANCH  16  37
TORSDOF 9
ENDMDL
