MODEL 1
REMARK minimizedAffinity -7.20986271
REMARK CNNscore 0.595835268
REMARK CNNaffinity 7.31396723
REMARK  20 active torsions:
REMARK  status: ('A' for Active; 'I' for Inactive)
REMARK    1  A    between atoms: C2_2  and  C3_3 
REMARK    2  A    between atoms: C2_2  and  C27_34 
REMARK    3  A    between atoms: C4_4  and  C5_5 
REMARK    4  A    between atoms: C6_6  and  C7_7 
REMARK    5  A    between atoms: C6_6  and  C10_12 
REMARK    6  A    between atoms: C7_7  and  O1_8 
REMARK    7  A    between atoms: O1_8  and  C8_9 
REMARK    8  A    between atoms: C8_9  and  C9_10 
REMARK    9  A    between atoms: C9_10  and  O2_11 
REMARK   10  A    between atoms: C14_16  and  O3_17 
REMARK   11  A    between atoms: C15_18  and  C16_19 
REMARK   12  A    between atoms: C16_19  and  C17_20 
REMARK   13  A    between atoms: C17_20  and  C18_21 
REMARK   14  A    between atoms: C18_21  and  O4_22 
REMARK   15  A    between atoms: C20_24  and  C22_26 
REMARK   16  A    between atoms: C25_30  and  O6_31 
REMARK   17  A    between atoms: C25_30  and  C26_32 
REMARK   18  A    between atoms: C26_32  and  O7_33 
REMARK   19  A    between atoms: C27_34  and  C28_35 
REMARK   20  A    between atoms: C28_35  and  C29_36 
ROOT
HETATM    1  C10 UNL     1      -2.602  49.536 -20.055  1.00  0.00     0.046 C 
HETATM    2  C11 UNL     1      -2.259  48.253 -20.815  1.00  0.00     0.013 C 
HETATM    3  C12 UNL     1      -3.276  48.190 -21.941  1.00  0.00     0.017 C 
HETATM    4  C13 UNL     1      -4.632  48.712 -21.385  1.00  0.00     0.027 C 
HETATM    5  C14 UNL     1      -4.144  49.649 -20.202  1.00  0.00     0.138 C 
HETATM    6  C15 UNL     1      -5.601  47.586 -20.806  1.00  0.00     0.029 C 
HETATM    7  C19 UNL     1      -6.735  48.293 -20.013  1.00  0.00    -0.066 C 
HETATM    8  C20 UNL     1      -7.131  48.155 -18.718  1.00  0.00    -0.021 C 
HETATM    9  C21 UNL     1      -8.311  48.854 -18.081  1.00  0.00     0.052 C 
HETATM   10  C23 UNL     1      -7.415  49.389 -20.835  1.00  0.00     0.038 C 
HETATM   11  C24 UNL     1      -6.984  49.490 -22.291  1.00  0.00     0.045 C 
HETATM   12  C25 UNL     1      -5.455  49.410 -22.556  1.00  0.00     0.090 C 
ENDROOT
BRANCH   5  13
HETATM   13  O3  UNL     1      -4.606  50.986 -20.247  1.00  0.00    -0.394 OA
HETATM   14  H19 UNL     1      -4.587  51.267 -21.187  1.00  0.00     0.210 HD
ENDBRANCH   5  13
BRANCH   6  15
HETATM   15  C16 UNL     1      -4.916  46.330 -20.212  1.00  0.00     0.012 C 
BRANCH  15  16
HETATM   16  C17 UNL     1      -4.896  45.085 -21.123  1.00  0.00     0.027 C 
BRANCH  16  17
HETATM   17  C18 UNL     1      -6.253  44.413 -21.318  1.00  0.00     0.164 C 
BRANCH  17  18
HETATM   18  O4  UNL     1      -6.121  43.231 -22.096  1.00  0.00    -0.401 OA
HETATM   19  H27 UNL     1      -5.641  42.584 -21.550  1.00  0.00     0.209 HD
ENDBRANCH  17  18
ENDBRANCH  16  17
ENDBRANCH  15  16
ENDBRANCH   6  15
BRANCH  12  20
HETATM   20  O6  UNL     1      -4.966  50.752 -22.760  1.00  0.00    -0.387 OA
HETATM   21  H36 UNL     1      -5.380  51.045 -23.600  1.00  0.00     0.210 HD
ENDBRANCH  12  20
BRANCH  12  22
HETATM   22  C26 UNL     1      -5.289  48.707 -23.947  1.00  0.00     0.202 C 
BRANCH  22  23
HETATM   23  O7  UNL     1      -6.290  49.211 -24.842  1.00  0.00    -0.398 OA
HETATM   24  H39 UNL     1      -6.202  48.709 -25.672  1.00  0.00     0.209 HD
ENDBRANCH  22  23
ENDBRANCH  12  22
BRANCH   1  25
HETATM   25  C6  UNL     1      -1.757  50.769 -20.409  1.00  0.00    -0.050 C 
HETATM   26  C5  UNL     1      -1.312  51.036 -21.660  1.00  0.00     0.005 C 
BRANCH  26  27
HETATM   27  C4  UNL     1      -1.463  50.233 -22.855  1.00  0.00     0.001 C 
HETATM   28  C3  UNL     1      -1.843  50.591 -24.094  1.00  0.00     0.006 C 
BRANCH  28  29
HETATM   29  C2  UNL     1      -2.203  51.873 -24.702  1.00  0.00    -0.067 C 
HETATM   30  C1  UNL     1      -3.261  51.890 -25.534  1.00  0.00     0.019 C 
BRANCH  29  31
HETATM   31  C27 UNL     1      -1.348  53.102 -24.441  1.00  0.00     0.041 C 
BRANCH  31  32
HETATM   32  C28 UNL     1       0.115  53.112 -24.934  1.00  0.00     0.032 C 
BRANCH  32  33
HETATM   33  C29 UNL     1       0.259  52.740 -26.387  1.00  0.00    -0.024 C 
HETATM   34  C30 UNL     1       1.215  51.985 -26.964  1.00  0.00    -0.091 C 
HETATM   35  C31 UNL     1       1.197  51.736 -28.451  1.00  0.00     0.042 C 
HETATM   36  C32 UNL     1       2.358  51.325 -26.246  1.00  0.00     0.042 C 
ENDBRANCH  32  33
ENDBRANCH  31  32
ENDBRANCH  29  31
ENDBRANCH  28  29
ENDBRANCH  26  27
BRANCH  25  37
HETATM   37  C7  UNL     1      -1.441  51.721 -19.263  1.00  0.00     0.202 C 
BRANCH  37  38
HETATM   38  O1  UNL     1      -0.143  51.491 -18.709  1.00  0.00    -0.385 OA
BRANCH  38  39
HETATM   39  C8  UNL     1       0.620  52.691 -18.636  1.00  0.00     0.194 C 
BRANCH  39  40
HETATM   40  C9  UNL     1       1.170  53.023 -20.018  1.00  0.00     0.190 C 
BRANCH  40  41
HETATM   41  O2  UNL     1       1.558  54.390 -20.095  1.00  0.00    -0.399 OA
HETATM   42  H12 UNL     1       0.743  54.919 -20.110  1.00  0.00     0.209 HD
ENDBRANCH  40  41
ENDBRANCH  39  40
ENDBRANCH  38  39
ENDBRANCH  37  38
ENDBRANCH  25  37
ENDBRANCH   1  25
BRANCH   8  43
HETATM   43  C22 UNL     1      -6.388  47.375 -17.688  1.00  0.00     0.265 C 
HETATM   44  O5  UNL     1      -6.666  46.215 -17.408  1.00  0.00    -0.302 OA
ENDBRANCH   8  43
TORSDOF 20
ENDMDL
MODEL 2
REMARK minimizedAffinity -6.55838776
REMARK CNNscore 0.529246986
REMARK CNNaffinity 6.35407114
REMARK  20 active torsions:
REMARK  status: ('A' for Active; 'I' for Inactive)
REMARK    1  A    between atoms: C2_2  and  C3_3 
REMARK    2  A    between atoms: C2_2  and  C27_34 
REMARK    3  A    between atoms: C4_4  and  C5_5 
REMARK    4  A    between atoms: C6_6  and  C7_7 
REMARK    5  A    between atoms: C6_6  and  C10_12 
REMARK    6  A    between atoms: C7_7  and  O1_8 
REMARK    7  A    between atoms: O1_8  and  C8_9 
REMARK    8  A    between atoms: C8_9  and  C9_10 
REMARK    9  A    between atoms: C9_10  and  O2_11 
REMARK   10  A    between atoms: C14_16  and  O3_17 
REMARK   11  A    between atoms: C15_18  and  C16_19 
REMARK   12  A    between atoms: C16_19  and  C17_20 
REMARK   13  A    between atoms: C17_20  and  C18_21 
REMARK   14  A    between atoms: C18_21  and  O4_22 
REMARK   15  A    between atoms: C20_24  and  C22_26 
REMARK   16  A    between atoms: C25_30  and  O6_31 
REMARK   17  A    between atoms: C25_30  and  C26_32 
REMARK   18  A    between atoms: C26_32  and  O7_33 
REMARK   19  A    between atoms: C27_34  and  C28_35 
REMARK   20  A    between atoms: C28_35  and  C29_36 
ROOT
HETATM    1  C10 UNL     1       2.296  53.330 -10.183  1.00  0.00     0.046 C 
HETATM    2  C11 UNL     1       1.588  54.465 -10.926  1.00  0.00     0.013 C 
HETATM    3  C12 UNL     1       0.854  55.234  -9.841  1.00  0.00     0.017 C 
HETATM    4  C13 UNL     1       0.315  54.201  -8.810  1.00  0.00     0.027 C 
HETATM    5  C14 UNL     1       1.331  53.000  -9.010  1.00  0.00     0.138 C 
HETATM    6  C15 UNL     1      -1.171  53.690  -9.081  1.00  0.00     0.029 C 
HETATM    7  C19 UNL     1      -1.424  52.452  -8.176  1.00  0.00    -0.066 C 
HETATM    8  C20 UNL     1      -1.796  51.182  -8.494  1.00  0.00    -0.021 C 
HETATM    9  C21 UNL     1      -2.086  50.078  -7.502  1.00  0.00     0.052 C 
HETATM   10  C23 UNL     1      -1.079  52.730  -6.712  1.00  0.00     0.038 C 
HETATM   11  C24 UNL     1      -0.709  54.168  -6.379  1.00  0.00     0.045 C 
HETATM   12  C25 UNL     1       0.271  54.865  -7.363  1.00  0.00     0.090 C 
ENDROOT
BRANCH   5  13
HETATM   13  O3  UNL     1       2.000  52.559  -7.843  1.00  0.00    -0.394 OA
HETATM   14  H19 UNL     1       2.221  53.357  -7.318  1.00  0.00     0.210 HD
ENDBRANCH   5  13
BRANCH   6  15
HETATM   15  C16 UNL     1      -1.630  53.666 -10.560  1.00  0.00     0.012 C 
BRANCH  15  16
HETATM   16  C17 UNL     1      -3.097  54.069 -10.812  1.00  0.00     0.027 C 
BRANCH  16  17
HETATM   17  C18 UNL     1      -3.857  53.153 -11.769  1.00  0.00     0.164 C 
BRANCH  17  18
HETATM   18  O4  UNL     1      -4.226  53.853 -12.949  1.00  0.00    -0.401 OA
HETATM   19  H27 UNL     1      -3.405  54.036 -13.439  1.00  0.00     0.209 HD
ENDBRANCH  17  18
ENDBRANCH  16  17
ENDBRANCH  15  16
ENDBRANCH   6  15
BRANCH  12  20
HETATM   20  O6  UNL     1       1.589  54.837  -6.777  1.00  0.00    -0.387 OA
HETATM   21  H36 UNL     1       1.525  55.419  -5.988  1.00  0.00     0.210 HD
ENDBRANCH  12  20
BRANCH  12  22
HETATM   22  C26 UNL     1      -0.129  56.380  -7.379  1.00  0.00     0.202 C 
BRANCH  22  23
HETATM   23  O7  UNL     1      -0.468  56.783  -6.044  1.00  0.00    -0.398 OA
HETATM   24  H39 UNL     1      -0.775  57.705  -6.099  1.00  0.00     0.209 HD
ENDBRANCH  22  23
ENDBRANCH  12  22
BRANCH   1  25
HETATM   25  C6  UNL     1       3.775  53.569  -9.848  1.00  0.00    -0.050 C 
HETATM   26  C5  UNL     1       4.310  54.800  -9.665  1.00  0.00     0.005 C 
BRANCH  26  27
HETATM   27  C4  UNL     1       3.664  56.088  -9.806  1.00  0.00     0.001 C 
HETATM   28  C3  UNL     1       3.560  57.103  -8.930  1.00  0.00     0.006 C 
BRANCH  28  29
HETATM   29  C2  UNL     1       4.065  57.311  -7.571  1.00  0.00    -0.067 C 
HETATM   30  C1  UNL     1       3.249  57.927  -6.695  1.00  0.00     0.019 C 
BRANCH  29  31
HETATM   31  C27 UNL     1       5.485  56.903  -7.219  1.00  0.00     0.041 C 
BRANCH  31  32
HETATM   32  C28 UNL     1       6.119  57.448  -5.922  1.00  0.00     0.032 C 
BRANCH  32  33
HETATM   33  C29 UNL     1       7.491  56.890  -5.646  1.00  0.00    -0.024 C 
HETATM   34  C30 UNL     1       8.584  57.543  -5.202  1.00  0.00    -0.091 C 
HETATM   35  C31 UNL     1       9.884  56.808  -5.002  1.00  0.00     0.042 C 
HETATM   36  C32 UNL     1       8.649  59.007  -4.863  1.00  0.00     0.042 C 
ENDBRANCH  32  33
ENDBRANCH  31  32
ENDBRANCH  29  31
ENDBRANCH  28  29
ENDBRANCH  26  27
BRANCH  25  37
HETATM   37  C7  UNL     1       4.645  52.327  -9.709  1.00  0.00     0.202 C 
BRANCH  37  38
HETATM   38  O1  UNL     1       6.036  52.646  -9.616  1.00  0.00    -0.385 OA
BRANCH  38  39
HETATM   39  C8  UNL     1       6.816  51.508  -9.263  1.00  0.00     0.194 C 
BRANCH  39  40
HETATM   40  C9  UNL     1       6.627  50.422 -10.315  1.00  0.00     0.190 C 
BRANCH  40  41
HETATM   41  O2  UNL     1       7.883  49.958 -10.796  1.00  0.00    -0.399 OA
HETATM   42  H12 UNL     1       8.256  50.662 -11.352  1.00  0.00     0.209 HD
ENDBRANCH  40  41
ENDBRANCH  39  40
ENDBRANCH  38  39
ENDBRANCH  37  38
ENDBRANCH  25  37
ENDBRANCH   1  25
BRANCH   8  43
HETATM   43  C22 UNL     1      -1.867  50.648  -9.883  1.00  0.00     0.265 C 
HETATM   44  O5  UNL     1      -0.869  50.385 -10.545  1.00  0.00    -0.302 OA
ENDBRANCH   8  43
TORSDOF 20
ENDMDL
MODEL 3
REMARK minimizedAffinity -7.03354549
REMARK CNNscore 0.47467187
REMARK CNNaffinity 6.40069723
REMARK  20 active torsions:
REMARK  status: ('A' for Active; 'I' for Inactive)
REMARK    1  A    between atoms: C2_2  and  C3_3 
REMARK    2  A    between atoms: C2_2  and  C27_34 
REMARK    3  A    between atoms: C4_4  and  C5_5 
REMARK    4  A    between atoms: C6_6  and  C7_7 
REMARK    5  A    between atoms: C6_6  and  C10_12 
REMARK    6  A    between atoms: C7_7  and  O1_8 
REMARK    7  A    between atoms: O1_8  and  C8_9 
REMARK    8  A    between atoms: C8_9  and  C9_10 
REMARK    9  A    between atoms: C9_10  and  O2_11 
REMARK   10  A    between atoms: C14_16  and  O3_17 
REMARK   11  A    between atoms: C15_18  and  C16_19 
REMARK   12  A    between atoms: C16_19  and  C17_20 
REMARK   13  A    between atoms: C17_20  and  C18_21 
REMARK   14  A    between atoms: C18_21  and  O4_22 
REMARK   15  A    between atoms: C20_24  and  C22_26 
REMARK   16  A    between atoms: C25_30  and  O6_31 
REMARK   17  A    between atoms: C25_30  and  C26_32 
REMARK   18  A    between atoms: C26_32  and  O7_33 
REMARK   19  A    between atoms: C27_34  and  C28_35 
REMARK   20  A    between atoms: C28_35  and  C29_36 
ROOT
HETATM    1  C10 UNL     1      -6.800  47.063 -28.830  1.00  0.00     0.046 C 
HETATM    2  C11 UNL     1      -7.167  48.223 -29.758  1.00  0.00     0.013 C 
HETATM    3  C12 UNL     1      -8.675  48.132 -29.909  1.00  0.00     0.017 C 
HETATM    4  C13 UNL     1      -9.056  46.625 -29.965  1.00  0.00     0.027 C 
HETATM    5  C14 UNL     1      -7.844  45.967 -29.182  1.00  0.00     0.138 C 
HETATM    6  C15 UNL     1      -9.140  46.005 -31.432  1.00  0.00     0.029 C 
HETATM    7  C19 UNL     1      -9.204  44.459 -31.295  1.00  0.00    -0.066 C 
HETATM    8  C20 UNL     1      -8.401  43.489 -31.809  1.00  0.00    -0.021 C 
HETATM    9  C21 UNL     1      -8.617  41.999 -31.663  1.00  0.00     0.052 C 
HETATM   10  C23 UNL     1     -10.301  44.012 -30.326  1.00  0.00     0.038 C 
HETATM   11  C24 UNL     1     -11.212  45.113 -29.802  1.00  0.00     0.045 C 
HETATM   12  C25 UNL     1     -10.507  46.418 -29.340  1.00  0.00     0.090 C 
ENDROOT
BRANCH   5  13
HETATM   13  O3  UNL     1      -8.195  45.153 -28.079  1.00  0.00    -0.394 OA
HETATM   14  H19 UNL     1      -8.944  45.592 -27.622  1.00  0.00     0.210 HD
ENDBRANCH   5  13
BRANCH   6  15
HETATM   15  C16 UNL     1      -8.219  46.644 -32.501  1.00  0.00     0.012 C 
BRANCH  15  16
HETATM   16  C17 UNL     1      -8.869  46.902 -33.876  1.00  0.00     0.027 C 
BRANCH  16  17
HETATM   17  C18 UNL     1      -7.885  47.226 -34.998  1.00  0.00     0.164 C 
BRANCH  17  18
HETATM   18  O4  UNL     1      -8.291  46.614 -36.215  1.00  0.00    -0.401 OA
HETATM   19  H27 UNL     1      -9.100  47.070 -36.505  1.00  0.00     0.209 HD
ENDBRANCH  17  18
ENDBRANCH  16  17
ENDBRANCH  15  16
ENDBRANCH   6  15
BRANCH  12  20
HETATM   20  O6  UNL     1     -10.415  46.393 -27.901  1.00  0.00    -0.387 OA
HETATM   21  H36 UNL     1     -11.344  46.452 -27.589  1.00  0.00     0.210 HD
ENDBRANCH  12  20
BRANCH  12  22
HETATM   22  C26 UNL     1     -11.500  47.588 -29.658  1.00  0.00     0.202 C 
BRANCH  22  23
HETATM   23  O7  UNL     1     -11.862  48.234 -28.430  1.00  0.00    -0.398 OA
HETATM   24  H39 UNL     1     -12.528  48.909 -28.653  1.00  0.00     0.209 HD
ENDBRANCH  22  23
ENDBRANCH  12  22
BRANCH   1  25
HETATM   25  C6  UNL     1      -6.613  47.424 -27.350  1.00  0.00    -0.050 C 
HETATM   26  C5  UNL     1      -5.476  47.967 -26.850  1.00  0.00     0.005 C 
BRANCH  26  27
HETATM   27  C4  UNL     1      -4.237  48.245 -27.545  1.00  0.00     0.001 C 
HETATM   28  C3  UNL     1      -3.112  48.833 -27.102  1.00  0.00     0.006 C 
BRANCH  28  29
HETATM   29  C2  UNL     1      -2.703  49.366 -25.801  1.00  0.00    -0.067 C 
HETATM   30  C1  UNL     1      -2.066  50.552 -25.789  1.00  0.00     0.019 C 
BRANCH  29  31
HETATM   31  C27 UNL     1      -2.940  48.552 -24.540  1.00  0.00     0.041 C 
BRANCH  31  32
HETATM   32  C28 UNL     1      -3.425  49.274 -23.265  1.00  0.00     0.032 C 
BRANCH  32  33
HETATM   33  C29 UNL     1      -2.299  49.748 -22.382  1.00  0.00    -0.024 C 
HETATM   34  C30 UNL     1      -1.496  49.013 -21.588  1.00  0.00    -0.091 C 
HETATM   35  C31 UNL     1      -0.426  49.678 -20.759  1.00  0.00     0.042 C 
HETATM   36  C32 UNL     1      -1.550  47.519 -21.433  1.00  0.00     0.042 C 
ENDBRANCH  32  33
ENDBRANCH  31  32
ENDBRANCH  29  31
ENDBRANCH  28  29
ENDBRANCH  26  27
BRANCH  25  37
HETATM   37  C7  UNL     1      -7.799  47.153 -26.434  1.00  0.00     0.202 C 
BRANCH  37  38
HETATM   38  O1  UNL     1      -7.579  47.634 -25.105  1.00  0.00    -0.385 OA
BRANCH  38  39
HETATM   39  C8  UNL     1      -8.637  48.482 -24.669  1.00  0.00     0.194 C 
BRANCH  39  40
HETATM   40  C9  UNL     1      -9.513  48.849 -25.861  1.00  0.00     0.190 C 
BRANCH  40  41
HETATM   41  O2  UNL     1      -9.650  50.261 -25.973  1.00  0.00    -0.399 OA
HETATM   42  H12 UNL     1     -10.229  50.552 -25.248  1.00  0.00     0.209 HD
ENDBRANCH  40  41
ENDBRANCH  39  40
ENDBRANCH  38  39
ENDBRANCH  37  38
ENDBRANCH  25  37
ENDBRANCH   1  25
BRANCH   8  43
HETATM   43  C22 UNL     1      -7.109  43.747 -32.507  1.00  0.00     0.265 C 
HETATM   44  O5  UNL     1      -6.049  43.887 -31.909  1.00  0.00    -0.302 OA
ENDBRANCH   8  43
TORSDOF 20
ENDMDL
MODEL 4
REMARK minimizedAffinity -7.93580246
REMARK CNNscore 0.450644255
REMARK CNNaffinity 6.30176306
REMARK  20 active torsions:
REMARK  status: ('A' for Active; 'I' for Inactive)
REMARK    1  A    between atoms: C2_2  and  C3_3 
REMARK    2  A    between atoms: C2_2  and  C27_34 
REMARK    3  A    between atoms: C4_4  and  C5_5 
REMARK    4  A    between atoms: C6_6  and  C7_7 
REMARK    5  A    between atoms: C6_6  and  C10_12 
REMARK    6  A    between atoms: C7_7  and  O1_8 
REMARK    7  A    between atoms: O1_8  and  C8_9 
REMARK    8  A    between atoms: C8_9  and  C9_10 
REMARK    9  A    between atoms: C9_10  and  O2_11 
REMARK   10  A    between atoms: C14_16  and  O3_17 
REMARK   11  A    between atoms: C15_18  and  C16_19 
REMARK   12  A    between atoms: C16_19  and  C17_20 
REMARK   13  A    between atoms: C17_20  and  C18_21 
REMARK   14  A    between atoms: C18_21  and  O4_22 
REMARK   15  A    between atoms: C20_24  and  C22_26 
REMARK   16  A    between atoms: C25_30  and  O6_31 
REMARK   17  A    between atoms: C25_30  and  C26_32 
REMARK   18  A    between atoms: C26_32  and  O7_33 
REMARK   19  A    between atoms: C27_34  and  C28_35 
REMARK   20  A    between atoms: C28_35  and  C29_36 
ROOT
HETATM    1  C10 UNL     1      -5.959  47.042 -28.509  1.00  0.00     0.046 C 
HETATM    2  C11 UNL     1      -5.229  47.879 -29.561  1.00  0.00     0.013 C 
HETATM    3  C12 UNL     1      -6.335  48.587 -30.323  1.00  0.00     0.017 C 
HETATM    4  C13 UNL     1      -7.526  47.596 -30.459  1.00  0.00     0.027 C 
HETATM    5  C14 UNL     1      -7.288  46.649 -29.210  1.00  0.00     0.138 C 
HETATM    6  C15 UNL     1      -7.529  46.724 -31.795  1.00  0.00     0.029 C 
HETATM    7  C19 UNL     1      -8.572  45.586 -31.621  1.00  0.00    -0.066 C 
HETATM    8  C20 UNL     1      -8.433  44.235 -31.704  1.00  0.00    -0.021 C 
HETATM    9  C21 UNL     1      -9.555  43.227 -31.589  1.00  0.00     0.052 C 
HETATM   10  C23 UNL     1      -9.936  46.119 -31.178  1.00  0.00     0.038 C 
HETATM   11  C24 UNL     1     -10.075  47.634 -31.137  1.00  0.00     0.045 C 
HETATM   12  C25 UNL     1      -8.896  48.409 -30.488  1.00  0.00     0.090 C 
ENDROOT
BRANCH   5  13
HETATM   13  O3  UNL     1      -8.378  46.525 -28.316  1.00  0.00    -0.394 OA
HETATM   14  H19 UNL     1      -8.788  47.413 -28.236  1.00  0.00     0.210 HD
ENDBRANCH   5  13
BRANCH   6  15
HETATM   15  C16 UNL     1      -6.143  46.409 -32.411  1.00  0.00     0.012 C 
BRANCH  15  16
HETATM   16  C17 UNL     1      -5.660  47.383 -33.505  1.00  0.00     0.027 C 
BRANCH  16  17
HETATM   17  C18 UNL     1      -4.142  47.508 -33.625  1.00  0.00     0.164 C 
BRANCH  17  18
HETATM   18  O4  UNL     1      -3.786  48.747 -34.224  1.00  0.00    -0.401 OA
HETATM   19  H27 UNL     1      -4.006  49.445 -33.584  1.00  0.00     0.209 HD
ENDBRANCH  17  18
ENDBRANCH  16  17
ENDBRANCH  15  16
ENDBRANCH   6  15
BRANCH  12  20
HETATM   20  O6  UNL     1      -9.278  48.762 -29.143  1.00  0.00    -0.387 OA
HETATM   21  H36 UNL     1     -10.010  49.407 -29.251  1.00  0.00     0.210 HD
ENDBRANCH  12  20
BRANCH  12  22
HETATM   22  C26 UNL     1      -8.799  49.776 -31.249  1.00  0.00     0.202 C 
BRANCH  22  23
HETATM   23  O7  UNL     1      -8.950  50.843 -30.303  1.00  0.00    -0.398 OA
HETATM   24  H39 UNL     1      -8.952  51.672 -30.814  1.00  0.00     0.209 HD
ENDBRANCH  22  23
ENDBRANCH  12  22
BRANCH   1  25
HETATM   25  C6  UNL     1      -6.045  47.657 -27.105  1.00  0.00    -0.050 C 
HETATM   26  C5  UNL     1      -5.000  48.258 -26.486  1.00  0.00     0.005 C 
BRANCH  26  27
HETATM   27  C4  UNL     1      -3.635  48.382 -26.953  1.00  0.00     0.001 C 
HETATM   28  C3  UNL     1      -2.701  49.303 -26.654  1.00  0.00     0.006 C 
BRANCH  28  29
HETATM   29  C2  UNL     1      -2.684  50.463 -25.761  1.00  0.00    -0.067 C 
HETATM   30  C1  UNL     1      -3.173  51.622 -26.240  1.00  0.00     0.019 C 
BRANCH  29  31
HETATM   31  C27 UNL     1      -2.065  50.345 -24.379  1.00  0.00     0.041 C 
BRANCH  31  32
HETATM   32  C28 UNL     1      -1.349  51.573 -23.775  1.00  0.00     0.032 C 
BRANCH  32  33
HETATM   33  C29 UNL     1      -1.398  51.612 -22.269  1.00  0.00    -0.024 C 
HETATM   34  C30 UNL     1      -0.438  52.019 -21.414  1.00  0.00    -0.091 C 
HETATM   35  C31 UNL     1      -0.671  51.967 -19.925  1.00  0.00     0.042 C 
HETATM   36  C32 UNL     1       0.912  52.552 -21.805  1.00  0.00     0.042 C 
ENDBRANCH  32  33
ENDBRANCH  31  32
ENDBRANCH  29  31
ENDBRANCH  28  29
ENDBRANCH  26  27
BRANCH  25  37
HETATM   37  C7  UNL     1      -7.401  47.579 -26.416  1.00  0.00     0.202 C 
BRANCH  37  38
HETATM   38  O1  UNL     1      -7.346  48.025 -25.058  1.00  0.00    -0.385 OA
BRANCH  38  39
HETATM   39  C8  UNL     1      -8.588  48.580 -24.635  1.00  0.00     0.194 C 
BRANCH  39  40
HETATM   40  C9  UNL     1      -9.471  48.827 -25.852  1.00  0.00     0.190 C 
BRANCH  40  41
HETATM   41  O2  UNL     1      -9.933  50.173 -25.878  1.00  0.00    -0.399 OA
HETATM   42  H12 UNL     1     -10.596  50.262 -25.173  1.00  0.00     0.209 HD
ENDBRANCH  40  41
ENDBRANCH  39  40
ENDBRANCH  38  39
ENDBRANCH  37  38
ENDBRANCH  25  37
ENDBRANCH   1  25
BRANCH   8  43
HETATM   43  C22 UNL     1      -7.126  43.528 -31.811  1.00  0.00     0.265 C 
HETATM   44  O5  UNL     1      -6.448  43.235 -30.832  1.00  0.00    -0.302 OA
ENDBRANCH   8  43
TORSDOF 20
ENDMDL
MODEL 5
REMARK minimizedAffinity -6.33441639
REMARK CNNscore 0.439835578
REMARK CNNaffinity 6.50954962
REMARK  20 active torsions:
REMARK  status: ('A' for Active; 'I' for Inactive)
REMARK    1  A    between atoms: C2_2  and  C3_3 
REMARK    2  A    between atoms: C2_2  and  C27_34 
REMARK    3  A    between atoms: C4_4  and  C5_5 
REMARK    4  A    between atoms: C6_6  and  C7_7 
REMARK    5  A    between atoms: C6_6  and  C10_12 
REMARK    6  A    between atoms: C7_7  and  O1_8 
REMARK    7  A    between atoms: O1_8  and  C8_9 
REMARK    8  A    between atoms: C8_9  and  C9_10 
REMARK    9  A    between atoms: C9_10  and  O2_11 
REMARK   10  A    between atoms: C14_16  and  O3_17 
REMARK   11  A    between atoms: C15_18  and  C16_19 
REMARK   12  A    between atoms: C16_19  and  C17_20 
REMARK   13  A    between atoms: C17_20  and  C18_21 
REMARK   14  A    between atoms: C18_21  and  O4_22 
REMARK   15  A    between atoms: C20_24  and  C22_26 
REMARK   16  A    between atoms: C25_30  and  O6_31 
REMARK   17  A    between atoms: C25_30  and  C26_32 
REMARK   18  A    between atoms: C26_32  and  O7_33 
REMARK   19  A    between atoms: C27_34  and  C28_35 
REMARK   20  A    between atoms: C28_35  and  C29_36 
ROOT
HETATM    1  C10 UNL     1      -9.688  46.283 -28.524  1.00  0.00     0.046 C 
HETATM    2  C11 UNL     1      -8.541  45.339 -28.154  1.00  0.00     0.013 C 
HETATM    3  C12 UNL     1      -7.339  45.883 -28.906  1.00  0.00     0.017 C 
HETATM    4  C13 UNL     1      -7.835  46.388 -30.291  1.00  0.00     0.027 C 
HETATM    5  C14 UNL     1      -9.356  46.711 -29.980  1.00  0.00     0.138 C 
HETATM    6  C15 UNL     1      -7.751  45.316 -31.469  1.00  0.00     0.029 C 
HETATM    7  C19 UNL     1      -8.570  45.861 -32.672  1.00  0.00    -0.066 C 
HETATM    8  C20 UNL     1      -9.619  45.320 -33.348  1.00  0.00    -0.021 C 
HETATM    9  C21 UNL     1     -10.286  45.924 -34.564  1.00  0.00     0.052 C 
HETATM   10  C23 UNL     1      -8.162  47.287 -33.047  1.00  0.00     0.038 C 
HETATM   11  C24 UNL     1      -6.957  47.849 -32.304  1.00  0.00     0.045 C 
HETATM   12  C25 UNL     1      -6.929  47.608 -30.770  1.00  0.00     0.090 C 
ENDROOT
BRANCH   5  13
HETATM   13  O3  UNL     1      -9.780  48.027 -30.287  1.00  0.00    -0.394 OA
HETATM   14  H19 UNL     1      -9.049  48.631 -30.038  1.00  0.00     0.210 HD
ENDBRANCH   5  13
BRANCH   6  15
HETATM   15  C16 UNL     1      -7.889  43.830 -31.056  1.00  0.00     0.012 C 
BRANCH  15  16
HETATM   16  C17 UNL     1      -6.703  42.918 -31.432  1.00  0.00     0.027 C 
BRANCH  16  17
HETATM   17  C18 UNL     1      -7.097  41.522 -31.911  1.00  0.00     0.164 C 
BRANCH  17  18
HETATM   18  O4  UNL     1      -5.943  40.721 -32.125  1.00  0.00    -0.401 OA
HETATM   19  H27 UNL     1      -5.555  40.542 -31.251  1.00  0.00     0.209 HD
ENDBRANCH  17  18
ENDBRANCH  16  17
ENDBRANCH  15  16
ENDBRANCH   6  15
BRANCH  12  20
HETATM   20  O6  UNL     1      -7.363  48.819 -30.118  1.00  0.00    -0.387 OA
HETATM   21  H36 UNL     1      -6.658  49.474 -30.310  1.00  0.00     0.210 HD
ENDBRANCH  12  20
BRANCH  12  22
HETATM   22  C26 UNL     1      -5.419  47.460 -30.379  1.00  0.00     0.202 C 
BRANCH  22  23
HETATM   23  O7  UNL     1      -4.730  48.668 -30.731  1.00  0.00    -0.398 OA
HETATM   24  H39 UNL     1      -3.787  48.520 -30.538  1.00  0.00     0.209 HD
ENDBRANCH  22  23
ENDBRANCH  12  22
BRANCH   1  25
HETATM   25  C6  UNL     1     -10.000  47.388 -27.505  1.00  0.00    -0.050 C 
HETATM   26  C5  UNL     1      -9.056  47.985 -26.737  1.00  0.00     0.005 C 
BRANCH  26  27
HETATM   27  C4  UNL     1      -7.642  47.681 -26.658  1.00  0.00     0.001 C 
HETATM   28  C3  UNL     1      -6.783  47.833 -25.635  1.00  0.00     0.006 C 
BRANCH  28  29
HETATM   29  C2  UNL     1      -6.934  48.307 -24.259  1.00  0.00    -0.067 C 
HETATM   30  C1  UNL     1      -8.114  48.859 -23.919  1.00  0.00     0.019 C 
BRANCH  29  31
HETATM   31  C27 UNL     1      -5.760  48.230 -23.297  1.00  0.00     0.041 C 
BRANCH  31  32
HETATM   32  C28 UNL     1      -4.327  48.368 -23.856  1.00  0.00     0.032 C 
BRANCH  32  33
HETATM   33  C29 UNL     1      -3.262  48.302 -22.792  1.00  0.00    -0.024 C 
HETATM   34  C30 UNL     1      -2.214  49.130 -22.609  1.00  0.00    -0.091 C 
HETATM   35  C31 UNL     1      -1.237  48.888 -21.487  1.00  0.00     0.042 C 
HETATM   36  C32 UNL     1      -1.899  50.339 -23.445  1.00  0.00     0.042 C 
ENDBRANCH  32  33
ENDBRANCH  31  32
ENDBRANCH  29  31
ENDBRANCH  28  29
ENDBRANCH  26  27
BRANCH  25  37
HETATM   37  C7  UNL     1     -11.457  47.816 -27.398  1.00  0.00     0.202 C 
BRANCH  37  38
HETATM   38  O1  UNL     1     -11.846  48.086 -26.049  1.00  0.00    -0.385 OA
BRANCH  38  39
HETATM   39  C8  UNL     1     -12.478  46.961 -25.446  1.00  0.00     0.194 C 
BRANCH  39  40
HETATM   40  C9  UNL     1     -11.723  46.578 -24.179  1.00  0.00     0.190 C 
BRANCH  40  41
HETATM   41  O2  UNL     1     -12.417  47.025 -23.020  1.00  0.00    -0.399 OA
HETATM   42  H12 UNL     1     -12.322  47.992 -22.982  1.00  0.00     0.209 HD
ENDBRANCH  40  41
ENDBRANCH  39  40
ENDBRANCH  38  39
ENDBRANCH  37  38
ENDBRANCH  25  37
ENDBRANCH   1  25
BRANCH   8  43
HETATM   43  C22 UNL     1     -10.351  44.092 -32.925  1.00  0.00     0.265 C 
HETATM   44  O5  UNL     1     -11.516  43.875 -33.236  1.00  0.00    -0.302 OA
ENDBRANCH   8  43
TORSDOF 20
ENDMDL
MODEL 6
REMARK minimizedAffinity -6.38624763
REMARK CNNscore 0.438934952
REMARK CNNaffinity 6.31435728
REMARK  20 active torsions:
REMARK  status: ('A' for Active; 'I' for Inactive)
REMARK    1  A    between atoms: C2_2  and  C3_3 
REMARK    2  A    between atoms: C2_2  and  C27_34 
REMARK    3  A    between atoms: C4_4  and  C5_5 
REMARK    4  A    between atoms: C6_6  and  C7_7 
REMARK    5  A    between atoms: C6_6  and  C10_12 
REMARK    6  A    between atoms: C7_7  and  O1_8 
REMARK    7  A    between atoms: O1_8  and  C8_9 
REMARK    8  A    between atoms: C8_9  and  C9_10 
REMARK    9  A    between atoms: C9_10  and  O2_11 
REMARK   10  A    between atoms: C14_16  and  O3_17 
REMARK   11  A    between atoms: C15_18  and  C16_19 
REMARK   12  A    between atoms: C16_19  and  C17_20 
REMARK   13  A    between atoms: C17_20  and  C18_21 
REMARK   14  A    between atoms: C18_21  and  O4_22 
REMARK   15  A    between atoms: C20_24  and  C22_26 
REMARK   16  A    between atoms: C25_30  and  O6_31 
REMARK   17  A    between atoms: C25_30  and  C26_32 
REMARK   18  A    between atoms: C26_32  and  O7_33 
REMARK   19  A    between atoms: C27_34  and  C28_35 
REMARK   20  A    between atoms: C28_35  and  C29_36 
ROOT
HETATM    1  C10 UNL     1      -1.662  49.345 -18.518  1.00  0.00     0.046 C 
HETATM    2  C11 UNL     1      -1.214  48.309 -19.551  1.00  0.00     0.013 C 
HETATM    3  C12 UNL     1      -1.986  48.664 -20.810  1.00  0.00     0.017 C 
HETATM    4  C13 UNL     1      -3.409  49.122 -20.380  1.00  0.00     0.027 C 
HETATM    5  C14 UNL     1      -3.140  49.632 -18.903  1.00  0.00     0.138 C 
HETATM    6  C15 UNL     1      -4.509  47.968 -20.351  1.00  0.00     0.029 C 
HETATM    7  C19 UNL     1      -5.757  48.515 -19.604  1.00  0.00    -0.066 C 
HETATM    8  C20 UNL     1      -6.408  48.047 -18.505  1.00  0.00    -0.021 C 
HETATM    9  C21 UNL     1      -7.670  48.634 -17.914  1.00  0.00     0.052 C 
HETATM   10  C23 UNL     1      -6.224  49.857 -20.169  1.00  0.00     0.038 C 
HETATM   11  C24 UNL     1      -5.506  50.335 -21.424  1.00  0.00     0.045 C 
HETATM   12  C25 UNL     1      -3.959  50.199 -21.417  1.00  0.00     0.090 C 
ENDROOT
BRANCH   5  13
HETATM   13  O3  UNL     1      -3.542  50.961 -18.627  1.00  0.00    -0.394 OA
HETATM   14  H19 UNL     1      -3.325  51.498 -19.420  1.00  0.00     0.210 HD
ENDBRANCH   5  13
BRANCH   6  15
HETATM   15  C16 UNL     1      -3.997  46.539 -20.048  1.00  0.00     0.012 C 
BRANCH  15  16
HETATM   16  C17 UNL     1      -4.443  45.443 -21.038  1.00  0.00     0.027 C 
BRANCH  16  17
HETATM   17  C18 UNL     1      -5.706  44.688 -20.630  1.00  0.00     0.164 C 
BRANCH  17  18
HETATM   18  O4  UNL     1      -5.567  43.298 -20.891  1.00  0.00    -0.401 OA
HETATM   19  H27 UNL     1      -4.905  42.956 -20.265  1.00  0.00     0.209 HD
ENDBRANCH  17  18
ENDBRANCH  16  17
ENDBRANCH  15  16
ENDBRANCH   6  15
BRANCH  12  20
HETATM   20  O6  UNL     1      -3.397  51.493 -21.116  1.00  0.00    -0.387 OA
HETATM   21  H36 UNL     1      -3.625  52.052 -21.891  1.00  0.00     0.210 HD
ENDBRANCH  12  20
BRANCH  12  22
HETATM   22  C26 UNL     1      -3.539  49.914 -22.900  1.00  0.00     0.202 C 
BRANCH  22  23
HETATM   23  O7  UNL     1      -4.404  48.905 -23.440  1.00  0.00    -0.398 OA
HETATM   24  H39 UNL     1      -4.077  48.704 -24.334  1.00  0.00     0.209 HD
ENDBRANCH  22  23
ENDBRANCH  12  22
BRANCH   1  25
HETATM   25  C6  UNL     1      -0.726  50.546 -18.325  1.00  0.00    -0.050 C 
HETATM   26  C5  UNL     1       0.196  50.624 -17.334  1.00  0.00     0.005 C 
BRANCH  26  27
HETATM   27  C4  UNL     1       0.440  49.683 -16.262  1.00  0.00     0.001 C 
HETATM   28  C3  UNL     1      -0.327  49.362 -15.205  1.00  0.00     0.006 C 
BRANCH  28  29
HETATM   29  C2  UNL     1      -1.655  49.788 -14.761  1.00  0.00    -0.067 C 
HETATM   30  C1  UNL     1      -2.680  48.941 -14.972  1.00  0.00     0.019 C 
BRANCH  29  31
HETATM   31  C27 UNL     1      -1.846  51.169 -14.158  1.00  0.00     0.041 C 
BRANCH  31  32
HETATM   32  C28 UNL     1      -3.278  51.722 -13.996  1.00  0.00     0.032 C 
BRANCH  32  33
HETATM   33  C29 UNL     1      -3.395  52.774 -12.923  1.00  0.00    -0.024 C 
HETATM   34  C30 UNL     1      -3.784  52.618 -11.642  1.00  0.00    -0.091 C 
HETATM   35  C31 UNL     1      -3.854  53.806 -10.716  1.00  0.00     0.042 C 
HETATM   36  C32 UNL     1      -4.173  51.316 -10.998  1.00  0.00     0.042 C 
ENDBRANCH  32  33
ENDBRANCH  31  32
ENDBRANCH  29  31
ENDBRANCH  28  29
ENDBRANCH  26  27
BRANCH  25  37
HETATM   37  C7  UNL     1      -0.867  51.679 -19.331  1.00  0.00     0.202 C 
BRANCH  37  38
HETATM   38  O1  UNL     1       0.397  52.235 -19.704  1.00  0.00    -0.385 OA
BRANCH  38  39
HETATM   39  C8  UNL     1       0.494  52.430 -21.112  1.00  0.00     0.194 C 
BRANCH  39  40
HETATM   40  C9  UNL     1       1.357  53.654 -21.392  1.00  0.00     0.190 C 
BRANCH  40  41
HETATM   41  O2  UNL     1       1.586  54.397 -20.201  1.00  0.00    -0.399 OA
HETATM   42  H12 UNL     1       0.749  54.835 -19.969  1.00  0.00     0.209 HD
ENDBRANCH  40  41
ENDBRANCH  39  40
ENDBRANCH  38  39
ENDBRANCH  37  38
ENDBRANCH  25  37
ENDBRANCH   1  25
BRANCH   8  43
HETATM   43  C22 UNL     1      -5.911  46.939 -17.639  1.00  0.00     0.265 C 
HETATM   44  O5  UNL     1      -6.642  46.308 -16.885  1.00  0.00    -0.302 OA
ENDBRANCH   8  43
TORSDOF 20
ENDMDL
MODEL 7
REMARK minimizedAffinity -6.95823002
REMARK CNNscore 0.371373326
REMARK CNNaffinity 6.3205266
REMARK  20 active torsions:
REMARK  status: ('A' for Active; 'I' for Inactive)
REMARK    1  A    between atoms: C2_2  and  C3_3 
REMARK    2  A    between atoms: C2_2  and  C27_34 
REMARK    3  A    between atoms: C4_4  and  C5_5 
REMARK    4  A    between atoms: C6_6  and  C7_7 
REMARK    5  A    between atoms: C6_6  and  C10_12 
REMARK    6  A    between atoms: C7_7  and  O1_8 
REMARK    7  A    between atoms: O1_8  and  C8_9 
REMARK    8  A    between atoms: C8_9  and  C9_10 
REMARK    9  A    between atoms: C9_10  and  O2_11 
REMARK   10  A    between atoms: C14_16  and  O3_17 
REMARK   11  A    between atoms: C15_18  and  C16_19 
REMARK   12  A    between atoms: C16_19  and  C17_20 
REMARK   13  A    between atoms: C17_20  and  C18_21 
REMARK   14  A    between atoms: C18_21  and  O4_22 
REMARK   15  A    between atoms: C20_24  and  C22_26 
REMARK   16  A    between atoms: C25_30  and  O6_31 
REMARK   17  A    between atoms: C25_30  and  C26_32 
REMARK   18  A    between atoms: C26_32  and  O7_33 
REMARK   19  A    between atoms: C27_34  and  C28_35 
REMARK   20  A    between atoms: C28_35  and  C29_36 
ROOT
HETATM    1  C10 UNL     1      -8.084  45.672 -29.077  1.00  0.00     0.046 C 
HETATM    2  C11 UNL     1      -6.895  44.756 -29.378  1.00  0.00     0.013 C 
HETATM    3  C12 UNL     1      -6.198  45.406 -30.560  1.00  0.00     0.017 C 
HETATM    4  C13 UNL     1      -7.296  45.988 -31.496  1.00  0.00     0.027 C 
HETATM    5  C14 UNL     1      -8.487  46.220 -30.474  1.00  0.00     0.138 C 
HETATM    6  C15 UNL     1      -7.778  45.009 -32.659  1.00  0.00     0.029 C 
HETATM    7  C19 UNL     1      -9.073  45.604 -33.279  1.00  0.00    -0.066 C 
HETATM    8  C20 UNL     1     -10.315  45.067 -33.421  1.00  0.00    -0.021 C 
HETATM    9  C21 UNL     1     -11.483  45.728 -34.118  1.00  0.00     0.052 C 
HETATM   10  C23 UNL     1      -8.899  47.069 -33.680  1.00  0.00     0.038 C 
HETATM   11  C24 UNL     1      -7.489  47.629 -33.552  1.00  0.00     0.045 C 
HETATM   12  C25 UNL     1      -6.733  47.278 -32.241  1.00  0.00     0.090 C 
ENDROOT
BRANCH   5  13
HETATM   13  O3  UNL     1      -9.012  47.534 -30.431  1.00  0.00    -0.394 OA
HETATM   14  H19 UNL     1      -8.253  48.151 -30.507  1.00  0.00     0.210 HD
ENDBRANCH   5  13
BRANCH   6  15
HETATM   15  C16 UNL     1      -7.696  43.492 -32.358  1.00  0.00     0.012 C 
BRANCH  15  16
HETATM   16  C17 UNL     1      -6.441  42.771 -32.890  1.00  0.00     0.027 C 
BRANCH  16  17
HETATM   17  C18 UNL     1      -6.664  41.315 -33.296  1.00  0.00     0.164 C 
BRANCH  17  18
HETATM   18  O4  UNL     1      -5.485  40.768 -33.872  1.00  0.00    -0.401 OA
HETATM   19  H27 UNL     1      -4.830  40.690 -33.157  1.00  0.00     0.209 HD
ENDBRANCH  17  18
ENDBRANCH  16  17
ENDBRANCH  15  16
ENDBRANCH   6  15
BRANCH  12  20
HETATM   20  O6  UNL     1      -6.809  48.418 -31.360  1.00  0.00    -0.387 OA
HETATM   21  H36 UNL     1      -6.283  49.117 -31.807  1.00  0.00     0.210 HD
ENDBRANCH  12  20
BRANCH  12  22
HETATM   22  C26 UNL     1      -5.218  47.170 -32.626  1.00  0.00     0.202 C 
BRANCH  22  23
HETATM   23  O7  UNL     1      -4.543  48.358 -32.189  1.00  0.00    -0.398 OA
HETATM   24  H39 UNL     1      -3.623  48.289 -32.501  1.00  0.00     0.209 HD
ENDBRANCH  22  23
ENDBRANCH  12  22
BRANCH   1  25
HETATM   25  C6  UNL     1      -7.878  46.686 -27.943  1.00  0.00    -0.050 C 
HETATM   26  C5  UNL     1      -6.781  47.474 -27.835  1.00  0.00     0.005 C 
BRANCH  26  27
HETATM   27  C4  UNL     1      -5.600  47.485 -28.672  1.00  0.00     0.001 C 
HETATM   28  C3  UNL     1      -4.403  48.063 -28.469  1.00  0.00     0.006 C 
BRANCH  28  29
HETATM   29  C2  UNL     1      -3.838  48.840 -27.364  1.00  0.00    -0.067 C 
HETATM   30  C1  UNL     1      -3.964  48.334 -26.123  1.00  0.00     0.019 C 
BRANCH  29  31
HETATM   31  C27 UNL     1      -3.206  50.195 -27.636  1.00  0.00     0.041 C 
BRANCH  31  32
HETATM   32  C28 UNL     1      -3.110  51.218 -26.484  1.00  0.00     0.032 C 
BRANCH  32  33
HETATM   33  C29 UNL     1      -1.743  51.281 -25.852  1.00  0.00    -0.024 C 
HETATM   34  C30 UNL     1      -0.559  51.520 -26.450  1.00  0.00    -0.091 C 
HETATM   35  C31 UNL     1       0.715  51.526 -25.645  1.00  0.00     0.042 C 
HETATM   36  C32 UNL     1      -0.360  51.803 -27.913  1.00  0.00     0.042 C 
ENDBRANCH  32  33
ENDBRANCH  31  32
ENDBRANCH  29  31
ENDBRANCH  28  29
ENDBRANCH  26  27
BRANCH  25  37
HETATM   37  C7  UNL     1      -8.998  46.787 -26.917  1.00  0.00     0.202 C 
BRANCH  37  38
HETATM   38  O1  UNL     1      -8.511  47.098 -25.609  1.00  0.00    -0.385 OA
BRANCH  38  39
HETATM   39  C8  UNL     1      -9.039  48.330 -25.128  1.00  0.00     0.194 C 
BRANCH  39  40
HETATM   40  C9  UNL     1      -9.507  49.173 -26.308  1.00  0.00     0.190 C 
BRANCH  40  41
HETATM   41  O2  UNL     1     -10.153  50.359 -25.859  1.00  0.00    -0.399 OA
HETATM   42  H12 UNL     1     -11.015  50.096 -25.492  1.00  0.00     0.209 HD
ENDBRANCH  40  41
ENDBRANCH  39  40
ENDBRANCH  38  39
ENDBRANCH  37  38
ENDBRANCH  25  37
ENDBRANCH   1  25
BRANCH   8  43
HETATM   43  C22 UNL     1     -10.752  43.781 -32.808  1.00  0.00     0.265 C 
HETATM   44  O5  UNL     1     -11.143  43.698 -31.649  1.00  0.00    -0.302 OA
ENDBRANCH   8  43
TORSDOF 20
ENDMDL
MODEL 8
REMARK minimizedAffinity -7.9716053
REMARK CNNscore 0.338005871
REMARK CNNaffinity 6.21212244
REMARK  20 active torsions:
REMARK  status: ('A' for Active; 'I' for Inactive)
REMARK    1  A    between atoms: C2_2  and  C3_3 
REMARK    2  A    between atoms: C2_2  and  C27_34 
REMARK    3  A    between atoms: C4_4  and  C5_5 
REMARK    4  A    between atoms: C6_6  and  C7_7 
REMARK    5  A    between atoms: C6_6  and  C10_12 
REMARK    6  A    between atoms: C7_7  and  O1_8 
REMARK    7  A    between atoms: O1_8  and  C8_9 
REMARK    8  A    between atoms: C8_9  and  C9_10 
REMARK    9  A    between atoms: C9_10  and  O2_11 
REMARK   10  A    between atoms: C14_16  and  O3_17 
REMARK   11  A    between atoms: C15_18  and  C16_19 
REMARK   12  A    between atoms: C16_19  and  C17_20 
REMARK   13  A    between atoms: C17_20  and  C18_21 
REMARK   14  A    between atoms: C18_21  and  O4_22 
REMARK   15  A    between atoms: C20_24  and  C22_26 
REMARK   16  A    between atoms: C25_30  and  O6_31 
REMARK   17  A    between atoms: C25_30  and  C26_32 
REMARK   18  A    between atoms: C26_32  and  O7_33 
REMARK   19  A    between atoms: C27_34  and  C28_35 
REMARK   20  A    between atoms: C28_35  and  C29_36 
ROOT
HETATM    1  C10 UNL     1      -6.074  47.058 -29.259  1.00  0.00     0.046 C 
HETATM    2  C11 UNL     1      -6.431  48.118 -30.304  1.00  0.00     0.013 C 
HETATM    3  C12 UNL     1      -7.829  47.745 -30.767  1.00  0.00     0.017 C 
HETATM    4  C13 UNL     1      -7.911  46.193 -30.823  1.00  0.00     0.027 C 
HETATM    5  C14 UNL     1      -6.802  45.783 -29.767  1.00  0.00     0.138 C 
HETATM    6  C15 UNL     1      -7.560  45.550 -32.240  1.00  0.00     0.029 C 
HETATM    7  C19 UNL     1      -7.374  44.021 -32.038  1.00  0.00    -0.066 C 
HETATM    8  C20 UNL     1      -6.317  43.211 -32.317  1.00  0.00    -0.021 C 
HETATM    9  C21 UNL     1      -6.289  41.709 -32.142  1.00  0.00     0.052 C 
HETATM   10  C23 UNL     1      -8.557  43.389 -31.302  1.00  0.00     0.038 C 
HETATM   11  C24 UNL     1      -9.743  44.307 -31.043  1.00  0.00     0.045 C 
HETATM   12  C25 UNL     1      -9.402  45.727 -30.511  1.00  0.00     0.090 C 
ENDROOT
BRANCH   5  13
HETATM   13  O3  UNL     1      -7.234  44.930 -28.722  1.00  0.00    -0.394 OA
HETATM   14  H19 UNL     1      -8.131  45.228 -28.459  1.00  0.00     0.210 HD
ENDBRANCH   5  13
BRANCH   6  15
HETATM   15  C16 UNL     1      -6.557  46.336 -33.121  1.00  0.00     0.012 C 
BRANCH  15  16
HETATM   16  C17 UNL     1      -5.111  46.407 -32.589  1.00  0.00     0.027 C 
BRANCH  16  17
HETATM   17  C18 UNL     1      -4.163  47.262 -33.427  1.00  0.00     0.164 C 
BRANCH  17  18
HETATM   18  O4  UNL     1      -3.949  48.525 -32.811  1.00  0.00    -0.401 OA
HETATM   19  H27 UNL     1      -3.430  48.363 -32.004  1.00  0.00     0.209 HD
ENDBRANCH  17  18
ENDBRANCH  16  17
ENDBRANCH  15  16
ENDBRANCH   6  15
BRANCH  12  20
HETATM   20  O6  UNL     1      -9.625  45.737 -29.086  1.00  0.00    -0.387 OA
HETATM   21  H36 UNL     1     -10.595  45.625 -28.982  1.00  0.00     0.210 HD
ENDBRANCH  12  20
BRANCH  12  22
HETATM   22  C26 UNL     1     -10.495  46.686 -31.094  1.00  0.00     0.202 C 
BRANCH  22  23
HETATM   23  O7  UNL     1     -11.374  45.928 -31.937  1.00  0.00    -0.398 OA
HETATM   24  H39 UNL     1     -11.998  46.561 -32.335  1.00  0.00     0.209 HD
ENDBRANCH  22  23
ENDBRANCH  12  22
BRANCH   1  25
HETATM   25  C6  UNL     1      -6.283  47.466 -27.794  1.00  0.00    -0.050 C 
HETATM   26  C5  UNL     1      -5.311  48.012 -27.024  1.00  0.00     0.005 C 
BRANCH  26  27
HETATM   27  C4  UNL     1      -3.925  48.252 -27.369  1.00  0.00     0.001 C 
HETATM   28  C3  UNL     1      -2.924  48.751 -26.622  1.00  0.00     0.006 C 
BRANCH  28  29
HETATM   29  C2  UNL     1      -2.835  49.194 -25.230  1.00  0.00    -0.067 C 
HETATM   30  C1  UNL     1      -3.553  48.516 -24.316  1.00  0.00     0.019 C 
BRANCH  29  31
HETATM   31  C27 UNL     1      -2.012  50.422 -24.877  1.00  0.00     0.041 C 
BRANCH  31  32
HETATM   32  C28 UNL     1      -1.293  51.190 -26.007  1.00  0.00     0.032 C 
BRANCH  32  33
HETATM   33  C29 UNL     1       0.209  51.156 -25.891  1.00  0.00    -0.024 C 
HETATM   34  C30 UNL     1       1.125  51.470 -26.829  1.00  0.00    -0.091 C 
HETATM   35  C31 UNL     1       2.597  51.356 -26.527  1.00  0.00     0.042 C 
HETATM   36  C32 UNL     1       0.821  51.953 -28.220  1.00  0.00     0.042 C 
ENDBRANCH  32  33
ENDBRANCH  31  32
ENDBRANCH  29  31
ENDBRANCH  28  29
ENDBRANCH  26  27
BRANCH  25  37
HETATM   37  C7  UNL     1      -7.676  47.240 -27.223  1.00  0.00     0.202 C 
BRANCH  37  38
HETATM   38  O1  UNL     1      -8.610  48.230 -27.661  1.00  0.00    -0.385 OA
BRANCH  38  39
HETATM   39  C8  UNL     1      -9.599  48.498 -26.672  1.00  0.00     0.194 C 
BRANCH  39  40
HETATM   40  C9  UNL     1     -10.973  48.137 -27.223  1.00  0.00     0.190 C 
BRANCH  40  41
HETATM   41  O2  UNL     1     -11.965  49.037 -26.742  1.00  0.00    -0.399 OA
HETATM   42  H12 UNL     1     -12.106  48.834 -25.801  1.00  0.00     0.209 HD
ENDBRANCH  40  41
ENDBRANCH  39  40
ENDBRANCH  38  39
ENDBRANCH  37  38
ENDBRANCH  25  37
ENDBRANCH   1  25
BRANCH   8  43
HETATM   43  C22 UNL     1      -4.972  43.697 -32.738  1.00  0.00     0.265 C 
HETATM   44  O5  UNL     1      -3.973  42.987 -32.714  1.00  0.00    -0.302 OA
ENDBRANCH   8  43
TORSDOF 20
ENDMDL
MODEL 9
REMARK minimizedAffinity -7.83641434
REMARK CNNscore 0.314822286
REMARK CNNaffinity 5.97410393
REMARK  20 active torsions:
REMARK  status: ('A' for Active; 'I' for Inactive)
REMARK    1  A    between atoms: C2_2  and  C3_3 
REMARK    2  A    between atoms: C2_2  and  C27_34 
REMARK    3  A    between atoms: C4_4  and  C5_5 
REMARK    4  A    between atoms: C6_6  and  C7_7 
REMARK    5  A    between atoms: C6_6  and  C10_12 
REMARK    6  A    between atoms: C7_7  and  O1_8 
REMARK    7  A    between atoms: O1_8  and  C8_9 
REMARK    8  A    between atoms: C8_9  and  C9_10 
REMARK    9  A    between atoms: C9_10  and  O2_11 
REMARK   10  A    between atoms: C14_16  and  O3_17 
REMARK   11  A    between atoms: C15_18  and  C16_19 
REMARK   12  A    between atoms: C16_19  and  C17_20 
REMARK   13  A    between atoms: C17_20  and  C18_21 
REMARK   14  A    between atoms: C18_21  and  O4_22 
REMARK   15  A    between atoms: C20_24  and  C22_26 
REMARK   16  A    between atoms: C25_30  and  O6_31 
REMARK   17  A    between atoms: C25_30  and  C26_32 
REMARK   18  A    between atoms: C26_32  and  O7_33 
REMARK   19  A    between atoms: C27_34  and  C28_35 
REMARK   20  A    between atoms: C28_35  and  C29_36 
ROOT
HETATM    1  C10 UNL     1      -5.649  47.317 -28.921  1.00  0.00     0.046 C 
HETATM    2  C11 UNL     1      -5.693  48.448 -29.951  1.00  0.00     0.013 C 
HETATM    3  C12 UNL     1      -7.072  48.341 -30.580  1.00  0.00     0.017 C 
HETATM    4  C13 UNL     1      -7.416  46.831 -30.713  1.00  0.00     0.027 C 
HETATM    5  C14 UNL     1      -6.525  46.204 -29.561  1.00  0.00     0.138 C 
HETATM    6  C15 UNL     1      -7.021  46.170 -32.109  1.00  0.00     0.029 C 
HETATM    7  C19 UNL     1      -7.128  44.627 -31.956  1.00  0.00    -0.066 C 
HETATM    8  C20 UNL     1      -6.203  43.650 -32.154  1.00  0.00    -0.021 C 
HETATM    9  C21 UNL     1      -6.457  42.163 -32.044  1.00  0.00     0.052 C 
HETATM   10  C23 UNL     1      -8.480  44.199 -31.383  1.00  0.00     0.038 C 
HETATM   11  C24 UNL     1      -9.510  45.307 -31.214  1.00  0.00     0.045 C 
HETATM   12  C25 UNL     1      -8.991  46.629 -30.586  1.00  0.00     0.090 C 
ENDROOT
BRANCH   5  13
HETATM   13  O3  UNL     1      -7.215  45.417 -28.608  1.00  0.00    -0.394 OA
HETATM   14  H19 UNL     1      -8.071  45.863 -28.431  1.00  0.00     0.210 HD
ENDBRANCH   5  13
BRANCH   6  15
HETATM   15  C16 UNL     1      -5.803  46.786 -32.840  1.00  0.00     0.012 C 
BRANCH  15  16
HETATM   16  C17 UNL     1      -6.133  47.733 -34.012  1.00  0.00     0.027 C 
BRANCH  16  17
HETATM   17  C18 UNL     1      -4.924  48.426 -34.636  1.00  0.00     0.164 C 
BRANCH  17  18
HETATM   18  O4  UNL     1      -5.275  49.034 -35.871  1.00  0.00    -0.401 OA
HETATM   19  H27 UNL     1      -5.862  49.781 -35.663  1.00  0.00     0.209 HD
ENDBRANCH  17  18
ENDBRANCH  16  17
ENDBRANCH  15  16
ENDBRANCH   6  15
BRANCH  12  20
HETATM   20  O6  UNL     1      -9.371  46.644 -29.194  1.00  0.00    -0.387 OA
HETATM   21  H36 UNL     1     -10.351  46.705 -29.202  1.00  0.00     0.210 HD
ENDBRANCH  12  20
BRANCH  12  22
HETATM   22  C26 UNL     1      -9.826  47.782 -31.242  1.00  0.00     0.202 C 
BRANCH  22  23
HETATM   23  O7  UNL     1     -10.474  48.532 -30.205  1.00  0.00    -0.398 OA
HETATM   24  H39 UNL     1     -11.034  49.195 -30.646  1.00  0.00     0.209 HD
ENDBRANCH  22  23
ENDBRANCH  12  22
BRANCH   1  25
HETATM   25  C6  UNL     1      -5.951  47.719 -27.471  1.00  0.00    -0.050 C 
HETATM   26  C5  UNL     1      -5.013  48.196 -26.616  1.00  0.00     0.005 C 
BRANCH  26  27
HETATM   27  C4  UNL     1      -3.592  48.354 -26.844  1.00  0.00     0.001 C 
HETATM   28  C3  UNL     1      -2.634  48.826 -26.027  1.00  0.00     0.006 C 
BRANCH  28  29
HETATM   29  C2  UNL     1      -2.642  49.308 -24.645  1.00  0.00    -0.067 C 
HETATM   30  C1  UNL     1      -3.302  48.569 -23.734  1.00  0.00     0.019 C 
BRANCH  29  31
HETATM   31  C27 UNL     1      -1.983  50.633 -24.301  1.00  0.00     0.041 C 
BRANCH  31  32
HETATM   32  C28 UNL     1      -1.578  50.908 -22.837  1.00  0.00     0.032 C 
BRANCH  32  33
HETATM   33  C29 UNL     1      -0.529  51.981 -22.698  1.00  0.00    -0.024 C 
HETATM   34  C30 UNL     1       0.115  52.378 -21.582  1.00  0.00    -0.091 C 
HETATM   35  C31 UNL     1       1.129  53.491 -21.642  1.00  0.00     0.042 C 
HETATM   36  C32 UNL     1      -0.074  51.795 -20.209  1.00  0.00     0.042 C 
ENDBRANCH  32  33
ENDBRANCH  31  32
ENDBRANCH  29  31
ENDBRANCH  28  29
ENDBRANCH  26  27
BRANCH  25  37
HETATM   37  C7  UNL     1      -7.397  47.573 -27.017  1.00  0.00     0.202 C 
BRANCH  37  38
HETATM   38  O1  UNL     1      -7.552  47.806 -25.614  1.00  0.00    -0.385 OA
BRANCH  38  39
HETATM   39  C8  UNL     1      -8.881  48.203 -25.289  1.00  0.00     0.194 C 
BRANCH  39  40
HETATM   40  C9  UNL     1      -9.523  48.860 -26.505  1.00  0.00     0.190 C 
BRANCH  40  41
HETATM   41  O2  UNL     1     -10.861  49.251 -26.223  1.00  0.00    -0.399 OA
HETATM   42  H12 UNL     1     -11.394  48.439 -26.174  1.00  0.00     0.209 HD
ENDBRANCH  40  41
ENDBRANCH  39  40
ENDBRANCH  38  39
ENDBRANCH  37  38
ENDBRANCH  25  37
ENDBRANCH   1  25
BRANCH   8  43
HETATM   43  C22 UNL     1      -4.755  43.899 -32.404  1.00  0.00     0.265 C 
HETATM   44  O5  UNL     1      -3.961  43.000 -32.656  1.00  0.00    -0.302 OA
ENDBRANCH   8  43
TORSDOF 20
ENDMDL
