MODEL 1
REMARK minimizedAffinity -8.09796238
REMARK CNNscore 0.303859979
REMARK CNNaffinity 6.94071531
REMARK  11 active torsions:
REMARK  status: ('A' for Active; 'I' for Inactive)
REMARK    1  A    between atoms: C2_2  and  C4_4 
REMARK    2  A    between atoms: C4_4  and  C6_6 
REMARK    3  A    between atoms: C7_7  and  C8_8 
REMARK    4  A    between atoms: C8_8  and  C10_10 
REMARK    5  A    between atoms: C24_24  and  O1_25 
REMARK    6  A    between atoms: O1_25  and  C25_26 
REMARK    7  A    between atoms: C26_28  and  C27_29 
REMARK    8  A    between atoms: C27_29  and  O3_30 
REMARK    9  A    between atoms: C28_31  and  O4_32 
REMARK   10  A    between atoms: C29_33  and  O5_34 
REMARK   11  A    between atoms: C30_35  and  O6_36 
ROOT
HETATM    1  C10 UNL     1      -7.051   6.492  13.975  1.00  0.00     0.001 C 
HETATM    2  C11 UNL     1      -7.549   5.237  13.210  1.00  0.00     0.006 C 
HETATM    3  C12 UNL     1      -9.050   5.445  12.946  1.00  0.00     0.009 C 
HETATM    4  C13 UNL     1      -9.308   6.880  13.391  1.00  0.00     0.036 C 
HETATM    5  C14 UNL     1      -8.355   7.093  14.587  1.00  0.00    -0.033 C 
HETATM    6  C15 UNL     1      -8.787   6.368  15.875  1.00  0.00     0.016 C 
HETATM    7  C16 UNL     1      -8.291   8.612  14.841  1.00  0.00     0.010 C 
HETATM    8  C17 UNL     1      -9.682   9.196  15.138  1.00  0.00     0.010 C 
HETATM    9  C18 UNL     1     -10.742   8.858  14.066  1.00  0.00     0.039 C 
HETATM   10  C19 UNL     1     -10.751   7.356  13.600  1.00  0.00     0.123 C 
HETATM   11  C20 UNL     1     -11.667   6.471  14.411  1.00  0.00     0.014 C 
HETATM   12  C21 UNL     1     -12.943   6.891  14.434  1.00  0.00     0.014 C 
HETATM   13  C22 UNL     1     -13.140   8.220  13.737  1.00  0.00     0.124 C 
HETATM   14  C23 UNL     1     -14.590   8.688  13.670  1.00  0.00     0.078 C 
HETATM   15  C24 UNL     1     -14.749   9.992  12.859  1.00  0.00     0.128 C 
HETATM   16  C31 UNL     1     -13.439  10.783  12.678  1.00  0.00     0.033 C 
HETATM   17  C32 UNL     1     -12.534  10.735  13.907  1.00  0.00     0.015 C 
HETATM   18  C33 UNL     1     -12.225   9.294  14.420  1.00  0.00     0.001 C 
HETATM   19  C34 UNL     1     -12.470   9.338  15.956  1.00  0.00     0.019 C 
HETATM   20  O7  UNL     1     -12.703   8.046  12.360  1.00  0.00    -0.223 OA
HETATM   21  O8  UNL     1     -11.382   7.355  12.291  1.00  0.00    -0.224 OA
ENDROOT
BRANCH  15  22
HETATM   22  O1  UNL     1     -15.761  10.753  13.535  1.00  0.00    -0.353 OA
BRANCH  22  23
HETATM   23  C25 UNL     1     -15.921  12.087  13.038  1.00  0.00     0.292 C 
HETATM   24  O2  UNL     1     -16.009  13.000  14.127  1.00  0.00    -0.348 OA
HETATM   25  C26 UNL     1     -16.182  14.363  13.700  1.00  0.00     0.179 C 
HETATM   26  C28 UNL     1     -17.461  14.530  12.855  1.00  0.00     0.180 C 
HETATM   27  C29 UNL     1     -17.468  13.514  11.702  1.00  0.00     0.183 C 
HETATM   28  C30 UNL     1     -17.231  12.104  12.240  1.00  0.00     0.204 C 
BRANCH  25  29
HETATM   29  C27 UNL     1     -16.231  15.269  14.944  1.00  0.00     0.198 C 
BRANCH  29  30
HETATM   30  O3  UNL     1     -17.576  15.657  15.252  1.00  0.00    -0.398 OA
HETATM   31  H41 UNL     1     -18.088  14.844  15.403  1.00  0.00     0.209 HD
ENDBRANCH  29  30
ENDBRANCH  25  29
BRANCH  26  32
HETATM   32  O4  UNL     1     -17.550  15.872  12.357  1.00  0.00    -0.390 OA
HETATM   33  H43 UNL     1     -17.188  15.899  11.455  1.00  0.00     0.210 HD
ENDBRANCH  26  32
BRANCH  27  34
HETATM   34  O5  UNL     1     -18.713  13.567  10.991  1.00  0.00    -0.390 OA
HETATM   35  H45 UNL     1     -18.761  12.727  10.489  1.00  0.00     0.210 HD
ENDBRANCH  27  34
BRANCH  28  36
HETATM   36  O6  UNL     1     -17.184  11.185  11.134  1.00  0.00    -0.388 OA
HETATM   37  H47 UNL     1     -16.950  10.324  11.535  1.00  0.00     0.210 HD
ENDBRANCH  28  36
ENDBRANCH  22  23
ENDBRANCH  15  22
BRANCH   1  38
HETATM   38  C8  UNL     1      -5.812   6.275  14.891  1.00  0.00     0.008 C 
HETATM   39  C9  UNL     1      -5.410   7.602  15.552  1.00  0.00     0.014 C 
BRANCH  38  40
HETATM   40  C7  UNL     1      -4.628   5.583  14.242  1.00  0.00    -0.026 C 
HETATM   41  C6  UNL     1      -4.663   4.714  13.220  1.00  0.00    -0.026 C 
BRANCH  41  42
HETATM   42  C4  UNL     1      -3.486   3.980  12.599  1.00  0.00     0.007 C 
HETATM   43  C5  UNL     1      -2.332   4.896  12.165  1.00  0.00     0.014 C 
BRANCH  42  44
HETATM   44  C2  UNL     1      -3.967   3.014  11.485  1.00  0.00    -0.015 C 
HETATM   45  C1  UNL     1      -3.480   1.574  11.675  1.00  0.00     0.010 C 
HETATM   46  C3  UNL     1      -5.492   3.026  11.332  1.00  0.00     0.010 C 
ENDBRANCH  42  44
ENDBRANCH  41  42
ENDBRANCH  38  40
ENDBRANCH   1  38
TORSDOF 11
ENDMDL
MODEL 2
REMARK minimizedAffinity -10.8527937
REMARK CNNscore 0.288746923
REMARK CNNaffinity 7.10108566
REMARK  11 active torsions:
REMARK  status: ('A' for Active; 'I' for Inactive)
REMARK    1  A    between atoms: C2_2  and  C4_4 
REMARK    2  A    between atoms: C4_4  and  C6_6 
REMARK    3  A    between atoms: C7_7  and  C8_8 
REMARK    4  A    between atoms: C8_8  and  C10_10 
REMARK    5  A    between atoms: C24_24  and  O1_25 
REMARK    6  A    between atoms: O1_25  and  C25_26 
REMARK    7  A    between atoms: C26_28  and  C27_29 
REMARK    8  A    between atoms: C27_29  and  O3_30 
REMARK    9  A    between atoms: C28_31  and  O4_32 
REMARK   10  A    between atoms: C29_33  and  O5_34 
REMARK   11  A    between atoms: C30_35  and  O6_36 
ROOT
HETATM    1  C10 UNL     1      -5.927   7.194  14.126  1.00  0.00     0.001 C 
HETATM    2  C11 UNL     1      -5.827   8.624  14.720  1.00  0.00     0.006 C 
HETATM    3  C12 UNL     1      -4.384   9.103  14.486  1.00  0.00     0.009 C 
HETATM    4  C13 UNL     1      -3.774   8.020  13.604  1.00  0.00     0.036 C 
HETATM    5  C14 UNL     1      -4.443   6.711  14.077  1.00  0.00    -0.033 C 
HETATM    6  C15 UNL     1      -3.945   6.207  15.445  1.00  0.00     0.016 C 
HETATM    7  C16 UNL     1      -4.160   5.649  12.997  1.00  0.00     0.010 C 
HETATM    8  C17 UNL     1      -2.651   5.447  12.782  1.00  0.00     0.010 C 
HETATM    9  C18 UNL     1      -1.882   6.754  12.489  1.00  0.00     0.039 C 
HETATM   10  C19 UNL     1      -2.252   7.960  13.429  1.00  0.00     0.123 C 
HETATM   11  C20 UNL     1      -1.402   8.046  14.674  1.00  0.00     0.014 C 
HETATM   12  C21 UNL     1      -0.084   8.122  14.424  1.00  0.00     0.014 C 
HETATM   13  C22 UNL     1       0.248   7.985  12.954  1.00  0.00     0.124 C 
HETATM   14  C23 UNL     1       1.727   8.150  12.622  1.00  0.00     0.078 C 
HETATM   15  C24 UNL     1       1.997   8.108  11.103  1.00  0.00     0.128 C 
HETATM   16  C31 UNL     1       0.859   7.474  10.280  1.00  0.00     0.033 C 
HETATM   17  C32 UNL     1       0.190   6.298  10.987  1.00  0.00     0.015 C 
HETATM   18  C33 UNL     1      -0.304   6.613  12.433  1.00  0.00     0.001 C 
HETATM   19  C34 UNL     1       0.209   5.437  13.314  1.00  0.00     0.019 C 
HETATM   20  O7  UNL     1      -0.448   9.058  12.260  1.00  0.00    -0.223 OA
HETATM   21  O8  UNL     1      -1.871   9.157  12.698  1.00  0.00    -0.224 OA
ENDROOT
BRANCH  15  22
HETATM   22  O1  UNL     1       3.242   7.410  10.946  1.00  0.00    -0.353 OA
BRANCH  22  23
HETATM   23  C25 UNL     1       4.262   7.818  11.865  1.00  0.00     0.292 C 
HETATM   24  O2  UNL     1       4.391   9.236  11.845  1.00  0.00    -0.348 OA
HETATM   25  C26 UNL     1       5.409   9.717  12.740  1.00  0.00     0.179 C 
HETATM   26  C28 UNL     1       6.791   9.124  12.391  1.00  0.00     0.180 C 
HETATM   27  C29 UNL     1       6.703   7.592  12.318  1.00  0.00     0.183 C 
HETATM   28  C30 UNL     1       5.569   7.172  11.385  1.00  0.00     0.204 C 
BRANCH  25  29
HETATM   29  C27 UNL     1       5.445  11.255  12.668  1.00  0.00     0.198 C 
BRANCH  29  30
HETATM   30  O3  UNL     1       5.914  11.706  11.391  1.00  0.00    -0.398 OA
HETATM   31  H41 UNL     1       5.312  11.348  10.715  1.00  0.00     0.209 HD
ENDBRANCH  29  30
ENDBRANCH  25  29
BRANCH  26  32
HETATM   32  O4  UNL     1       7.762   9.538  13.361  1.00  0.00    -0.390 OA
HETATM   33  H43 UNL     1       7.853   8.841  14.033  1.00  0.00     0.210 HD
ENDBRANCH  26  32
BRANCH  27  34
HETATM   34  O5  UNL     1       7.946   7.039  11.862  1.00  0.00    -0.390 OA
HETATM   35  H45 UNL     1       7.731   6.130  11.563  1.00  0.00     0.210 HD
ENDBRANCH  27  34
BRANCH  28  36
HETATM   36  O6  UNL     1       5.474   5.737  11.383  1.00  0.00    -0.388 OA
HETATM   37  H47 UNL     1       4.686   5.538  10.839  1.00  0.00     0.210 HD
ENDBRANCH  28  36
ENDBRANCH  22  23
ENDBRANCH  15  22
BRANCH   1  38
HETATM   38  C8  UNL     1      -7.005   6.272  14.765  1.00  0.00     0.008 C 
HETATM   39  C9  UNL     1      -6.636   5.966  16.224  1.00  0.00     0.014 C 
BRANCH  38  40
HETATM   40  C7  UNL     1      -7.336   5.012  13.989  1.00  0.00    -0.026 C 
HETATM   41  C6  UNL     1      -6.620   4.466  12.994  1.00  0.00    -0.026 C 
BRANCH  41  42
HETATM   42  C4  UNL     1      -6.972   3.232  12.179  1.00  0.00     0.007 C 
HETATM   43  C5  UNL     1      -7.927   2.261  12.888  1.00  0.00     0.014 C 
BRANCH  42  44
HETATM   44  C2  UNL     1      -5.690   2.552  11.629  1.00  0.00    -0.015 C 
HETATM   45  C1  UNL     1      -5.853   1.049  11.387  1.00  0.00     0.010 C 
HETATM   46  C3  UNL     1      -5.185   3.228  10.349  1.00  0.00     0.010 C 
ENDBRANCH  42  44
ENDBRANCH  41  42
ENDBRANCH  38  40
ENDBRANCH   1  38
TORSDOF 11
ENDMDL
MODEL 3
REMARK minimizedAffinity -9.6550045
REMARK CNNscore 0.258230627
REMARK CNNaffinity 7.38445282
REMARK  11 active torsions:
REMARK  status: ('A' for Active; 'I' for Inactive)
REMARK    1  A    between atoms: C2_2  and  C4_4 
REMARK    2  A    between atoms: C4_4  and  C6_6 
REMARK    3  A    between atoms: C7_7  and  C8_8 
REMARK    4  A    between atoms: C8_8  and  C10_10 
REMARK    5  A    between atoms: C24_24  and  O1_25 
REMARK    6  A    between atoms: O1_25  and  C25_26 
REMARK    7  A    between atoms: C26_28  and  C27_29 
REMARK    8  A    between atoms: C27_29  and  O3_30 
REMARK    9  A    between atoms: C28_31  and  O4_32 
REMARK   10  A    between atoms: C29_33  and  O5_34 
REMARK   11  A    between atoms: C30_35  and  O6_36 
ROOT
HETATM    1  C10 UNL     1     -12.292   8.541  13.464  1.00  0.00     0.001 C 
HETATM    2  C11 UNL     1     -12.245   9.321  14.805  1.00  0.00     0.006 C 
HETATM    3  C12 UNL     1     -10.869   9.041  15.434  1.00  0.00     0.009 C 
HETATM    4  C13 UNL     1     -10.116   8.279  14.351  1.00  0.00     0.036 C 
HETATM    5  C14 UNL     1     -11.200   7.439  13.641  1.00  0.00    -0.033 C 
HETATM    6  C15 UNL     1     -11.706   6.238  14.462  1.00  0.00     0.016 C 
HETATM    7  C16 UNL     1     -10.585   6.943  12.318  1.00  0.00     0.010 C 
HETATM    8  C17 UNL     1      -9.317   6.108  12.560  1.00  0.00     0.010 C 
HETATM    9  C18 UNL     1      -8.258   6.822  13.430  1.00  0.00     0.039 C 
HETATM   10  C19 UNL     1      -8.829   7.529  14.714  1.00  0.00     0.123 C 
HETATM   11  C20 UNL     1      -8.858   6.643  15.936  1.00  0.00     0.014 C 
HETATM   12  C21 UNL     1      -7.659   6.131  16.260  1.00  0.00     0.014 C 
HETATM   13  C22 UNL     1      -6.581   6.467  15.255  1.00  0.00     0.124 C 
HETATM   14  C23 UNL     1      -5.188   5.973  15.632  1.00  0.00     0.078 C 
HETATM   15  C24 UNL     1      -4.109   6.433  14.629  1.00  0.00     0.128 C 
HETATM   16  C31 UNL     1      -4.669   6.879  13.264  1.00  0.00     0.033 C 
HETATM   17  C32 UNL     1      -5.859   6.041  12.801  1.00  0.00     0.015 C 
HETATM   18  C33 UNL     1      -7.013   5.932  13.845  1.00  0.00     0.001 C 
HETATM   19  C34 UNL     1      -7.372   4.419  13.912  1.00  0.00     0.019 C 
HETATM   20  O7  UNL     1      -6.496   7.918  15.193  1.00  0.00    -0.223 OA
HETATM   21  O8  UNL     1      -7.848   8.539  15.074  1.00  0.00    -0.224 OA
ENDROOT
BRANCH  15  22
HETATM   22  O1  UNL     1      -3.190   5.337  14.513  1.00  0.00    -0.353 OA
BRANCH  22  23
HETATM   23  C25 UNL     1      -3.032   4.844  13.177  1.00  0.00     0.292 C 
HETATM   24  O2  UNL     1      -3.494   3.499  13.101  1.00  0.00    -0.348 OA
HETATM   25  C26 UNL     1      -3.354   2.935  11.785  1.00  0.00     0.179 C 
HETATM   26  C28 UNL     1      -1.882   2.943  11.322  1.00  0.00     0.180 C 
HETATM   27  C29 UNL     1      -1.296   4.357  11.456  1.00  0.00     0.183 C 
HETATM   28  C30 UNL     1      -1.529   4.895  12.866  1.00  0.00     0.204 C 
BRANCH  25  29
HETATM   29  C27 UNL     1      -3.910   1.499  11.801  1.00  0.00     0.198 C 
BRANCH  29  30
HETATM   30  O3  UNL     1      -5.146   1.411  11.080  1.00  0.00    -0.398 OA
HETATM   31  H41 UNL     1      -4.973   1.700  10.167  1.00  0.00     0.209 HD
ENDBRANCH  29  30
ENDBRANCH  25  29
BRANCH  26  32
HETATM   32  O4  UNL     1      -1.789   2.473   9.971  1.00  0.00    -0.390 OA
HETATM   33  H43 UNL     1      -1.775   3.238   9.371  1.00  0.00     0.210 HD
ENDBRANCH  26  32
BRANCH  27  34
HETATM   34  O5  UNL     1       0.108   4.349  11.158  1.00  0.00    -0.390 OA
HETATM   35  H45 UNL     1       0.458   5.181  11.540  1.00  0.00     0.210 HD
ENDBRANCH  27  34
BRANCH  28  36
HETATM   36  O6  UNL     1      -1.023   6.238  12.942  1.00  0.00    -0.388 OA
HETATM   37  H47 UNL     1      -1.275   6.551  13.835  1.00  0.00     0.210 HD
ENDBRANCH  28  36
ENDBRANCH  22  23
ENDBRANCH  15  22
BRANCH   1  38
HETATM   38  C8  UNL     1     -13.710   8.133  12.971  1.00  0.00     0.008 C 
HETATM   39  C9  UNL     1     -14.554   9.388  12.706  1.00  0.00     0.014 C 
BRANCH  38  40
HETATM   40  C7  UNL     1     -14.444   7.129  13.840  1.00  0.00    -0.026 C 
HETATM   41  C6  UNL     1     -15.569   6.466  13.531  1.00  0.00    -0.026 C 
BRANCH  41  42
HETATM   42  C4  UNL     1     -16.336   5.497  14.416  1.00  0.00     0.007 C 
HETATM   43  C5  UNL     1     -15.536   4.253  14.827  1.00  0.00     0.014 C 
BRANCH  42  44
HETATM   44  C2  UNL     1     -17.722   5.170  13.801  1.00  0.00    -0.015 C 
HETATM   45  C1  UNL     1     -17.649   4.210  12.610  1.00  0.00     0.010 C 
HETATM   46  C3  UNL     1     -18.700   4.620  14.846  1.00  0.00     0.010 C 
ENDBRANCH  42  44
ENDBRANCH  41  42
ENDBRANCH  38  40
ENDBRANCH   1  38
TORSDOF 11
ENDMDL
MODEL 4
REMARK minimizedAffinity -8.03045082
REMARK CNNscore 0.236531124
REMARK CNNaffinity 6.88185072
REMARK  11 active torsions:
REMARK  status: ('A' for Active; 'I' for Inactive)
REMARK    1  A    between atoms: C2_2  and  C4_4 
REMARK    2  A    between atoms: C4_4  and  C6_6 
REMARK    3  A    between atoms: C7_7  and  C8_8 
REMARK    4  A    between atoms: C8_8  and  C10_10 
REMARK    5  A    between atoms: C24_24  and  O1_25 
REMARK    6  A    between atoms: O1_25  and  C25_26 
REMARK    7  A    between atoms: C26_28  and  C27_29 
REMARK    8  A    between atoms: C27_29  and  O3_30 
REMARK    9  A    between atoms: C28_31  and  O4_32 
REMARK   10  A    between atoms: C29_33  and  O5_34 
REMARK   11  A    between atoms: C30_35  and  O6_36 
ROOT
HETATM    1  C10 UNL     1      -7.146   6.776  13.965  1.00  0.00     0.001 C 
HETATM    2  C11 UNL     1      -7.662   5.598  13.097  1.00  0.00     0.006 C 
HETATM    3  C12 UNL     1      -9.169   5.829  12.885  1.00  0.00     0.009 C 
HETATM    4  C13 UNL     1      -9.415   7.216  13.468  1.00  0.00     0.036 C 
HETATM    5  C14 UNL     1      -8.436   7.317  14.658  1.00  0.00    -0.033 C 
HETATM    6  C15 UNL     1      -8.842   6.474  15.882  1.00  0.00     0.016 C 
HETATM    7  C16 UNL     1      -8.364   8.805  15.052  1.00  0.00     0.010 C 
HETATM    8  C17 UNL     1      -9.748   9.358  15.432  1.00  0.00     0.010 C 
HETATM    9  C18 UNL     1     -10.831   9.121  14.356  1.00  0.00     0.039 C 
HETATM   10  C19 UNL     1     -10.852   7.669  13.752  1.00  0.00     0.123 C 
HETATM   11  C20 UNL     1     -11.752   6.712  14.496  1.00  0.00     0.014 C 
HETATM   12  C21 UNL     1     -13.026   7.128  14.585  1.00  0.00     0.014 C 
HETATM   13  C22 UNL     1     -13.237   8.515  14.020  1.00  0.00     0.124 C 
HETATM   14  C23 UNL     1     -14.687   8.987  14.028  1.00  0.00     0.078 C 
HETATM   15  C24 UNL     1     -14.861  10.361  13.346  1.00  0.00     0.128 C 
HETATM   16  C31 UNL     1     -13.554  11.166  13.211  1.00  0.00     0.033 C 
HETATM   17  C32 UNL     1     -12.623  11.003  14.411  1.00  0.00     0.015 C 
HETATM   18  C33 UNL     1     -12.305   9.522  14.781  1.00  0.00     0.001 C 
HETATM   19  C34 UNL     1     -12.518   9.421  16.319  1.00  0.00     0.019 C 
HETATM   20  O7  UNL     1     -12.829   8.471  12.624  1.00  0.00    -0.223 OA
HETATM   21  O8  UNL     1     -11.511   7.790  12.462  1.00  0.00    -0.224 OA
ENDROOT
BRANCH  15  22
HETATM   22  O1  UNL     1     -15.857  11.055  14.112  1.00  0.00    -0.353 OA
BRANCH  22  23
HETATM   23  C25 UNL     1     -16.998  11.470  13.350  1.00  0.00     0.292 C 
HETATM   24  O2  UNL     1     -17.156  10.621  12.217  1.00  0.00    -0.348 OA
HETATM   25  C26 UNL     1     -18.281  10.989  11.399  1.00  0.00     0.179 C 
HETATM   26  C28 UNL     1     -18.149  12.434  10.876  1.00  0.00     0.180 C 
HETATM   27  C29 UNL     1     -17.895  13.396  12.047  1.00  0.00     0.183 C 
HETATM   28  C30 UNL     1     -16.717  12.906  12.888  1.00  0.00     0.204 C 
BRANCH  25  29
HETATM   29  C27 UNL     1     -18.384   9.996  10.226  1.00  0.00     0.198 C 
BRANCH  29  30
HETATM   30  O3  UNL     1     -17.661   8.789  10.501  1.00  0.00    -0.398 OA
HETATM   31  H41 UNL     1     -18.037   8.400  11.310  1.00  0.00     0.209 HD
ENDBRANCH  29  30
ENDBRANCH  25  29
BRANCH  26  32
HETATM   32  O4  UNL     1     -19.330  12.806  10.153  1.00  0.00    -0.390 OA
HETATM   33  H43 UNL     1     -19.928  13.286  10.751  1.00  0.00     0.210 HD
ENDBRANCH  26  32
BRANCH  27  34
HETATM   34  O5  UNL     1     -17.635  14.722  11.562  1.00  0.00    -0.390 OA
HETATM   35  H45 UNL     1     -17.204  15.190  12.308  1.00  0.00     0.210 HD
ENDBRANCH  27  34
BRANCH  28  36
HETATM   36  O6  UNL     1     -16.542  13.792  14.007  1.00  0.00    -0.388 OA
HETATM   37  H47 UNL     1     -15.835  13.381  14.543  1.00  0.00     0.210 HD
ENDBRANCH  28  36
ENDBRANCH  22  23
ENDBRANCH  15  22
BRANCH   1  38
HETATM   38  C8  UNL     1      -5.888   6.475  14.830  1.00  0.00     0.008 C 
HETATM   39  C9  UNL     1      -5.263   7.789  15.320  1.00  0.00     0.014 C 
BRANCH  38  40
HETATM   40  C7  UNL     1      -4.859   5.559  14.196  1.00  0.00    -0.026 C 
HETATM   41  C6  UNL     1      -4.085   5.829  13.133  1.00  0.00    -0.026 C 
BRANCH  41  42
HETATM   42  C4  UNL     1      -3.088   4.897  12.464  1.00  0.00     0.007 C 
HETATM   43  C5  UNL     1      -3.474   3.413  12.526  1.00  0.00     0.014 C 
BRANCH  42  44
HETATM   44  C2  UNL     1      -1.646   5.186  12.961  1.00  0.00    -0.015 C 
HETATM   45  C1  UNL     1      -0.896   6.203  12.095  1.00  0.00     0.010 C 
HETATM   46  C3  UNL     1      -1.623   5.640  14.425  1.00  0.00     0.010 C 
ENDBRANCH  42  44
ENDBRANCH  41  42
ENDBRANCH  38  40
ENDBRANCH   1  38
TORSDOF 11
ENDMDL
MODEL 5
REMARK minimizedAffinity -8.48567104
REMARK CNNscore 0.199901089
REMARK CNNaffinity 5.92035341
REMARK  11 active torsions:
REMARK  status: ('A' for Active; 'I' for Inactive)
REMARK    1  A    between atoms: C2_2  and  C4_4 
REMARK    2  A    between atoms: C4_4  and  C6_6 
REMARK    3  A    between atoms: C7_7  and  C8_8 
REMARK    4  A    between atoms: C8_8  and  C10_10 
REMARK    5  A    between atoms: C24_24  and  O1_25 
REMARK    6  A    between atoms: O1_25  and  C25_26 
REMARK    7  A    between atoms: C26_28  and  C27_29 
REMARK    8  A    between atoms: C27_29  and  O3_30 
REMARK    9  A    between atoms: C28_31  and  O4_32 
REMARK   10  A    between atoms: C29_33  and  O5_34 
REMARK   11  A    between atoms: C30_35  and  O6_36 
ROOT
HETATM    1  C10 UNL     1      -2.423   9.519  15.857  1.00  0.00     0.001 C 
HETATM    2  C11 UNL     1      -1.454   9.306  14.664  1.00  0.00     0.006 C 
HETATM    3  C12 UNL     1      -0.049   9.692  15.158  1.00  0.00     0.009 C 
HETATM    4  C13 UNL     1      -0.234   9.921  16.653  1.00  0.00     0.036 C 
HETATM    5  C14 UNL     1      -1.654  10.513  16.783  1.00  0.00    -0.033 C 
HETATM    6  C15 UNL     1      -1.774  11.973  16.306  1.00  0.00     0.016 C 
HETATM    7  C16 UNL     1      -2.043  10.418  18.271  1.00  0.00     0.010 C 
HETATM    8  C17 UNL     1      -1.049  11.176  19.167  1.00  0.00     0.010 C 
HETATM    9  C18 UNL     1       0.424  10.763  18.952  1.00  0.00     0.039 C 
HETATM   10  C19 UNL     1       0.861  10.646  17.445  1.00  0.00     0.123 C 
HETATM   11  C20 UNL     1       1.408  11.929  16.867  1.00  0.00     0.014 C 
HETATM   12  C21 UNL     1       2.453  12.426  17.550  1.00  0.00     0.014 C 
HETATM   13  C22 UNL     1       2.762  11.647  18.808  1.00  0.00     0.124 C 
HETATM   14  C23 UNL     1       3.993  12.133  19.566  1.00  0.00     0.078 C 
HETATM   15  C24 UNL     1       4.327  11.240  20.780  1.00  0.00     0.128 C 
HETATM   16  C31 UNL     1       3.155  10.356  21.251  1.00  0.00     0.033 C 
HETATM   17  C32 UNL     1       1.799  11.049  21.140  1.00  0.00     0.015 C 
HETATM   18  C33 UNL     1       1.492  11.640  19.729  1.00  0.00     0.001 C 
HETATM   19  C34 UNL     1       0.985  13.088  19.985  1.00  0.00     0.019 C 
HETATM   20  O7  UNL     1       3.047  10.279  18.401  1.00  0.00    -0.223 OA
HETATM   21  O8  UNL     1       2.023   9.772  17.441  1.00  0.00    -0.224 OA
ENDROOT
BRANCH  15  22
HETATM   22  O1  UNL     1       4.788  12.132  21.806  1.00  0.00    -0.353 OA
BRANCH  22  23
HETATM   23  C25 UNL     1       6.011  12.808  21.489  1.00  0.00     0.292 C 
HETATM   24  O2  UNL     1       6.914  11.902  20.863  1.00  0.00    -0.348 OA
HETATM   25  C26 UNL     1       8.172  12.513  20.526  1.00  0.00     0.179 C 
HETATM   26  C28 UNL     1       8.878  13.076  21.777  1.00  0.00     0.180 C 
HETATM   27  C29 UNL     1       7.925  14.004  22.546  1.00  0.00     0.183 C 
HETATM   28  C30 UNL     1       6.601  13.293  22.820  1.00  0.00     0.204 C 
BRANCH  25  29
HETATM   29  C27 UNL     1       9.059  11.465  19.828  1.00  0.00     0.198 C 
BRANCH  29  30
HETATM   30  O3  UNL     1      10.233  11.180  20.600  1.00  0.00    -0.398 OA
HETATM   31  H41 UNL     1       9.940  10.854  21.469  1.00  0.00     0.209 HD
ENDBRANCH  29  30
ENDBRANCH  25  29
BRANCH  26  32
HETATM   32  O4  UNL     1      10.075  13.769  21.396  1.00  0.00    -0.390 OA
HETATM   33  H43 UNL     1       9.879  14.719  21.322  1.00  0.00     0.210 HD
ENDBRANCH  26  32
BRANCH  27  34
HETATM   34  O5  UNL     1       8.522  14.426  23.781  1.00  0.00    -0.390 OA
HETATM   35  H45 UNL     1       7.778  14.751  24.331  1.00  0.00     0.210 HD
ENDBRANCH  27  34
BRANCH  28  36
HETATM   36  O6  UNL     1       5.712  14.205  23.487  1.00  0.00    -0.388 OA
HETATM   37  H47 UNL     1       4.864  13.720  23.559  1.00  0.00     0.210 HD
ENDBRANCH  28  36
ENDBRANCH  22  23
ENDBRANCH  15  22
BRANCH   1  38
HETATM   38  C8  UNL     1      -3.901   9.823  15.478  1.00  0.00     0.008 C 
HETATM   39  C9  UNL     1      -4.379  11.088  16.205  1.00  0.00     0.014 C 
BRANCH  38  40
HETATM   40  C7  UNL     1      -4.873   8.671  15.648  1.00  0.00    -0.026 C 
HETATM   41  C6  UNL     1      -5.544   8.032  14.677  1.00  0.00    -0.026 C 
BRANCH  41  42
HETATM   42  C4  UNL     1      -6.556   6.911  14.846  1.00  0.00     0.007 C 
HETATM   43  C5  UNL     1      -6.204   5.907  15.954  1.00  0.00     0.014 C 
BRANCH  42  44
HETATM   44  C2  UNL     1      -6.870   6.244  13.480  1.00  0.00    -0.015 C 
HETATM   45  C1  UNL     1      -6.182   4.889  13.291  1.00  0.00     0.010 C 
HETATM   46  C3  UNL     1      -8.378   6.092  13.248  1.00  0.00     0.010 C 
ENDBRANCH  42  44
ENDBRANCH  41  42
ENDBRANCH  38  40
ENDBRANCH   1  38
TORSDOF 11
ENDMDL
MODEL 6
REMARK minimizedAffinity -10.3033085
REMARK CNNscore 0.196513921
REMARK CNNaffinity 6.89520311
REMARK  11 active torsions:
REMARK  status: ('A' for Active; 'I' for Inactive)
REMARK    1  A    between atoms: C2_2  and  C4_4 
REMARK    2  A    between atoms: C4_4  and  C6_6 
REMARK    3  A    between atoms: C7_7  and  C8_8 
REMARK    4  A    between atoms: C8_8  and  C10_10 
REMARK    5  A    between atoms: C24_24  and  O1_25 
REMARK    6  A    between atoms: O1_25  and  C25_26 
REMARK    7  A    between atoms: C26_28  and  C27_29 
REMARK    8  A    between atoms: C27_29  and  O3_30 
REMARK    9  A    between atoms: C28_31  and  O4_32 
REMARK   10  A    between atoms: C29_33  and  O5_34 
REMARK   11  A    between atoms: C30_35  and  O6_36 
ROOT
HETATM    1  C10 UNL     1      -5.857   6.515  13.529  1.00  0.00     0.001 C 
HETATM    2  C11 UNL     1      -5.951   7.995  13.987  1.00  0.00     0.006 C 
HETATM    3  C12 UNL     1      -4.552   8.608  13.796  1.00  0.00     0.009 C 
HETATM    4  C13 UNL     1      -3.771   7.524  13.062  1.00  0.00     0.036 C 
HETATM    5  C14 UNL     1      -4.331   6.197  13.618  1.00  0.00    -0.033 C 
HETATM    6  C15 UNL     1      -3.882   5.876  15.056  1.00  0.00     0.016 C 
HETATM    7  C16 UNL     1      -3.863   5.081  12.665  1.00  0.00     0.010 C 
HETATM    8  C17 UNL     1      -2.329   5.029  12.564  1.00  0.00     0.010 C 
HETATM    9  C18 UNL     1      -1.682   6.381  12.193  1.00  0.00     0.039 C 
HETATM   10  C19 UNL     1      -2.242   7.618  12.987  1.00  0.00     0.123 C 
HETATM   11  C20 UNL     1      -1.497   7.909  14.268  1.00  0.00     0.014 C 
HETATM   12  C21 UNL     1      -0.180   8.108  14.092  1.00  0.00     0.014 C 
HETATM   13  C22 UNL     1       0.268   7.877  12.666  1.00  0.00     0.124 C 
HETATM   14  C23 UNL     1       1.742   8.175  12.411  1.00  0.00     0.078 C 
HETATM   15  C24 UNL     1       2.123   8.027  10.923  1.00  0.00     0.128 C 
HETATM   16  C31 UNL     1       1.118   7.200  10.096  1.00  0.00     0.033 C 
HETATM   17  C32 UNL     1       0.528   6.024  10.872  1.00  0.00     0.015 C 
HETATM   18  C33 UNL     1      -0.098   6.411  12.247  1.00  0.00     0.001 C 
HETATM   19  C34 UNL     1       0.471   5.383  13.268  1.00  0.00     0.019 C 
HETATM   20  O7  UNL     1      -0.485   8.800  11.830  1.00  0.00    -0.223 OA
HETATM   21  O8  UNL     1      -1.938   8.780  12.169  1.00  0.00    -0.224 OA
ENDROOT
BRANCH  15  22
HETATM   22  O1  UNL     1       3.442   7.460  10.910  1.00  0.00    -0.353 OA
BRANCH  22  23
HETATM   23  C25 UNL     1       4.328   8.018  11.888  1.00  0.00     0.292 C 
HETATM   24  O2  UNL     1       4.402   9.430  11.723  1.00  0.00    -0.348 OA
HETATM   25  C26 UNL     1       5.286  10.057  12.668  1.00  0.00     0.179 C 
HETATM   26  C28 UNL     1       6.722   9.504  12.549  1.00  0.00     0.180 C 
HETATM   27  C29 UNL     1       6.704   7.970  12.639  1.00  0.00     0.183 C 
HETATM   28  C30 UNL     1       5.707   7.393  11.636  1.00  0.00     0.204 C 
BRANCH  25  29
HETATM   29  C27 UNL     1       5.269  11.578  12.429  1.00  0.00     0.198 C 
BRANCH  29  30
HETATM   30  O3  UNL     1       6.217  11.957  11.423  1.00  0.00    -0.398 OA
HETATM   31  H41 UNL     1       5.984  11.481  10.606  1.00  0.00     0.209 HD
ENDBRANCH  29  30
ENDBRANCH  25  29
BRANCH  26  32
HETATM   32  O4  UNL     1       7.553  10.070  13.571  1.00  0.00    -0.390 OA
HETATM   33  H43 UNL     1       7.591   9.455  14.324  1.00  0.00     0.210 HD
ENDBRANCH  26  32
BRANCH  27  34
HETATM   34  O5  UNL     1       8.014   7.437  12.394  1.00  0.00    -0.390 OA
HETATM   35  H45 UNL     1       7.872   6.491  12.177  1.00  0.00     0.210 HD
ENDBRANCH  27  34
BRANCH  28  36
HETATM   36  O6  UNL     1       5.670   5.963  11.786  1.00  0.00    -0.388 OA
HETATM   37  H47 UNL     1       4.961   5.666  11.180  1.00  0.00     0.210 HD
ENDBRANCH  28  36
ENDBRANCH  22  23
ENDBRANCH  15  22
BRANCH   1  38
HETATM   38  C8  UNL     1      -6.876   5.540  14.187  1.00  0.00     0.008 C 
HETATM   39  C9  UNL     1      -7.189   4.383  13.228  1.00  0.00     0.014 C 
BRANCH  38  40
HETATM   40  C7  UNL     1      -8.138   6.180  14.734  1.00  0.00    -0.026 C 
HETATM   41  C6  UNL     1      -9.214   6.568  14.033  1.00  0.00    -0.026 C 
BRANCH  41  42
HETATM   42  C4  UNL     1     -10.460   7.255  14.569  1.00  0.00     0.007 C 
HETATM   43  C5  UNL     1     -11.741   6.934  13.786  1.00  0.00     0.014 C 
BRANCH  42  44
HETATM   44  C2  UNL     1     -10.211   8.775  14.759  1.00  0.00    -0.015 C 
HETATM   45  C1  UNL     1     -11.265   9.654  14.080  1.00  0.00     0.010 C 
HETATM   46  C3  UNL     1     -10.097   9.158  16.239  1.00  0.00     0.010 C 
ENDBRANCH  42  44
ENDBRANCH  41  42
ENDBRANCH  38  40
ENDBRANCH   1  38
TORSDOF 11
ENDMDL
MODEL 7
REMARK minimizedAffinity -10.496253
REMARK CNNscore 0.195238888
REMARK CNNaffinity 6.40800428
REMARK  11 active torsions:
REMARK  status: ('A' for Active; 'I' for Inactive)
REMARK    1  A    between atoms: C2_2  and  C4_4 
REMARK    2  A    between atoms: C4_4  and  C6_6 
REMARK    3  A    between atoms: C7_7  and  C8_8 
REMARK    4  A    between atoms: C8_8  and  C10_10 
REMARK    5  A    between atoms: C24_24  and  O1_25 
REMARK    6  A    between atoms: O1_25  and  C25_26 
REMARK    7  A    between atoms: C26_28  and  C27_29 
REMARK    8  A    between atoms: C27_29  and  O3_30 
REMARK    9  A    between atoms: C28_31  and  O4_32 
REMARK   10  A    between atoms: C29_33  and  O5_34 
REMARK   11  A    between atoms: C30_35  and  O6_36 
ROOT
HETATM    1  C10 UNL     1       1.450   6.943  10.254  1.00  0.00     0.001 C 
HETATM    2  C11 UNL     1       1.786   5.506  10.734  1.00  0.00     0.006 C 
HETATM    3  C12 UNL     1       0.701   5.114  11.752  1.00  0.00     0.009 C 
HETATM    4  C13 UNL     1      -0.311   6.250  11.670  1.00  0.00     0.036 C 
HETATM    5  C14 UNL     1       0.539   7.508  11.388  1.00  0.00    -0.033 C 
HETATM    6  C15 UNL     1       1.351   8.005  12.600  1.00  0.00     0.016 C 
HETATM    7  C16 UNL     1      -0.433   8.610  10.927  1.00  0.00     0.010 C 
HETATM    8  C17 UNL     1      -1.507   8.901  11.989  1.00  0.00     0.010 C 
HETATM    9  C18 UNL     1      -2.275   7.646  12.459  1.00  0.00     0.039 C 
HETATM   10  C19 UNL     1      -1.369   6.398  12.771  1.00  0.00     0.123 C 
HETATM   11  C20 UNL     1      -0.899   6.328  14.204  1.00  0.00     0.014 C 
HETATM   12  C21 UNL     1      -1.900   6.331  15.100  1.00  0.00     0.014 C 
HETATM   13  C22 UNL     1      -3.260   6.523  14.468  1.00  0.00     0.124 C 
HETATM   14  C23 UNL     1      -4.428   6.448  15.445  1.00  0.00     0.078 C 
HETATM   15  C24 UNL     1      -5.796   6.543  14.736  1.00  0.00     0.128 C 
HETATM   16  C31 UNL     1      -5.727   7.133  13.314  1.00  0.00     0.033 C 
HETATM   17  C32 UNL     1      -4.698   8.253  13.179  1.00  0.00     0.015 C 
HETATM   18  C33 UNL     1      -3.267   7.875  13.673  1.00  0.00     0.001 C 
HETATM   19  C34 UNL     1      -2.816   9.055  14.582  1.00  0.00     0.019 C 
HETATM   20  O7  UNL     1      -3.447   5.431  13.524  1.00  0.00    -0.223 OA
HETATM   21  O8  UNL     1      -2.243   5.242  12.663  1.00  0.00    -0.224 OA
ENDROOT
BRANCH  15  22
HETATM   22  O1  UNL     1      -6.637   7.312  15.609  1.00  0.00    -0.353 OA
BRANCH  22  23
HETATM   23  C25 UNL     1      -7.825   7.814  14.985  1.00  0.00     0.292 C 
HETATM   24  O2  UNL     1      -8.191   9.058  15.573  1.00  0.00    -0.348 OA
HETATM   25  C26 UNL     1      -9.386   9.616  15.000  1.00  0.00     0.179 C 
HETATM   26  C28 UNL     1     -10.587   8.661  15.160  1.00  0.00     0.180 C 
HETATM   27  C29 UNL     1     -10.229   7.270  14.614  1.00  0.00     0.183 C 
HETATM   28  C30 UNL     1      -8.926   6.776  15.240  1.00  0.00     0.204 C 
BRANCH  25  29
HETATM   29  C27 UNL     1      -9.674  10.969  15.677  1.00  0.00     0.198 C 
BRANCH  29  30
HETATM   30  O3  UNL     1      -9.280  12.064  14.842  1.00  0.00    -0.398 OA
HETATM   31  H41 UNL     1      -9.776  11.989  14.007  1.00  0.00     0.209 HD
ENDBRANCH  29  30
ENDBRANCH  25  29
BRANCH  26  32
HETATM   32  O4  UNL     1     -11.735   9.198  14.489  1.00  0.00    -0.390 OA
HETATM   33  H43 UNL     1     -11.793   8.804  13.601  1.00  0.00     0.210 HD
ENDBRANCH  26  32
BRANCH  27  34
HETATM   34  O5  UNL     1     -11.288   6.338  14.881  1.00  0.00    -0.390 OA
HETATM   35  H45 UNL     1     -10.883   5.451  14.782  1.00  0.00     0.210 HD
ENDBRANCH  27  34
BRANCH  28  36
HETATM   36  O6  UNL     1      -8.589   5.501  14.667  1.00  0.00    -0.388 OA
HETATM   37  H47 UNL     1      -7.713   5.281  15.044  1.00  0.00     0.210 HD
ENDBRANCH  28  36
ENDBRANCH  22  23
ENDBRANCH  15  22
BRANCH   1  38
HETATM   38  C8  UNL     1       2.660   7.788   9.759  1.00  0.00     0.008 C 
HETATM   39  C9  UNL     1       2.649   7.872   8.226  1.00  0.00     0.014 C 
BRANCH  38  40
HETATM   40  C7  UNL     1       4.016   7.370  10.294  1.00  0.00    -0.026 C 
HETATM   41  C6  UNL     1       5.064   8.168  10.549  1.00  0.00    -0.026 C 
BRANCH  41  42
HETATM   42  C4  UNL     1       6.440   7.749  11.038  1.00  0.00     0.007 C 
HETATM   43  C5  UNL     1       6.643   6.229  11.117  1.00  0.00     0.014 C 
BRANCH  42  44
HETATM   44  C2  UNL     1       6.809   8.495  12.348  1.00  0.00    -0.015 C 
HETATM   45  C1  UNL     1       7.825   7.741  13.212  1.00  0.00     0.010 C 
HETATM   46  C3  UNL     1       7.318   9.915  12.077  1.00  0.00     0.010 C 
ENDBRANCH  42  44
ENDBRANCH  41  42
ENDBRANCH  38  40
ENDBRANCH   1  38
TORSDOF 11
ENDMDL
MODEL 8
REMARK minimizedAffinity -9.48257065
REMARK CNNscore 0.176450431
REMARK CNNaffinity 6.30451632
REMARK  11 active torsions:
REMARK  status: ('A' for Active; 'I' for Inactive)
REMARK    1  A    between atoms: C2_2  and  C4_4 
REMARK    2  A    between atoms: C4_4  and  C6_6 
REMARK    3  A    between atoms: C7_7  and  C8_8 
REMARK    4  A    between atoms: C8_8  and  C10_10 
REMARK    5  A    between atoms: C24_24  and  O1_25 
REMARK    6  A    between atoms: O1_25  and  C25_26 
REMARK    7  A    between atoms: C26_28  and  C27_29 
REMARK    8  A    between atoms: C27_29  and  O3_30 
REMARK    9  A    between atoms: C28_31  and  O4_32 
REMARK   10  A    between atoms: C29_33  and  O5_34 
REMARK   11  A    between atoms: C30_35  and  O6_36 
ROOT
HETATM    1  C10 UNL     1      -5.071   7.789  14.077  1.00  0.00     0.001 C 
HETATM    2  C11 UNL     1      -5.136   8.803  15.250  1.00  0.00     0.006 C 
HETATM    3  C12 UNL     1      -3.686   9.204  15.572  1.00  0.00     0.009 C 
HETATM    4  C13 UNL     1      -2.870   8.563  14.456  1.00  0.00     0.036 C 
HETATM    5  C14 UNL     1      -3.610   7.245  14.141  1.00  0.00    -0.033 C 
HETATM    6  C15 UNL     1      -3.437   6.153  15.214  1.00  0.00     0.016 C 
HETATM    7  C16 UNL     1      -3.065   6.739  12.792  1.00  0.00     0.010 C 
HETATM    8  C17 UNL     1      -1.544   6.515  12.841  1.00  0.00     0.010 C 
HETATM    9  C18 UNL     1      -0.750   7.745  13.333  1.00  0.00     0.039 C 
HETATM   10  C19 UNL     1      -1.348   8.449  14.606  1.00  0.00     0.123 C 
HETATM   11  C20 UNL     1      -0.814   7.908  15.911  1.00  0.00     0.014 C 
HETATM   12  C21 UNL     1       0.525   7.967  16.011  1.00  0.00     0.014 C 
HETATM   13  C22 UNL     1       1.193   8.454  14.745  1.00  0.00     0.124 C 
HETATM   14  C23 UNL     1       2.706   8.614  14.849  1.00  0.00     0.078 C 
HETATM   15  C24 UNL     1       3.324   9.213  13.568  1.00  0.00     0.128 C 
HETATM   16  C31 UNL     1       2.419   9.106  12.325  1.00  0.00     0.033 C 
HETATM   17  C32 UNL     1       1.623   7.804  12.272  1.00  0.00     0.015 C 
HETATM   18  C33 UNL     1       0.800   7.501  13.563  1.00  0.00     0.001 C 
HETATM   19  C34 UNL     1       1.112   6.018  13.917  1.00  0.00     0.019 C 
HETATM   20  O7  UNL     1       0.661   9.779  14.467  1.00  0.00    -0.223 OA
HETATM   21  O8  UNL     1      -0.827   9.806  14.585  1.00  0.00    -0.224 OA
ENDROOT
BRANCH  15  22
HETATM   22  O1  UNL     1       4.582   8.544  13.391  1.00  0.00    -0.353 OA
BRANCH  22  23
HETATM   23  C25 UNL     1       5.665   9.131  14.122  1.00  0.00     0.292 C 
HETATM   24  O2  UNL     1       6.490   9.886  13.240  1.00  0.00    -0.348 OA
HETATM   25  C26 UNL     1       7.608  10.496  13.908  1.00  0.00     0.179 C 
HETATM   26  C28 UNL     1       8.505   9.439  14.586  1.00  0.00     0.180 C 
HETATM   27  C29 UNL     1       7.658   8.536  15.496  1.00  0.00     0.183 C 
HETATM   28  C30 UNL     1       6.470   7.969  14.720  1.00  0.00     0.204 C 
BRANCH  25  29
HETATM   29  C27 UNL     1       8.414  11.312  12.879  1.00  0.00     0.198 C 
BRANCH  29  30
HETATM   30  O3  UNL     1       9.494  10.542  12.336  1.00  0.00    -0.398 OA
HETATM   31  H41 UNL     1       9.109   9.752  11.917  1.00  0.00     0.209 HD
ENDBRANCH  29  30
ENDBRANCH  25  29
BRANCH  26  32
HETATM   32  O4  UNL     1       9.549  10.084  15.329  1.00  0.00    -0.390 OA
HETATM   33  H43 UNL     1       9.273  10.159  16.259  1.00  0.00     0.210 HD
ENDBRANCH  26  32
BRANCH  27  34
HETATM   34  O5  UNL     1       8.455   7.466  16.025  1.00  0.00    -0.390 OA
HETATM   35  H45 UNL     1       7.814   6.793  16.334  1.00  0.00     0.210 HD
ENDBRANCH  27  34
BRANCH  28  36
HETATM   36  O6  UNL     1       5.666   7.177  15.611  1.00  0.00    -0.388 OA
HETATM   37  H47 UNL     1       4.888   6.915  15.079  1.00  0.00     0.210 HD
ENDBRANCH  28  36
ENDBRANCH  22  23
ENDBRANCH  15  22
BRANCH   1  38
HETATM   38  C8  UNL     1      -6.254   6.782  13.990  1.00  0.00     0.008 C 
HETATM   39  C9  UNL     1      -6.662   6.329  15.399  1.00  0.00     0.014 C 
BRANCH  38  40
HETATM   40  C7  UNL     1      -6.048   5.606  13.055  1.00  0.00    -0.026 C 
HETATM   41  C6  UNL     1      -5.426   4.451  13.337  1.00  0.00    -0.026 C 
BRANCH  41  42
HETATM   42  C4  UNL     1      -5.173   3.290  12.389  1.00  0.00     0.007 C 
HETATM   43  C5  UNL     1      -4.177   3.602  11.263  1.00  0.00     0.014 C 
BRANCH  42  44
HETATM   44  C2  UNL     1      -6.513   2.689  11.885  1.00  0.00    -0.015 C 
HETATM   45  C1  UNL     1      -6.351   1.329  11.199  1.00  0.00     0.010 C 
HETATM   46  C3  UNL     1      -7.551   2.579  13.008  1.00  0.00     0.010 C 
ENDBRANCH  42  44
ENDBRANCH  41  42
ENDBRANCH  38  40
ENDBRANCH   1  38
TORSDOF 11
ENDMDL
MODEL 9
REMARK minimizedAffinity -8.35033417
REMARK CNNscore 0.171750218
REMARK CNNaffinity 5.26864576
REMARK  11 active torsions:
REMARK  status: ('A' for Active; 'I' for Inactive)
REMARK    1  A    between atoms: C2_2  and  C4_4 
REMARK    2  A    between atoms: C4_4  and  C6_6 
REMARK    3  A    between atoms: C7_7  and  C8_8 
REMARK    4  A    between atoms: C8_8  and  C10_10 
REMARK    5  A    between atoms: C24_24  and  O1_25 
REMARK    6  A    between atoms: O1_25  and  C25_26 
REMARK    7  A    between atoms: C26_28  and  C27_29 
REMARK    8  A    between atoms: C27_29  and  O3_30 
REMARK    9  A    between atoms: C28_31  and  O4_32 
REMARK   10  A    between atoms: C29_33  and  O5_34 
REMARK   11  A    between atoms: C30_35  and  O6_36 
ROOT
HETATM    1  C10 UNL     1       5.394  11.961  22.209  1.00  0.00     0.001 C 
HETATM    2  C11 UNL     1       4.826  10.711  22.932  1.00  0.00     0.006 C 
HETATM    3  C12 UNL     1       3.702  10.154  22.041  1.00  0.00     0.009 C 
HETATM    4  C13 UNL     1       3.799  10.981  20.764  1.00  0.00     0.036 C 
HETATM    5  C14 UNL     1       4.243  12.381  21.241  1.00  0.00    -0.033 C 
HETATM    6  C15 UNL     1       3.139  13.183  21.956  1.00  0.00     0.016 C 
HETATM    7  C16 UNL     1       4.717  13.148  19.992  1.00  0.00     0.010 C 
HETATM    8  C17 UNL     1       3.605  13.256  18.936  1.00  0.00     0.010 C 
HETATM    9  C18 UNL     1       2.980  11.898  18.548  1.00  0.00     0.039 C 
HETATM   10  C19 UNL     1       2.638  10.959  19.763  1.00  0.00     0.123 C 
HETATM   11  C20 UNL     1       1.243  11.150  20.307  1.00  0.00     0.014 C 
HETATM   12  C21 UNL     1       0.277  10.984  19.388  1.00  0.00     0.014 C 
HETATM   13  C22 UNL     1       0.820  10.760  17.994  1.00  0.00     0.124 C 
HETATM   14  C23 UNL     1      -0.245  10.483  16.938  1.00  0.00     0.078 C 
HETATM   15  C24 UNL     1       0.365  10.157  15.559  1.00  0.00     0.128 C 
HETATM   16  C31 UNL     1       1.831  10.605  15.398  1.00  0.00     0.033 C 
HETATM   17  C32 UNL     1       2.132  11.932  16.090  1.00  0.00     0.015 C 
HETATM   18  C33 UNL     1       1.717  11.982  17.593  1.00  0.00     0.001 C 
HETATM   19  C34 UNL     1       0.942  13.320  17.767  1.00  0.00     0.019 C 
HETATM   20  O7  UNL     1       1.656   9.570  18.050  1.00  0.00    -0.223 OA
HETATM   21  O8  UNL     1       2.587   9.613  19.216  1.00  0.00    -0.224 OA
ENDROOT
BRANCH  15  22
HETATM   22  O1  UNL     1      -0.503  10.766  14.592  1.00  0.00    -0.353 OA
BRANCH  22  23
HETATM   23  C25 UNL     1      -1.364   9.843  13.914  1.00  0.00     0.292 C 
HETATM   24  O2  UNL     1      -2.253   9.237  14.847  1.00  0.00    -0.348 OA
HETATM   25  C26 UNL     1      -3.142   8.287  14.234  1.00  0.00     0.179 C 
HETATM   26  C28 UNL     1      -2.361   7.152  13.539  1.00  0.00     0.180 C 
HETATM   27  C29 UNL     1      -1.324   7.743  12.571  1.00  0.00     0.183 C 
HETATM   28  C30 UNL     1      -0.456   8.773  13.292  1.00  0.00     0.204 C 
BRANCH  25  29
HETATM   29  C27 UNL     1      -4.078   7.717  15.316  1.00  0.00     0.198 C 
BRANCH  29  30
HETATM   30  O3  UNL     1      -4.838   8.756  15.947  1.00  0.00    -0.398 OA
HETATM   31  H41 UNL     1      -5.353   9.204  15.253  1.00  0.00     0.209 HD
ENDBRANCH  29  30
ENDBRANCH  25  29
BRANCH  26  32
HETATM   32  O4  UNL     1      -3.269   6.281  12.850  1.00  0.00    -0.390 OA
HETATM   33  H43 UNL     1      -3.319   6.551  11.917  1.00  0.00     0.210 HD
ENDBRANCH  26  32
BRANCH  27  34
HETATM   34  O5  UNL     1      -0.501   6.705  12.021  1.00  0.00    -0.390 OA
HETATM   35  H45 UNL     1       0.291   7.161  11.668  1.00  0.00     0.210 HD
ENDBRANCH  27  34
BRANCH  28  36
HETATM   36  O6  UNL     1       0.463   9.350  12.348  1.00  0.00    -0.388 OA
HETATM   37  H47 UNL     1       0.927  10.051  12.848  1.00  0.00     0.210 HD
ENDBRANCH  28  36
ENDBRANCH  22  23
ENDBRANCH  15  22
BRANCH   1  38
HETATM   38  C8  UNL     1       6.043  13.035  23.128  1.00  0.00     0.008 C 
HETATM   39  C9  UNL     1       5.153  14.285  23.183  1.00  0.00     0.014 C 
BRANCH  38  40
HETATM   40  C7  UNL     1       7.487  13.380  22.818  1.00  0.00    -0.026 C 
HETATM   41  C6  UNL     1       7.927  14.260  21.905  1.00  0.00    -0.026 C 
BRANCH  41  42
HETATM   42  C4  UNL     1       9.373  14.573  21.555  1.00  0.00     0.007 C 
HETATM   43  C5  UNL     1       9.670  16.070  21.391  1.00  0.00     0.014 C 
BRANCH  42  44
HETATM   44  C2  UNL     1       9.847  13.709  20.356  1.00  0.00    -0.015 C 
HETATM   45  C1  UNL     1      10.472  12.375  20.776  1.00  0.00     0.010 C 
HETATM   46  C3  UNL     1       8.720  13.455  19.348  1.00  0.00     0.010 C 
ENDBRANCH  42  44
ENDBRANCH  41  42
ENDBRANCH  38  40
ENDBRANCH   1  38
TORSDOF 11
ENDMDL
