MODEL 1
REMARK minimizedAffinity -8.2757988
REMARK CNNscore 0.604088902
REMARK CNNaffinity 7.50097704
REMARK  11 active torsions:
REMARK  status: ('A' for Active; 'I' for Inactive)
REMARK    1  A    between atoms: O1_2  and  C2_3 
REMARK    2  A    between atoms: C16_18  and  C17_19 
REMARK    3  A    between atoms: C17_19  and  C19_21 
REMARK    4  A    between atoms: C23_25  and  C24_26 
REMARK    5  A    between atoms: C24_26  and  O3_27 
REMARK    6  A    between atoms: O3_27  and  C25_28 
REMARK    7  A    between atoms: C26_30  and  C27_31 
REMARK    8  A    between atoms: C27_31  and  O5_32 
REMARK    9  A    between atoms: C28_33  and  O6_34 
REMARK   10  A    between atoms: C29_35  and  O7_36 
REMARK   11  A    between atoms: C30_37  and  O8_38 
ROOT
HETATM    1  C19 UNL     1      -5.924   5.783  13.477  1.00  0.00     0.140 C 
HETATM    2  C20 UNL     1      -6.481   5.490  14.870  1.00  0.00     0.067 C 
HETATM    3  C21 UNL     1      -7.711   6.341  15.070  1.00  0.00    -0.067 C 
HETATM    4  C22 UNL     1      -7.917   6.864  16.465  1.00  0.00     0.044 C 
HETATM    5  C23 UNL     1      -8.517   6.599  14.015  1.00  0.00     0.043 C 
HETATM    6  C31 UNL     1      -8.214   5.962  12.698  1.00  0.00     0.292 C 
HETATM    7  O9  UNL     1      -9.074   5.817  11.841  1.00  0.00    -0.260 OA
HETATM    8  O10 UNL     1      -6.946   5.527  12.493  1.00  0.00    -0.311 OA
ENDROOT
BRANCH   1   9
HETATM    9  C17 UNL     1      -4.660   4.944  13.148  1.00  0.00     0.016 C 
HETATM   10  C18 UNL     1      -4.606   4.598  11.646  1.00  0.00     0.013 C 
BRANCH   9  11
HETATM   11  C16 UNL     1      -3.303   5.601  13.554  1.00  0.00     0.000 C 
HETATM   12  C14 UNL     1      -2.001   4.807  13.222  1.00  0.00    -0.036 C 
HETATM   13  C13 UNL     1      -1.707   4.788  11.714  1.00  0.00     0.010 C 
HETATM   14  C15 UNL     1      -2.073   3.344  13.732  1.00  0.00     0.016 C 
HETATM   15  C34 UNL     1      -0.900   5.561  14.026  1.00  0.00     0.001 C 
HETATM   16  C12 UNL     1      -0.234   4.517  11.439  1.00  0.00     0.007 C 
HETATM   17  C11 UNL     1       0.690   5.646  11.946  1.00  0.00     0.013 C 
HETATM   18  C9  UNL     1       1.274   6.564  10.785  1.00  0.00     0.048 C 
HETATM   19  C35 UNL     1       0.143   6.396  13.216  1.00  0.00     0.029 C 
HETATM   20  C4  UNL     1       1.707   7.926  11.325  1.00  0.00    -0.044 C 
HETATM   21  C8  UNL     1       2.499   5.842  10.161  1.00  0.00     0.143 C 
HETATM   22  C10 UNL     1       0.290   6.808   9.617  1.00  0.00     0.029 C 
HETATM   23  C3  UNL     1       0.985   8.539  12.277  1.00  0.00     0.013 C 
HETATM   24  C5  UNL     1       2.867   8.593  10.768  1.00  0.00     0.004 C 
HETATM   25  C2  UNL     1      -0.177   7.886  12.967  1.00  0.00     0.149 C 
HETATM   26  C6  UNL     1       3.654   8.036   9.842  1.00  0.00    -0.019 C 
HETATM   27  C7  UNL     1       3.454   6.661   9.305  1.00  0.00     0.106 C 
HETATM   28  O2  UNL     1       2.658   4.619  10.237  1.00  0.00    -0.296 OA
HETATM   29  C33 UNL     1      -1.647   6.315  15.152  1.00  0.00     0.006 C 
HETATM   30  C32 UNL     1      -3.122   5.946  15.033  1.00  0.00     0.006 C 
BRANCH  25  31
HETATM   31  O1  UNL     1      -1.355   8.030  12.188  1.00  0.00    -0.386 OA
HETATM   32  C1  UNL     1      -2.216   9.065  12.648  1.00  0.00     0.202 C 
ENDBRANCH  25  31
ENDBRANCH   9  11
ENDBRANCH   1   9
BRANCH   5  33
HETATM   33  C24 UNL     1      -9.785   7.418  14.023  1.00  0.00     0.216 C 
BRANCH  33  34
HETATM   34  O3  UNL     1     -10.937   6.640  13.689  1.00  0.00    -0.354 OA
BRANCH  34  35
HETATM   35  C25 UNL     1     -12.006   7.406  13.136  1.00  0.00     0.291 C 
HETATM   36  O4  UNL     1     -13.248   6.946  13.676  1.00  0.00    -0.348 OA
HETATM   37  C26 UNL     1     -13.362   7.171  15.098  1.00  0.00     0.179 C 
HETATM   38  C28 UNL     1     -13.202   8.659  15.458  1.00  0.00     0.180 C 
HETATM   39  C29 UNL     1     -12.972   9.503  14.208  1.00  0.00     0.183 C 
HETATM   40  C30 UNL     1     -11.824   8.925  13.373  1.00  0.00     0.204 C 
BRANCH  37  41
HETATM   41  C27 UNL     1     -14.731   6.637  15.538  1.00  0.00     0.198 C 
BRANCH  41  42
HETATM   42  O5  UNL     1     -14.934   6.828  16.942  1.00  0.00    -0.398 OA
HETATM   43  H38 UNL     1     -15.838   6.515  17.130  1.00  0.00     0.209 HD
ENDBRANCH  41  42
ENDBRANCH  37  41
BRANCH  38  44
HETATM   44  O6  UNL     1     -12.062   8.820  16.328  1.00  0.00    -0.390 OA
HETATM   45  H40 UNL     1     -11.912   9.789  16.361  1.00  0.00     0.210 HD
ENDBRANCH  38  44
BRANCH  39  46
HETATM   46  O7  UNL     1     -12.638  10.850  14.600  1.00  0.00    -0.390 OA
HETATM   47  H42 UNL     1     -12.268  11.273  13.798  1.00  0.00     0.210 HD
ENDBRANCH  39  46
BRANCH  40  48
HETATM   48  O8  UNL     1     -11.772   9.662  12.132  1.00  0.00    -0.388 OA
HETATM   49  H44 UNL     1     -12.592   9.472  11.643  1.00  0.00     0.210 HD
ENDBRANCH  40  48
ENDBRANCH  34  35
ENDBRANCH  33  34
ENDBRANCH   5  33
TORSDOF 11
ENDMDL
MODEL 2
REMARK minimizedAffinity -6.70806456
REMARK CNNscore 0.567796648
REMARK CNNaffinity 7.28875017
REMARK  11 active torsions:
REMARK  status: ('A' for Active; 'I' for Inactive)
REMARK    1  A    between atoms: O1_2  and  C2_3 
REMARK    2  A    between atoms: C16_18  and  C17_19 
REMARK    3  A    between atoms: C17_19  and  C19_21 
REMARK    4  A    between atoms: C23_25  and  C24_26 
REMARK    5  A    between atoms: C24_26  and  O3_27 
REMARK    6  A    between atoms: O3_27  and  C25_28 
REMARK    7  A    between atoms: C26_30  and  C27_31 
REMARK    8  A    between atoms: C27_31  and  O5_32 
REMARK    9  A    between atoms: C28_33  and  O6_34 
REMARK   10  A    between atoms: C29_35  and  O7_36 
REMARK   11  A    between atoms: C30_37  and  O8_38 
ROOT
HETATM    1  C19 UNL     1      -5.764   6.758  14.812  1.00  0.00     0.140 C 
HETATM    2  C20 UNL     1      -6.530   6.338  16.066  1.00  0.00     0.067 C 
HETATM    3  C21 UNL     1      -7.952   6.822  15.930  1.00  0.00    -0.067 C 
HETATM    4  C22 UNL     1      -8.605   7.281  17.204  1.00  0.00     0.044 C 
HETATM    5  C23 UNL     1      -8.531   6.840  14.707  1.00  0.00     0.043 C 
HETATM    6  C31 UNL     1      -7.775   6.298  13.539  1.00  0.00     0.292 C 
HETATM    7  O9  UNL     1      -8.344   5.915  12.525  1.00  0.00    -0.260 OA
HETATM    8  O10 UNL     1      -6.426   6.224  13.648  1.00  0.00    -0.311 OA
ENDROOT
BRANCH   1   9
HETATM    9  C17 UNL     1      -4.282   6.294  14.830  1.00  0.00     0.016 C 
HETATM   10  C18 UNL     1      -4.011   5.281  13.698  1.00  0.00     0.013 C 
BRANCH   9  11
HETATM   11  C16 UNL     1      -3.225   7.439  14.733  1.00  0.00     0.000 C 
HETATM   12  C14 UNL     1      -3.733   8.837  14.262  1.00  0.00    -0.036 C 
HETATM   13  C13 UNL     1      -4.596   9.527  15.330  1.00  0.00     0.010 C 
HETATM   14  C15 UNL     1      -4.552   8.740  12.948  1.00  0.00     0.016 C 
HETATM   15  C34 UNL     1      -2.418   9.622  13.972  1.00  0.00     0.001 C 
HETATM   16  C12 UNL     1      -4.631  11.036  15.125  1.00  0.00     0.007 C 
HETATM   17  C11 UNL     1      -3.254  11.702  15.328  1.00  0.00     0.013 C 
HETATM   18  C9  UNL     1      -3.128  12.507  16.694  1.00  0.00     0.048 C 
HETATM   19  C35 UNL     1      -2.037  10.780  14.950  1.00  0.00     0.029 C 
HETATM   20  C4  UNL     1      -1.664  12.677  17.101  1.00  0.00    -0.044 C 
HETATM   21  C8  UNL     1      -3.776  13.905  16.499  1.00  0.00     0.143 C 
HETATM   22  C10 UNL     1      -3.878  11.859  17.882  1.00  0.00     0.029 C 
HETATM   23  C3  UNL     1      -0.786  11.682  16.900  1.00  0.00     0.013 C 
HETATM   24  C5  UNL     1      -1.231  13.891  17.762  1.00  0.00     0.004 C 
HETATM   25  C2  UNL     1      -1.129  10.429  16.149  1.00  0.00     0.149 C 
HETATM   26  C6  UNL     1      -2.037  14.937  17.969  1.00  0.00    -0.019 C 
HETATM   27  C7  UNL     1      -3.454  14.991  17.515  1.00  0.00     0.106 C 
HETATM   28  O2  UNL     1      -4.623  14.128  15.627  1.00  0.00    -0.296 OA
HETATM   29  C33 UNL     1      -1.331   8.547  13.736  1.00  0.00     0.006 C 
HETATM   30  C32 UNL     1      -2.022   7.189  13.822  1.00  0.00     0.006 C 
BRANCH  25  31
HETATM   31  O1  UNL     1      -1.762   9.497  17.011  1.00  0.00    -0.386 OA
HETATM   32  C1  UNL     1      -1.526   9.750  18.391  1.00  0.00     0.202 C 
ENDBRANCH  25  31
ENDBRANCH   9  11
ENDBRANCH   1   9
BRANCH   5  33
HETATM   33  C24 UNL     1      -9.936   7.281  14.378  1.00  0.00     0.216 C 
BRANCH  33  34
HETATM   34  O3  UNL     1     -10.125   8.685  14.573  1.00  0.00    -0.354 OA
BRANCH  34  35
HETATM   35  C25 UNL     1     -11.169   9.002  15.493  1.00  0.00     0.291 C 
HETATM   36  O4  UNL     1     -11.111  10.394  15.814  1.00  0.00    -0.348 OA
HETATM   37  C26 UNL     1     -11.382  11.246  14.680  1.00  0.00     0.179 C 
HETATM   38  C28 UNL     1     -12.758  10.952  14.056  1.00  0.00     0.180 C 
HETATM   39  C29 UNL     1     -13.475   9.838  14.814  1.00  0.00     0.183 C 
HETATM   40  C30 UNL     1     -12.566   8.612  14.952  1.00  0.00     0.204 C 
BRANCH  37  41
HETATM   41  C27 UNL     1     -11.291  12.698  15.166  1.00  0.00     0.198 C 
BRANCH  41  42
HETATM   42  O5  UNL     1     -12.167  13.549  14.420  1.00  0.00    -0.398 OA
HETATM   43  H38 UNL     1     -12.091  14.434  14.821  1.00  0.00     0.209 HD
ENDBRANCH  41  42
ENDBRANCH  37  41
BRANCH  38  44
HETATM   44  O6  UNL     1     -12.582  10.528  12.688  1.00  0.00    -0.390 OA
HETATM   45  H40 UNL     1     -13.461  10.185  12.422  1.00  0.00     0.210 HD
ENDBRANCH  38  44
BRANCH  39  46
HETATM   46  O7  UNL     1     -14.665   9.463  14.090  1.00  0.00    -0.390 OA
HETATM   47  H42 UNL     1     -14.945   8.605  14.472  1.00  0.00     0.210 HD
ENDBRANCH  39  46
BRANCH  40  48
HETATM   48  O8  UNL     1     -13.235   7.668  15.818  1.00  0.00    -0.388 OA
HETATM   49  H44 UNL     1     -13.293   8.071  16.703  1.00  0.00     0.210 HD
ENDBRANCH  40  48
ENDBRANCH  34  35
ENDBRANCH  33  34
ENDBRANCH   5  33
TORSDOF 11
ENDMDL
MODEL 3
REMARK minimizedAffinity -9.63282394
REMARK CNNscore 0.351176769
REMARK CNNaffinity 7.21171236
REMARK  11 active torsions:
REMARK  status: ('A' for Active; 'I' for Inactive)
REMARK    1  A    between atoms: O1_2  and  C2_3 
REMARK    2  A    between atoms: C16_18  and  C17_19 
REMARK    3  A    between atoms: C17_19  and  C19_21 
REMARK    4  A    between atoms: C23_25  and  C24_26 
REMARK    5  A    between atoms: C24_26  and  O3_27 
REMARK    6  A    between atoms: O3_27  and  C25_28 
REMARK    7  A    between atoms: C26_30  and  C27_31 
REMARK    8  A    between atoms: C27_31  and  O5_32 
REMARK    9  A    between atoms: C28_33  and  O6_34 
REMARK   10  A    between atoms: C29_35  and  O7_36 
REMARK   11  A    between atoms: C30_37  and  O8_38 
ROOT
HETATM    1  C19 UNL     1      -8.312   7.137  14.762  1.00  0.00     0.140 C 
HETATM    2  C20 UNL     1      -7.910   5.679  14.541  1.00  0.00     0.067 C 
HETATM    3  C21 UNL     1      -6.624   5.663  13.752  1.00  0.00    -0.067 C 
HETATM    4  C22 UNL     1      -6.489   4.545  12.756  1.00  0.00     0.044 C 
HETATM    5  C23 UNL     1      -5.708   6.637  13.960  1.00  0.00     0.043 C 
HETATM    6  C31 UNL     1      -5.957   7.652  15.025  1.00  0.00     0.292 C 
HETATM    7  O9  UNL     1      -5.045   8.289  15.534  1.00  0.00    -0.260 OA
HETATM    8  O10 UNL     1      -7.239   7.830  15.430  1.00  0.00    -0.311 OA
ENDROOT
BRANCH   1   9
HETATM    9  C17 UNL     1      -9.620   7.281  15.586  1.00  0.00     0.016 C 
HETATM   10  C18 UNL     1      -9.312   7.707  17.036  1.00  0.00     0.013 C 
BRANCH   9  11
HETATM   11  C16 UNL     1     -10.675   8.268  14.992  1.00  0.00     0.000 C 
HETATM   12  C14 UNL     1     -11.525   7.760  13.787  1.00  0.00    -0.036 C 
HETATM   13  C13 UNL     1     -12.548   6.695  14.211  1.00  0.00     0.010 C 
HETATM   14  C15 UNL     1     -10.634   7.172  12.661  1.00  0.00     0.016 C 
HETATM   15  C34 UNL     1     -12.211   9.054  13.255  1.00  0.00     0.001 C 
HETATM   16  C12 UNL     1     -13.697   6.602  13.217  1.00  0.00     0.007 C 
HETATM   17  C11 UNL     1     -14.554   7.885  13.167  1.00  0.00     0.013 C 
HETATM   18  C9  UNL     1     -15.968   7.739  13.880  1.00  0.00     0.048 C 
HETATM   19  C35 UNL     1     -13.750   9.201  13.479  1.00  0.00     0.029 C 
HETATM   20  C4  UNL     1     -16.528   9.104  14.278  1.00  0.00    -0.044 C 
HETATM   21  C8  UNL     1     -16.945   7.048  12.890  1.00  0.00     0.143 C 
HETATM   22  C10 UNL     1     -15.950   6.848  15.144  1.00  0.00     0.029 C 
HETATM   23  C3  UNL     1     -15.711  10.063  14.742  1.00  0.00     0.013 C 
HETATM   24  C5  UNL     1     -17.955   9.350  14.214  1.00  0.00     0.004 C 
HETATM   25  C2  UNL     1     -14.217   9.922  14.763  1.00  0.00     0.149 C 
HETATM   26  C6  UNL     1     -18.828   8.460  13.733  1.00  0.00    -0.019 C 
HETATM   27  C7  UNL     1     -18.437   7.135  13.179  1.00  0.00     0.106 C 
HETATM   28  O2  UNL     1     -16.553   6.341  11.955  1.00  0.00    -0.296 OA
HETATM   29  C33 UNL     1     -11.336  10.228  13.756  1.00  0.00     0.006 C 
HETATM   30  C32 UNL     1     -10.149   9.615  14.494  1.00  0.00     0.006 C 
BRANCH  25  31
HETATM   31  O1  UNL     1     -13.805   9.215  15.922  1.00  0.00    -0.386 OA
HETATM   32  C1  UNL     1     -13.313  10.059  16.956  1.00  0.00     0.202 C 
ENDBRANCH  25  31
ENDBRANCH   9  11
ENDBRANCH   1   9
BRANCH   5  33
HETATM   33  C24 UNL     1      -4.371   6.781  13.275  1.00  0.00     0.216 C 
BRANCH  33  34
HETATM   34  O3  UNL     1      -3.369   5.942  13.855  1.00  0.00    -0.354 OA
BRANCH  34  35
HETATM   35  C25 UNL     1      -2.035   6.341  13.544  1.00  0.00     0.291 C 
HETATM   36  O4  UNL     1      -2.002   7.753  13.320  1.00  0.00    -0.348 OA
HETATM   37  C26 UNL     1      -2.325   8.519  14.501  1.00  0.00     0.179 C 
HETATM   38  C28 UNL     1      -1.379   8.196  15.671  1.00  0.00     0.180 C 
HETATM   39  C29 UNL     1      -0.343   7.152  15.264  1.00  0.00     0.183 C 
HETATM   40  C30 UNL     1      -1.028   5.929  14.645  1.00  0.00     0.204 C 
BRANCH  37  41
HETATM   41  C27 UNL     1      -2.249  10.003  14.118  1.00  0.00     0.198 C 
BRANCH  41  42
HETATM   42  O5  UNL     1      -1.331  10.213  13.041  1.00  0.00    -0.398 OA
HETATM   43  H38 UNL     1      -1.380  11.162  12.824  1.00  0.00     0.209 HD
ENDBRANCH  41  42
ENDBRANCH  37  41
BRANCH  38  44
HETATM   44  O6  UNL     1      -2.146   7.667  16.773  1.00  0.00    -0.390 OA
HETATM   45  H40 UNL     1      -1.474   7.315  17.394  1.00  0.00     0.210 HD
ENDBRANCH  38  44
BRANCH  39  46
HETATM   46  O7  UNL     1       0.396   6.738  16.432  1.00  0.00    -0.390 OA
HETATM   47  H42 UNL     1       0.859   5.915  16.171  1.00  0.00     0.210 HD
ENDBRANCH  39  46
BRANCH  40  48
HETATM   48  O8  UNL     1       0.008   5.062  14.132  1.00  0.00    -0.388 OA
HETATM   49  H44 UNL     1       0.448   5.532  13.401  1.00  0.00     0.210 HD
ENDBRANCH  40  48
ENDBRANCH  34  35
ENDBRANCH  33  34
ENDBRANCH   5  33
TORSDOF 11
ENDMDL
MODEL 4
REMARK minimizedAffinity -10.5565128
REMARK CNNscore 0.335713446
REMARK CNNaffinity 6.31312323
REMARK  11 active torsions:
REMARK  status: ('A' for Active; 'I' for Inactive)
REMARK    1  A    between atoms: O1_2  and  C2_3 
REMARK    2  A    between atoms: C16_18  and  C17_19 
REMARK    3  A    between atoms: C17_19  and  C19_21 
REMARK    4  A    between atoms: C23_25  and  C24_26 
REMARK    5  A    between atoms: C24_26  and  O3_27 
REMARK    6  A    between atoms: O3_27  and  C25_28 
REMARK    7  A    between atoms: C26_30  and  C27_31 
REMARK    8  A    between atoms: C27_31  and  O5_32 
REMARK    9  A    between atoms: C28_33  and  O6_34 
REMARK   10  A    between atoms: C29_35  and  O7_36 
REMARK   11  A    between atoms: C30_37  and  O8_38 
ROOT
HETATM    1  C19 UNL     1      -1.851   9.622  17.006  1.00  0.00     0.140 C 
HETATM    2  C20 UNL     1      -1.920  11.145  17.114  1.00  0.00     0.067 C 
HETATM    3  C21 UNL     1      -0.808  11.601  18.027  1.00  0.00    -0.067 C 
HETATM    4  C22 UNL     1      -1.133  12.774  18.908  1.00  0.00     0.044 C 
HETATM    5  C23 UNL     1       0.369  10.934  18.019  1.00  0.00     0.043 C 
HETATM    6  C31 UNL     1       0.565   9.819  17.046  1.00  0.00     0.292 C 
HETATM    7  O9  UNL     1       1.681   9.451  16.705  1.00  0.00    -0.260 OA
HETATM    8  O10 UNL     1      -0.546   9.238  16.531  1.00  0.00    -0.311 OA
ENDROOT
BRANCH   1   9
HETATM    9  C17 UNL     1      -2.943   9.037  16.070  1.00  0.00     0.016 C 
HETATM   10  C18 UNL     1      -3.567  10.144  15.196  1.00  0.00     0.013 C 
BRANCH   9  11
HETATM   11  C16 UNL     1      -2.467   7.878  15.138  1.00  0.00     0.000 C 
HETATM   12  C14 UNL     1      -2.586   8.109  13.600  1.00  0.00    -0.036 C 
HETATM   13  C13 UNL     1      -1.561   9.133  13.089  1.00  0.00     0.010 C 
HETATM   14  C15 UNL     1      -4.006   8.584  13.197  1.00  0.00     0.016 C 
HETATM   15  C34 UNL     1      -2.347   6.690  13.000  1.00  0.00     0.001 C 
HETATM   16  C12 UNL     1      -1.301   8.963  11.598  1.00  0.00     0.007 C 
HETATM   17  C11 UNL     1      -0.626   7.618  11.255  1.00  0.00     0.013 C 
HETATM   18  C9  UNL     1       0.915   7.751  10.885  1.00  0.00     0.048 C 
HETATM   19  C35 UNL     1      -1.008   6.445  12.233  1.00  0.00     0.029 C 
HETATM   20  C4  UNL     1       1.646   6.423  11.083  1.00  0.00    -0.044 C 
HETATM   21  C8  UNL     1       1.024   8.185   9.398  1.00  0.00     0.143 C 
HETATM   22  C10 UNL     1       1.668   8.832  11.694  1.00  0.00     0.029 C 
HETATM   23  C3  UNL     1       1.338   5.628  12.120  1.00  0.00     0.013 C 
HETATM   24  C5  UNL     1       2.719   6.045  10.185  1.00  0.00     0.004 C 
HETATM   25  C2  UNL     1       0.189   5.902  13.045  1.00  0.00     0.149 C 
HETATM   26  C6  UNL     1       3.062   6.766   9.114  1.00  0.00    -0.019 C 
HETATM   27  C7  UNL     1       2.364   8.014   8.699  1.00  0.00     0.106 C 
HETATM   28  O2  UNL     1       0.106   8.764   8.806  1.00  0.00    -0.296 OA
HETATM   29  C33 UNL     1      -2.669   5.694  14.140  1.00  0.00     0.006 C 
HETATM   30  C32 UNL     1      -3.143   6.520  15.332  1.00  0.00     0.006 C 
BRANCH  25  31
HETATM   31  O1  UNL     1       0.578   6.820  14.055  1.00  0.00    -0.386 OA
HETATM   32  C1  UNL     1       1.925   6.656  14.481  1.00  0.00     0.202 C 
ENDBRANCH  25  31
ENDBRANCH   9  11
ENDBRANCH   1   9
BRANCH   5  33
HETATM   33  C24 UNL     1       1.589  11.244  18.851  1.00  0.00     0.216 C 
BRANCH  33  34
HETATM   34  O3  UNL     1       1.448  10.812  20.207  1.00  0.00    -0.354 OA
BRANCH  34  35
HETATM   35  C25 UNL     1       2.362   9.782  20.580  1.00  0.00     0.291 C 
HETATM   36  O4  UNL     1       3.697  10.206  20.289  1.00  0.00    -0.348 OA
HETATM   37  C26 UNL     1       4.114  11.340  21.080  1.00  0.00     0.179 C 
HETATM   38  C28 UNL     1       4.018  11.054  22.589  1.00  0.00     0.180 C 
HETATM   39  C29 UNL     1       3.512   9.638  22.846  1.00  0.00     0.183 C 
HETATM   40  C30 UNL     1       2.217   9.380  22.068  1.00  0.00     0.204 C 
BRANCH  37  41
HETATM   41  C27 UNL     1       5.553  11.680  20.669  1.00  0.00     0.198 C 
BRANCH  41  42
HETATM   42  O5  UNL     1       5.917  11.008  19.459  1.00  0.00    -0.398 OA
HETATM   43  H38 UNL     1       6.816  11.316  19.239  1.00  0.00     0.209 HD
ENDBRANCH  41  42
ENDBRANCH  37  41
BRANCH  38  44
HETATM   44  O6  UNL     1       3.092  11.982  23.193  1.00  0.00    -0.390 OA
HETATM   45  H40 UNL     1       2.941  11.627  24.094  1.00  0.00     0.210 HD
ENDBRANCH  38  44
BRANCH  39  46
HETATM   46  O7  UNL     1       3.254   9.475  24.256  1.00  0.00    -0.390 OA
HETATM   47  H42 UNL     1       2.714   8.662  24.333  1.00  0.00     0.210 HD
ENDBRANCH  39  46
BRANCH  40  48
HETATM   48  O8  UNL     1       1.888   7.981  22.219  1.00  0.00    -0.388 OA
HETATM   49  H44 UNL     1       2.585   7.466  21.774  1.00  0.00     0.210 HD
ENDBRANCH  40  48
ENDBRANCH  34  35
ENDBRANCH  33  34
ENDBRANCH   5  33
TORSDOF 11
ENDMDL
MODEL 5
REMARK minimizedAffinity -9.32276535
REMARK CNNscore 0.301253229
REMARK CNNaffinity 7.25622368
REMARK  11 active torsions:
REMARK  status: ('A' for Active; 'I' for Inactive)
REMARK    1  A    between atoms: O1_2  and  C2_3 
REMARK    2  A    between atoms: C16_18  and  C17_19 
REMARK    3  A    between atoms: C17_19  and  C19_21 
REMARK    4  A    between atoms: C23_25  and  C24_26 
REMARK    5  A    between atoms: C24_26  and  O3_27 
REMARK    6  A    between atoms: O3_27  and  C25_28 
REMARK    7  A    between atoms: C26_30  and  C27_31 
REMARK    8  A    between atoms: C27_31  and  O5_32 
REMARK    9  A    between atoms: C28_33  and  O6_34 
REMARK   10  A    between atoms: C29_35  and  O7_36 
REMARK   11  A    between atoms: C30_37  and  O8_38 
ROOT
HETATM    1  C19 UNL     1      -8.219   6.678  14.700  1.00  0.00     0.140 C 
HETATM    2  C20 UNL     1      -7.724   5.238  14.828  1.00  0.00     0.067 C 
HETATM    3  C21 UNL     1      -6.573   5.051  13.870  1.00  0.00    -0.067 C 
HETATM    4  C22 UNL     1      -6.487   3.700  13.216  1.00  0.00     0.044 C 
HETATM    5  C23 UNL     1      -5.728   6.082  13.642  1.00  0.00     0.043 C 
HETATM    6  C31 UNL     1      -5.907   7.350  14.409  1.00  0.00     0.292 C 
HETATM    7  O9  UNL     1      -4.990   8.146  14.560  1.00  0.00    -0.260 OA
HETATM    8  O10 UNL     1      -7.125   7.581  14.958  1.00  0.00    -0.311 OA
ENDROOT
BRANCH   1   9
HETATM    9  C17 UNL     1      -9.397   6.995  15.659  1.00  0.00     0.016 C 
HETATM   10  C18 UNL     1      -8.876   7.469  17.031  1.00  0.00     0.013 C 
BRANCH   9  11
HETATM   11  C16 UNL     1     -10.421   8.048  15.128  1.00  0.00     0.000 C 
HETATM   12  C14 UNL     1     -11.281   7.642  13.892  1.00  0.00    -0.036 C 
HETATM   13  C13 UNL     1     -12.336   6.582  14.246  1.00  0.00     0.010 C 
HETATM   14  C15 UNL     1     -10.405   7.102  12.732  1.00  0.00     0.016 C 
HETATM   15  C34 UNL     1     -11.929   8.986  13.442  1.00  0.00     0.001 C 
HETATM   16  C12 UNL     1     -13.484   6.585  13.246  1.00  0.00     0.007 C 
HETATM   17  C11 UNL     1     -14.304   7.893  13.276  1.00  0.00     0.013 C 
HETATM   18  C9  UNL     1     -15.724   7.742  13.977  1.00  0.00     0.048 C 
HETATM   19  C35 UNL     1     -13.464   9.163  13.673  1.00  0.00     0.029 C 
HETATM   20  C4  UNL     1     -16.246   9.094  14.460  1.00  0.00    -0.044 C 
HETATM   21  C8  UNL     1     -16.717   7.143  12.944  1.00  0.00     0.143 C 
HETATM   22  C10 UNL     1     -15.735   6.772  15.181  1.00  0.00     0.029 C 
HETATM   23  C3  UNL     1     -15.403   9.998  14.986  1.00  0.00     0.013 C 
HETATM   24  C5  UNL     1     -17.665   9.385  14.409  1.00  0.00     0.004 C 
HETATM   25  C2  UNL     1     -13.914   9.814  14.999  1.00  0.00     0.149 C 
HETATM   26  C6  UNL     1     -18.562   8.552  13.872  1.00  0.00    -0.019 C 
HETATM   27  C7  UNL     1     -18.206   7.254  13.235  1.00  0.00     0.106 C 
HETATM   28  O2  UNL     1     -16.342   6.487  11.966  1.00  0.00    -0.296 OA
HETATM   29  C33 UNL     1     -11.023  10.101  14.018  1.00  0.00     0.006 C 
HETATM   30  C32 UNL     1      -9.856   9.409  14.718  1.00  0.00     0.006 C 
BRANCH  25  31
HETATM   31  O1  UNL     1     -13.527   9.023  16.112  1.00  0.00    -0.386 OA
HETATM   32  C1  UNL     1     -13.023   9.786  17.202  1.00  0.00     0.202 C 
ENDBRANCH  25  31
ENDBRANCH   9  11
ENDBRANCH   1   9
BRANCH   5  33
HETATM   33  C24 UNL     1      -4.526   6.081  12.729  1.00  0.00     0.216 C 
BRANCH  33  34
HETATM   34  O3  UNL     1      -3.334   6.497  13.400  1.00  0.00    -0.354 OA
BRANCH  34  35
HETATM   35  C25 UNL     1      -2.549   5.415  13.900  1.00  0.00     0.291 C 
HETATM   36  O4  UNL     1      -2.624   4.315  12.990  1.00  0.00    -0.348 OA
HETATM   37  C26 UNL     1      -2.031   4.605  11.705  1.00  0.00     0.179 C 
HETATM   38  C28 UNL     1      -0.556   5.023  11.835  1.00  0.00     0.180 C 
HETATM   39  C29 UNL     1      -0.110   5.011  13.294  1.00  0.00     0.183 C 
HETATM   40  C30 UNL     1      -1.079   5.826  14.158  1.00  0.00     0.204 C 
BRANCH  37  41
HETATM   41  C27 UNL     1      -2.178   3.347  10.839  1.00  0.00     0.198 C 
BRANCH  41  42
HETATM   42  O5  UNL     1      -3.152   3.540   9.809  1.00  0.00    -0.398 OA
HETATM   43  H38 UNL     1      -3.147   2.724   9.275  1.00  0.00     0.209 HD
ENDBRANCH  41  42
ENDBRANCH  37  41
BRANCH  38  44
HETATM   44  O6  UNL     1      -0.392   6.362  11.323  1.00  0.00    -0.390 OA
HETATM   45  H40 UNL     1       0.509   6.625  11.605  1.00  0.00     0.210 HD
ENDBRANCH  38  44
BRANCH  39  46
HETATM   46  O7  UNL     1       1.208   5.589  13.392  1.00  0.00    -0.390 OA
HETATM   47  H42 UNL     1       1.340   5.782  14.343  1.00  0.00     0.210 HD
ENDBRANCH  39  46
BRANCH  40  48
HETATM   48  O8  UNL     1      -0.700   5.635  15.539  1.00  0.00    -0.388 OA
HETATM   49  H44 UNL     1      -0.854   4.698  15.759  1.00  0.00     0.210 HD
ENDBRANCH  40  48
ENDBRANCH  34  35
ENDBRANCH  33  34
ENDBRANCH   5  33
TORSDOF 11
ENDMDL
MODEL 6
REMARK minimizedAffinity -7.80890083
REMARK CNNscore 0.253954053
REMARK CNNaffinity 6.5935955
REMARK  11 active torsions:
REMARK  status: ('A' for Active; 'I' for Inactive)
REMARK    1  A    between atoms: O1_2  and  C2_3 
REMARK    2  A    between atoms: C16_18  and  C17_19 
REMARK    3  A    between atoms: C17_19  and  C19_21 
REMARK    4  A    between atoms: C23_25  and  C24_26 
REMARK    5  A    between atoms: C24_26  and  O3_27 
REMARK    6  A    between atoms: O3_27  and  C25_28 
REMARK    7  A    between atoms: C26_30  and  C27_31 
REMARK    8  A    between atoms: C27_31  and  O5_32 
REMARK    9  A    between atoms: C28_33  and  O6_34 
REMARK   10  A    between atoms: C29_35  and  O7_36 
REMARK   11  A    between atoms: C30_37  and  O8_38 
ROOT
HETATM    1  C19 UNL     1      -9.849   7.653  14.704  1.00  0.00     0.140 C 
HETATM    2  C20 UNL     1     -10.100   6.531  13.697  1.00  0.00     0.067 C 
HETATM    3  C21 UNL     1      -8.763   6.033  13.207  1.00  0.00    -0.067 C 
HETATM    4  C22 UNL     1      -8.714   5.622  11.762  1.00  0.00     0.044 C 
HETATM    5  C23 UNL     1      -7.713   6.010  14.060  1.00  0.00     0.043 C 
HETATM    6  C31 UNL     1      -7.928   6.398  15.486  1.00  0.00     0.292 C 
HETATM    7  O9  UNL     1      -7.169   6.031  16.373  1.00  0.00    -0.260 OA
HETATM    8  O10 UNL     1      -9.014   7.157  15.769  1.00  0.00    -0.311 OA
ENDROOT
BRANCH   1   9
HETATM    9  C17 UNL     1     -11.162   8.233  15.295  1.00  0.00     0.016 C 
HETATM   10  C18 UNL     1     -10.866   9.128  16.516  1.00  0.00     0.013 C 
BRANCH   9  11
HETATM   11  C16 UNL     1     -12.043   9.042  14.291  1.00  0.00     0.000 C 
HETATM   12  C14 UNL     1     -13.496   8.529  14.047  1.00  0.00    -0.036 C 
HETATM   13  C13 UNL     1     -14.404   8.772  15.262  1.00  0.00     0.010 C 
HETATM   14  C15 UNL     1     -13.523   7.018  13.701  1.00  0.00     0.016 C 
HETATM   15  C34 UNL     1     -13.960   9.335  12.796  1.00  0.00     0.001 C 
HETATM   16  C12 UNL     1     -15.873   8.790  14.862  1.00  0.00     0.007 C 
HETATM   17  C11 UNL     1     -16.230   9.974  13.938  1.00  0.00     0.013 C 
HETATM   18  C9  UNL     1     -17.047  11.129  14.665  1.00  0.00     0.048 C 
HETATM   19  C35 UNL     1     -15.048  10.437  13.009  1.00  0.00     0.029 C 
HETATM   20  C4  UNL     1     -16.910  12.455  13.917  1.00  0.00    -0.044 C 
HETATM   21  C8  UNL     1     -18.543  10.715  14.712  1.00  0.00     0.143 C 
HETATM   22  C10 UNL     1     -16.631  11.369  16.135  1.00  0.00     0.029 C 
HETATM   23  C3  UNL     1     -15.738  12.799  13.358  1.00  0.00     0.013 C 
HETATM   24  C5  UNL     1     -18.027  13.376  13.861  1.00  0.00     0.004 C 
HETATM   25  C2  UNL     1     -14.559  11.873  13.296  1.00  0.00     0.149 C 
HETATM   26  C6  UNL     1     -19.232  13.093  14.364  1.00  0.00    -0.019 C 
HETATM   27  C7  UNL     1     -19.575  11.793  15.005  1.00  0.00     0.106 C 
HETATM   28  O2  UNL     1     -18.908   9.537  14.636  1.00  0.00    -0.296 OA
HETATM   29  C33 UNL     1     -12.664   9.789  12.085  1.00  0.00     0.006 C 
HETATM   30  C32 UNL     1     -11.495   9.201  12.871  1.00  0.00     0.006 C 
BRANCH  25  31
HETATM   31  O1  UNL     1     -13.827  11.928  14.511  1.00  0.00    -0.386 OA
HETATM   32  C1  UNL     1     -13.300  13.218  14.797  1.00  0.00     0.202 C 
ENDBRANCH  25  31
ENDBRANCH   9  11
ENDBRANCH   1   9
BRANCH   5  33
HETATM   33  C24 UNL     1      -6.310   5.543  13.755  1.00  0.00     0.216 C 
BRANCH  33  34
HETATM   34  O3  UNL     1      -5.418   6.631  13.503  1.00  0.00    -0.354 OA
BRANCH  34  35
HETATM   35  C25 UNL     1      -4.119   6.451  14.066  1.00  0.00     0.291 C 
HETATM   36  O4  UNL     1      -3.141   7.026  13.195  1.00  0.00    -0.348 OA
HETATM   37  C26 UNL     1      -3.268   8.459  13.074  1.00  0.00     0.179 C 
HETATM   38  C28 UNL     1      -3.170   9.163  14.439  1.00  0.00     0.180 C 
HETATM   39  C29 UNL     1      -2.956   8.151  15.561  1.00  0.00     0.183 C 
HETATM   40  C30 UNL     1      -4.011   7.042  15.493  1.00  0.00     0.204 C 
BRANCH  37  41
HETATM   41  C27 UNL     1      -2.163   8.937  12.121  1.00  0.00     0.198 C 
BRANCH  41  42
HETATM   42  O5  UNL     1      -1.097   7.985  12.048  1.00  0.00    -0.398 OA
HETATM   43  H38 UNL     1      -0.468   8.334  11.389  1.00  0.00     0.209 HD
ENDBRANCH  41  42
ENDBRANCH  37  41
BRANCH  38  44
HETATM   44  O6  UNL     1      -4.398   9.874  14.699  1.00  0.00    -0.390 OA
HETATM   45  H40 UNL     1      -4.337  10.132  15.643  1.00  0.00     0.210 HD
ENDBRANCH  38  44
BRANCH  39  46
HETATM   46  O7  UNL     1      -3.061   8.824  16.832  1.00  0.00    -0.390 OA
HETATM   47  H42 UNL     1      -3.162   8.114  17.498  1.00  0.00     0.210 HD
ENDBRANCH  39  46
BRANCH  40  48
HETATM   48  O8  UNL     1      -3.652   6.037  16.467  1.00  0.00    -0.388 OA
HETATM   49  H44 UNL     1      -2.812   5.637  16.180  1.00  0.00     0.210 HD
ENDBRANCH  40  48
ENDBRANCH  34  35
ENDBRANCH  33  34
ENDBRANCH   5  33
TORSDOF 11
ENDMDL
MODEL 7
REMARK minimizedAffinity -7.92635107
REMARK CNNscore 0.252187192
REMARK CNNaffinity 5.96939468
REMARK  11 active torsions:
REMARK  status: ('A' for Active; 'I' for Inactive)
REMARK    1  A    between atoms: O1_2  and  C2_3 
REMARK    2  A    between atoms: C16_18  and  C17_19 
REMARK    3  A    between atoms: C17_19  and  C19_21 
REMARK    4  A    between atoms: C23_25  and  C24_26 
REMARK    5  A    between atoms: C24_26  and  O3_27 
REMARK    6  A    between atoms: O3_27  and  C25_28 
REMARK    7  A    between atoms: C26_30  and  C27_31 
REMARK    8  A    between atoms: C27_31  and  O5_32 
REMARK    9  A    between atoms: C28_33  and  O6_34 
REMARK   10  A    between atoms: C29_35  and  O7_36 
REMARK   11  A    between atoms: C30_37  and  O8_38 
ROOT
HETATM    1  C19 UNL     1     -16.761   5.118  13.887  1.00  0.00     0.140 C 
HETATM    2  C20 UNL     1     -16.822   6.131  15.029  1.00  0.00     0.067 C 
HETATM    3  C21 UNL     1     -15.581   6.987  14.962  1.00  0.00    -0.067 C 
HETATM    4  C22 UNL     1     -15.010   7.406  16.288  1.00  0.00     0.044 C 
HETATM    5  C23 UNL     1     -15.056   7.297  13.754  1.00  0.00     0.043 C 
HETATM    6  C31 UNL     1     -15.767   6.856  12.518  1.00  0.00     0.292 C 
HETATM    7  O9  UNL     1     -15.596   7.413  11.443  1.00  0.00    -0.260 OA
HETATM    8  O10 UNL     1     -16.635   5.820  12.634  1.00  0.00    -0.311 OA
ENDROOT
BRANCH   1   9
HETATM    9  C17 UNL     1     -18.004   4.189  13.842  1.00  0.00     0.016 C 
HETATM   10  C18 UNL     1     -19.013   4.671  12.780  1.00  0.00     0.013 C 
BRANCH   9  11
HETATM   11  C16 UNL     1     -17.697   2.680  13.584  1.00  0.00     0.000 C 
HETATM   12  C14 UNL     1     -16.770   1.957  14.610  1.00  0.00    -0.036 C 
HETATM   13  C13 UNL     1     -17.469   1.732  15.960  1.00  0.00     0.010 C 
HETATM   14  C15 UNL     1     -15.457   2.746  14.857  1.00  0.00     0.016 C 
HETATM   15  C34 UNL     1     -16.419   0.615  13.900  1.00  0.00     0.001 C 
HETATM   16  C12 UNL     1     -16.819   0.598  16.740  1.00  0.00     0.007 C 
HETATM   17  C11 UNL     1     -16.977  -0.774  16.050  1.00  0.00     0.013 C 
HETATM   18  C9  UNL     1     -18.044  -1.723  16.751  1.00  0.00     0.048 C 
HETATM   19  C35 UNL     1     -17.042  -0.695  14.481  1.00  0.00     0.029 C 
HETATM   20  C4  UNL     1     -18.554  -2.789  15.782  1.00  0.00    -0.044 C 
HETATM   21  C8  UNL     1     -17.362  -2.412  17.965  1.00  0.00     0.143 C 
HETATM   22  C10 UNL     1     -19.271  -0.979  17.326  1.00  0.00     0.029 C 
HETATM   23  C3  UNL     1     -18.768  -2.485  14.492  1.00  0.00     0.013 C 
HETATM   24  C5  UNL     1     -18.868  -4.119  16.265  1.00  0.00     0.004 C 
HETATM   25  C2  UNL     1     -18.392  -1.162  13.892  1.00  0.00     0.149 C 
HETATM   26  C6  UNL     1     -18.653  -4.507  17.526  1.00  0.00    -0.019 C 
HETATM   27  C7  UNL     1     -18.036  -3.637  18.565  1.00  0.00     0.106 C 
HETATM   28  O2  UNL     1     -16.368  -1.937  18.525  1.00  0.00    -0.296 OA
HETATM   29  C33 UNL     1     -16.649   0.866  12.391  1.00  0.00     0.006 C 
HETATM   30  C32 UNL     1     -17.054   2.330  12.240  1.00  0.00     0.006 C 
BRANCH  25  31
HETATM   31  O1  UNL     1     -19.411  -0.205  14.134  1.00  0.00    -0.386 OA
HETATM   32  C1  UNL     1     -20.274  -0.002  13.021  1.00  0.00     0.202 C 
ENDBRANCH  25  31
ENDBRANCH   9  11
ENDBRANCH   1   9
BRANCH   5  33
HETATM   33  C24 UNL     1     -13.832   8.141  13.490  1.00  0.00     0.216 C 
BRANCH  33  34
HETATM   34  O3  UNL     1     -12.739   7.795  14.344  1.00  0.00    -0.354 OA
BRANCH  34  35
HETATM   35  C25 UNL     1     -11.464   7.874  13.706  1.00  0.00     0.291 C 
HETATM   36  O4  UNL     1     -11.039   9.239  13.664  1.00  0.00    -0.348 OA
HETATM   37  C26 UNL     1     -10.803   9.796  14.975  1.00  0.00     0.179 C 
HETATM   38  C28 UNL     1      -9.755   8.990  15.762  1.00  0.00     0.180 C 
HETATM   39  C29 UNL     1      -9.238   7.815  14.937  1.00  0.00     0.183 C 
HETATM   40  C30 UNL     1     -10.406   6.982  14.398  1.00  0.00     0.204 C 
BRANCH  37  41
HETATM   41  C27 UNL     1     -10.354  11.250  14.780  1.00  0.00     0.198 C 
BRANCH  41  42
HETATM   42  O5  UNL     1      -9.038  11.459  15.302  1.00  0.00    -0.398 OA
HETATM   43  H38 UNL     1      -8.807  12.383  15.093  1.00  0.00     0.209 HD
ENDBRANCH  41  42
ENDBRANCH  37  41
BRANCH  38  44
HETATM   44  O6  UNL     1     -10.358   8.467  16.964  1.00  0.00    -0.390 OA
HETATM   45  H40 UNL     1      -9.704   7.825  17.309  1.00  0.00     0.210 HD
ENDBRANCH  38  44
BRANCH  39  46
HETATM   46  O7  UNL     1      -8.409   6.979  15.772  1.00  0.00    -0.390 OA
HETATM   47  H42 UNL     1      -8.310   6.136  15.283  1.00  0.00     0.210 HD
ENDBRANCH  39  46
BRANCH  40  48
HETATM   48  O8  UNL     1      -9.858   5.995  13.495  1.00  0.00    -0.388 OA
HETATM   49  H44 UNL     1      -9.483   6.472  12.732  1.00  0.00     0.210 HD
ENDBRANCH  40  48
ENDBRANCH  34  35
ENDBRANCH  33  34
ENDBRANCH   5  33
TORSDOF 11
ENDMDL
MODEL 8
REMARK minimizedAffinity -9.13969135
REMARK CNNscore 0.231836349
REMARK CNNaffinity 6.26823854
REMARK  11 active torsions:
REMARK  status: ('A' for Active; 'I' for Inactive)
REMARK    1  A    between atoms: O1_2  and  C2_3 
REMARK    2  A    between atoms: C16_18  and  C17_19 
REMARK    3  A    between atoms: C17_19  and  C19_21 
REMARK    4  A    between atoms: C23_25  and  C24_26 
REMARK    5  A    between atoms: C24_26  and  O3_27 
REMARK    6  A    between atoms: O3_27  and  C25_28 
REMARK    7  A    between atoms: C26_30  and  C27_31 
REMARK    8  A    between atoms: C27_31  and  O5_32 
REMARK    9  A    between atoms: C28_33  and  O6_34 
REMARK   10  A    between atoms: C29_35  and  O7_36 
REMARK   11  A    between atoms: C30_37  and  O8_38 
ROOT
HETATM    1  C19 UNL     1      -2.553   9.729  16.960  1.00  0.00     0.140 C 
HETATM    2  C20 UNL     1      -2.694  11.237  17.167  1.00  0.00     0.067 C 
HETATM    3  C21 UNL     1      -1.823  11.633  18.334  1.00  0.00    -0.067 C 
HETATM    4  C22 UNL     1      -2.371  12.724  19.210  1.00  0.00     0.044 C 
HETATM    5  C23 UNL     1      -0.651  10.987  18.534  1.00  0.00     0.043 C 
HETATM    6  C31 UNL     1      -0.211   9.959  17.545  1.00  0.00     0.292 C 
HETATM    7  O9  UNL     1       0.964   9.638  17.431  1.00  0.00    -0.260 OA
HETATM    8  O10 UNL     1      -1.163   9.405  16.755  1.00  0.00    -0.311 OA
ENDROOT
BRANCH   1   9
HETATM    9  C17 UNL     1      -3.394   9.206  15.765  1.00  0.00     0.016 C 
HETATM   10  C18 UNL     1      -3.700  10.343  14.769  1.00  0.00     0.013 C 
BRANCH   9  11
HETATM   11  C16 UNL     1      -2.761   8.015  14.977  1.00  0.00     0.000 C 
HETATM   12  C14 UNL     1      -2.731   8.128  13.422  1.00  0.00    -0.036 C 
HETATM   13  C13 UNL     1      -1.715   9.175  12.939  1.00  0.00     0.010 C 
HETATM   14  C15 UNL     1      -4.125   8.485  12.843  1.00  0.00     0.016 C 
HETATM   15  C34 UNL     1      -2.353   6.688  12.960  1.00  0.00     0.001 C 
HETATM   16  C12 UNL     1      -1.292   8.916  11.500  1.00  0.00     0.007 C 
HETATM   17  C11 UNL     1      -0.513   7.594  11.331  1.00  0.00     0.013 C 
HETATM   18  C9  UNL     1       1.049   7.796  11.108  1.00  0.00     0.048 C 
HETATM   19  C35 UNL     1      -0.930   6.473  12.352  1.00  0.00     0.029 C 
HETATM   20  C4  UNL     1       1.827   6.534  11.480  1.00  0.00    -0.044 C 
HETATM   21  C8  UNL     1       1.290   8.129   9.610  1.00  0.00     0.143 C 
HETATM   22  C10 UNL     1       1.654   8.977  11.903  1.00  0.00     0.029 C 
HETATM   23  C3  UNL     1       1.455   5.797  12.539  1.00  0.00     0.013 C 
HETATM   24  C5  UNL     1       3.007   6.160  10.726  1.00  0.00     0.004 C 
HETATM   25  C2  UNL     1       0.203   6.063  13.320  1.00  0.00     0.149 C 
HETATM   26  C6  UNL     1       3.421   6.823   9.642  1.00  0.00    -0.019 C 
HETATM   27  C7  UNL     1       2.703   7.993   9.065  1.00  0.00     0.106 C 
HETATM   28  O2  UNL     1       0.408   8.606   8.887  1.00  0.00    -0.296 OA
HETATM   29  C33 UNL     1      -2.738   5.757  14.135  1.00  0.00     0.006 C 
HETATM   30  C32 UNL     1      -3.379   6.635  15.207  1.00  0.00     0.006 C 
BRANCH  25  31
HETATM   31  O1  UNL     1       0.434   7.074  14.290  1.00  0.00    -0.386 OA
HETATM   32  C1  UNL     1       1.735   7.022  14.863  1.00  0.00     0.202 C 
ENDBRANCH  25  31
ENDBRANCH   9  11
ENDBRANCH   1   9
BRANCH   5  33
HETATM   33  C24 UNL     1       0.348  11.247  19.636  1.00  0.00     0.216 C 
BRANCH  33  34
HETATM   34  O3  UNL     1       0.445  12.635  19.965  1.00  0.00    -0.354 OA
BRANCH  34  35
HETATM   35  C25 UNL     1       1.765  13.164  19.839  1.00  0.00     0.291 C 
HETATM   36  O4  UNL     1       2.425  13.098  21.106  1.00  0.00    -0.348 OA
HETATM   37  C26 UNL     1       2.638  11.744  21.561  1.00  0.00     0.179 C 
HETATM   38  C28 UNL     1       3.455  10.920  20.550  1.00  0.00     0.180 C 
HETATM   39  C29 UNL     1       3.829  11.763  19.334  1.00  0.00     0.183 C 
HETATM   40  C30 UNL     1       2.585  12.438  18.745  1.00  0.00     0.204 C 
BRANCH  37  41
HETATM   41  C27 UNL     1       3.351  11.824  22.918  1.00  0.00     0.198 C 
BRANCH  41  42
HETATM   42  O5  UNL     1       4.273  12.918  22.953  1.00  0.00    -0.398 OA
HETATM   43  H38 UNL     1       4.641  12.932  23.856  1.00  0.00     0.209 HD
ENDBRANCH  41  42
ENDBRANCH  37  41
BRANCH  38  44
HETATM   44  O6  UNL     1       2.666   9.800  20.098  1.00  0.00    -0.390 OA
HETATM   45  H40 UNL     1       3.165   9.439  19.335  1.00  0.00     0.210 HD
ENDBRANCH  38  44
BRANCH  39  46
HETATM   46  O7  UNL     1       4.421  10.911  18.331  1.00  0.00    -0.390 OA
HETATM   47  H42 UNL     1       4.414  11.435  17.504  1.00  0.00     0.210 HD
ENDBRANCH  39  46
BRANCH  40  48
HETATM   48  O8  UNL     1       3.029  13.347  17.713  1.00  0.00    -0.388 OA
HETATM   49  H44 UNL     1       3.548  14.050  18.144  1.00  0.00     0.210 HD
ENDBRANCH  40  48
ENDBRANCH  34  35
ENDBRANCH  33  34
ENDBRANCH   5  33
TORSDOF 11
ENDMDL
MODEL 9
REMARK minimizedAffinity -7.91964531
REMARK CNNscore 0.224424586
REMARK CNNaffinity 5.97982454
REMARK  11 active torsions:
REMARK  status: ('A' for Active; 'I' for Inactive)
REMARK    1  A    between atoms: O1_2  and  C2_3 
REMARK    2  A    between atoms: C16_18  and  C17_19 
REMARK    3  A    between atoms: C17_19  and  C19_21 
REMARK    4  A    between atoms: C23_25  and  C24_26 
REMARK    5  A    between atoms: C24_26  and  O3_27 
REMARK    6  A    between atoms: O3_27  and  C25_28 
REMARK    7  A    between atoms: C26_30  and  C27_31 
REMARK    8  A    between atoms: C27_31  and  O5_32 
REMARK    9  A    between atoms: C28_33  and  O6_34 
REMARK   10  A    between atoms: C29_35  and  O7_36 
REMARK   11  A    between atoms: C30_37  and  O8_38 
ROOT
HETATM    1  C19 UNL     1     -15.922   4.669  14.213  1.00  0.00     0.140 C 
HETATM    2  C20 UNL     1     -17.351   4.135  14.132  1.00  0.00     0.067 C 
HETATM    3  C21 UNL     1     -17.297   2.736  13.571  1.00  0.00    -0.067 C 
HETATM    4  C22 UNL     1     -18.436   2.356  12.667  1.00  0.00     0.044 C 
HETATM    5  C23 UNL     1     -16.250   1.938  13.883  1.00  0.00     0.043 C 
HETATM    6  C31 UNL     1     -15.220   2.435  14.842  1.00  0.00     0.292 C 
HETATM    7  O9  UNL     1     -14.498   1.669  15.465  1.00  0.00    -0.260 OA
HETATM    8  O10 UNL     1     -15.125   3.776  15.017  1.00  0.00    -0.311 OA
ENDROOT
BRANCH   1   9
HETATM    9  C17 UNL     1     -15.849   6.105  14.799  1.00  0.00     0.016 C 
HETATM   10  C18 UNL     1     -15.915   6.074  16.339  1.00  0.00     0.013 C 
BRANCH   9  11
HETATM   11  C16 UNL     1     -14.597   6.935  14.373  1.00  0.00     0.000 C 
HETATM   12  C14 UNL     1     -14.793   7.986  13.237  1.00  0.00    -0.036 C 
HETATM   13  C13 UNL     1     -15.613   9.197  13.708  1.00  0.00     0.010 C 
HETATM   14  C15 UNL     1     -15.487   7.369  11.994  1.00  0.00     0.016 C 
HETATM   15  C34 UNL     1     -13.335   8.379  12.850  1.00  0.00     0.001 C 
HETATM   16  C12 UNL     1     -15.353  10.417  12.836  1.00  0.00     0.007 C 
HETATM   17  C11 UNL     1     -13.903  10.935  12.944  1.00  0.00     0.013 C 
HETATM   18  C9  UNL     1     -13.763  12.273  13.792  1.00  0.00     0.048 C 
HETATM   19  C35 UNL     1     -12.844   9.810  13.241  1.00  0.00     0.029 C 
HETATM   20  C4  UNL     1     -12.339  12.446  14.319  1.00  0.00    -0.044 C 
HETATM   21  C8  UNL     1     -14.123  13.474  12.874  1.00  0.00     0.143 C 
HETATM   22  C10 UNL     1     -14.728  12.362  14.997  1.00  0.00     0.029 C 
HETATM   23  C3  UNL     1     -11.641  11.381  14.746  1.00  0.00     0.013 C 
HETATM   24  C5  UNL     1     -11.756  13.769  14.417  1.00  0.00     0.004 C 
HETATM   25  C2  UNL     1     -12.134   9.971  14.604  1.00  0.00     0.149 C 
HETATM   26  C6  UNL     1     -12.373  14.872  13.984  1.00  0.00    -0.019 C 
HETATM   27  C7  UNL     1     -13.707  14.867  13.321  1.00  0.00     0.106 C 
HETATM   28  O2  UNL     1     -14.828  13.350  11.866  1.00  0.00    -0.296 OA
HETATM   29  C33 UNL     1     -12.446   7.204  13.320  1.00  0.00     0.006 C 
HETATM   30  C32 UNL     1     -13.378   6.142  13.896  1.00  0.00     0.006 C 
BRANCH  25  31
HETATM   31  O1  UNL     1     -13.007   9.644  15.674  1.00  0.00    -0.386 OA
HETATM   32  C1  UNL     1     -12.407   9.784  16.956  1.00  0.00     0.202 C 
ENDBRANCH  25  31
ENDBRANCH   9  11
ENDBRANCH   1   9
BRANCH   5  33
HETATM   33  C24 UNL     1     -16.028   0.517  13.425  1.00  0.00     0.216 C 
BRANCH  33  34
HETATM   34  O3  UNL     1     -15.370  -0.276  14.416  1.00  0.00    -0.354 OA
BRANCH  34  35
HETATM   35  C25 UNL     1     -15.942  -1.573  14.587  1.00  0.00     0.291 C 
HETATM   36  O4  UNL     1     -16.638  -1.945  13.394  1.00  0.00    -0.348 OA
HETATM   37  C26 UNL     1     -15.762  -2.102  12.256  1.00  0.00     0.179 C 
HETATM   38  C28 UNL     1     -14.662  -3.146  12.517  1.00  0.00     0.180 C 
HETATM   39  C29 UNL     1     -14.798  -3.745  13.914  1.00  0.00     0.183 C 
HETATM   40  C30 UNL     1     -14.882  -2.635  14.968  1.00  0.00     0.204 C 
BRANCH  37  41
HETATM   41  C27 UNL     1     -16.635  -2.501  11.059  1.00  0.00     0.198 C 
BRANCH  41  42
HETATM   42  O5  UNL     1     -17.143  -1.347  10.382  1.00  0.00    -0.398 OA
HETATM   43  H38 UNL     1     -17.637  -1.681   9.611  1.00  0.00     0.209 HD
ENDBRANCH  41  42
ENDBRANCH  37  41
BRANCH  38  44
HETATM   44  O6  UNL     1     -13.369  -2.513  12.420  1.00  0.00    -0.390 OA
HETATM   45  H40 UNL     1     -12.743  -3.178  12.776  1.00  0.00     0.210 HD
ENDBRANCH  38  44
BRANCH  39  46
HETATM   46  O7  UNL     1     -13.647  -4.569  14.190  1.00  0.00    -0.390 OA
HETATM   47  H42 UNL     1     -13.659  -4.723  15.157  1.00  0.00     0.210 HD
ENDBRANCH  39  46
BRANCH  40  48
HETATM   48  O8  UNL     1     -15.178  -3.260  16.237  1.00  0.00    -0.388 OA
HETATM   49  H44 UNL     1     -16.069  -3.649  16.172  1.00  0.00     0.210 HD
ENDBRANCH  40  48
ENDBRANCH  34  35
ENDBRANCH  33  34
ENDBRANCH   5  33
TORSDOF 11
ENDMDL
