MODEL 1
REMARK minimizedAffinity -6.48624325
REMARK CNNscore 0.805475831
REMARK CNNaffinity 6.83858299
REMARK  10 active torsions:
REMARK  status: ('A' for Active; 'I' for Inactive)
REMARK    1  A    between atoms: C2_2  and  O1_3 
REMARK    2  A    between atoms: O1_3  and  C3_4 
REMARK    3  A    between atoms: C3_4  and  C4_6 
REMARK    4  A    between atoms: C4_6  and  C5_7 
REMARK    5  A    between atoms: C5_7  and  C6_8 
REMARK    6  A    between atoms: C6_8  and  C8_10 
REMARK    7  A    between atoms: C13_15  and  O3_16 
REMARK    8  A    between atoms: C17_21  and  O4_22 
REMARK    9  A    between atoms: C24_29  and  O5_30 
REMARK   10  A    between atoms: O5_30  and  C25_31 
ROOT
HETATM    1  C8  UNL     1       2.497  56.345  -8.678  1.00  0.00     0.000 C 
HETATM    2  C9  UNL     1       3.294  56.320 -10.021  1.00  0.00     0.006 C 
HETATM    3  C10 UNL     1       2.557  55.396 -10.988  1.00  0.00     0.006 C 
HETATM    4  C11 UNL     1       1.206  55.192 -10.323  1.00  0.00     0.003 C 
HETATM    5  C12 UNL     1       0.270  54.102 -10.896  1.00  0.00     0.025 C 
HETATM    6  C13 UNL     1       0.950  52.770 -11.298  1.00  0.00     0.137 C 
HETATM    7  C14 UNL     1       0.093  51.503 -11.167  1.00  0.00     0.092 C 
HETATM    8 BR1  UNL     1       0.545  50.145 -12.521  1.00  0.00    -0.088 Br
HETATM    9  C15 UNL     1      -1.419  51.717 -11.061  1.00  0.00     0.013 C 
HETATM   10  C16 UNL     1      -2.075  52.177 -12.390  1.00  0.00     0.038 C 
HETATM   11  C17 UNL     1      -3.524  52.660 -12.241  1.00  0.00     0.118 C 
HETATM   12  C18 UNL     1      -4.116  52.269 -10.896  1.00  0.00     0.032 C 
HETATM   13  C19 UNL     1      -3.300  52.834  -9.726  1.00  0.00     0.012 C 
HETATM   14  C20 UNL     1      -1.744  52.667  -9.865  1.00  0.00    -0.035 C 
HETATM   15  C21 UNL     1      -1.268  52.041  -8.530  1.00  0.00     0.016 C 
HETATM   16  C22 UNL     1      -1.065  54.064 -10.099  1.00  0.00     0.003 C 
HETATM   17  C23 UNL     1      -1.097  55.045  -8.903  1.00  0.00     0.039 C 
HETATM   18  C24 UNL     1       0.165  55.173  -8.014  1.00  0.00     0.141 C 
HETATM   19  C27 UNL     1       1.518  55.115  -8.802  1.00  0.00    -0.009 C 
HETATM   20  C28 UNL     1       2.263  53.819  -8.404  1.00  0.00     0.018 C 
ENDROOT
BRANCH   1  21
HETATM   21  C6  UNL     1       3.486  56.447  -7.471  1.00  0.00    -0.013 C 
HETATM   22  C7  UNL     1       4.941  56.394  -7.975  1.00  0.00     0.010 C 
BRANCH  21  23
HETATM   23  C5  UNL     1       3.284  57.708  -6.603  1.00  0.00     0.014 C 
BRANCH  23  24
HETATM   24  C4  UNL     1       3.995  57.688  -5.247  1.00  0.00     0.111 C 
BRANCH  24  25
HETATM   25  C3  UNL     1       3.548  58.827  -4.366  1.00  0.00     0.258 C 
HETATM   26  O2  UNL     1       2.417  58.953  -3.919  1.00  0.00    -0.265 OA
BRANCH  25  27
HETATM   27  O1  UNL     1       4.595  59.661  -4.108  1.00  0.00    -0.322 OA
BRANCH  27  28
HETATM   28  C2  UNL     1       4.336  60.639  -3.095  1.00  0.00     0.174 C 
HETATM   29  C1  UNL     1       4.066  61.966  -3.777  1.00  0.00     0.034 C 
ENDBRANCH  27  28
ENDBRANCH  25  27
ENDBRANCH  24  25
ENDBRANCH  23  24
ENDBRANCH  21  23
ENDBRANCH   1  21
BRANCH  18  30
HETATM   30  O5  UNL     1       0.042  56.435  -7.316  1.00  0.00    -0.316 OA
BRANCH  30  31
HETATM   31  C25 UNL     1      -0.070  56.373  -5.960  1.00  0.00     0.255 C 
HETATM   32  C26 UNL     1       0.294  55.003  -5.473  1.00  0.00     0.126 C 
HETATM   33  O6  UNL     1      -0.424  57.290  -5.231  1.00  0.00    -0.266 OA
ENDBRANCH  30  31
ENDBRANCH  18  30
BRANCH   6  34
HETATM   34  O3  UNL     1       1.470  52.967 -12.627  1.00  0.00    -0.394 OA
HETATM   35  H22 UNL     1       1.370  52.135 -13.119  1.00  0.00     0.210 HD
ENDBRANCH   6  34
BRANCH  11  36
HETATM   36  O4  UNL     1      -3.545  54.075 -12.393  1.00  0.00    -0.396 OA
HETATM   37  H28 UNL     1      -4.434  54.397 -12.144  1.00  0.00     0.210 HD
ENDBRANCH  11  36
TORSDOF 10
ENDMDL
MODEL 2
REMARK minimizedAffinity -6.00860691
REMARK CNNscore 0.755795121
REMARK CNNaffinity 6.6316371
REMARK  10 active torsions:
REMARK  status: ('A' for Active; 'I' for Inactive)
REMARK    1  A    between atoms: C2_2  and  O1_3 
REMARK    2  A    between atoms: O1_3  and  C3_4 
REMARK    3  A    between atoms: C3_4  and  C4_6 
REMARK    4  A    between atoms: C4_6  and  C5_7 
REMARK    5  A    between atoms: C5_7  and  C6_8 
REMARK    6  A    between atoms: C6_8  and  C8_10 
REMARK    7  A    between atoms: C13_15  and  O3_16 
REMARK    8  A    between atoms: C17_21  and  O4_22 
REMARK    9  A    between atoms: C24_29  and  O5_30 
REMARK   10  A    between atoms: O5_30  and  C25_31 
ROOT
HETATM    1  C8  UNL     1       3.375  55.349  -8.944  1.00  0.00     0.000 C 
HETATM    2  C9  UNL     1       4.849  55.053  -9.367  1.00  0.00     0.006 C 
HETATM    3  C10 UNL     1       5.759  55.433  -8.201  1.00  0.00     0.006 C 
HETATM    4  C11 UNL     1       4.795  55.603  -7.040  1.00  0.00     0.003 C 
HETATM    5  C12 UNL     1       5.332  56.235  -5.735  1.00  0.00     0.025 C 
HETATM    6  C13 UNL     1       6.280  57.446  -5.910  1.00  0.00     0.137 C 
HETATM    7  C14 UNL     1       6.252  58.500  -4.794  1.00  0.00     0.092 C 
HETATM    8 BR1  UNL     1       8.002  59.364  -4.528  1.00  0.00    -0.088 Br
HETATM    9  C15 UNL     1       5.628  58.062  -3.466  1.00  0.00     0.013 C 
HETATM   10  C16 UNL     1       6.503  57.059  -2.671  1.00  0.00     0.038 C 
HETATM   11  C17 UNL     1       5.784  56.400  -1.486  1.00  0.00     0.118 C 
HETATM   12  C18 UNL     1       4.489  57.116  -1.139  1.00  0.00     0.032 C 
HETATM   13  C19 UNL     1       3.520  57.151  -2.329  1.00  0.00     0.012 C 
HETATM   14  C20 UNL     1       4.173  57.543  -3.703  1.00  0.00    -0.035 C 
HETATM   15  C21 UNL     1       3.284  58.669  -4.286  1.00  0.00     0.016 C 
HETATM   16  C22 UNL     1       4.205  56.301  -4.664  1.00  0.00     0.003 C 
HETATM   17  C23 UNL     1       2.833  55.808  -5.181  1.00  0.00     0.039 C 
HETATM   18  C24 UNL     1       2.379  56.229  -6.601  1.00  0.00     0.141 C 
HETATM   19  C27 UNL     1       3.531  56.257  -7.664  1.00  0.00    -0.009 C 
HETATM   20  C28 UNL     1       3.762  57.724  -8.097  1.00  0.00     0.018 C 
ENDROOT
BRANCH   1  21
HETATM   21  C6  UNL     1       2.556  55.854 -10.175  1.00  0.00    -0.013 C 
HETATM   22  C7  UNL     1       3.503  56.475 -11.221  1.00  0.00     0.010 C 
BRANCH  21  23
HETATM   23  C5  UNL     1       1.692  54.761 -10.843  1.00  0.00     0.014 C 
BRANCH  23  24
HETATM   24  C4  UNL     1       0.634  54.123  -9.939  1.00  0.00     0.111 C 
BRANCH  24  25
HETATM   25  C3  UNL     1      -0.750  54.636 -10.254  1.00  0.00     0.258 C 
HETATM   26  O2  UNL     1      -1.131  55.777 -10.035  1.00  0.00    -0.265 OA
BRANCH  25  27
HETATM   27  O1  UNL     1      -1.488  53.659 -10.852  1.00  0.00    -0.322 OA
BRANCH  27  28
HETATM   28  C2  UNL     1      -2.580  53.176 -10.063  1.00  0.00     0.174 C 
HETATM   29  C1  UNL     1      -3.855  53.814 -10.581  1.00  0.00     0.034 C 
ENDBRANCH  27  28
ENDBRANCH  25  27
ENDBRANCH  24  25
ENDBRANCH  23  24
ENDBRANCH  21  23
ENDBRANCH   1  21
BRANCH  18  30
HETATM   30  O5  UNL     1       1.353  55.287  -6.995  1.00  0.00    -0.316 OA
BRANCH  30  31
HETATM   31  C25 UNL     1       0.079  55.580  -6.615  1.00  0.00     0.255 C 
HETATM   32  C26 UNL     1      -0.701  54.317  -6.402  1.00  0.00     0.126 C 
HETATM   33  O6  UNL     1      -0.382  56.705  -6.471  1.00  0.00    -0.266 OA
ENDBRANCH  30  31
ENDBRANCH  18  30
BRANCH   6  34
HETATM   34  O3  UNL     1       7.593  56.900  -6.140  1.00  0.00    -0.394 OA
HETATM   35  H22 UNL     1       8.243  57.477  -5.704  1.00  0.00     0.210 HD
ENDBRANCH   6  34
BRANCH  11  36
HETATM   36  O4  UNL     1       5.519  55.042  -1.818  1.00  0.00    -0.396 OA
HETATM   37  H28 UNL     1       4.928  54.668  -1.135  1.00  0.00     0.210 HD
ENDBRANCH  11  36
TORSDOF 10
ENDMDL
MODEL 3
REMARK minimizedAffinity -6.52606106
REMARK CNNscore 0.754277766
REMARK CNNaffinity 6.76320457
REMARK  10 active torsions:
REMARK  status: ('A' for Active; 'I' for Inactive)
REMARK    1  A    between atoms: C2_2  and  O1_3 
REMARK    2  A    between atoms: O1_3  and  C3_4 
REMARK    3  A    between atoms: C3_4  and  C4_6 
REMARK    4  A    between atoms: C4_6  and  C5_7 
REMARK    5  A    between atoms: C5_7  and  C6_8 
REMARK    6  A    between atoms: C6_8  and  C8_10 
REMARK    7  A    between atoms: C13_15  and  O3_16 
REMARK    8  A    between atoms: C17_21  and  O4_22 
REMARK    9  A    between atoms: C24_29  and  O5_30 
REMARK   10  A    between atoms: O5_30  and  C25_31 
ROOT
HETATM    1  C8  UNL     1       2.615  56.333  -8.568  1.00  0.00     0.000 C 
HETATM    2  C9  UNL     1       3.356  56.372  -9.942  1.00  0.00     0.006 C 
HETATM    3  C10 UNL     1       2.622  55.434 -10.898  1.00  0.00     0.006 C 
HETATM    4  C11 UNL     1       1.311  55.154 -10.185  1.00  0.00     0.003 C 
HETATM    5  C12 UNL     1       0.403  54.033 -10.743  1.00  0.00     0.025 C 
HETATM    6  C13 UNL     1       1.125  52.743 -11.201  1.00  0.00     0.137 C 
HETATM    7  C14 UNL     1       0.334  51.435 -11.063  1.00  0.00     0.092 C 
HETATM    8 BR1  UNL     1       0.790  50.126 -12.463  1.00  0.00    -0.088 Br
HETATM    9  C15 UNL     1      -1.181  51.576 -10.891  1.00  0.00     0.013 C 
HETATM   10  C16 UNL     1      -1.911  52.031 -12.181  1.00  0.00     0.038 C 
HETATM   11  C17 UNL     1      -3.374  52.443 -11.963  1.00  0.00     0.118 C 
HETATM   12  C18 UNL     1      -3.892  51.999 -10.604  1.00  0.00     0.032 C 
HETATM   13  C19 UNL     1      -3.053  52.578  -9.457  1.00  0.00     0.012 C 
HETATM   14  C20 UNL     1      -1.499  52.486  -9.661  1.00  0.00    -0.035 C 
HETATM   15  C21 UNL     1      -0.940  51.856  -8.362  1.00  0.00     0.016 C 
HETATM   16  C22 UNL     1      -0.895  53.917  -9.893  1.00  0.00     0.003 C 
HETATM   17  C23 UNL     1      -0.922  54.871  -8.675  1.00  0.00     0.039 C 
HETATM   18  C24 UNL     1       0.369  55.041  -7.836  1.00  0.00     0.141 C 
HETATM   19  C27 UNL     1       1.689  55.061  -8.679  1.00  0.00    -0.009 C 
HETATM   20  C28 UNL     1       2.508  53.794  -8.340  1.00  0.00     0.018 C 
ENDROOT
BRANCH   1  21
HETATM   21  C6  UNL     1       3.647  56.457  -7.400  1.00  0.00    -0.013 C 
HETATM   22  C7  UNL     1       3.600  55.195  -6.518  1.00  0.00     0.010 C 
BRANCH  21  23
HETATM   23  C5  UNL     1       5.097  56.707  -7.870  1.00  0.00     0.014 C 
BRANCH  23  24
HETATM   24  C4  UNL     1       6.183  56.059  -7.008  1.00  0.00     0.111 C 
BRANCH  24  25
HETATM   25  C3  UNL     1       6.659  56.990  -5.919  1.00  0.00     0.258 C 
HETATM   26  O2  UNL     1       6.358  58.172  -5.840  1.00  0.00    -0.265 OA
BRANCH  25  27
HETATM   27  O1  UNL     1       7.428  56.310  -5.023  1.00  0.00    -0.322 OA
BRANCH  27  28
HETATM   28  C2  UNL     1       8.604  55.717  -5.583  1.00  0.00     0.174 C 
HETATM   29  C1  UNL     1       9.773  56.646  -5.320  1.00  0.00     0.034 C 
ENDBRANCH  27  28
ENDBRANCH  25  27
ENDBRANCH  24  25
ENDBRANCH  23  24
ENDBRANCH  21  23
ENDBRANCH   1  21
BRANCH  18  30
HETATM   30  O5  UNL     1       0.217  56.281  -7.106  1.00  0.00    -0.316 OA
BRANCH  30  31
HETATM   31  C25 UNL     1       0.004  56.178  -5.765  1.00  0.00     0.255 C 
HETATM   32  C26 UNL     1       0.867  57.157  -5.027  1.00  0.00     0.126 C 
HETATM   33  O6  UNL     1      -0.768  55.399  -5.223  1.00  0.00    -0.266 OA
ENDBRANCH  30  31
ENDBRANCH  18  30
BRANCH   6  34
HETATM   34  O3  UNL     1       1.581  52.990 -12.545  1.00  0.00    -0.394 OA
HETATM   35  H22 UNL     1       1.498  52.164 -13.051  1.00  0.00     0.210 HD
ENDBRANCH   6  34
BRANCH  11  36
HETATM   36  O4  UNL     1      -3.466  53.858 -12.083  1.00  0.00    -0.396 OA
HETATM   37  H28 UNL     1      -4.357  54.134 -11.792  1.00  0.00     0.210 HD
ENDBRANCH  11  36
TORSDOF 10
ENDMDL
MODEL 4
REMARK minimizedAffinity -8.44994354
REMARK CNNscore 0.657658577
REMARK CNNaffinity 7.06617212
REMARK  10 active torsions:
REMARK  status: ('A' for Active; 'I' for Inactive)
REMARK    1  A    between atoms: C2_2  and  O1_3 
REMARK    2  A    between atoms: O1_3  and  C3_4 
REMARK    3  A    between atoms: C3_4  and  C4_6 
REMARK    4  A    between atoms: C4_6  and  C5_7 
REMARK    5  A    between atoms: C5_7  and  C6_8 
REMARK    6  A    between atoms: C6_8  and  C8_10 
REMARK    7  A    between atoms: C13_15  and  O3_16 
REMARK    8  A    between atoms: C17_21  and  O4_22 
REMARK    9  A    between atoms: C24_29  and  O5_30 
REMARK   10  A    between atoms: O5_30  and  C25_31 
ROOT
HETATM    1  C8  UNL     1      -1.826  52.234 -23.350  1.00  0.00     0.000 C 
HETATM    2  C9  UNL     1      -3.240  52.804 -23.687  1.00  0.00     0.006 C 
HETATM    3  C10 UNL     1      -4.280  51.914 -23.009  1.00  0.00     0.006 C 
HETATM    4  C11 UNL     1      -3.458  51.084 -22.039  1.00  0.00     0.003 C 
HETATM    5  C12 UNL     1      -4.143  49.883 -21.346  1.00  0.00     0.025 C 
HETATM    6  C13 UNL     1      -5.065  49.022 -22.242  1.00  0.00     0.137 C 
HETATM    7  C14 UNL     1      -5.167  47.533 -21.881  1.00  0.00     0.092 C 
HETATM    8 BR1  UNL     1      -6.937  46.776 -22.300  1.00  0.00    -0.088 Br
HETATM    9  C15 UNL     1      -4.702  47.145 -20.475  1.00  0.00     0.013 C 
HETATM   10  C16 UNL     1      -5.663  47.614 -19.353  1.00  0.00     0.038 C 
HETATM   11  C17 UNL     1      -5.087  47.482 -17.937  1.00  0.00     0.118 C 
HETATM   12  C18 UNL     1      -3.841  46.611 -17.910  1.00  0.00     0.032 C 
HETATM   13  C19 UNL     1      -2.740  47.162 -18.827  1.00  0.00     0.012 C 
HETATM   14  C20 UNL     1      -3.230  47.615 -20.249  1.00  0.00    -0.035 C 
HETATM   15  C21 UNL     1      -2.279  46.928 -21.260  1.00  0.00     0.016 C 
HETATM   16  C22 UNL     1      -3.149  49.178 -20.379  1.00  0.00     0.003 C 
HETATM   17  C23 UNL     1      -1.725  49.785 -20.409  1.00  0.00     0.039 C 
HETATM   18  C24 UNL     1      -1.110  50.168 -21.777  1.00  0.00     0.141 C 
HETATM   19  C27 UNL     1      -2.130  50.791 -22.791  1.00  0.00    -0.009 C 
HETATM   20  C28 UNL     1      -2.310  49.807 -23.972  1.00  0.00     0.018 C 
ENDROOT
BRANCH   1  21
HETATM   21  C6  UNL     1      -0.869  52.422 -24.572  1.00  0.00    -0.013 C 
HETATM   22  C7  UNL     1       0.492  52.970 -24.097  1.00  0.00     0.010 C 
BRANCH  21  23
HETATM   23  C5  UNL     1      -0.649  51.137 -25.398  1.00  0.00     0.014 C 
BRANCH  23  24
HETATM   24  C4  UNL     1      -1.084  51.221 -26.864  1.00  0.00     0.111 C 
BRANCH  24  25
HETATM   25  C3  UNL     1      -0.963  52.625 -27.401  1.00  0.00     0.258 C 
HETATM   26  O2  UNL     1      -1.903  53.394 -27.546  1.00  0.00    -0.265 OA
BRANCH  25  27
HETATM   27  O1  UNL     1       0.343  52.920 -27.656  1.00  0.00    -0.322 OA
BRANCH  27  28
HETATM   28  C2  UNL     1       1.098  51.835 -28.205  1.00  0.00     0.174 C 
HETATM   29  C1  UNL     1       2.429  51.772 -27.480  1.00  0.00     0.034 C 
ENDBRANCH  27  28
ENDBRANCH  25  27
ENDBRANCH  24  25
ENDBRANCH  23  24
ENDBRANCH  21  23
ENDBRANCH   1  21
BRANCH  18  30
HETATM   30  O5  UNL     1      -0.044  51.106 -21.494  1.00  0.00    -0.316 OA
BRANCH  30  31
HETATM   31  C25 UNL     1      -0.256  51.977 -20.469  1.00  0.00     0.255 C 
HETATM   32  C26 UNL     1       0.843  52.997 -20.423  1.00  0.00     0.126 C 
HETATM   33  O6  UNL     1      -1.195  51.944 -19.686  1.00  0.00    -0.266 OA
ENDBRANCH  30  31
ENDBRANCH  18  30
BRANCH   6  34
HETATM   34  O3  UNL     1      -6.342  49.688 -22.266  1.00  0.00    -0.394 OA
HETATM   35  H22 UNL     1      -7.039  49.009 -22.278  1.00  0.00     0.210 HD
ENDBRANCH   6  34
BRANCH  11  36
HETATM   36  O4  UNL     1      -4.785  48.785 -17.450  1.00  0.00    -0.396 OA
HETATM   37  H28 UNL     1      -4.277  48.692 -16.620  1.00  0.00     0.210 HD
ENDBRANCH  11  36
TORSDOF 10
ENDMDL
MODEL 5
REMARK minimizedAffinity -6.96243191
REMARK CNNscore 0.65650177
REMARK CNNaffinity 6.7988658
REMARK  10 active torsions:
REMARK  status: ('A' for Active; 'I' for Inactive)
REMARK    1  A    between atoms: C2_2  and  O1_3 
REMARK    2  A    between atoms: O1_3  and  C3_4 
REMARK    3  A    between atoms: C3_4  and  C4_6 
REMARK    4  A    between atoms: C4_6  and  C5_7 
REMARK    5  A    between atoms: C5_7  and  C6_8 
REMARK    6  A    between atoms: C6_8  and  C8_10 
REMARK    7  A    between atoms: C13_15  and  O3_16 
REMARK    8  A    between atoms: C17_21  and  O4_22 
REMARK    9  A    between atoms: C24_29  and  O5_30 
REMARK   10  A    between atoms: O5_30  and  C25_31 
ROOT
HETATM    1  C8  UNL     1       2.473  56.141  -8.897  1.00  0.00     0.000 C 
HETATM    2  C9  UNL     1       3.183  56.189 -10.287  1.00  0.00     0.006 C 
HETATM    3  C10 UNL     1       2.402  55.294 -11.246  1.00  0.00     0.006 C 
HETATM    4  C11 UNL     1       1.100  55.035 -10.508  1.00  0.00     0.003 C 
HETATM    5  C12 UNL     1       0.148  53.953 -11.069  1.00  0.00     0.025 C 
HETATM    6  C13 UNL     1       0.822  52.654 -11.571  1.00  0.00     0.137 C 
HETATM    7  C14 UNL     1      -0.003  51.365 -11.443  1.00  0.00     0.092 C 
HETATM    8 BR1  UNL     1       0.385  50.076 -12.881  1.00  0.00    -0.088 Br
HETATM    9  C15 UNL     1      -1.509  51.545 -11.234  1.00  0.00     0.013 C 
HETATM   10  C16 UNL     1      -2.255  52.049 -12.497  1.00  0.00     0.038 C 
HETATM   11  C17 UNL     1      -3.699  52.497 -12.236  1.00  0.00     0.118 C 
HETATM   12  C18 UNL     1      -4.199  52.038 -10.876  1.00  0.00     0.032 C 
HETATM   13  C19 UNL     1      -3.319  52.567  -9.736  1.00  0.00     0.012 C 
HETATM   14  C20 UNL     1      -1.773  52.436  -9.978  1.00  0.00    -0.035 C 
HETATM   15  C21 UNL     1      -1.204  51.762  -8.705  1.00  0.00     0.016 C 
HETATM   16  C22 UNL     1      -1.134  53.855 -10.193  1.00  0.00     0.003 C 
HETATM   17  C23 UNL     1      -1.107  54.782  -8.954  1.00  0.00     0.039 C 
HETATM   18  C24 UNL     1       0.207  54.897  -8.141  1.00  0.00     0.141 C 
HETATM   19  C27 UNL     1       1.508  54.899  -9.014  1.00  0.00    -0.009 C 
HETATM   20  C28 UNL     1       2.298  53.602  -8.721  1.00  0.00     0.018 C 
ENDROOT
BRANCH   1  21
HETATM   21  C6  UNL     1       3.534  56.211  -7.751  1.00  0.00    -0.013 C 
HETATM   22  C7  UNL     1       3.473  54.929  -6.897  1.00  0.00     0.010 C 
BRANCH  21  23
HETATM   23  C5  UNL     1       4.978  56.433  -8.248  1.00  0.00     0.014 C 
BRANCH  23  24
HETATM   24  C4  UNL     1       5.529  55.337  -9.163  1.00  0.00     0.111 C 
BRANCH  24  25
HETATM   25  C3  UNL     1       6.802  54.741  -8.615  1.00  0.00     0.258 C 
HETATM   26  O2  UNL     1       7.428  55.197  -7.669  1.00  0.00    -0.265 OA
BRANCH  25  27
HETATM   27  O1  UNL     1       7.121  53.604  -9.297  1.00  0.00    -0.322 OA
BRANCH  27  28
HETATM   28  C2  UNL     1       6.875  52.393  -8.574  1.00  0.00     0.174 C 
HETATM   29  C1  UNL     1       5.593  51.780  -9.103  1.00  0.00     0.034 C 
ENDBRANCH  27  28
ENDBRANCH  25  27
ENDBRANCH  24  25
ENDBRANCH  23  24
ENDBRANCH  21  23
ENDBRANCH   1  21
BRANCH  18  30
HETATM   30  O5  UNL     1       0.107  56.125  -7.382  1.00  0.00    -0.316 OA
BRANCH  30  31
HETATM   31  C25 UNL     1      -0.041  55.998  -6.034  1.00  0.00     0.255 C 
HETATM   32  C26 UNL     1       0.775  57.036  -5.324  1.00  0.00     0.126 C 
HETATM   33  O6  UNL     1      -0.730  55.159  -5.468  1.00  0.00    -0.266 OA
ENDBRANCH  30  31
ENDBRANCH  18  30
BRANCH   6  34
HETATM   34  O3  UNL     1       1.255  52.918 -12.920  1.00  0.00    -0.394 OA
HETATM   35  H22 UNL     1       1.137  52.105 -13.441  1.00  0.00     0.210 HD
ENDBRANCH   6  34
BRANCH  11  36
HETATM   36  O4  UNL     1      -3.754  53.917 -12.324  1.00  0.00    -0.396 OA
HETATM   37  H28 UNL     1      -4.630  54.211 -12.007  1.00  0.00     0.210 HD
ENDBRANCH  11  36
TORSDOF 10
ENDMDL
MODEL 6
REMARK minimizedAffinity -7.89239311
REMARK CNNscore 0.655998647
REMARK CNNaffinity 6.66032791
REMARK  10 active torsions:
REMARK  status: ('A' for Active; 'I' for Inactive)
REMARK    1  A    between atoms: C2_2  and  O1_3 
REMARK    2  A    between atoms: O1_3  and  C3_4 
REMARK    3  A    between atoms: C3_4  and  C4_6 
REMARK    4  A    between atoms: C4_6  and  C5_7 
REMARK    5  A    between atoms: C5_7  and  C6_8 
REMARK    6  A    between atoms: C6_8  and  C8_10 
REMARK    7  A    between atoms: C13_15  and  O3_16 
REMARK    8  A    between atoms: C17_21  and  O4_22 
REMARK    9  A    between atoms: C24_29  and  O5_30 
REMARK   10  A    between atoms: O5_30  and  C25_31 
ROOT
HETATM    1  C8  UNL     1      -1.658  49.983 -22.711  1.00  0.00     0.000 C 
HETATM    2  C9  UNL     1      -1.278  49.578 -21.251  1.00  0.00     0.006 C 
HETATM    3  C10 UNL     1      -2.493  48.900 -20.621  1.00  0.00     0.006 C 
HETATM    4  C11 UNL     1      -3.400  48.623 -21.807  1.00  0.00     0.003 C 
HETATM    5  C12 UNL     1      -4.849  48.162 -21.523  1.00  0.00     0.025 C 
HETATM    6  C13 UNL     1      -5.576  48.892 -20.368  1.00  0.00     0.137 C 
HETATM    7  C14 UNL     1      -7.100  49.026 -20.501  1.00  0.00     0.092 C 
HETATM    8 BR1  UNL     1      -8.014  48.997 -18.756  1.00  0.00    -0.088 Br
HETATM    9  C15 UNL     1      -7.776  48.095 -21.511  1.00  0.00     0.013 C 
HETATM   10  C16 UNL     1      -7.818  46.613 -21.055  1.00  0.00     0.038 C 
HETATM   11  C17 UNL     1      -8.234  45.629 -22.157  1.00  0.00     0.118 C 
HETATM   12  C18 UNL     1      -8.841  46.342 -23.355  1.00  0.00     0.032 C 
HETATM   13  C19 UNL     1      -7.869  47.361 -23.964  1.00  0.00     0.012 C 
HETATM   14  C20 UNL     1      -7.131  48.276 -22.922  1.00  0.00    -0.035 C 
HETATM   15  C21 UNL     1      -7.328  49.728 -23.425  1.00  0.00     0.016 C 
HETATM   16  C22 UNL     1      -5.606  47.908 -22.859  1.00  0.00     0.003 C 
HETATM   17  C23 UNL     1      -4.771  48.253 -24.115  1.00  0.00     0.039 C 
HETATM   18  C24 UNL     1      -3.917  49.545 -24.109  1.00  0.00     0.141 C 
HETATM   19  C27 UNL     1      -3.230  49.857 -22.736  1.00  0.00    -0.009 C 
HETATM   20  C28 UNL     1      -3.860  51.144 -22.153  1.00  0.00     0.018 C 
ENDROOT
BRANCH   1  21
HETATM   21  C6  UNL     1      -0.968  51.335 -23.087  1.00  0.00    -0.013 C 
HETATM   22  C7  UNL     1      -1.924  52.197 -23.935  1.00  0.00     0.010 C 
BRANCH  21  23
HETATM   23  C5  UNL     1      -0.480  52.149 -21.869  1.00  0.00     0.014 C 
BRANCH  23  24
HETATM   24  C4  UNL     1       1.019  52.457 -21.849  1.00  0.00     0.111 C 
BRANCH  24  25
HETATM   25  C3  UNL     1       1.368  53.460 -20.777  1.00  0.00     0.258 C 
HETATM   26  O2  UNL     1       1.426  54.668 -20.953  1.00  0.00    -0.265 OA
BRANCH  25  27
HETATM   27  O1  UNL     1       1.561  52.826 -19.585  1.00  0.00    -0.322 OA
BRANCH  27  28
HETATM   28  C2  UNL     1       0.467  52.942 -18.670  1.00  0.00     0.174 C 
HETATM   29  C1  UNL     1       0.736  52.023 -17.494  1.00  0.00     0.034 C 
ENDBRANCH  27  28
ENDBRANCH  25  27
ENDBRANCH  24  25
ENDBRANCH  23  24
ENDBRANCH  21  23
ENDBRANCH   1  21
BRANCH  18  30
HETATM   30  O5  UNL     1      -2.921  49.377 -25.146  1.00  0.00    -0.316 OA
BRANCH  30  31
HETATM   31  C25 UNL     1      -3.284  49.747 -26.405  1.00  0.00     0.255 C 
HETATM   32  C26 UNL     1      -3.434  48.536 -27.276  1.00  0.00     0.126 C 
HETATM   33  O6  UNL     1      -3.459  50.895 -26.790  1.00  0.00    -0.266 OA
ENDBRANCH  30  31
ENDBRANCH  18  30
BRANCH   6  34
HETATM   34  O3  UNL     1      -5.170  48.232 -19.154  1.00  0.00    -0.394 OA
HETATM   35  H22 UNL     1      -5.931  48.212 -18.549  1.00  0.00     0.210 HD
ENDBRANCH   6  34
BRANCH  11  36
HETATM   36  O4  UNL     1      -7.087  44.888 -22.557  1.00  0.00    -0.396 OA
HETATM   37  H28 UNL     1      -7.315  44.377 -23.359  1.00  0.00     0.210 HD
ENDBRANCH  11  36
TORSDOF 10
ENDMDL
MODEL 7
REMARK minimizedAffinity -8.21491051
REMARK CNNscore 0.610762894
REMARK CNNaffinity 6.85701752
REMARK  10 active torsions:
REMARK  status: ('A' for Active; 'I' for Inactive)
REMARK    1  A    between atoms: C2_2  and  O1_3 
REMARK    2  A    between atoms: O1_3  and  C3_4 
REMARK    3  A    between atoms: C3_4  and  C4_6 
REMARK    4  A    between atoms: C4_6  and  C5_7 
REMARK    5  A    between atoms: C5_7  and  C6_8 
REMARK    6  A    between atoms: C6_8  and  C8_10 
REMARK    7  A    between atoms: C13_15  and  O3_16 
REMARK    8  A    between atoms: C17_21  and  O4_22 
REMARK    9  A    between atoms: C24_29  and  O5_30 
REMARK   10  A    between atoms: O5_30  and  C25_31 
ROOT
HETATM    1  C8  UNL     1      -2.164  51.699 -22.812  1.00  0.00     0.000 C 
HETATM    2  C9  UNL     1      -3.063  52.404 -23.877  1.00  0.00     0.006 C 
HETATM    3  C10 UNL     1      -4.431  51.726 -23.858  1.00  0.00     0.006 C 
HETATM    4  C11 UNL     1      -4.404  50.905 -22.581  1.00  0.00     0.003 C 
HETATM    5  C12 UNL     1      -5.537  49.877 -22.351  1.00  0.00     0.025 C 
HETATM    6  C13 UNL     1      -5.960  49.049 -23.588  1.00  0.00     0.137 C 
HETATM    7  C14 UNL     1      -6.478  47.630 -23.312  1.00  0.00     0.092 C 
HETATM    8 BR1  UNL     1      -7.843  47.060 -24.613  1.00  0.00    -0.088 Br
HETATM    9  C15 UNL     1      -6.908  47.335 -21.873  1.00  0.00     0.013 C 
HETATM   10  C16 UNL     1      -8.231  48.035 -21.466  1.00  0.00     0.038 C 
HETATM   11  C17 UNL     1      -8.533  47.981 -19.962  1.00  0.00     0.118 C 
HETATM   12  C18 UNL     1      -7.655  46.969 -19.243  1.00  0.00     0.032 C 
HETATM   13  C19 UNL     1      -6.163  47.279 -19.422  1.00  0.00     0.012 C 
HETATM   14  C20 UNL     1      -5.733  47.640 -20.889  1.00  0.00    -0.035 C 
HETATM   15  C21 UNL     1      -4.514  46.738 -21.204  1.00  0.00     0.016 C 
HETATM   16  C22 UNL     1      -5.344  49.159 -20.984  1.00  0.00     0.003 C 
HETATM   17  C23 UNL     1      -4.051  49.576 -20.245  1.00  0.00     0.039 C 
HETATM   18  C24 UNL     1      -2.746  49.736 -21.063  1.00  0.00     0.141 C 
HETATM   19  C27 UNL     1      -2.947  50.371 -22.481  1.00  0.00    -0.009 C 
HETATM   20  C28 UNL     1      -2.622  49.301 -23.550  1.00  0.00     0.018 C 
ENDROOT
BRANCH   1  21
HETATM   21  C6  UNL     1      -0.685  51.639 -23.317  1.00  0.00    -0.013 C 
HETATM   22  C7  UNL     1      -0.650  51.707 -24.857  1.00  0.00     0.010 C 
BRANCH  21  23
HETATM   23  C5  UNL     1       0.223  52.740 -22.729  1.00  0.00     0.014 C 
BRANCH  23  24
HETATM   24  C4  UNL     1       0.879  52.399 -21.389  1.00  0.00     0.111 C 
BRANCH  24  25
HETATM   25  C3  UNL     1       1.478  53.619 -20.734  1.00  0.00     0.258 C 
HETATM   26  O2  UNL     1       1.729  54.663 -21.318  1.00  0.00    -0.265 OA
BRANCH  25  27
HETATM   27  O1  UNL     1       1.653  53.399 -19.401  1.00  0.00    -0.322 OA
BRANCH  27  28
HETATM   28  C2  UNL     1       0.533  52.791 -18.750  1.00  0.00     0.174 C 
HETATM   29  C1  UNL     1       1.001  52.248 -17.413  1.00  0.00     0.034 C 
ENDBRANCH  27  28
ENDBRANCH  25  27
ENDBRANCH  24  25
ENDBRANCH  23  24
ENDBRANCH  21  23
ENDBRANCH   1  21
BRANCH  18  30
HETATM   30  O5  UNL     1      -1.863  50.557 -20.263  1.00  0.00    -0.316 OA
BRANCH  30  31
HETATM   31  C25 UNL     1      -2.094  50.571 -18.921  1.00  0.00     0.255 C 
HETATM   32  C26 UNL     1      -1.418  49.403 -18.268  1.00  0.00     0.126 C 
HETATM   33  O6  UNL     1      -2.759  51.404 -18.320  1.00  0.00    -0.266 OA
ENDBRANCH  30  31
ENDBRANCH  18  30
BRANCH   6  34
HETATM   34  O3  UNL     1      -6.898  49.863 -24.317  1.00  0.00    -0.394 OA
HETATM   35  H22 UNL     1      -7.578  49.279 -24.695  1.00  0.00     0.210 HD
ENDBRANCH   6  34
BRANCH  11  36
HETATM   36  O4  UNL     1      -8.333  49.279 -19.414  1.00  0.00    -0.396 OA
HETATM   37  H28 UNL     1      -8.372  49.211 -18.440  1.00  0.00     0.210 HD
ENDBRANCH  11  36
TORSDOF 10
ENDMDL
MODEL 8
REMARK minimizedAffinity -6.91454935
REMARK CNNscore 0.4906151
REMARK CNNaffinity 6.42478561
REMARK  10 active torsions:
REMARK  status: ('A' for Active; 'I' for Inactive)
REMARK    1  A    between atoms: C2_2  and  O1_3 
REMARK    2  A    between atoms: O1_3  and  C3_4 
REMARK    3  A    between atoms: C3_4  and  C4_6 
REMARK    4  A    between atoms: C4_6  and  C5_7 
REMARK    5  A    between atoms: C5_7  and  C6_8 
REMARK    6  A    between atoms: C6_8  and  C8_10 
REMARK    7  A    between atoms: C13_15  and  O3_16 
REMARK    8  A    between atoms: C17_21  and  O4_22 
REMARK    9  A    between atoms: C24_29  and  O5_30 
REMARK   10  A    between atoms: O5_30  and  C25_31 
ROOT
HETATM    1  C8  UNL     1      -6.866  48.404 -22.939  1.00  0.00     0.000 C 
HETATM    2  C9  UNL     1      -7.924  48.432 -21.791  1.00  0.00     0.006 C 
HETATM    3  C10 UNL     1      -7.183  48.659 -20.475  1.00  0.00     0.006 C 
HETATM    4  C11 UNL     1      -5.797  49.093 -20.918  1.00  0.00     0.003 C 
HETATM    5  C12 UNL     1      -4.682  49.173 -19.849  1.00  0.00     0.025 C 
HETATM    6  C13 UNL     1      -4.648  48.018 -18.820  1.00  0.00     0.137 C 
HETATM    7  C14 UNL     1      -3.268  47.645 -18.259  1.00  0.00     0.092 C 
HETATM    8 BR1  UNL     1      -3.359  46.996 -16.402  1.00  0.00    -0.088 Br
HETATM    9  C15 UNL     1      -2.161  48.686 -18.443  1.00  0.00     0.013 C 
HETATM   10  C16 UNL     1      -2.331  49.937 -17.542  1.00  0.00     0.038 C 
HETATM   11  C17 UNL     1      -1.400  51.102 -17.904  1.00  0.00     0.118 C 
HETATM   12  C18 UNL     1      -0.283  50.667 -18.840  1.00  0.00     0.032 C 
HETATM   13  C19 UNL     1      -0.831  50.069 -20.142  1.00  0.00     0.012 C 
HETATM   14  C20 UNL     1      -2.007  49.045 -19.956  1.00  0.00    -0.035 C 
HETATM   15  C21 UNL     1      -1.607  47.791 -20.773  1.00  0.00     0.016 C 
HETATM   16  C22 UNL     1      -3.351  49.657 -20.493  1.00  0.00     0.003 C 
HETATM   17  C23 UNL     1      -3.442  49.854 -22.025  1.00  0.00     0.039 C 
HETATM   18  C24 UNL     1      -4.203  48.799 -22.866  1.00  0.00     0.141 C 
HETATM   19  C27 UNL     1      -5.495  48.236 -22.179  1.00  0.00    -0.009 C 
HETATM   20  C28 UNL     1      -5.265  46.742 -21.852  1.00  0.00     0.018 C 
ENDROOT
BRANCH   1  21
HETATM   21  C6  UNL     1      -7.293  47.373 -24.034  1.00  0.00    -0.013 C 
HETATM   22  C7  UNL     1      -8.799  47.068 -23.914  1.00  0.00     0.010 C 
BRANCH  21  23
HETATM   23  C5  UNL     1      -6.970  47.821 -25.476  1.00  0.00     0.014 C 
BRANCH  23  24
HETATM   24  C4  UNL     1      -8.141  47.754 -26.459  1.00  0.00     0.111 C 
BRANCH  24  25
HETATM   25  C3  UNL     1      -7.668  47.568 -27.879  1.00  0.00     0.258 C 
HETATM   26  O2  UNL     1      -6.812  46.765 -28.223  1.00  0.00    -0.265 OA
BRANCH  25  27
HETATM   27  O1  UNL     1      -8.362  48.388 -28.717  1.00  0.00    -0.322 OA
BRANCH  27  28
HETATM   28  C2  UNL     1      -7.826  48.470 -30.042  1.00  0.00     0.174 C 
HETATM   29  C1  UNL     1      -8.689  49.427 -30.842  1.00  0.00     0.034 C 
ENDBRANCH  27  28
ENDBRANCH  25  27
ENDBRANCH  24  25
ENDBRANCH  23  24
ENDBRANCH  21  23
ENDBRANCH   1  21
BRANCH  18  30
HETATM   30  O5  UNL     1      -4.537  49.442 -24.118  1.00  0.00    -0.316 OA
BRANCH  30  31
HETATM   31  C25 UNL     1      -3.508  49.670 -24.980  1.00  0.00     0.255 C 
HETATM   32  C26 UNL     1      -3.220  48.436 -25.780  1.00  0.00     0.126 C 
HETATM   33  O6  UNL     1      -2.890  50.721 -25.091  1.00  0.00    -0.266 OA
ENDBRANCH  30  31
ENDBRANCH  18  30
BRANCH   6  34
HETATM   34  O3  UNL     1      -5.602  48.361 -17.796  1.00  0.00    -0.394 OA
HETATM   35  H22 UNL     1      -5.249  48.062 -16.940  1.00  0.00     0.210 HD
ENDBRANCH   6  34
BRANCH  11  36
HETATM   36  O4  UNL     1      -2.176  52.128 -18.512  1.00  0.00    -0.396 OA
HETATM   37  H28 UNL     1      -1.567  52.797 -18.882  1.00  0.00     0.210 HD
ENDBRANCH  11  36
TORSDOF 10
ENDMDL
MODEL 9
REMARK minimizedAffinity -8.09253979
REMARK CNNscore 0.479452372
REMARK CNNaffinity 6.50008249
REMARK  10 active torsions:
REMARK  status: ('A' for Active; 'I' for Inactive)
REMARK    1  A    between atoms: C2_2  and  O1_3 
REMARK    2  A    between atoms: O1_3  and  C3_4 
REMARK    3  A    between atoms: C3_4  and  C4_6 
REMARK    4  A    between atoms: C4_6  and  C5_7 
REMARK    5  A    between atoms: C5_7  and  C6_8 
REMARK    6  A    between atoms: C6_8  and  C8_10 
REMARK    7  A    between atoms: C13_15  and  O3_16 
REMARK    8  A    between atoms: C17_21  and  O4_22 
REMARK    9  A    between atoms: C24_29  and  O5_30 
REMARK   10  A    between atoms: O5_30  and  C25_31 
ROOT
HETATM    1  C8  UNL     1      -2.179  51.488 -22.154  1.00  0.00     0.000 C 
HETATM    2  C9  UNL     1      -3.577  50.821 -22.347  1.00  0.00     0.006 C 
HETATM    3  C10 UNL     1      -3.991  50.203 -21.013  1.00  0.00     0.006 C 
HETATM    4  C11 UNL     1      -3.015  50.812 -20.021  1.00  0.00     0.003 C 
HETATM    5  C12 UNL     1      -2.969  50.225 -18.591  1.00  0.00     0.025 C 
HETATM    6  C13 UNL     1      -3.043  48.683 -18.491  1.00  0.00     0.137 C 
HETATM    7  C14 UNL     1      -2.310  48.042 -17.303  1.00  0.00     0.092 C 
HETATM    8 BR1  UNL     1      -3.198  46.403 -16.665  1.00  0.00    -0.088 Br
HETATM    9  C15 UNL     1      -1.949  48.978 -16.147  1.00  0.00     0.013 C 
HETATM   10  C16 UNL     1      -3.174  49.432 -15.311  1.00  0.00     0.038 C 
HETATM   11  C17 UNL     1      -2.877  50.575 -14.331  1.00  0.00     0.118 C 
HETATM   12  C18 UNL     1      -1.383  50.789 -14.145  1.00  0.00     0.032 C 
HETATM   13  C19 UNL     1      -0.681  51.101 -15.473  1.00  0.00     0.012 C 
HETATM   14  C20 UNL     1      -1.097  50.177 -16.674  1.00  0.00    -0.035 C 
HETATM   15  C21 UNL     1       0.228  49.670 -17.293  1.00  0.00     0.016 C 
HETATM   16  C22 UNL     1      -1.929  50.994 -17.726  1.00  0.00     0.003 C 
HETATM   17  C23 UNL     1      -1.152  52.077 -18.513  1.00  0.00     0.039 C 
HETATM   18  C24 UNL     1      -0.661  51.747 -19.944  1.00  0.00     0.141 C 
HETATM   19  C27 UNL     1      -1.665  50.889 -20.788  1.00  0.00    -0.009 C 
HETATM   20  C28 UNL     1      -1.033  49.500 -21.039  1.00  0.00     0.018 C 
ENDROOT
BRANCH   1  21
HETATM   21  C6  UNL     1      -1.326  51.329 -23.455  1.00  0.00    -0.013 C 
HETATM   22  C7  UNL     1      -2.105  50.504 -24.499  1.00  0.00     0.010 C 
BRANCH  21  23
HETATM   23  C5  UNL     1      -0.884  52.670 -24.081  1.00  0.00     0.014 C 
BRANCH  23  24
HETATM   24  C4  UNL     1      -0.974  52.738 -25.607  1.00  0.00     0.111 C 
BRANCH  24  25
HETATM   25  C3  UNL     1       0.192  53.489 -26.201  1.00  0.00     0.258 C 
HETATM   26  O2  UNL     1       0.106  54.578 -26.751  1.00  0.00    -0.265 OA
BRANCH  25  27
HETATM   27  O1  UNL     1       1.350  52.800 -25.994  1.00  0.00    -0.322 OA
BRANCH  27  28
HETATM   28  C2  UNL     1       1.424  51.549 -26.685  1.00  0.00     0.174 C 
HETATM   29  C1  UNL     1       1.387  51.829 -28.175  1.00  0.00     0.034 C 
ENDBRANCH  27  28
ENDBRANCH  25  27
ENDBRANCH  24  25
ENDBRANCH  23  24
ENDBRANCH  21  23
ENDBRANCH   1  21
BRANCH  18  30
HETATM   30  O5  UNL     1      -0.415  53.018 -20.591  1.00  0.00    -0.316 OA
BRANCH  30  31
HETATM   31  C25 UNL     1       0.887  53.342 -20.822  1.00  0.00     0.255 C 
HETATM   32  C26 UNL     1       1.600  52.190 -21.464  1.00  0.00     0.126 C 
HETATM   33  O6  UNL     1       1.417  54.410 -20.545  1.00  0.00    -0.266 OA
ENDBRANCH  30  31
ENDBRANCH  18  30
BRANCH   6  34
HETATM   34  O3  UNL     1      -4.442  48.342 -18.544  1.00  0.00    -0.394 OA
HETATM   35  H22 UNL     1      -4.593  47.585 -17.951  1.00  0.00     0.210 HD
ENDBRANCH   6  34
BRANCH  11  36
HETATM   36  O4  UNL     1      -3.483  51.763 -14.827  1.00  0.00    -0.396 OA
HETATM   37  H28 UNL     1      -3.166  52.517 -14.292  1.00  0.00     0.210 HD
ENDBRANCH  11  36
TORSDOF 10
ENDMDL
