MODEL 1
REMARK minimizedAffinity -6.55555439
REMARK CNNscore 0.493734866
REMARK CNNaffinity 5.96725416
REMARK  8 active torsions:
REMARK  status: ('A' for Active; 'I' for Inactive)
REMARK    1  A    between atoms: C2_2  and  C3_3 
REMARK    2  A    between atoms: C2_2  and  C9_12 
REMARK    3  A    between atoms: C3_3  and  C4_4 
REMARK    4  A    between atoms: C4_4  and  O1_5 
REMARK    5  A    between atoms: C4_4  and  C5_6 
REMARK    6  A    between atoms: C5_6  and  O2_7 
REMARK    7  A    between atoms: C5_6  and  C6_8 
REMARK    8  A    between atoms: C6_8  and  O3_11 
ROOT
HETATM    1  C9  UNL     1     -10.888  -7.071  -5.670  1.00  0.00     0.097 A 
HETATM    2  C10 UNL     1     -12.014  -8.056  -5.777  1.00  0.00     0.042 A 
HETATM    3  C11 UNL     1     -11.410  -9.457  -5.533  1.00  0.00     0.016 A 
HETATM    4  C12 UNL     1      -9.899  -9.299  -5.146  1.00  0.00    -0.002 A 
HETATM    5  C13 UNL     1      -9.082 -10.087  -6.198  1.00  0.00     0.019 C 
HETATM    6  C14 UNL     1      -9.618  -7.805  -5.316  1.00  0.00     0.101 A 
HETATM    7  C15 UNL     1      -8.366  -7.219  -4.747  1.00  0.00     0.042 C 
HETATM    8  C16 UNL     1      -8.053  -7.725  -3.340  1.00  0.00     0.009 C 
HETATM    9  C17 UNL     1      -8.120  -9.268  -3.250  1.00  0.00     0.003 C 
HETATM   10  C18 UNL     1      -7.421  -9.885  -1.946  1.00  0.00    -0.035 C 
HETATM   11  C19 UNL     1      -5.890  -9.701  -2.182  1.00  0.00     0.016 C 
HETATM   12  C20 UNL     1      -7.790  -9.114  -0.655  1.00  0.00     0.017 C 
HETATM   13  C21 UNL     1      -7.235  -9.709   0.626  1.00  0.00     0.080 C 
HETATM   14  C22 UNL     1      -7.623 -11.158   0.760  1.00  0.00     0.135 C 
HETATM   15  O4  UNL     1      -8.124 -11.570   1.806  1.00  0.00    -0.297 OA
HETATM   16  C23 UNL     1      -7.280 -12.090  -0.406  1.00  0.00     0.017 C 
HETATM   17  C24 UNL     1      -7.968 -13.459  -0.162  1.00  0.00     0.023 C 
HETATM   18  C25 UNL     1      -5.761 -12.378  -0.362  1.00  0.00     0.023 C 
HETATM   19  C26 UNL     1      -7.735 -11.431  -1.775  1.00  0.00     0.009 C 
HETATM   20  C27 UNL     1      -9.223 -11.737  -2.076  1.00  0.00     0.007 C 
HETATM   21  C28 UNL     1      -9.648 -11.261  -3.462  1.00  0.00     0.011 C 
HETATM   22  C29 UNL     1      -9.582  -9.729  -3.623  1.00  0.00    -0.029 C 
HETATM   23  C30 UNL     1     -10.660  -9.099  -2.690  1.00  0.00     0.016 C 
HETATM   24  O5  UNL     1      -9.870  -7.297  -6.647  1.00  0.00    -0.362 OA
ENDROOT
BRANCH   1  25
HETATM   25  C2  UNL     1     -11.154  -5.603  -5.391  1.00  0.00     0.022 C 
HETATM   26  C1  UNL     1     -12.662  -5.327  -5.389  1.00  0.00     0.013 C 
BRANCH  25  27
HETATM   27  C3  UNL     1     -10.386  -4.706  -6.392  1.00  0.00     0.041 C 
BRANCH  27  28
HETATM   28  C4  UNL     1      -9.386  -3.705  -5.776  1.00  0.00     0.150 C 
BRANCH  28  29
HETATM   29  O1  UNL     1      -9.382  -3.939  -4.351  1.00  0.00    -0.393 OA
HETATM   30  H8  UNL     1      -9.018  -4.834  -4.214  1.00  0.00     0.210 HD
ENDBRANCH  28  29
BRANCH  28  31
HETATM   31  C5  UNL     1      -9.783  -2.222  -5.993  1.00  0.00     0.180 C 
BRANCH  31  32
HETATM   32  O2  UNL     1     -10.161  -2.054  -7.370  1.00  0.00    -0.390 OA
HETATM   33  H10 UNL     1     -10.562  -2.914  -7.616  1.00  0.00     0.210 HD
ENDBRANCH  31  32
BRANCH  31  34
HETATM   34  C6  UNL     1     -10.920  -1.733  -5.046  1.00  0.00     0.079 C 
HETATM   35  C7  UNL     1     -12.312  -1.769  -5.689  1.00  0.00     0.048 C 
HETATM   36  C8  UNL     1     -10.617  -0.305  -4.566  1.00  0.00     0.048 C 
BRANCH  34  37
HETATM   37  O3  UNL     1     -10.939  -2.588  -3.894  1.00  0.00    -0.388 OA
HETATM   38  H17 UNL     1     -11.540  -2.192  -3.241  1.00  0.00     0.210 HD
ENDBRANCH  34  37
ENDBRANCH  31  34
ENDBRANCH  28  31
ENDBRANCH  27  28
ENDBRANCH  25  27
ENDBRANCH   1  25
TORSDOF 8
ENDMDL
MODEL 2
REMARK minimizedAffinity -6.41410589
REMARK CNNscore 0.446238309
REMARK CNNaffinity 6.38012075
REMARK  8 active torsions:
REMARK  status: ('A' for Active; 'I' for Inactive)
REMARK    1  A    between atoms: C2_2  and  C3_3 
REMARK    2  A    between atoms: C2_2  and  C9_12 
REMARK    3  A    between atoms: C3_3  and  C4_4 
REMARK    4  A    between atoms: C4_4  and  O1_5 
REMARK    5  A    between atoms: C4_4  and  C5_6 
REMARK    6  A    between atoms: C5_6  and  O2_7 
REMARK    7  A    between atoms: C5_6  and  C6_8 
REMARK    8  A    between atoms: C6_8  and  O3_11 
ROOT
HETATM    1  C9  UNL     1      -2.682  15.610   2.865  1.00  0.00     0.097 A 
HETATM    2  C10 UNL     1      -2.339  15.309   4.294  1.00  0.00     0.042 A 
HETATM    3  C11 UNL     1      -1.115  14.366   4.273  1.00  0.00     0.016 A 
HETATM    4  C12 UNL     1      -0.630  14.194   2.792  1.00  0.00    -0.002 A 
HETATM    5  C13 UNL     1      -0.704  12.683   2.469  1.00  0.00     0.019 C 
HETATM    6  C14 UNL     1      -1.682  14.933   1.962  1.00  0.00     0.101 A 
HETATM    7  C15 UNL     1      -1.401  15.250   0.528  1.00  0.00     0.042 C 
HETATM    8  C16 UNL     1       0.014  15.777   0.297  1.00  0.00     0.009 C 
HETATM    9  C17 UNL     1       1.084  14.877   0.961  1.00  0.00     0.003 C 
HETATM   10  C18 UNL     1       2.577  15.125   0.432  1.00  0.00    -0.035 C 
HETATM   11  C19 UNL     1       2.598  14.538  -1.012  1.00  0.00     0.016 C 
HETATM   12  C20 UNL     1       2.926  16.630   0.329  1.00  0.00     0.017 C 
HETATM   13  C21 UNL     1       4.359  16.928  -0.074  1.00  0.00     0.080 C 
HETATM   14  C22 UNL     1       5.332  16.232   0.841  1.00  0.00     0.135 C 
HETATM   15  O4  UNL     1       6.258  16.862   1.352  1.00  0.00    -0.297 OA
HETATM   16  C23 UNL     1       5.174  14.719   1.018  1.00  0.00     0.017 C 
HETATM   17  C24 UNL     1       6.113  14.256   2.163  1.00  0.00     0.023 C 
HETATM   18  C25 UNL     1       5.706  14.026  -0.258  1.00  0.00     0.023 C 
HETATM   19  C26 UNL     1       3.656  14.367   1.314  1.00  0.00     0.009 C 
HETATM   20  C27 UNL     1       3.336  14.495   2.824  1.00  0.00     0.007 C 
HETATM   21  C28 UNL     1       1.932  14.003   3.167  1.00  0.00     0.011 C 
HETATM   22  C29 UNL     1       0.819  14.848   2.516  1.00  0.00    -0.029 C 
HETATM   23  C30 UNL     1       0.858  16.269   3.152  1.00  0.00     0.016 C 
HETATM   24  O5  UNL     1      -3.031  14.437   2.128  1.00  0.00    -0.362 OA
ENDROOT
BRANCH   1  25
HETATM   25  C2  UNL     1      -3.503  16.833   2.496  1.00  0.00     0.022 C 
HETATM   26  C1  UNL     1      -2.809  18.107   2.990  1.00  0.00     0.013 C 
BRANCH  25  27
HETATM   27  C3  UNL     1      -4.952  16.701   3.025  1.00  0.00     0.041 C 
BRANCH  27  28
HETATM   28  C4  UNL     1      -5.964  16.034   2.071  1.00  0.00     0.150 C 
BRANCH  28  29
HETATM   29  O1  UNL     1      -5.915  16.767   0.828  1.00  0.00    -0.393 OA
HETATM   30  H8  UNL     1      -5.025  16.625   0.452  1.00  0.00     0.210 HD
ENDBRANCH  28  29
BRANCH  28  31
HETATM   31  C5  UNL     1      -7.427  16.098   2.579  1.00  0.00     0.180 C 
BRANCH  31  32
HETATM   32  O2  UNL     1      -7.858  17.470   2.537  1.00  0.00    -0.390 OA
HETATM   33  H10 UNL     1      -7.381  17.848   1.768  1.00  0.00     0.210 HD
ENDBRANCH  31  32
BRANCH  31  34
HETATM   34  C6  UNL     1      -8.409  15.188   1.781  1.00  0.00     0.079 C 
HETATM   35  C7  UNL     1      -9.401  15.970   0.911  1.00  0.00     0.048 C 
HETATM   36  C8  UNL     1      -9.185  14.285   2.752  1.00  0.00     0.048 C 
BRANCH  34  37
HETATM   37  O3  UNL     1      -7.632  14.343   0.921  1.00  0.00    -0.388 OA
HETATM   38  H17 UNL     1      -8.230  13.677   0.542  1.00  0.00     0.210 HD
ENDBRANCH  34  37
ENDBRANCH  31  34
ENDBRANCH  28  31
ENDBRANCH  27  28
ENDBRANCH  25  27
ENDBRANCH   1  25
TORSDOF 8
ENDMDL
MODEL 3
REMARK minimizedAffinity -6.71611881
REMARK CNNscore 0.396984428
REMARK CNNaffinity 5.10009766
REMARK  8 active torsions:
REMARK  status: ('A' for Active; 'I' for Inactive)
REMARK    1  A    between atoms: C2_2  and  C3_3 
REMARK    2  A    between atoms: C2_2  and  C9_12 
REMARK    3  A    between atoms: C3_3  and  C4_4 
REMARK    4  A    between atoms: C4_4  and  O1_5 
REMARK    5  A    between atoms: C4_4  and  C5_6 
REMARK    6  A    between atoms: C5_6  and  O2_7 
REMARK    7  A    between atoms: C5_6  and  C6_8 
REMARK    8  A    between atoms: C6_8  and  O3_11 
ROOT
HETATM    1  C9  UNL     1       7.539   8.453  13.289  1.00  0.00     0.097 A 
HETATM    2  C10 UNL     1       8.794   7.639  13.398  1.00  0.00     0.042 A 
HETATM    3  C11 UNL     1       9.879   8.565  13.990  1.00  0.00     0.016 A 
HETATM    4  C12 UNL     1       9.226   9.941  14.364  1.00  0.00    -0.002 A 
HETATM    5  C13 UNL     1       9.975  11.027  13.555  1.00  0.00     0.019 C 
HETATM    6  C14 UNL     1       7.793   9.833  13.842  1.00  0.00     0.101 A 
HETATM    7  C15 UNL     1       6.770  10.831  14.281  1.00  0.00     0.042 C 
HETATM    8  C16 UNL     1       6.835  11.138  15.776  1.00  0.00     0.009 C 
HETATM    9  C17 UNL     1       8.274  11.470  16.238  1.00  0.00     0.003 C 
HETATM   10  C18 UNL     1       8.360  12.187  17.669  1.00  0.00    -0.035 C 
HETATM   11  C19 UNL     1       7.818  13.630  17.432  1.00  0.00     0.016 C 
HETATM   12  C20 UNL     1       7.448  11.514  18.724  1.00  0.00     0.017 C 
HETATM   13  C21 UNL     1       7.559  12.088  20.125  1.00  0.00     0.080 C 
HETATM   14  C22 UNL     1       8.989  12.084  20.597  1.00  0.00     0.135 C 
HETATM   15  O4  UNL     1       9.274  11.616  21.700  1.00  0.00    -0.297 OA
HETATM   16  C23 UNL     1      10.029  12.764  19.702  1.00  0.00     0.017 C 
HETATM   17  C24 UNL     1      11.442  12.440  20.256  1.00  0.00     0.023 C 
HETATM   18  C25 UNL     1       9.868  14.294  19.852  1.00  0.00     0.023 C 
HETATM   19  C26 UNL     1       9.851  12.276  18.204  1.00  0.00     0.009 C 
HETATM   20  C27 UNL     1      10.617  10.954  17.950  1.00  0.00     0.007 C 
HETATM   21  C28 UNL     1      10.605  10.545  16.479  1.00  0.00     0.011 C 
HETATM   22  C29 UNL     1       9.194  10.220  15.953  1.00  0.00    -0.029 C 
HETATM   23  C30 UNL     1       8.691   8.936  16.678  1.00  0.00     0.016 C 
HETATM   24  O5  UNL     1       7.691   9.577  12.421  1.00  0.00    -0.362 OA
ENDROOT
BRANCH   1  25
HETATM   25  C2  UNL     1       6.178   7.786  13.196  1.00  0.00     0.022 C 
HETATM   26  C1  UNL     1       5.874   7.398  11.744  1.00  0.00     0.013 C 
BRANCH  25  27
HETATM   27  C3  UNL     1       5.082   8.688  13.813  1.00  0.00     0.041 C 
BRANCH  27  28
HETATM   28  C4  UNL     1       4.487   8.212  15.154  1.00  0.00     0.150 C 
BRANCH  28  29
HETATM   29  O1  UNL     1       5.272   7.077  15.582  1.00  0.00    -0.393 OA
HETATM   30  H8  UNL     1       6.172   7.410  15.765  1.00  0.00     0.210 HD
ENDBRANCH  28  29
BRANCH  28  31
HETATM   31  C5  UNL     1       3.017   7.732  15.043  1.00  0.00     0.180 C 
BRANCH  31  32
HETATM   32  O2  UNL     1       2.873   6.538  15.833  1.00  0.00    -0.390 OA
HETATM   33  H10 UNL     1       3.499   6.665  16.576  1.00  0.00     0.210 HD
ENDBRANCH  31  32
BRANCH  31  34
HETATM   34  C6  UNL     1       1.973   8.805  15.472  1.00  0.00     0.079 C 
HETATM   35  C7  UNL     1       1.527   9.721  14.325  1.00  0.00     0.048 C 
HETATM   36  C8  UNL     1       2.546   9.660  16.613  1.00  0.00     0.048 C 
BRANCH  34  37
HETATM   37  O3  UNL     1       0.815   8.124  15.974  1.00  0.00    -0.388 OA
HETATM   38  H17 UNL     1       0.233   8.788  16.380  1.00  0.00     0.210 HD
ENDBRANCH  34  37
ENDBRANCH  31  34
ENDBRANCH  28  31
ENDBRANCH  27  28
ENDBRANCH  25  27
ENDBRANCH   1  25
TORSDOF 8
ENDMDL
MODEL 4
REMARK minimizedAffinity -7.79207325
REMARK CNNscore 0.343178898
REMARK CNNaffinity 6.89252996
REMARK  8 active torsions:
REMARK  status: ('A' for Active; 'I' for Inactive)
REMARK    1  A    between atoms: C2_2  and  C3_3 
REMARK    2  A    between atoms: C2_2  and  C9_12 
REMARK    3  A    between atoms: C3_3  and  C4_4 
REMARK    4  A    between atoms: C4_4  and  O1_5 
REMARK    5  A    between atoms: C4_4  and  C5_6 
REMARK    6  A    between atoms: C5_6  and  O2_7 
REMARK    7  A    between atoms: C5_6  and  C6_8 
REMARK    8  A    between atoms: C6_8  and  O3_11 
ROOT
HETATM    1  C9  UNL     1      -7.045   6.671  14.749  1.00  0.00     0.097 A 
HETATM    2  C10 UNL     1      -6.721   5.508  15.639  1.00  0.00     0.042 A 
HETATM    3  C11 UNL     1      -5.365   4.942  15.163  1.00  0.00     0.016 A 
HETATM    4  C12 UNL     1      -4.796   5.867  14.033  1.00  0.00    -0.002 A 
HETATM    5  C13 UNL     1      -4.618   4.982  12.776  1.00  0.00     0.019 C 
HETATM    6  C14 UNL     1      -5.913   6.879  13.774  1.00  0.00     0.101 A 
HETATM    7  C15 UNL     1      -5.625   8.111  12.976  1.00  0.00     0.042 C 
HETATM    8  C16 UNL     1      -4.301   8.772  13.355  1.00  0.00     0.009 C 
HETATM    9  C17 UNL     1      -3.133   7.758  13.387  1.00  0.00     0.003 C 
HETATM   10  C18 UNL     1      -1.676   8.427  13.371  1.00  0.00    -0.035 C 
HETATM   11  C19 UNL     1      -1.502   8.985  11.926  1.00  0.00     0.016 C 
HETATM   12  C20 UNL     1      -1.563   9.622  14.350  1.00  0.00     0.017 C 
HETATM   13  C21 UNL     1      -0.178  10.236  14.452  1.00  0.00     0.080 C 
HETATM   14  C22 UNL     1       0.851   9.190  14.790  1.00  0.00     0.135 C 
HETATM   15  O4  UNL     1       1.644   9.380  15.712  1.00  0.00    -0.297 OA
HETATM   16  C23 UNL     1       0.925   7.956  13.886  1.00  0.00     0.017 C 
HETATM   17  C24 UNL     1       1.875   6.920  14.544  1.00  0.00     0.023 C 
HETATM   18  C25 UNL     1       1.614   8.366  12.564  1.00  0.00     0.023 C 
HETATM   19  C26 UNL     1      -0.530   7.368  13.658  1.00  0.00     0.009 C 
HETATM   20  C27 UNL     1      -0.931   6.405  14.803  1.00  0.00     0.007 C 
HETATM   21  C28 UNL     1      -2.254   5.693  14.532  1.00  0.00     0.011 C 
HETATM   22  C29 UNL     1      -3.456   6.655  14.467  1.00  0.00    -0.029 C 
HETATM   23  C30 UNL     1      -3.668   7.259  15.888  1.00  0.00     0.016 C 
HETATM   24  O5  UNL     1      -7.174   6.290  13.378  1.00  0.00    -0.362 OA
ENDROOT
BRANCH   1  25
HETATM   25  C2  UNL     1      -8.031   7.740  15.183  1.00  0.00     0.022 C 
HETATM   26  C1  UNL     1      -8.398   7.556  16.660  1.00  0.00     0.013 C 
BRANCH  25  27
HETATM   27  C3  UNL     1      -9.272   7.751  14.259  1.00  0.00     0.041 C 
BRANCH  27  28
HETATM   28  C4  UNL     1     -10.626   8.030  14.943  1.00  0.00     0.150 C 
BRANCH  28  29
HETATM   29  O1  UNL     1     -11.337   6.774  14.995  1.00  0.00    -0.393 OA
HETATM   30  H8  UNL     1     -10.828   6.187  15.587  1.00  0.00     0.210 HD
ENDBRANCH  28  29
BRANCH  28  31
HETATM   31  C5  UNL     1     -11.520   9.026  14.162  1.00  0.00     0.180 C 
BRANCH  31  32
HETATM   32  O2  UNL     1     -10.766  10.231  13.942  1.00  0.00    -0.390 OA
HETATM   33  H10 UNL     1      -9.841   9.921  13.848  1.00  0.00     0.210 HD
ENDBRANCH  31  32
BRANCH  31  34
HETATM   34  C6  UNL     1     -12.060   8.461  12.814  1.00  0.00     0.079 C 
HETATM   35  C7  UNL     1     -13.475   7.876  12.917  1.00  0.00     0.048 C 
HETATM   36  C8  UNL     1     -11.101   7.384  12.283  1.00  0.00     0.048 C 
BRANCH  34  37
HETATM   37  O3  UNL     1     -12.089   9.532  11.861  1.00  0.00    -0.388 OA
HETATM   38  H17 UNL     1     -12.277   9.147  10.989  1.00  0.00     0.210 HD
ENDBRANCH  34  37
ENDBRANCH  31  34
ENDBRANCH  28  31
ENDBRANCH  27  28
ENDBRANCH  25  27
ENDBRANCH   1  25
TORSDOF 8
ENDMDL
MODEL 5
REMARK minimizedAffinity -6.98325157
REMARK CNNscore 0.318876743
REMARK CNNaffinity 5.63146067
REMARK  8 active torsions:
REMARK  status: ('A' for Active; 'I' for Inactive)
REMARK    1  A    between atoms: C2_2  and  C3_3 
REMARK    2  A    between atoms: C2_2  and  C9_12 
REMARK    3  A    between atoms: C3_3  and  C4_4 
REMARK    4  A    between atoms: C4_4  and  O1_5 
REMARK    5  A    between atoms: C4_4  and  C5_6 
REMARK    6  A    between atoms: C5_6  and  O2_7 
REMARK    7  A    between atoms: C5_6  and  C6_8 
REMARK    8  A    between atoms: C6_8  and  O3_11 
ROOT
HETATM    1  C9  UNL     1      -5.930 -10.379   6.170  1.00  0.00     0.097 A 
HETATM    2  C10 UNL     1      -4.567  -9.764   6.050  1.00  0.00     0.042 A 
HETATM    3  C11 UNL     1      -3.860 -10.466   4.869  1.00  0.00     0.016 A 
HETATM    4  C12 UNL     1      -4.872 -11.445   4.179  1.00  0.00    -0.002 A 
HETATM    5  C13 UNL     1      -4.251 -12.860   4.257  1.00  0.00     0.019 C 
HETATM    6  C14 UNL     1      -6.113 -11.397   5.072  1.00  0.00     0.101 A 
HETATM    7  C15 UNL     1      -7.404 -11.965   4.575  1.00  0.00     0.042 C 
HETATM    8  C16 UNL     1      -7.702 -11.592   3.124  1.00  0.00     0.009 C 
HETATM    9  C17 UNL     1      -6.497 -11.866   2.194  1.00  0.00     0.003 C 
HETATM   10  C18 UNL     1      -6.858 -11.889   0.632  1.00  0.00    -0.035 C 
HETATM   11  C19 UNL     1      -7.661 -13.209   0.421  1.00  0.00     0.016 C 
HETATM   12  C20 UNL     1      -7.777 -10.713   0.220  1.00  0.00     0.017 C 
HETATM   13  C21 UNL     1      -8.076 -10.624  -1.265  1.00  0.00     0.080 C 
HETATM   14  C22 UNL     1      -6.804 -10.593  -2.070  1.00  0.00     0.135 C 
HETATM   15  O4  UNL     1      -6.639  -9.730  -2.932  1.00  0.00    -0.297 OA
HETATM   16  C23 UNL     1      -5.794 -11.721  -1.836  1.00  0.00     0.017 C 
HETATM   17  C24 UNL     1      -4.480 -11.369  -2.582  1.00  0.00     0.023 C 
HETATM   18  C25 UNL     1      -6.329 -12.998  -2.525  1.00  0.00     0.023 C 
HETATM   19  C26 UNL     1      -5.561 -11.921  -0.280  1.00  0.00     0.009 C 
HETATM   20  C27 UNL     1      -4.477 -10.951   0.253  1.00  0.00     0.007 C 
HETATM   21  C28 UNL     1      -4.108 -11.230   1.707  1.00  0.00     0.011 C 
HETATM   22  C29 UNL     1      -5.277 -10.994   2.684  1.00  0.00    -0.029 C 
HETATM   23  C30 UNL     1      -5.601  -9.470   2.690  1.00  0.00     0.016 C 
HETATM   24  O5  UNL     1      -5.875 -11.779   6.448  1.00  0.00    -0.362 OA
ENDROOT
BRANCH   1  25
HETATM   25  C2  UNL     1      -7.056  -9.655   6.886  1.00  0.00     0.022 C 
HETATM   26  C1  UNL     1      -7.929  -8.901   5.877  1.00  0.00     0.013 C 
BRANCH  25  27
HETATM   27  C3  UNL     1      -6.497  -8.732   7.996  1.00  0.00     0.041 C 
BRANCH  27  28
HETATM   28  C4  UNL     1      -7.271  -8.730   9.330  1.00  0.00     0.150 C 
BRANCH  28  29
HETATM   29  O1  UNL     1      -8.258  -7.679   9.241  1.00  0.00    -0.393 OA
HETATM   30  H8  UNL     1      -8.887  -7.942   8.542  1.00  0.00     0.210 HD
ENDBRANCH  28  29
BRANCH  28  31
HETATM   31  C5  UNL     1      -6.382  -8.414  10.560  1.00  0.00     0.180 C 
BRANCH  31  32
HETATM   32  O2  UNL     1      -6.975  -7.315  11.274  1.00  0.00    -0.390 OA
HETATM   33  H10 UNL     1      -7.939  -7.431  11.136  1.00  0.00     0.210 HD
ENDBRANCH  31  32
BRANCH  31  34
HETATM   34  C6  UNL     1      -6.165  -9.633  11.507  1.00  0.00     0.079 C 
HETATM   35  C7  UNL     1      -6.460 -10.984  10.845  1.00  0.00     0.048 C 
HETATM   36  C8  UNL     1      -7.041  -9.478  12.760  1.00  0.00     0.048 C 
BRANCH  34  37
HETATM   37  O3  UNL     1      -4.794  -9.632  11.927  1.00  0.00    -0.388 OA
HETATM   38  H17 UNL     1      -4.699 -10.295  12.631  1.00  0.00     0.210 HD
ENDBRANCH  34  37
ENDBRANCH  31  34
ENDBRANCH  28  31
ENDBRANCH  27  28
ENDBRANCH  25  27
ENDBRANCH   1  25
TORSDOF 8
ENDMDL
MODEL 6
REMARK minimizedAffinity -8.47025394
REMARK CNNscore 0.272148252
REMARK CNNaffinity 6.61416388
REMARK  8 active torsions:
REMARK  status: ('A' for Active; 'I' for Inactive)
REMARK    1  A    between atoms: C2_2  and  C3_3 
REMARK    2  A    between atoms: C2_2  and  C9_12 
REMARK    3  A    between atoms: C3_3  and  C4_4 
REMARK    4  A    between atoms: C4_4  and  O1_5 
REMARK    5  A    between atoms: C4_4  and  C5_6 
REMARK    6  A    between atoms: C5_6  and  O2_7 
REMARK    7  A    between atoms: C5_6  and  C6_8 
REMARK    8  A    between atoms: C6_8  and  O3_11 
ROOT
HETATM    1  C9  UNL     1      -3.223   7.463  14.785  1.00  0.00     0.097 A 
HETATM    2  C10 UNL     1      -2.899   6.159  15.453  1.00  0.00     0.042 A 
HETATM    3  C11 UNL     1      -2.346   5.219  14.359  1.00  0.00     0.016 A 
HETATM    4  C12 UNL     1      -2.217   6.020  13.017  1.00  0.00    -0.002 A 
HETATM    5  C13 UNL     1      -3.097   5.291  11.974  1.00  0.00     0.019 C 
HETATM    6  C14 UNL     1      -2.839   7.382  13.328  1.00  0.00     0.101 A 
HETATM    7  C15 UNL     1      -2.626   8.523  12.386  1.00  0.00     0.042 C 
HETATM    8  C16 UNL     1      -1.186   8.629  11.890  1.00  0.00     0.009 C 
HETATM    9  C17 UNL     1      -0.652   7.275  11.364  1.00  0.00     0.003 C 
HETATM   10  C18 UNL     1       0.672   7.389  10.468  1.00  0.00    -0.035 C 
HETATM   11  C19 UNL     1       0.199   8.026   9.125  1.00  0.00     0.016 C 
HETATM   12  C20 UNL     1       1.727   8.339  11.089  1.00  0.00     0.017 C 
HETATM   13  C21 UNL     1       3.042   8.413  10.335  1.00  0.00     0.080 C 
HETATM   14  C22 UNL     1       3.631   7.040  10.142  1.00  0.00     0.135 C 
HETATM   15  O4  UNL     1       4.807   6.825  10.437  1.00  0.00    -0.297 OA
HETATM   16  C23 UNL     1       2.745   5.980   9.483  1.00  0.00     0.017 C 
HETATM   17  C24 UNL     1       3.454   4.605   9.596  1.00  0.00     0.023 C 
HETATM   18  C25 UNL     1       2.674   6.284   7.968  1.00  0.00     0.023 C 
HETATM   19  C26 UNL     1       1.315   5.970  10.169  1.00  0.00     0.009 C 
HETATM   20  C27 UNL     1       1.307   5.074  11.433  1.00  0.00     0.007 C 
HETATM   21  C28 UNL     1      -0.091   4.908  12.022  1.00  0.00     0.011 C 
HETATM   22  C29 UNL     1      -0.688   6.230  12.545  1.00  0.00    -0.029 C 
HETATM   23  C30 UNL     1       0.157   6.689  13.771  1.00  0.00     0.016 C 
HETATM   24  O5  UNL     1      -4.216   7.323  13.769  1.00  0.00    -0.362 OA
ENDROOT
BRANCH   1  25
HETATM   25  C2  UNL     1      -3.341   8.747  15.586  1.00  0.00     0.022 C 
HETATM   26  C1  UNL     1      -4.300   9.720  14.892  1.00  0.00     0.013 C 
BRANCH  25  27
HETATM   27  C3  UNL     1      -1.945   9.366  15.840  1.00  0.00     0.041 C 
BRANCH  27  28
HETATM   28  C4  UNL     1      -1.887  10.507  16.876  1.00  0.00     0.150 C 
BRANCH  28  29
HETATM   29  O1  UNL     1      -0.837  10.173  17.810  1.00  0.00    -0.393 OA
HETATM   30  H8  UNL     1       0.001  10.192  17.310  1.00  0.00     0.210 HD
ENDBRANCH  28  29
BRANCH  28  31
HETATM   31  C5  UNL     1      -3.193  10.663  17.697  1.00  0.00     0.180 C 
BRANCH  31  32
HETATM   32  O2  UNL     1      -3.017   9.987  18.954  1.00  0.00    -0.390 OA
HETATM   33  H10 UNL     1      -2.064  10.095  19.154  1.00  0.00     0.210 HD
ENDBRANCH  31  32
BRANCH  31  34
HETATM   34  C6  UNL     1      -3.617  12.146  17.924  1.00  0.00     0.079 C 
HETATM   35  C7  UNL     1      -2.463  13.144  17.771  1.00  0.00     0.048 C 
HETATM   36  C8  UNL     1      -4.242  12.298  19.319  1.00  0.00     0.048 C 
BRANCH  34  37
HETATM   37  O3  UNL     1      -4.622  12.474  16.954  1.00  0.00    -0.388 OA
HETATM   38  H17 UNL     1      -4.992  13.340  17.193  1.00  0.00     0.210 HD
ENDBRANCH  34  37
ENDBRANCH  31  34
ENDBRANCH  28  31
ENDBRANCH  27  28
ENDBRANCH  25  27
ENDBRANCH   1  25
TORSDOF 8
ENDMDL
MODEL 7
REMARK minimizedAffinity -8.48976517
REMARK CNNscore 0.263317019
REMARK CNNaffinity 6.64608908
REMARK  8 active torsions:
REMARK  status: ('A' for Active; 'I' for Inactive)
REMARK    1  A    between atoms: C2_2  and  C3_3 
REMARK    2  A    between atoms: C2_2  and  C9_12 
REMARK    3  A    between atoms: C3_3  and  C4_4 
REMARK    4  A    between atoms: C4_4  and  O1_5 
REMARK    5  A    between atoms: C4_4  and  C5_6 
REMARK    6  A    between atoms: C5_6  and  O2_7 
REMARK    7  A    between atoms: C5_6  and  C6_8 
REMARK    8  A    between atoms: C6_8  and  O3_11 
ROOT
HETATM    1  C9  UNL     1      -2.895   7.761  14.890  1.00  0.00     0.097 A 
HETATM    2  C10 UNL     1      -2.582   6.473  15.590  1.00  0.00     0.042 A 
HETATM    3  C11 UNL     1      -2.105   5.479  14.509  1.00  0.00     0.016 A 
HETATM    4  C12 UNL     1      -2.009   6.228  13.135  1.00  0.00    -0.002 A 
HETATM    5  C13 UNL     1      -2.955   5.491  12.156  1.00  0.00     0.019 C 
HETATM    6  C14 UNL     1      -2.577   7.618  13.423  1.00  0.00     0.101 A 
HETATM    7  C15 UNL     1      -2.371   8.720  12.432  1.00  0.00     0.042 C 
HETATM    8  C16 UNL     1      -0.951   8.763  11.872  1.00  0.00     0.009 C 
HETATM    9  C17 UNL     1      -0.480   7.376  11.374  1.00  0.00     0.003 C 
HETATM   10  C18 UNL     1       0.807   7.418  10.420  1.00  0.00    -0.035 C 
HETATM   11  C19 UNL     1       0.296   8.022   9.076  1.00  0.00     0.016 C 
HETATM   12  C20 UNL     1       1.915   8.354  10.961  1.00  0.00     0.017 C 
HETATM   13  C21 UNL     1       3.199   8.361  10.152  1.00  0.00     0.080 C 
HETATM   14  C22 UNL     1       3.738   6.965   9.983  1.00  0.00     0.135 C 
HETATM   15  O4  UNL     1       4.918   6.724  10.237  1.00  0.00    -0.297 OA
HETATM   16  C23 UNL     1       2.793   5.911   9.400  1.00  0.00     0.017 C 
HETATM   17  C24 UNL     1       3.465   4.519   9.532  1.00  0.00     0.023 C 
HETATM   18  C25 UNL     1       2.666   6.164   7.880  1.00  0.00     0.023 C 
HETATM   19  C26 UNL     1       1.394   5.970  10.145  1.00  0.00     0.009 C 
HETATM   20  C27 UNL     1       1.414   5.118  11.440  1.00  0.00     0.007 C 
HETATM   21  C28 UNL     1       0.037   5.017  12.092  1.00  0.00     0.011 C 
HETATM   22  C29 UNL     1      -0.497   6.373  12.592  1.00  0.00    -0.029 C 
HETATM   23  C30 UNL     1       0.413   6.848  13.764  1.00  0.00     0.016 C 
HETATM   24  O5  UNL     1      -3.935   7.618  13.922  1.00  0.00    -0.362 OA
ENDROOT
BRANCH   1  25
HETATM   25  C2  UNL     1      -2.941   9.076  15.649  1.00  0.00     0.022 C 
HETATM   26  C1  UNL     1      -4.203   9.861  15.276  1.00  0.00     0.013 C 
BRANCH  25  27
HETATM   27  C3  UNL     1      -1.644   9.888  15.418  1.00  0.00     0.041 C 
BRANCH  27  28
HETATM   28  C4  UNL     1      -1.814  11.417  15.297  1.00  0.00     0.150 C 
BRANCH  28  29
HETATM   29  O1  UNL     1      -1.378  11.784  13.970  1.00  0.00    -0.393 OA
HETATM   30  H8  UNL     1      -2.004  11.372  13.344  1.00  0.00     0.210 HD
ENDBRANCH  28  29
BRANCH  28  31
HETATM   31  C5  UNL     1      -0.942  12.217  16.299  1.00  0.00     0.180 C 
BRANCH  31  32
HETATM   32  O2  UNL     1      -0.593  13.472  15.689  1.00  0.00    -0.390 OA
HETATM   33  H10 UNL     1      -1.366  13.689  15.127  1.00  0.00     0.210 HD
ENDBRANCH  31  32
BRANCH  31  34
HETATM   34  C6  UNL     1      -1.625  12.447  17.680  1.00  0.00     0.079 C 
HETATM   35  C7  UNL     1      -1.382  11.311  18.682  1.00  0.00     0.048 C 
HETATM   36  C8  UNL     1      -3.137  12.639  17.485  1.00  0.00     0.048 C 
BRANCH  34  37
HETATM   37  O3  UNL     1      -1.098  13.656  18.242  1.00  0.00    -0.388 OA
HETATM   38  H17 UNL     1      -1.631  13.877  19.024  1.00  0.00     0.210 HD
ENDBRANCH  34  37
ENDBRANCH  31  34
ENDBRANCH  28  31
ENDBRANCH  27  28
ENDBRANCH  25  27
ENDBRANCH   1  25
TORSDOF 8
ENDMDL
MODEL 8
REMARK minimizedAffinity -7.43306684
REMARK CNNscore 0.237312257
REMARK CNNaffinity 5.59680033
REMARK  8 active torsions:
REMARK  status: ('A' for Active; 'I' for Inactive)
REMARK    1  A    between atoms: C2_2  and  C3_3 
REMARK    2  A    between atoms: C2_2  and  C9_12 
REMARK    3  A    between atoms: C3_3  and  C4_4 
REMARK    4  A    between atoms: C4_4  and  O1_5 
REMARK    5  A    between atoms: C4_4  and  C5_6 
REMARK    6  A    between atoms: C5_6  and  O2_7 
REMARK    7  A    between atoms: C5_6  and  C6_8 
REMARK    8  A    between atoms: C6_8  and  O3_11 
ROOT
HETATM    1  C9  UNL     1      -4.534 -11.140   1.739  1.00  0.00     0.097 A 
HETATM    2  C10 UNL     1      -3.731 -12.133   0.952  1.00  0.00     0.042 A 
HETATM    3  C11 UNL     1      -4.668 -12.712  -0.130  1.00  0.00     0.016 A 
HETATM    4  C12 UNL     1      -6.040 -11.955  -0.074  1.00  0.00    -0.002 A 
HETATM    5  C13 UNL     1      -7.128 -13.020   0.200  1.00  0.00     0.019 C 
HETATM    6  C14 UNL     1      -5.918 -11.043   1.148  1.00  0.00     0.101 A 
HETATM    7  C15 UNL     1      -6.911  -9.943   1.350  1.00  0.00     0.042 C 
HETATM    8  C16 UNL     1      -7.224  -9.176   0.067  1.00  0.00     0.009 C 
HETATM    9  C17 UNL     1      -7.570 -10.124  -1.106  1.00  0.00     0.003 C 
HETATM   10  C18 UNL     1      -8.293  -9.408  -2.344  1.00  0.00    -0.035 C 
HETATM   11  C19 UNL     1      -9.731  -9.079  -1.838  1.00  0.00     0.016 C 
HETATM   12  C20 UNL     1      -7.617  -8.070  -2.732  1.00  0.00     0.017 C 
HETATM   13  C21 UNL     1      -8.198  -7.391  -3.959  1.00  0.00     0.080 C 
HETATM   14  C22 UNL     1      -8.207  -8.328  -5.139  1.00  0.00     0.135 C 
HETATM   15  O4  UNL     1      -7.746  -7.963  -6.221  1.00  0.00    -0.297 OA
HETATM   16  C23 UNL     1      -8.891  -9.685  -4.956  1.00  0.00     0.017 C 
HETATM   17  C24 UNL     1      -8.581 -10.564  -6.196  1.00  0.00     0.023 C 
HETATM   18  C25 UNL     1     -10.421  -9.462  -4.981  1.00  0.00     0.023 C 
HETATM   19  C26 UNL     1      -8.396 -10.361  -3.609  1.00  0.00     0.009 C 
HETATM   20  C27 UNL     1      -7.078 -11.145  -3.827  1.00  0.00     0.007 C 
HETATM   21  C28 UNL     1      -6.663 -11.945  -2.595  1.00  0.00     0.011 C 
HETATM   22  C29 UNL     1      -6.326 -11.055  -1.382  1.00  0.00    -0.029 C 
HETATM   23  C30 UNL     1      -5.041 -10.242  -1.723  1.00  0.00     0.016 C 
HETATM   24  O5  UNL     1      -5.656 -11.738   2.390  1.00  0.00    -0.362 OA
ENDROOT
BRANCH   1  25
HETATM   25  C2  UNL     1      -3.857 -10.056   2.558  1.00  0.00     0.022 C 
HETATM   26  C1  UNL     1      -2.379  -9.940   2.167  1.00  0.00     0.013 C 
BRANCH  25  27
HETATM   27  C3  UNL     1      -4.053 -10.309   4.073  1.00  0.00     0.041 C 
BRANCH  27  28
HETATM   28  C4  UNL     1      -2.769 -10.346   4.926  1.00  0.00     0.150 C 
BRANCH  28  29
HETATM   29  O1  UNL     1      -2.545 -11.726   5.289  1.00  0.00    -0.393 OA
HETATM   30  H8  UNL     1      -2.356 -12.207   4.460  1.00  0.00     0.210 HD
ENDBRANCH  28  29
BRANCH  28  31
HETATM   31  C5  UNL     1      -2.882  -9.542   6.247  1.00  0.00     0.180 C 
BRANCH  31  32
HETATM   32  O2  UNL     1      -2.668  -8.152   5.948  1.00  0.00    -0.390 OA
HETATM   33  H10 UNL     1      -3.033  -8.041   5.045  1.00  0.00     0.210 HD
ENDBRANCH  31  32
BRANCH  31  34
HETATM   34  C6  UNL     1      -4.237  -9.743   6.990  1.00  0.00     0.079 C 
HETATM   35  C7  UNL     1      -4.085  -9.913   8.507  1.00  0.00     0.048 C 
HETATM   36  C8  UNL     1      -4.969 -10.964   6.412  1.00  0.00     0.048 C 
BRANCH  34  37
HETATM   37  O3  UNL     1      -5.051  -8.588   6.750  1.00  0.00    -0.388 OA
HETATM   38  H17 UNL     1      -5.944  -8.781   7.082  1.00  0.00     0.210 HD
ENDBRANCH  34  37
ENDBRANCH  31  34
ENDBRANCH  28  31
ENDBRANCH  27  28
ENDBRANCH  25  27
ENDBRANCH   1  25
TORSDOF 8
ENDMDL
MODEL 9
REMARK minimizedAffinity -6.7973609
REMARK CNNscore 0.202426121
REMARK CNNaffinity 4.85670662
REMARK  8 active torsions:
REMARK  status: ('A' for Active; 'I' for Inactive)
REMARK    1  A    between atoms: C2_2  and  C3_3 
REMARK    2  A    between atoms: C2_2  and  C9_12 
REMARK    3  A    between atoms: C3_3  and  C4_4 
REMARK    4  A    between atoms: C4_4  and  O1_5 
REMARK    5  A    between atoms: C4_4  and  C5_6 
REMARK    6  A    between atoms: C5_6  and  O2_7 
REMARK    7  A    between atoms: C5_6  and  C6_8 
REMARK    8  A    between atoms: C6_8  and  O3_11 
ROOT
HETATM    1  C9  UNL     1       8.533  10.158  15.512  1.00  0.00     0.097 A 
HETATM    2  C10 UNL     1       9.949  10.610  15.310  1.00  0.00     0.042 A 
HETATM    3  C11 UNL     1      10.040  12.056  15.845  1.00  0.00     0.016 A 
HETATM    4  C12 UNL     1       8.670  12.443  16.503  1.00  0.00    -0.002 A 
HETATM    5  C13 UNL     1       8.143  13.684  15.743  1.00  0.00     0.019 C 
HETATM    6  C14 UNL     1       7.757  11.252  16.203  1.00  0.00     0.101 A 
HETATM    7  C15 UNL     1       6.458  11.116  16.931  1.00  0.00     0.042 C 
HETATM    8  C16 UNL     1       6.574  11.413  18.424  1.00  0.00     0.009 C 
HETATM    9  C17 UNL     1       7.307  12.748  18.695  1.00  0.00     0.003 C 
HETATM   10  C18 UNL     1       7.112  13.320  20.180  1.00  0.00    -0.035 C 
HETATM   11  C19 UNL     1       5.634  13.815  20.232  1.00  0.00     0.016 C 
HETATM   12  C20 UNL     1       7.276  12.226  21.263  1.00  0.00     0.017 C 
HETATM   13  C21 UNL     1       7.198  12.725  22.694  1.00  0.00     0.080 C 
HETATM   14  C22 UNL     1       8.183  13.839  22.931  1.00  0.00     0.135 C 
HETATM   15  O4  UNL     1       8.941  13.798  23.900  1.00  0.00    -0.297 OA
HETATM   16  C23 UNL     1       8.126  15.042  21.985  1.00  0.00     0.017 C 
HETATM   17  C24 UNL     1       9.359  15.943  22.259  1.00  0.00     0.023 C 
HETATM   18  C25 UNL     1       6.897  15.899  22.367  1.00  0.00     0.023 C 
HETATM   19  C26 UNL     1       8.077  14.543  20.480  1.00  0.00     0.009 C 
HETATM   20  C27 UNL     1       9.501  14.281  19.930  1.00  0.00     0.007 C 
HETATM   21  C28 UNL     1       9.501  13.962  18.438  1.00  0.00     0.011 C 
HETATM   22  C29 UNL     1       8.765  12.650  18.100  1.00  0.00    -0.029 C 
HETATM   23  C30 UNL     1       9.578  11.469  18.711  1.00  0.00     0.016 C 
HETATM   24  O5  UNL     1       7.595  10.962  14.795  1.00  0.00    -0.362 OA
ENDROOT
BRANCH   1  25
HETATM   25  C2  UNL     1       8.178   8.683  15.543  1.00  0.00     0.022 C 
HETATM   26  C1  UNL     1       9.256   7.892  16.294  1.00  0.00     0.013 C 
BRANCH  25  27
HETATM   27  C3  UNL     1       7.934   8.146  14.112  1.00  0.00     0.041 C 
BRANCH  27  28
HETATM   28  C4  UNL     1       6.519   7.605  13.822  1.00  0.00     0.150 C 
BRANCH  28  29
HETATM   29  O1  UNL     1       6.385   6.366  14.553  1.00  0.00    -0.393 OA
HETATM   30  H8  UNL     1       6.420   6.594  15.501  1.00  0.00     0.210 HD
ENDBRANCH  28  29
BRANCH  28  31
HETATM   31  C5  UNL     1       6.276   7.279  12.326  1.00  0.00     0.180 C 
BRANCH  31  32
HETATM   32  O2  UNL     1       6.094   5.858  12.200  1.00  0.00    -0.390 OA
HETATM   33  H10 UNL     1       5.660   5.596  13.038  1.00  0.00     0.210 HD
ENDBRANCH  31  32
BRANCH  31  34
HETATM   34  C6  UNL     1       5.071   8.046  11.704  1.00  0.00     0.079 C 
HETATM   35  C7  UNL     1       3.981   7.124  11.142  1.00  0.00     0.048 C 
HETATM   36  C8  UNL     1       5.570   8.982  10.592  1.00  0.00     0.048 C 
BRANCH  34  37
HETATM   37  O3  UNL     1       4.483   8.858  12.730  1.00  0.00    -0.388 OA
HETATM   38  H17 UNL     1       3.835   9.446  12.307  1.00  0.00     0.210 HD
ENDBRANCH  34  37
ENDBRANCH  31  34
ENDBRANCH  28  31
ENDBRANCH  27  28
ENDBRANCH  25  27
ENDBRANCH   1  25
TORSDOF 8
ENDMDL
