MODEL 1
REMARK minimizedAffinity -9.55459499
REMARK  6 active torsions:
REMARK  status: ('A' for Active; 'I' for Inactive)
REMARK    1  A    between atoms: C2_2  and  C30_31 
REMARK    2  A    between atoms: C3_3  and  C4_4 
REMARK    3  A    between atoms: C4_4  and  C5_5 
REMARK    4  A    between atoms: C5_5  and  C6_6 
REMARK    5  A    between atoms: C6_6  and  C8_8 
REMARK    6  A    between atoms: C30_31  and  O3_33 
ROOT
HETATM    1  C8  UNL     1       0.664   5.956  11.808  1.00  0.00    -0.002 C 
HETATM    2  C9  UNL     1       0.753   4.399  11.746  1.00  0.00     0.007 C 
HETATM    3  C10 UNL     1      -0.621   3.840  12.174  1.00  0.00     0.015 C 
HETATM    4  C11 UNL     1      -1.557   5.060  12.146  1.00  0.00    -0.013 C 
HETATM    5  C12 UNL     1      -1.973   5.254  10.644  1.00  0.00     0.021 C 
HETATM    6  C13 UNL     1      -2.876   5.000  12.923  1.00  0.00    -0.070 C 
HETATM    7  C14 UNL     1      -3.658   3.908  12.855  1.00  0.00    -0.022 C 
HETATM    8  C15 UNL     1      -5.095   3.895  13.260  1.00  0.00     0.034 C 
HETATM    9  C16 UNL     1      -5.714   5.309  13.215  1.00  0.00     0.013 C 
HETATM   10  C17 UNL     1      -7.270   5.333  13.461  1.00  0.00     0.018 C 
HETATM   11  C18 UNL     1      -7.981   5.385  12.087  1.00  0.00     0.023 C 
HETATM   12  C19 UNL     1      -7.787   4.079  14.207  1.00  0.00     0.023 C 
HETATM   13  C20 UNL     1      -7.787   6.557  14.238  1.00  0.00     0.135 C 
HETATM   14  O1  UNL     1      -8.927   6.567  14.724  1.00  0.00    -0.297 OA
HETATM   15  C21 UNL     1      -6.947   7.800  14.382  1.00  0.00     0.080 C 
HETATM   16  C22 UNL     1      -5.519   7.696  13.887  1.00  0.00     0.017 C 
HETATM   17  C23 UNL     1      -4.874   6.307  14.067  1.00  0.00    -0.031 C 
HETATM   18  C24 UNL     1      -4.903   5.913  15.570  1.00  0.00     0.016 C 
HETATM   19  C25 UNL     1      -3.341   6.296  13.608  1.00  0.00     0.024 C 
HETATM   20  C26 UNL     1      -2.838   7.525  12.813  1.00  0.00     0.010 C 
HETATM   21  C27 UNL     1      -1.309   7.545  12.546  1.00  0.00     0.011 C 
HETATM   22  C28 UNL     1      -0.604   6.179  12.698  1.00  0.00    -0.029 C 
HETATM   23  C29 UNL     1      -0.177   5.964  14.187  1.00  0.00     0.016 C 
ENDROOT
BRANCH   1  24
HETATM   24  C6  UNL     1       2.015   6.617  12.204  1.00  0.00    -0.014 C 
HETATM   25  C7  UNL     1       1.907   7.453  13.484  1.00  0.00     0.010 C 
BRANCH  24  26
HETATM   26  C5  UNL     1       2.621   7.474  11.062  1.00  0.00     0.008 C 
BRANCH  26  27
HETATM   27  C4  UNL     1       3.692   6.779  10.211  1.00  0.00     0.028 C 
BRANCH  27  28
HETATM   28  C3  UNL     1       3.106   6.276   8.919  1.00  0.00    -0.013 C 
HETATM   29  C2  UNL     1       2.608   6.983   7.883  1.00  0.00     0.008 C 
HETATM   30  C1  UNL     1       2.074   6.294   6.658  1.00  0.00     0.055 C 
BRANCH  29  31
HETATM   31  C30 UNL     1       2.508   8.461   7.906  1.00  0.00     0.171 C 
HETATM   32  O2  UNL     1       3.364   9.269   7.598  1.00  0.00    -0.646 OA
BRANCH  31  33
HETATM   33  O3  UNL     1       1.303   8.870   8.343  1.00  0.00    -0.773 OA
HETATM   34  H46 UNL     1       1.369   9.845   8.300  1.00  0.00     0.167 HD
ENDBRANCH  31  33
ENDBRANCH  29  31
ENDBRANCH  27  28
ENDBRANCH  26  27
ENDBRANCH  24  26
ENDBRANCH   1  24
TORSDOF 6
ENDMDL
MODEL 2
REMARK minimizedAffinity -9.15532875
REMARK  6 active torsions:
REMARK  status: ('A' for Active; 'I' for Inactive)
REMARK    1  A    between atoms: C2_2  and  C30_31 
REMARK    2  A    between atoms: C3_3  and  C4_4 
REMARK    3  A    between atoms: C4_4  and  C5_5 
REMARK    4  A    between atoms: C5_5  and  C6_6 
REMARK    5  A    between atoms: C6_6  and  C8_8 
REMARK    6  A    between atoms: C30_31  and  O3_33 
ROOT
HETATM    1  C8  UNL     1      -6.008   7.099  15.122  1.00  0.00    -0.002 C 
HETATM    2  C9  UNL     1      -5.795   8.582  15.557  1.00  0.00     0.007 C 
HETATM    3  C10 UNL     1      -4.424   9.033  15.007  1.00  0.00     0.015 C 
HETATM    4  C11 UNL     1      -4.036   7.937  13.999  1.00  0.00    -0.013 C 
HETATM    5  C12 UNL     1      -4.809   8.271  12.674  1.00  0.00     0.021 C 
HETATM    6  C13 UNL     1      -2.567   7.799  13.584  1.00  0.00    -0.070 C 
HETATM    7  C14 UNL     1      -1.842   8.888  13.273  1.00  0.00    -0.022 C 
HETATM    8  C15 UNL     1      -0.555   8.834  12.519  1.00  0.00     0.034 C 
HETATM    9  C16 UNL     1      -0.441   7.546  11.675  1.00  0.00     0.013 C 
HETATM   10  C17 UNL     1       0.814   7.515  10.722  1.00  0.00     0.018 C 
HETATM   11  C18 UNL     1       0.365   7.956   9.309  1.00  0.00     0.023 C 
HETATM   12  C19 UNL     1       1.943   8.475  11.173  1.00  0.00     0.023 C 
HETATM   13  C20 UNL     1       1.457   6.129  10.537  1.00  0.00     0.135 C 
HETATM   14  O1  UNL     1       2.586   6.014  10.040  1.00  0.00    -0.297 OA
HETATM   15  C21 UNL     1       0.712   4.871  10.898  1.00  0.00     0.080 C 
HETATM   16  C22 UNL     1      -0.606   5.065  11.619  1.00  0.00     0.017 C 
HETATM   17  C23 UNL     1      -0.652   6.283  12.562  1.00  0.00    -0.031 C 
HETATM   18  C24 UNL     1       0.474   6.157  13.625  1.00  0.00     0.016 C 
HETATM   19  C25 UNL     1      -2.038   6.373  13.356  1.00  0.00     0.024 C 
HETATM   20  C26 UNL     1      -3.185   5.454  12.870  1.00  0.00     0.010 C 
HETATM   21  C27 UNL     1      -4.445   5.451  13.779  1.00  0.00     0.011 C 
HETATM   22  C28 UNL     1      -4.556   6.654  14.741  1.00  0.00    -0.029 C 
HETATM   23  C29 UNL     1      -3.796   6.343  16.071  1.00  0.00     0.016 C 
ENDROOT
BRANCH   1  24
HETATM   24  C6  UNL     1      -6.821   6.281  16.164  1.00  0.00    -0.014 C 
HETATM   25  C7  UNL     1      -7.346   4.959  15.593  1.00  0.00     0.010 C 
BRANCH  24  26
HETATM   26  C5  UNL     1      -7.990   7.091  16.783  1.00  0.00     0.008 C 
BRANCH  26  27
HETATM   27  C4  UNL     1      -9.253   7.195  15.917  1.00  0.00     0.028 C 
BRANCH  27  28
HETATM   28  C3  UNL     1      -8.971   6.756  14.505  1.00  0.00    -0.013 C 
HETATM   29  C2  UNL     1      -9.819   6.670  13.459  1.00  0.00     0.008 C 
HETATM   30  C1  UNL     1      -9.342   6.218  12.107  1.00  0.00     0.055 C 
BRANCH  29  31
HETATM   31  C30 UNL     1     -11.267   6.962  13.586  1.00  0.00     0.171 C 
HETATM   32  O2  UNL     1     -11.886   7.883  13.087  1.00  0.00    -0.646 OA
BRANCH  31  33
HETATM   33  O3  UNL     1     -11.887   6.062  14.370  1.00  0.00    -0.773 OA
HETATM   34  H46 UNL     1     -12.819   6.362  14.359  1.00  0.00     0.167 HD
ENDBRANCH  31  33
ENDBRANCH  29  31
ENDBRANCH  27  28
ENDBRANCH  26  27
ENDBRANCH  24  26
ENDBRANCH   1  24
TORSDOF 6
ENDMDL
MODEL 3
REMARK minimizedAffinity -8.99077797
REMARK  6 active torsions:
REMARK  status: ('A' for Active; 'I' for Inactive)
REMARK    1  A    between atoms: C2_2  and  C30_31 
REMARK    2  A    between atoms: C3_3  and  C4_4 
REMARK    3  A    between atoms: C4_4  and  C5_5 
REMARK    4  A    between atoms: C5_5  and  C6_6 
REMARK    5  A    between atoms: C6_6  and  C8_8 
REMARK    6  A    between atoms: C30_31  and  O3_33 
ROOT
HETATM    1  C8  UNL     1      -1.095   6.289  11.921  1.00  0.00    -0.002 C 
HETATM    2  C9  UNL     1      -1.767   7.545  12.560  1.00  0.00     0.007 C 
HETATM    3  C10 UNL     1      -0.637   8.511  12.979  1.00  0.00     0.015 C 
HETATM    4  C11 UNL     1       0.618   7.960  12.280  1.00  0.00    -0.013 C 
HETATM    5  C12 UNL     1       0.557   8.485  10.801  1.00  0.00     0.021 C 
HETATM    6  C13 UNL     1       1.998   8.377  12.799  1.00  0.00    -0.070 C 
HETATM    7  C14 UNL     1       2.253   9.662  13.099  1.00  0.00    -0.022 C 
HETATM    8  C15 UNL     1       3.630  10.218  13.249  1.00  0.00     0.034 C 
HETATM    9  C16 UNL     1       4.675   9.363  12.498  1.00  0.00     0.013 C 
HETATM   10  C17 UNL     1       6.118   9.995  12.473  1.00  0.00     0.018 C 
HETATM   11  C18 UNL     1       6.304  10.734  11.126  1.00  0.00     0.023 C 
HETATM   12  C19 UNL     1       6.351  11.025  13.606  1.00  0.00     0.023 C 
HETATM   13  C20 UNL     1       7.274   8.982  12.549  1.00  0.00     0.135 C 
HETATM   14  O1  UNL     1       8.429   9.352  12.805  1.00  0.00    -0.297 OA
HETATM   15  C21 UNL     1       7.049   7.521  12.258  1.00  0.00     0.080 C 
HETATM   16  C22 UNL     1       5.607   7.096  12.079  1.00  0.00     0.017 C 
HETATM   17  C23 UNL     1       4.593   7.872  12.943  1.00  0.00    -0.031 C 
HETATM   18  C24 UNL     1       4.966   7.720  14.443  1.00  0.00     0.016 C 
HETATM   19  C25 UNL     1       3.105   7.310  12.770  1.00  0.00     0.024 C 
HETATM   20  C26 UNL     1       2.859   6.324  11.602  1.00  0.00     0.010 C 
HETATM   21  C27 UNL     1       1.449   5.674  11.585  1.00  0.00     0.011 C 
HETATM   22  C28 UNL     1       0.382   6.414  12.423  1.00  0.00    -0.029 C 
HETATM   23  C29 UNL     1       0.421   5.904  13.901  1.00  0.00     0.016 C 
ENDROOT
BRANCH   1  24
HETATM   24  C6  UNL     1      -1.896   4.983  12.184  1.00  0.00    -0.014 C 
HETATM   25  C7  UNL     1      -1.930   4.059  10.962  1.00  0.00     0.010 C 
BRANCH  24  26
HETATM   26  C5  UNL     1      -3.340   5.254  12.682  1.00  0.00     0.008 C 
BRANCH  26  27
HETATM   27  C4  UNL     1      -4.285   4.045  12.657  1.00  0.00     0.028 C 
BRANCH  27  28
HETATM   28  C3  UNL     1      -5.713   4.479  12.852  1.00  0.00    -0.013 C 
HETATM   29  C2  UNL     1      -6.846   3.765  12.684  1.00  0.00     0.008 C 
HETATM   30  C1  UNL     1      -8.195   4.375  12.946  1.00  0.00     0.055 C 
BRANCH  29  31
HETATM   31  C30 UNL     1      -6.837   2.368  12.188  1.00  0.00     0.171 C 
HETATM   32  O2  UNL     1      -6.034   1.851  11.436  1.00  0.00    -0.646 OA
BRANCH  31  33
HETATM   33  O3  UNL     1      -7.882   1.667  12.665  1.00  0.00    -0.773 OA
HETATM   34  H46 UNL     1      -7.751   0.778  12.275  1.00  0.00     0.167 HD
ENDBRANCH  31  33
ENDBRANCH  29  31
ENDBRANCH  27  28
ENDBRANCH  26  27
ENDBRANCH  24  26
ENDBRANCH   1  24
TORSDOF 6
ENDMDL
MODEL 4
REMARK minimizedAffinity -8.82004166
REMARK  6 active torsions:
REMARK  status: ('A' for Active; 'I' for Inactive)
REMARK    1  A    between atoms: C2_2  and  C30_31 
REMARK    2  A    between atoms: C3_3  and  C4_4 
REMARK    3  A    between atoms: C4_4  and  C5_5 
REMARK    4  A    between atoms: C5_5  and  C6_6 
REMARK    5  A    between atoms: C6_6  and  C8_8 
REMARK    6  A    between atoms: C30_31  and  O3_33 
ROOT
HETATM    1  C8  UNL     1      -3.376   9.008  14.399  1.00  0.00    -0.002 C 
HETATM    2  C9  UNL     1      -2.945   8.763  15.878  1.00  0.00     0.007 C 
HETATM    3  C10 UNL     1      -1.438   8.421  15.870  1.00  0.00     0.015 C 
HETATM    4  C11 UNL     1      -0.967   8.803  14.456  1.00  0.00    -0.013 C 
HETATM    5  C12 UNL     1      -0.734  10.356  14.481  1.00  0.00     0.021 C 
HETATM    6  C13 UNL     1       0.343   8.209  13.927  1.00  0.00    -0.070 C 
HETATM    7  C14 UNL     1       1.438   8.172  14.707  1.00  0.00    -0.022 C 
HETATM    8  C15 UNL     1       2.820   7.965  14.180  1.00  0.00     0.034 C 
HETATM    9  C16 UNL     1       2.927   8.358  12.690  1.00  0.00     0.013 C 
HETATM   10  C17 UNL     1       4.398   8.328  12.126  1.00  0.00     0.018 C 
HETATM   11  C18 UNL     1       4.964   9.768  12.161  1.00  0.00     0.023 C 
HETATM   12  C19 UNL     1       5.351   7.433  12.958  1.00  0.00     0.023 C 
HETATM   13  C20 UNL     1       4.525   7.871  10.662  1.00  0.00     0.135 C 
HETATM   14  O1  UNL     1       5.625   7.551  10.189  1.00  0.00    -0.297 OA
HETATM   15  C21 UNL     1       3.330   7.856   9.745  1.00  0.00     0.080 C 
HETATM   16  C22 UNL     1       1.991   8.129  10.397  1.00  0.00     0.017 C 
HETATM   17  C23 UNL     1       1.858   7.606  11.841  1.00  0.00    -0.031 C 
HETATM   18  C24 UNL     1       2.111   6.074  11.863  1.00  0.00     0.016 C 
HETATM   19  C25 UNL     1       0.391   7.849  12.433  1.00  0.00     0.024 C 
HETATM   20  C26 UNL     1      -0.541   8.788  11.632  1.00  0.00     0.010 C 
HETATM   21  C27 UNL     1      -2.004   8.850  12.150  1.00  0.00     0.011 C 
HETATM   22  C28 UNL     1      -2.202   8.351  13.599  1.00  0.00    -0.029 C 
HETATM   23  C29 UNL     1      -2.439   6.805  13.601  1.00  0.00     0.016 C 
ENDROOT
BRANCH   1  24
HETATM   24  C6  UNL     1      -4.842   8.570  14.123  1.00  0.00    -0.014 C 
HETATM   25  C7  UNL     1      -5.671   8.454  15.407  1.00  0.00     0.010 C 
BRANCH  24  26
HETATM   26  C5  UNL     1      -4.933   7.250  13.314  1.00  0.00     0.008 C 
BRANCH  26  27
HETATM   27  C4  UNL     1      -5.857   6.176  13.903  1.00  0.00     0.028 C 
BRANCH  27  28
HETATM   28  C3  UNL     1      -5.669   4.861  13.195  1.00  0.00    -0.013 C 
HETATM   29  C2  UNL     1      -6.590   4.095  12.572  1.00  0.00     0.008 C 
HETATM   30  C1  UNL     1      -6.203   2.806  11.901  1.00  0.00     0.055 C 
BRANCH  29  31
HETATM   31  C30 UNL     1      -8.031   4.443  12.554  1.00  0.00     0.171 C 
HETATM   32  O2  UNL     1      -8.570   5.343  11.940  1.00  0.00    -0.646 OA
BRANCH  31  33
HETATM   33  O3  UNL     1      -8.747   3.624  13.345  1.00  0.00    -0.773 OA
HETATM   34  H46 UNL     1      -9.663   3.953  13.234  1.00  0.00     0.167 HD
ENDBRANCH  31  33
ENDBRANCH  29  31
ENDBRANCH  27  28
ENDBRANCH  26  27
ENDBRANCH  24  26
ENDBRANCH   1  24
TORSDOF 6
ENDMDL
MODEL 5
REMARK minimizedAffinity -8.79951954
REMARK  6 active torsions:
REMARK  status: ('A' for Active; 'I' for Inactive)
REMARK    1  A    between atoms: C2_2  and  C30_31 
REMARK    2  A    between atoms: C3_3  and  C4_4 
REMARK    3  A    between atoms: C4_4  and  C5_5 
REMARK    4  A    between atoms: C5_5  and  C6_6 
REMARK    5  A    between atoms: C6_6  and  C8_8 
REMARK    6  A    between atoms: C30_31  and  O3_33 
ROOT
HETATM    1  C8  UNL     1       0.844   5.990  11.467  1.00  0.00    -0.002 C 
HETATM    2  C9  UNL     1       0.930   4.433  11.514  1.00  0.00     0.007 C 
HETATM    3  C10 UNL     1      -0.414   3.911  12.069  1.00  0.00     0.015 C 
HETATM    4  C11 UNL     1      -1.351   5.130  12.010  1.00  0.00    -0.013 C 
HETATM    5  C12 UNL     1      -1.862   5.215  10.528  1.00  0.00     0.021 C 
HETATM    6  C13 UNL     1      -2.618   5.133  12.873  1.00  0.00    -0.070 C 
HETATM    7  C14 UNL     1      -3.402   4.041  12.934  1.00  0.00    -0.022 C 
HETATM    8  C15 UNL     1      -4.810   4.063  13.430  1.00  0.00     0.034 C 
HETATM    9  C16 UNL     1      -5.432   5.473  13.321  1.00  0.00     0.013 C 
HETATM   10  C17 UNL     1      -6.969   5.522  13.662  1.00  0.00     0.018 C 
HETATM   11  C18 UNL     1      -7.766   5.475  12.337  1.00  0.00     0.023 C 
HETATM   12  C19 UNL     1      -7.437   4.327  14.530  1.00  0.00     0.023 C 
HETATM   13  C20 UNL     1      -7.437   6.801  14.379  1.00  0.00     0.135 C 
HETATM   14  O1  UNL     1      -8.543   6.851  14.934  1.00  0.00    -0.297 OA
HETATM   15  C21 UNL     1      -6.590   8.047  14.377  1.00  0.00     0.080 C 
HETATM   16  C22 UNL     1      -5.197   7.902  13.801  1.00  0.00     0.017 C 
HETATM   17  C23 UNL     1      -4.541   6.528  14.042  1.00  0.00    -0.031 C 
HETATM   18  C24 UNL     1      -4.473   6.246  15.568  1.00  0.00     0.016 C 
HETATM   19  C25 UNL     1      -3.040   6.477  13.489  1.00  0.00     0.024 C 
HETATM   20  C26 UNL     1      -2.590   7.642  12.575  1.00  0.00     0.010 C 
HETATM   21  C27 UNL     1      -1.080   7.637  12.210  1.00  0.00     0.011 C 
HETATM   22  C28 UNL     1      -0.366   6.283  12.417  1.00  0.00    -0.029 C 
HETATM   23  C29 UNL     1       0.156   6.176  13.888  1.00  0.00     0.016 C 
ENDROOT
BRANCH   1  24
HETATM   24  C6  UNL     1       2.216   6.673  11.726  1.00  0.00    -0.014 C 
HETATM   25  C7  UNL     1       2.349   7.198  13.160  1.00  0.00     0.010 C 
BRANCH  24  26
HETATM   26  C5  UNL     1       2.521   7.811  10.717  1.00  0.00     0.008 C 
BRANCH  26  27
HETATM   27  C4  UNL     1       3.789   7.623   9.873  1.00  0.00     0.028 C 
BRANCH  27  28
HETATM   28  C3  UNL     1       4.771   8.735  10.131  1.00  0.00    -0.013 C 
HETATM   29  C2  UNL     1       6.021   8.661  10.633  1.00  0.00     0.008 C 
HETATM   30  C1  UNL     1       6.864   9.895  10.805  1.00  0.00     0.055 C 
BRANCH  29  31
HETATM   31  C30 UNL     1       6.619   7.384  11.091  1.00  0.00     0.171 C 
HETATM   32  O2  UNL     1       7.532   7.231  11.878  1.00  0.00    -0.646 OA
BRANCH  31  33
HETATM   33  O3  UNL     1       6.031   6.325  10.507  1.00  0.00    -0.773 OA
HETATM   34  H46 UNL     1       6.505   5.562  10.898  1.00  0.00     0.167 HD
ENDBRANCH  31  33
ENDBRANCH  29  31
ENDBRANCH  27  28
ENDBRANCH  26  27
ENDBRANCH  24  26
ENDBRANCH   1  24
TORSDOF 6
ENDMDL
MODEL 6
REMARK minimizedAffinity -8.72495365
REMARK  6 active torsions:
REMARK  status: ('A' for Active; 'I' for Inactive)
REMARK    1  A    between atoms: C2_2  and  C30_31 
REMARK    2  A    between atoms: C3_3  and  C4_4 
REMARK    3  A    between atoms: C4_4  and  C5_5 
REMARK    4  A    between atoms: C5_5  and  C6_6 
REMARK    5  A    between atoms: C6_6  and  C8_8 
REMARK    6  A    between atoms: C30_31  and  O3_33 
ROOT
HETATM    1  C8  UNL     1      -0.995   5.814  13.436  1.00  0.00    -0.002 C 
HETATM    2  C9  UNL     1       0.177   6.453  12.628  1.00  0.00     0.007 C 
HETATM    3  C10 UNL     1       0.365   7.895  13.147  1.00  0.00     0.015 C 
HETATM    4  C11 UNL     1      -0.456   7.944  14.447  1.00  0.00    -0.013 C 
HETATM    5  C12 UNL     1       0.451   7.302  15.557  1.00  0.00     0.021 C 
HETATM    6  C13 UNL     1      -0.873   9.307  15.009  1.00  0.00    -0.070 C 
HETATM    7  C14 UNL     1       0.011  10.319  15.067  1.00  0.00    -0.022 C 
HETATM    8  C15 UNL     1      -0.180  11.534  15.914  1.00  0.00     0.034 C 
HETATM    9  C16 UNL     1      -1.147  11.265  17.088  1.00  0.00     0.013 C 
HETATM   10  C17 UNL     1      -1.250  12.455  18.116  1.00  0.00     0.018 C 
HETATM   11  C18 UNL     1      -0.312  12.153  19.309  1.00  0.00     0.023 C 
HETATM   12  C19 UNL     1      -0.819  13.816  17.516  1.00  0.00     0.023 C 
HETATM   13  C20 UNL     1      -2.646  12.664  18.732  1.00  0.00     0.135 C 
HETATM   14  O1  UNL     1      -2.924  13.709  19.336  1.00  0.00    -0.297 OA
HETATM   15  C21 UNL     1      -3.693  11.583  18.670  1.00  0.00     0.080 C 
HETATM   16  C22 UNL     1      -3.355  10.380  17.814  1.00  0.00     0.017 C 
HETATM   17  C23 UNL     1      -2.501  10.694  16.570  1.00  0.00    -0.031 C 
HETATM   18  C24 UNL     1      -3.239  11.735  15.684  1.00  0.00     0.016 C 
HETATM   19  C25 UNL     1      -2.260   9.395  15.667  1.00  0.00     0.024 C 
HETATM   20  C26 UNL     1      -2.639   8.029  16.288  1.00  0.00     0.010 C 
HETATM   21  C27 UNL     1      -2.553   6.825  15.312  1.00  0.00     0.011 C 
HETATM   22  C28 UNL     1      -1.698   7.072  14.048  1.00  0.00    -0.029 C 
HETATM   23  C29 UNL     1      -2.582   7.709  12.926  1.00  0.00     0.016 C 
ENDROOT
BRANCH   1  24
HETATM   24  C6  UNL     1      -1.818   4.798  12.595  1.00  0.00    -0.014 C 
HETATM   25  C7  UNL     1      -1.263   4.625  11.177  1.00  0.00     0.010 C 
BRANCH  24  26
HETATM   26  C5  UNL     1      -3.327   5.153  12.533  1.00  0.00     0.008 C 
BRANCH  26  27
HETATM   27  C4  UNL     1      -4.291   3.988  12.798  1.00  0.00     0.028 C 
BRANCH  27  28
HETATM   28  C3  UNL     1      -5.709   4.481  12.903  1.00  0.00    -0.013 C 
HETATM   29  C2  UNL     1      -6.858   3.805  12.696  1.00  0.00     0.008 C 
HETATM   30  C1  UNL     1      -8.195   4.473  12.867  1.00  0.00     0.055 C 
BRANCH  29  31
HETATM   31  C30 UNL     1      -6.879   2.394  12.242  1.00  0.00     0.171 C 
HETATM   32  O2  UNL     1      -6.067   1.828  11.536  1.00  0.00    -0.646 OA
BRANCH  31  33
HETATM   33  O3  UNL     1      -7.962   1.741  12.702  1.00  0.00    -0.773 OA
HETATM   34  H46 UNL     1      -7.847   0.837  12.343  1.00  0.00     0.167 HD
ENDBRANCH  31  33
ENDBRANCH  29  31
ENDBRANCH  27  28
ENDBRANCH  26  27
ENDBRANCH  24  26
ENDBRANCH   1  24
TORSDOF 6
ENDMDL
MODEL 7
REMARK minimizedAffinity -8.71474552
REMARK  6 active torsions:
REMARK  status: ('A' for Active; 'I' for Inactive)
REMARK    1  A    between atoms: C2_2  and  C30_31 
REMARK    2  A    between atoms: C3_3  and  C4_4 
REMARK    3  A    between atoms: C4_4  and  C5_5 
REMARK    4  A    between atoms: C5_5  and  C6_6 
REMARK    5  A    between atoms: C6_6  and  C8_8 
REMARK    6  A    between atoms: C30_31  and  O3_33 
ROOT
HETATM    1  C8  UNL     1      -2.933   4.605  13.137  1.00  0.00    -0.002 C 
HETATM    2  C9  UNL     1      -1.965   4.865  11.941  1.00  0.00     0.007 C 
HETATM    3  C10 UNL     1      -1.233   6.196  12.219  1.00  0.00     0.015 C 
HETATM    4  C11 UNL     1      -1.535   6.497  13.698  1.00  0.00    -0.013 C 
HETATM    5  C12 UNL     1      -0.525   5.632  14.532  1.00  0.00     0.021 C 
HETATM    6  C13 UNL     1      -1.359   7.930  14.213  1.00  0.00    -0.070 C 
HETATM    7  C14 UNL     1      -0.265   8.641  13.885  1.00  0.00    -0.022 C 
HETATM    8  C15 UNL     1       0.170   9.869  14.615  1.00  0.00     0.034 C 
HETATM    9  C16 UNL     1      -0.393   9.907  16.053  1.00  0.00     0.013 C 
HETATM   10  C17 UNL     1       0.174  11.087  16.929  1.00  0.00     0.018 C 
HETATM   11  C18 UNL     1       1.333  10.540  17.796  1.00  0.00     0.023 C 
HETATM   12  C19 UNL     1       0.737  12.257  16.084  1.00  0.00     0.023 C 
HETATM   13  C20 UNL     1      -0.829  11.701  17.923  1.00  0.00     0.135 C 
HETATM   14  O1  UNL     1      -0.599  12.789  18.469  1.00  0.00    -0.297 OA
HETATM   15  C21 UNL     1      -2.090  10.971  18.306  1.00  0.00     0.080 C 
HETATM   16  C22 UNL     1      -2.392   9.712  17.520  1.00  0.00     0.017 C 
HETATM   17  C23 UNL     1      -1.942   9.749  16.046  1.00  0.00    -0.031 C 
HETATM   18  C24 UNL     1      -2.619  10.949  15.328  1.00  0.00     0.016 C 
HETATM   19  C25 UNL     1      -2.374   8.426  15.256  1.00  0.00     0.024 C 
HETATM   20  C26 UNL     1      -2.883   7.236  16.106  1.00  0.00     0.010 C 
HETATM   21  C27 UNL     1      -3.452   6.047  15.285  1.00  0.00     0.011 C 
HETATM   22  C28 UNL     1      -3.027   6.020  13.800  1.00  0.00    -0.029 C 
HETATM   23  C29 UNL     1      -4.022   6.873  12.947  1.00  0.00     0.016 C 
ENDROOT
BRANCH   1  24
HETATM   24  C6  UNL     1      -4.230   3.862  12.707  1.00  0.00    -0.014 C 
HETATM   25  C7  UNL     1      -4.219   3.475  11.224  1.00  0.00     0.010 C 
BRANCH  24  26
HETATM   26  C5  UNL     1      -5.517   4.663  13.035  1.00  0.00     0.008 C 
BRANCH  26  27
HETATM   27  C4  UNL     1      -6.825   3.863  12.977  1.00  0.00     0.028 C 
BRANCH  27  28
HETATM   28  C3  UNL     1      -8.013   4.784  12.899  1.00  0.00    -0.013 C 
HETATM   29  C2  UNL     1      -8.452   5.679  13.810  1.00  0.00     0.008 C 
HETATM   30  C1  UNL     1      -9.663   6.529  13.542  1.00  0.00     0.055 C 
BRANCH  29  31
HETATM   31  C30 UNL     1      -7.810   5.843  15.136  1.00  0.00     0.171 C 
HETATM   32  O2  UNL     1      -7.027   6.707  15.481  1.00  0.00    -0.646 OA
BRANCH  31  33
HETATM   33  O3  UNL     1      -8.182   4.872  15.990  1.00  0.00    -0.773 OA
HETATM   34  H46 UNL     1      -7.702   5.102  16.812  1.00  0.00     0.167 HD
ENDBRANCH  31  33
ENDBRANCH  29  31
ENDBRANCH  27  28
ENDBRANCH  26  27
ENDBRANCH  24  26
ENDBRANCH   1  24
TORSDOF 6
ENDMDL
MODEL 8
REMARK minimizedAffinity -8.65099239
REMARK  6 active torsions:
REMARK  status: ('A' for Active; 'I' for Inactive)
REMARK    1  A    between atoms: C2_2  and  C30_31 
REMARK    2  A    between atoms: C3_3  and  C4_4 
REMARK    3  A    between atoms: C4_4  and  C5_5 
REMARK    4  A    between atoms: C5_5  and  C6_6 
REMARK    5  A    between atoms: C6_6  and  C8_8 
REMARK    6  A    between atoms: C30_31  and  O3_33 
ROOT
HETATM    1  C8  UNL     1       0.873   6.136  12.726  1.00  0.00    -0.002 C 
HETATM    2  C9  UNL     1       1.312   7.250  13.726  1.00  0.00     0.007 C 
HETATM    3  C10 UNL     1       0.034   7.796  14.401  1.00  0.00     0.015 C 
HETATM    4  C11 UNL     1      -1.057   6.774  14.037  1.00  0.00    -0.013 C 
HETATM    5  C12 UNL     1      -0.891   5.583  15.047  1.00  0.00     0.021 C 
HETATM    6  C13 UNL     1      -2.527   7.190  14.146  1.00  0.00    -0.070 C 
HETATM    7  C14 UNL     1      -2.967   7.862  15.224  1.00  0.00    -0.022 C 
HETATM    8  C15 UNL     1      -4.410   7.983  15.590  1.00  0.00     0.034 C 
HETATM    9  C16 UNL     1      -5.252   6.842  14.977  1.00  0.00     0.013 C 
HETATM   10  C17 UNL     1      -6.747   6.815  15.471  1.00  0.00     0.018 C 
HETATM   11  C18 UNL     1      -6.865   5.782  16.616  1.00  0.00     0.023 C 
HETATM   12  C19 UNL     1      -7.230   8.180  16.022  1.00  0.00     0.023 C 
HETATM   13  C20 UNL     1      -7.775   6.375  14.412  1.00  0.00     0.135 C 
HETATM   14  O1  UNL     1      -8.987   6.565  14.585  1.00  0.00    -0.297 OA
HETATM   15  C21 UNL     1      -7.344   5.649  13.165  1.00  0.00     0.080 C 
HETATM   16  C22 UNL     1      -5.850   5.554  12.935  1.00  0.00     0.017 C 
HETATM   17  C23 UNL     1      -5.043   6.769  13.434  1.00  0.00    -0.031 C 
HETATM   18  C24 UNL     1      -5.565   8.058  12.743  1.00  0.00     0.016 C 
HETATM   19  C25 UNL     1      -3.488   6.641  13.077  1.00  0.00     0.024 C 
HETATM   20  C26 UNL     1      -2.994   5.261  12.580  1.00  0.00     0.010 C 
HETATM   21  C27 UNL     1      -1.523   5.238  12.082  1.00  0.00     0.011 C 
HETATM   22  C28 UNL     1      -0.656   6.425  12.560  1.00  0.00    -0.029 C 
HETATM   23  C29 UNL     1      -0.802   7.624  11.567  1.00  0.00     0.016 C 
ENDROOT
BRANCH   1  24
HETATM   24  C6  UNL     1       1.790   6.063  11.472  1.00  0.00    -0.014 C 
HETATM   25  C7  UNL     1       1.956   4.631  10.950  1.00  0.00     0.010 C 
BRANCH  24  26
HETATM   26  C5  UNL     1       3.182   6.705  11.708  1.00  0.00     0.008 C 
BRANCH  26  27
HETATM   27  C4  UNL     1       3.847   7.314  10.466  1.00  0.00     0.028 C 
BRANCH  27  28
HETATM   28  C3  UNL     1       3.433   6.575   9.221  1.00  0.00    -0.013 C 
HETATM   29  C2  UNL     1       2.762   7.038   8.146  1.00  0.00     0.008 C 
HETATM   30  C1  UNL     1       2.451   6.141   6.980  1.00  0.00     0.055 C 
BRANCH  29  31
HETATM   31  C30 UNL     1       2.249   8.426   8.067  1.00  0.00     0.171 C 
HETATM   32  O2  UNL     1       1.153   8.834   8.402  1.00  0.00    -0.646 OA
BRANCH  31  33
HETATM   33  O3  UNL     1       3.162   9.262   7.540  1.00  0.00    -0.773 OA
HETATM   34  H46 UNL     1       2.706  10.129   7.555  1.00  0.00     0.167 HD
ENDBRANCH  31  33
ENDBRANCH  29  31
ENDBRANCH  27  28
ENDBRANCH  26  27
ENDBRANCH  24  26
ENDBRANCH   1  24
TORSDOF 6
ENDMDL
MODEL 9
REMARK minimizedAffinity -8.52486706
REMARK  6 active torsions:
REMARK  status: ('A' for Active; 'I' for Inactive)
REMARK    1  A    between atoms: C2_2  and  C30_31 
REMARK    2  A    between atoms: C3_3  and  C4_4 
REMARK    3  A    between atoms: C4_4  and  C5_5 
REMARK    4  A    between atoms: C5_5  and  C6_6 
REMARK    5  A    between atoms: C6_6  and  C8_8 
REMARK    6  A    between atoms: C30_31  and  O3_33 
ROOT
HETATM    1  C8  UNL     1      -1.882   7.254  13.611  1.00  0.00    -0.002 C 
HETATM    2  C9  UNL     1      -1.541   6.858  15.082  1.00  0.00     0.007 C 
HETATM    3  C10 UNL     1      -0.012   6.986  15.253  1.00  0.00     0.015 C 
HETATM    4  C11 UNL     1       0.449   7.764  14.008  1.00  0.00    -0.013 C 
HETATM    5  C12 UNL     1       0.170   9.278  14.315  1.00  0.00     0.021 C 
HETATM    6  C13 UNL     1       1.925   7.701  13.601  1.00  0.00    -0.070 C 
HETATM    7  C14 UNL     1       2.893   7.836  14.525  1.00  0.00    -0.022 C 
HETATM    8  C15 UNL     1       4.313   8.155  14.192  1.00  0.00     0.034 C 
HETATM    9  C16 UNL     1       4.435   8.851  12.818  1.00  0.00     0.013 C 
HETATM   10  C17 UNL     1       5.885   9.371  12.492  1.00  0.00     0.018 C 
HETATM   11  C18 UNL     1       5.956  10.877  12.842  1.00  0.00     0.023 C 
HETATM   12  C19 UNL     1       6.988   8.651  13.308  1.00  0.00     0.023 C 
HETATM   13  C20 UNL     1       6.294   9.274  11.011  1.00  0.00     0.135 C 
HETATM   14  O1  UNL     1       7.480   9.394  10.669  1.00  0.00    -0.297 OA
HETATM   15  C21 UNL     1       5.262   9.089   9.930  1.00  0.00     0.080 C 
HETATM   16  C22 UNL     1       3.849   8.818  10.401  1.00  0.00     0.017 C 
HETATM   17  C23 UNL     1       3.750   8.002  11.706  1.00  0.00    -0.031 C 
HETATM   18  C24 UNL     1       4.475   6.641  11.522  1.00  0.00     0.016 C 
HETATM   19  C25 UNL     1       2.232   7.677  12.094  1.00  0.00     0.024 C 
HETATM   20  C26 UNL     1       1.131   8.439  11.317  1.00  0.00     0.010 C 
HETATM   21  C27 UNL     1      -0.318   7.961  11.606  1.00  0.00     0.011 C 
HETATM   22  C28 UNL     1      -0.487   7.147  12.909  1.00  0.00    -0.029 C 
HETATM   23  C29 UNL     1      -0.217   5.633  12.628  1.00  0.00     0.016 C 
ENDROOT
BRANCH   1  24
HETATM   24  C6  UNL     1      -3.097   6.466  13.045  1.00  0.00    -0.014 C 
HETATM   25  C7  UNL     1      -4.414   7.238  13.187  1.00  0.00     0.010 C 
BRANCH  24  26
HETATM   26  C5  UNL     1      -3.242   5.055  13.671  1.00  0.00     0.008 C 
BRANCH  26  27
HETATM   27  C4  UNL     1      -3.837   3.981  12.750  1.00  0.00     0.028 C 
BRANCH  27  28
HETATM   28  C3  UNL     1      -5.327   3.879  12.941  1.00  0.00    -0.013 C 
HETATM   29  C2  UNL     1      -6.209   3.078  12.308  1.00  0.00     0.008 C 
HETATM   30  C1  UNL     1      -7.673   3.109  12.651  1.00  0.00     0.055 C 
BRANCH  29  31
HETATM   31  C30 UNL     1      -5.807   2.165  11.211  1.00  0.00     0.171 C 
HETATM   32  O2  UNL     1      -5.704   0.954  11.252  1.00  0.00    -0.646 OA
BRANCH  31  33
HETATM   33  O3  UNL     1      -5.529   2.840  10.081  1.00  0.00    -0.773 OA
HETATM   34  H46 UNL     1      -5.293   2.131   9.450  1.00  0.00     0.167 HD
ENDBRANCH  31  33
ENDBRANCH  29  31
ENDBRANCH  27  28
ENDBRANCH  26  27
ENDBRANCH  24  26
ENDBRANCH   1  24
TORSDOF 6
ENDMDL
