MODEL 1
REMARK minimizedAffinity -7.4665947
REMARK CNNscore 0.790899932
REMARK CNNaffinity 7.6850791
REMARK  6 active torsions:
REMARK  status: ('A' for Active; 'I' for Inactive)
REMARK    1  A    between atoms: C2_2  and  C30_32 
REMARK    2  A    between atoms: C3_3  and  C4_4 
REMARK    3  A    between atoms: C4_4  and  C5_5 
REMARK    4  A    between atoms: C5_5  and  C6_6 
REMARK    5  A    between atoms: C6_6  and  C8_8 
REMARK    6  A    between atoms: C30_32  and  O4_34 
ROOT
HETATM    1  C8  UNL     1       4.027  54.526  -8.713  1.00  0.00    -0.002 C 
HETATM    2  C9  UNL     1       4.647  53.196  -9.145  1.00  0.00     0.007 C 
HETATM    3  C10 UNL     1       3.435  52.311  -9.371  1.00  0.00     0.015 C 
HETATM    4  C11 UNL     1       2.467  53.177 -10.211  1.00  0.00    -0.005 C 
HETATM    5  C12 UNL     1       2.886  53.063 -11.705  1.00  0.00     0.021 C 
HETATM    6  C13 UNL     1       1.006  52.685 -10.106  1.00  0.00    -0.000 C 
HETATM    7  C14 UNL     1      -0.045  53.480  -9.791  1.00  0.00    -0.060 C 
HETATM    8  C15 UNL     1       0.207  54.915  -9.376  1.00  0.00     0.036 C 
HETATM    9  C16 UNL     1       1.560  55.081  -8.707  1.00  0.00     0.015 C 
HETATM   10  C17 UNL     1       2.731  54.654  -9.622  1.00  0.00    -0.028 C 
HETATM   11  C18 UNL     1       2.873  55.709 -10.744  1.00  0.00     0.016 C 
HETATM   12  C19 UNL     1      -1.526  53.036  -9.804  1.00  0.00    -0.014 C 
HETATM   13  C20 UNL     1      -1.979  52.869  -8.327  1.00  0.00     0.020 C 
HETATM   14  C21 UNL     1      -2.413  54.134 -10.466  1.00  0.00     0.021 C 
HETATM   15  C22 UNL     1      -3.671  53.576 -11.108  1.00  0.00     0.080 C 
HETATM   16  C23 UNL     1      -3.283  52.679 -12.260  1.00  0.00     0.135 C 
HETATM   17  O1  UNL     1      -3.945  52.686 -13.298  1.00  0.00    -0.297 OA
HETATM   18  C24 UNL     1      -2.057  51.764 -12.071  1.00  0.00     0.018 C 
HETATM   19  C25 UNL     1      -2.444  50.380 -12.638  1.00  0.00     0.023 C 
HETATM   20  C26 UNL     1      -0.918  52.330 -12.931  1.00  0.00     0.023 C 
HETATM   21  C27 UNL     1      -1.744  51.662 -10.533  1.00  0.00     0.020 C 
HETATM   22  C28 UNL     1      -0.639  50.681 -10.149  1.00  0.00     0.090 C 
HETATM   23  C29 UNL     1       0.742  51.227 -10.382  1.00  0.00     0.157 C 
HETATM   24  O2  UNL     1       1.638  50.462 -10.733  1.00  0.00    -0.293 OA
ENDROOT
BRANCH   1  25
HETATM   25  C6  UNL     1       5.040  55.705  -8.661  1.00  0.00    -0.014 C 
HETATM   26  C7  UNL     1       6.498  55.213  -8.712  1.00  0.00     0.010 C 
BRANCH  25  27
HETATM   27  C5  UNL     1       4.857  56.644  -7.441  1.00  0.00     0.008 C 
BRANCH  27  28
HETATM   28  C4  UNL     1       3.891  57.816  -7.649  1.00  0.00     0.028 C 
BRANCH  28  29
HETATM   29  C3  UNL     1       2.549  57.523  -7.032  1.00  0.00    -0.013 C 
HETATM   30  C2  UNL     1       2.172  57.745  -5.755  1.00  0.00     0.008 C 
HETATM   31  C1  UNL     1       3.017  58.385  -4.694  1.00  0.00     0.055 C 
BRANCH  30  32
HETATM   32  C30 UNL     1       0.812  57.364  -5.287  1.00  0.00     0.171 C 
HETATM   33  O3  UNL     1       0.455  57.327  -4.121  1.00  0.00    -0.646 OA
BRANCH  32  34
HETATM   34  O4  UNL     1      -0.041  57.045  -6.274  1.00  0.00    -0.773 OA
HETATM   35  H44 UNL     1      -0.867  56.825  -5.797  1.00  0.00     0.167 HD
ENDBRANCH  32  34
ENDBRANCH  30  32
ENDBRANCH  28  29
ENDBRANCH  27  28
ENDBRANCH  25  27
ENDBRANCH   1  25
TORSDOF 6
ENDMDL
MODEL 2
REMARK minimizedAffinity -7.5881238
REMARK CNNscore 0.782390654
REMARK CNNaffinity 7.1864872
REMARK  6 active torsions:
REMARK  status: ('A' for Active; 'I' for Inactive)
REMARK    1  A    between atoms: C2_2  and  C30_32 
REMARK    2  A    between atoms: C3_3  and  C4_4 
REMARK    3  A    between atoms: C4_4  and  C5_5 
REMARK    4  A    between atoms: C5_5  and  C6_6 
REMARK    5  A    between atoms: C6_6  and  C8_8 
REMARK    6  A    between atoms: C30_32  and  O4_34 
ROOT
HETATM    1  C8  UNL     1       4.312  54.422  -8.688  1.00  0.00    -0.002 C 
HETATM    2  C9  UNL     1       4.805  53.032  -9.092  1.00  0.00     0.007 C 
HETATM    3  C10 UNL     1       3.520  52.232  -9.206  1.00  0.00     0.015 C 
HETATM    4  C11 UNL     1       2.569  53.133 -10.028  1.00  0.00    -0.005 C 
HETATM    5  C12 UNL     1       2.887  52.924 -11.537  1.00  0.00     0.021 C 
HETATM    6  C13 UNL     1       1.085  52.758  -9.817  1.00  0.00    -0.000 C 
HETATM    7  C14 UNL     1       0.116  53.644  -9.479  1.00  0.00    -0.060 C 
HETATM    8  C15 UNL     1       0.497  55.072  -9.148  1.00  0.00     0.036 C 
HETATM    9  C16 UNL     1       1.897  55.163  -8.565  1.00  0.00     0.015 C 
HETATM   10  C17 UNL     1       2.975  54.610  -9.525  1.00  0.00    -0.028 C 
HETATM   11  C18 UNL     1       3.127  55.603 -10.702  1.00  0.00     0.016 C 
HETATM   12  C19 UNL     1      -1.391  53.314  -9.387  1.00  0.00    -0.014 C 
HETATM   13  C20 UNL     1      -1.765  53.244  -7.880  1.00  0.00     0.020 C 
HETATM   14  C21 UNL     1      -2.234  54.447 -10.048  1.00  0.00     0.021 C 
HETATM   15  C22 UNL     1      -3.566  53.959 -10.589  1.00  0.00     0.080 C 
HETATM   16  C23 UNL     1      -3.316  52.988 -11.718  1.00  0.00     0.135 C 
HETATM   17  O1  UNL     1      -4.038  53.001 -12.716  1.00  0.00    -0.297 OA
HETATM   18  C24 UNL     1      -2.151  51.991 -11.557  1.00  0.00     0.018 C 
HETATM   19  C25 UNL     1      -2.672  50.617 -12.036  1.00  0.00     0.023 C 
HETATM   20  C26 UNL     1      -1.028  52.432 -12.507  1.00  0.00     0.023 C 
HETATM   21  C27 UNL     1      -1.754  51.931 -10.037  1.00  0.00     0.020 C 
HETATM   22  C28 UNL     1      -0.702  50.885  -9.671  1.00  0.00     0.090 C 
HETATM   23  C29 UNL     1       0.699  51.314 -10.009  1.00  0.00     0.157 C 
HETATM   24  O2  UNL     1       1.513  50.469 -10.374  1.00  0.00    -0.293 OA
ENDROOT
BRANCH   1  25
HETATM   25  C6  UNL     1       5.410  55.522  -8.749  1.00  0.00    -0.014 C 
HETATM   26  C7  UNL     1       6.713  54.999  -9.380  1.00  0.00     0.010 C 
BRANCH  25  27
HETATM   27  C5  UNL     1       5.729  56.175  -7.380  1.00  0.00     0.008 C 
BRANCH  27  28
HETATM   28  C4  UNL     1       6.576  55.325  -6.424  1.00  0.00     0.028 C 
BRANCH  28  29
HETATM   29  C3  UNL     1       7.977  55.866  -6.323  1.00  0.00    -0.013 C 
HETATM   30  C2  UNL     1       8.529  56.514  -5.276  1.00  0.00     0.008 C 
HETATM   31  C1  UNL     1       7.856  56.783  -3.962  1.00  0.00     0.055 C 
BRANCH  30  32
HETATM   32  C30 UNL     1       9.926  57.022  -5.345  1.00  0.00     0.171 C 
HETATM   33  O3  UNL     1      10.258  58.186  -5.204  1.00  0.00    -0.646 OA
BRANCH  32  34
HETATM   34  O4  UNL     1      10.845  56.072  -5.588  1.00  0.00    -0.773 OA
HETATM   35  H44 UNL     1      11.687  56.571  -5.601  1.00  0.00     0.167 HD
ENDBRANCH  32  34
ENDBRANCH  30  32
ENDBRANCH  28  29
ENDBRANCH  27  28
ENDBRANCH  25  27
ENDBRANCH   1  25
TORSDOF 6
ENDMDL
MODEL 3
REMARK minimizedAffinity -8.26860332
REMARK CNNscore 0.490292788
REMARK CNNaffinity 5.75136709
REMARK  6 active torsions:
REMARK  status: ('A' for Active; 'I' for Inactive)
REMARK    1  A    between atoms: C2_2  and  C30_32 
REMARK    2  A    between atoms: C3_3  and  C4_4 
REMARK    3  A    between atoms: C4_4  and  C5_5 
REMARK    4  A    between atoms: C5_5  and  C6_6 
REMARK    5  A    between atoms: C6_6  and  C8_8 
REMARK    6  A    between atoms: C30_32  and  O4_34 
ROOT
HETATM    1  C8  UNL     1       6.006  65.630 -36.928  1.00  0.00    -0.002 C 
HETATM    2  C9  UNL     1       6.947  66.173 -38.004  1.00  0.00     0.007 C 
HETATM    3  C10 UNL     1       5.992  66.739 -39.040  1.00  0.00     0.015 C 
HETATM    4  C11 UNL     1       4.973  67.567 -38.222  1.00  0.00    -0.005 C 
HETATM    5  C12 UNL     1       5.590  68.970 -37.957  1.00  0.00     0.021 C 
HETATM    6  C13 UNL     1       3.652  67.786 -38.993  1.00  0.00    -0.000 C 
HETATM    7  C14 UNL     1       2.423  67.516 -38.489  1.00  0.00    -0.060 C 
HETATM    8  C15 UNL     1       2.305  66.830 -37.143  1.00  0.00     0.036 C 
HETATM    9  C16 UNL     1       3.496  65.931 -36.861  1.00  0.00     0.015 C 
HETATM   10  C17 UNL     1       4.836  66.702 -36.869  1.00  0.00    -0.028 C 
HETATM   11  C18 UNL     1       4.887  67.592 -35.604  1.00  0.00     0.016 C 
HETATM   12  C19 UNL     1       1.086  67.845 -39.192  1.00  0.00    -0.014 C 
HETATM   13  C20 UNL     1       0.499  66.511 -39.732  1.00  0.00     0.020 C 
HETATM   14  C21 UNL     1       0.072  68.448 -38.173  1.00  0.00     0.021 C 
HETATM   15  C22 UNL     1      -0.945  69.370 -38.819  1.00  0.00     0.080 C 
HETATM   16  C23 UNL     1      -0.232  70.578 -39.380  1.00  0.00     0.135 C 
HETATM   17  O1  UNL     1      -0.746  71.695 -39.292  1.00  0.00    -0.297 OA
HETATM   18  C24 UNL     1       1.129  70.350 -40.066  1.00  0.00     0.018 C 
HETATM   19  C25 UNL     1       1.124  71.197 -41.358  1.00  0.00     0.023 C 
HETATM   20  C26 UNL     1       2.217  70.905 -39.136  1.00  0.00     0.023 C 
HETATM   21  C27 UNL     1       1.262  68.821 -40.410  1.00  0.00     0.020 C 
HETATM   22  C28 UNL     1       2.496  68.433 -41.222  1.00  0.00     0.090 C 
HETATM   23  C29 UNL     1       3.745  68.343 -40.390  1.00  0.00     0.157 C 
HETATM   24  O2  UNL     1       4.822  68.667 -40.886  1.00  0.00    -0.293 OA
ENDROOT
BRANCH   1  25
HETATM   25  C6  UNL     1       6.726  65.215 -35.613  1.00  0.00    -0.014 C 
HETATM   26  C7  UNL     1       6.506  66.242 -34.488  1.00  0.00     0.010 C 
BRANCH  25  27
HETATM   27  C5  UNL     1       8.245  64.953 -35.779  1.00  0.00     0.008 C 
BRANCH  27  28
HETATM   28  C4  UNL     1       8.679  63.487 -35.663  1.00  0.00     0.028 C 
BRANCH  28  29
HETATM   29  C3  UNL     1       9.085  63.156 -34.251  1.00  0.00    -0.013 C 
HETATM   30  C2  UNL     1      10.337  62.959 -33.787  1.00  0.00     0.008 C 
HETATM   31  C1  UNL     1      11.597  63.082 -34.592  1.00  0.00     0.055 C 
BRANCH  30  32
HETATM   32  C30 UNL     1      10.572  62.602 -32.361  1.00  0.00     0.171 C 
HETATM   33  O3  UNL     1       9.951  61.759 -31.737  1.00  0.00    -0.646 OA
BRANCH  32  34
HETATM   34  O4  UNL     1      11.557  63.302 -31.774  1.00  0.00    -0.773 OA
HETATM   35  H44 UNL     1      11.573  62.947 -30.862  1.00  0.00     0.167 HD
ENDBRANCH  32  34
ENDBRANCH  30  32
ENDBRANCH  28  29
ENDBRANCH  27  28
ENDBRANCH  25  27
ENDBRANCH   1  25
TORSDOF 6
ENDMDL
MODEL 4
REMARK minimizedAffinity -7.56868076
REMARK CNNscore 0.469452947
REMARK CNNaffinity 5.87820816
REMARK  6 active torsions:
REMARK  status: ('A' for Active; 'I' for Inactive)
REMARK    1  A    between atoms: C2_2  and  C30_32 
REMARK    2  A    between atoms: C3_3  and  C4_4 
REMARK    3  A    between atoms: C4_4  and  C5_5 
REMARK    4  A    between atoms: C5_5  and  C6_6 
REMARK    5  A    between atoms: C6_6  and  C8_8 
REMARK    6  A    between atoms: C30_32  and  O4_34 
ROOT
HETATM    1  C8  UNL     1     -11.272  45.759 -26.985  1.00  0.00    -0.002 C 
HETATM    2  C9  UNL     1     -11.416  44.404 -27.679  1.00  0.00     0.007 C 
HETATM    3  C10 UNL     1     -12.668  43.826 -27.044  1.00  0.00     0.015 C 
HETATM    4  C11 UNL     1     -13.696  44.980 -27.083  1.00  0.00    -0.005 C 
HETATM    5  C12 UNL     1     -14.360  44.992 -28.491  1.00  0.00     0.021 C 
HETATM    6  C13 UNL     1     -14.826  44.787 -26.047  1.00  0.00    -0.000 C 
HETATM    7  C14 UNL     1     -15.204  45.729 -25.148  1.00  0.00    -0.060 C 
HETATM    8  C15 UNL     1     -14.404  47.010 -25.033  1.00  0.00     0.036 C 
HETATM    9  C16 UNL     1     -12.945  46.801 -25.401  1.00  0.00     0.015 C 
HETATM   10  C17 UNL     1     -12.767  46.275 -26.844  1.00  0.00    -0.028 C 
HETATM   11  C18 UNL     1     -13.111  47.425 -27.820  1.00  0.00     0.016 C 
HETATM   12  C19 UNL     1     -16.411  45.603 -24.191  1.00  0.00    -0.014 C 
HETATM   13  C20 UNL     1     -15.853  45.328 -22.766  1.00  0.00     0.020 C 
HETATM   14  C21 UNL     1     -17.212  46.941 -24.152  1.00  0.00     0.021 C 
HETATM   15  C22 UNL     1     -18.679  46.747 -23.814  1.00  0.00     0.080 C 
HETATM   16  C23 UNL     1     -19.341  45.959 -24.920  1.00  0.00     0.135 C 
HETATM   17  O1  UNL     1     -20.482  46.246 -25.284  1.00  0.00    -0.297 OA
HETATM   18  C24 UNL     1     -18.546  44.796 -25.543  1.00  0.00     0.018 C 
HETATM   19  C25 UNL     1     -19.528  43.612 -25.689  1.00  0.00     0.023 C 
HETATM   20  C26 UNL     1     -18.112  45.231 -26.950  1.00  0.00     0.023 C 
HETATM   21  C27 UNL     1     -17.370  44.418 -24.569  1.00  0.00     0.020 C 
HETATM   22  C28 UNL     1     -16.556  43.188 -24.964  1.00  0.00     0.090 C 
HETATM   23  C29 UNL     1     -15.553  43.467 -26.049  1.00  0.00     0.157 C 
HETATM   24  O2  UNL     1     -15.304  42.592 -26.875  1.00  0.00    -0.293 OA
ENDROOT
BRANCH   1  25
HETATM   25  C6  UNL     1     -10.204  46.687 -27.630  1.00  0.00    -0.014 C 
HETATM   26  C7  UNL     1     -10.136  46.510 -29.158  1.00  0.00     0.010 C 
BRANCH  25  27
HETATM   27  C5  UNL     1      -8.782  46.528 -27.032  1.00  0.00     0.008 C 
BRANCH  27  28
HETATM   28  C4  UNL     1      -7.649  46.375 -28.054  1.00  0.00     0.028 C 
BRANCH  28  29
HETATM   29  C3  UNL     1      -6.480  47.254 -27.696  1.00  0.00    -0.013 C 
HETATM   30  C2  UNL     1      -5.528  47.724 -28.529  1.00  0.00     0.008 C 
HETATM   31  C1  UNL     1      -5.475  47.499 -30.011  1.00  0.00     0.055 C 
BRANCH  30  32
HETATM   32  C30 UNL     1      -4.410  48.559 -28.012  1.00  0.00     0.171 C 
HETATM   33  O3  UNL     1      -3.806  48.358 -26.972  1.00  0.00    -0.646 OA
BRANCH  32  34
HETATM   34  O4  UNL     1      -4.093  49.602 -28.797  1.00  0.00    -0.773 OA
HETATM   35  H44 UNL     1      -3.357  50.032 -28.316  1.00  0.00     0.167 HD
ENDBRANCH  32  34
ENDBRANCH  30  32
ENDBRANCH  28  29
ENDBRANCH  27  28
ENDBRANCH  25  27
ENDBRANCH   1  25
TORSDOF 6
ENDMDL
MODEL 5
REMARK minimizedAffinity -6.86603308
REMARK CNNscore 0.443149745
REMARK CNNaffinity 5.41155624
REMARK  6 active torsions:
REMARK  status: ('A' for Active; 'I' for Inactive)
REMARK    1  A    between atoms: C2_2  and  C30_32 
REMARK    2  A    between atoms: C3_3  and  C4_4 
REMARK    3  A    between atoms: C4_4  and  C5_5 
REMARK    4  A    between atoms: C5_5  and  C6_6 
REMARK    5  A    between atoms: C6_6  and  C8_8 
REMARK    6  A    between atoms: C30_32  and  O4_34 
ROOT
HETATM    1  C8  UNL     1     -13.347  42.684 -28.303  1.00  0.00    -0.002 C 
HETATM    2  C9  UNL     1     -12.507  41.428 -28.541  1.00  0.00     0.007 C 
HETATM    3  C10 UNL     1     -11.503  41.881 -29.585  1.00  0.00     0.015 C 
HETATM    4  C11 UNL     1     -10.979  43.239 -29.063  1.00  0.00    -0.005 C 
HETATM    5  C12 UNL     1      -9.849  42.959 -28.031  1.00  0.00     0.021 C 
HETATM    6  C13 UNL     1     -10.366  44.098 -30.191  1.00  0.00    -0.000 C 
HETATM    7  C14 UNL     1     -10.707  45.387 -30.438  1.00  0.00    -0.060 C 
HETATM    8  C15 UNL     1     -11.853  46.013 -29.670  1.00  0.00     0.036 C 
HETATM    9  C16 UNL     1     -12.887  44.980 -29.256  1.00  0.00     0.015 C 
HETATM   10  C17 UNL     1     -12.290  43.867 -28.365  1.00  0.00    -0.028 C 
HETATM   11  C18 UNL     1     -11.974  44.477 -26.979  1.00  0.00     0.016 C 
HETATM   12  C19 UNL     1     -10.018  46.301 -31.477  1.00  0.00    -0.014 C 
HETATM   13  C20 UNL     1     -10.980  46.441 -32.690  1.00  0.00     0.020 C 
HETATM   14  C21 UNL     1      -9.780  47.719 -30.875  1.00  0.00     0.021 C 
HETATM   15  C22 UNL     1      -8.596  48.438 -31.497  1.00  0.00     0.080 C 
HETATM   16  C23 UNL     1      -7.330  47.685 -31.164  1.00  0.00     0.135 C 
HETATM   17  O1  UNL     1      -6.298  48.301 -30.892  1.00  0.00    -0.297 OA
HETATM   18  C24 UNL     1      -7.385  46.146 -31.197  1.00  0.00     0.018 C 
HETATM   19  C25 UNL     1      -6.102  45.669 -31.914  1.00  0.00     0.023 C 
HETATM   20  C26 UNL     1      -7.331  45.648 -29.745  1.00  0.00     0.023 C 
HETATM   21  C27 UNL     1      -8.662  45.710 -32.005  1.00  0.00     0.020 C 
HETATM   22  C28 UNL     1      -8.803  44.210 -32.257  1.00  0.00     0.090 C 
HETATM   23  C29 UNL     1      -9.316  43.457 -31.061  1.00  0.00     0.157 C 
HETATM   24  O2  UNL     1      -8.915  42.313 -30.855  1.00  0.00    -0.293 OA
ENDROOT
BRANCH   1  25
HETATM   25  C6  UNL     1     -14.303  42.579 -27.080  1.00  0.00    -0.014 C 
HETATM   26  C7  UNL     1     -15.193  41.325 -27.151  1.00  0.00     0.010 C 
BRANCH  25  27
HETATM   27  C5  UNL     1     -15.193  43.830 -26.864  1.00  0.00     0.008 C 
BRANCH  27  28
HETATM   28  C4  UNL     1     -15.795  43.977 -25.461  1.00  0.00     0.028 C 
BRANCH  28  29
HETATM   29  C3  UNL     1     -17.124  44.683 -25.517  1.00  0.00    -0.013 C 
HETATM   30  C2  UNL     1     -17.400  45.937 -25.104  1.00  0.00     0.008 C 
HETATM   31  C1  UNL     1     -16.406  46.911 -24.543  1.00  0.00     0.055 C 
BRANCH  30  32
HETATM   32  C30 UNL     1     -18.782  46.481 -25.195  1.00  0.00     0.171 C 
HETATM   33  O3  UNL     1     -19.164  47.519 -24.682  1.00  0.00    -0.646 OA
BRANCH  32  34
HETATM   34  O4  UNL     1     -19.627  45.720 -25.910  1.00  0.00    -0.773 OA
HETATM   35  H44 UNL     1     -20.470  46.215 -25.866  1.00  0.00     0.167 HD
ENDBRANCH  32  34
ENDBRANCH  30  32
ENDBRANCH  28  29
ENDBRANCH  27  28
ENDBRANCH  25  27
ENDBRANCH   1  25
TORSDOF 6
ENDMDL
MODEL 6
REMARK minimizedAffinity -7.70734739
REMARK CNNscore 0.411500484
REMARK CNNaffinity 6.05330276
REMARK  6 active torsions:
REMARK  status: ('A' for Active; 'I' for Inactive)
REMARK    1  A    between atoms: C2_2  and  C30_32 
REMARK    2  A    between atoms: C3_3  and  C4_4 
REMARK    3  A    between atoms: C4_4  and  C5_5 
REMARK    4  A    between atoms: C5_5  and  C6_6 
REMARK    5  A    between atoms: C6_6  and  C8_8 
REMARK    6  A    between atoms: C30_32  and  O4_34 
ROOT
HETATM    1  C8  UNL     1     -11.409  46.065 -27.531  1.00  0.00    -0.002 C 
HETATM    2  C9  UNL     1     -10.559  45.047 -26.770  1.00  0.00     0.007 C 
HETATM    3  C10 UNL     1      -9.549  44.598 -27.810  1.00  0.00     0.015 C 
HETATM    4  C11 UNL     1      -9.037  45.910 -28.452  1.00  0.00    -0.005 C 
HETATM    5  C12 UNL     1      -7.914  46.488 -27.544  1.00  0.00     0.021 C 
HETATM    6  C13 UNL     1      -8.420  45.671 -29.848  1.00  0.00    -0.000 C 
HETATM    7  C14 UNL     1      -8.767  46.361 -30.962  1.00  0.00    -0.060 C 
HETATM    8  C15 UNL     1      -9.923  47.339 -30.901  1.00  0.00     0.036 C 
HETATM    9  C16 UNL     1     -10.955  46.930 -29.863  1.00  0.00     0.015 C 
HETATM   10  C17 UNL     1     -10.358  46.834 -28.440  1.00  0.00    -0.028 C 
HETATM   11  C18 UNL     1     -10.057  48.269 -27.946  1.00  0.00     0.016 C 
HETATM   12  C19 UNL     1      -8.075  46.227 -32.338  1.00  0.00    -0.014 C 
HETATM   13  C20 UNL     1      -9.028  45.422 -33.265  1.00  0.00     0.020 C 
HETATM   14  C21 UNL     1      -7.851  47.634 -32.970  1.00  0.00     0.021 C 
HETATM   15  C22 UNL     1      -6.667  47.678 -33.918  1.00  0.00     0.080 C 
HETATM   16  C23 UNL     1      -5.398  47.424 -33.138  1.00  0.00     0.135 C 
HETATM   17  O1  UNL     1      -4.373  48.053 -33.405  1.00  0.00    -0.297 OA
HETATM   18  C24 UNL     1      -5.443  46.354 -32.030  1.00  0.00     0.018 C 
HETATM   19  C25 UNL     1      -4.152  45.517 -32.167  1.00  0.00     0.023 C 
HETATM   20  C26 UNL     1      -5.399  47.082 -30.679  1.00  0.00     0.023 C 
HETATM   21  C27 UNL     1      -6.711  45.452 -32.261  1.00  0.00     0.020 C 
HETATM   22  C28 UNL     1      -6.841  44.247 -31.332  1.00  0.00     0.090 C 
HETATM   23  C29 UNL     1      -7.359  44.608 -29.967  1.00  0.00     0.157 C 
HETATM   24  O2  UNL     1      -6.953  43.987 -28.987  1.00  0.00    -0.293 OA
ENDROOT
BRANCH   1  25
HETATM   25  C6  UNL     1     -12.373  46.882 -26.625  1.00  0.00    -0.014 C 
HETATM   26  C7  UNL     1     -12.011  46.752 -25.134  1.00  0.00     0.010 C 
BRANCH  25  27
HETATM   27  C5  UNL     1     -13.872  46.537 -26.822  1.00  0.00     0.008 C 
BRANCH  27  28
HETATM   28  C4  UNL     1     -14.593  45.997 -25.581  1.00  0.00     0.028 C 
BRANCH  28  29
HETATM   29  C3  UNL     1     -16.087  46.089 -25.745  1.00  0.00    -0.013 C 
HETATM   30  C2  UNL     1     -17.007  46.252 -24.771  1.00  0.00     0.008 C 
HETATM   31  C1  UNL     1     -16.711  46.426 -23.310  1.00  0.00     0.055 C 
BRANCH  30  32
HETATM   32  C30 UNL     1     -18.459  46.289 -25.094  1.00  0.00     0.171 C 
HETATM   33  O3  UNL     1     -19.094  45.368 -25.579  1.00  0.00    -0.646 OA
BRANCH  32  34
HETATM   34  O4  UNL     1     -19.057  47.457 -24.808  1.00  0.00    -0.773 OA
HETATM   35  H44 UNL     1     -19.986  47.308 -25.079  1.00  0.00     0.167 HD
ENDBRANCH  32  34
ENDBRANCH  30  32
ENDBRANCH  28  29
ENDBRANCH  27  28
ENDBRANCH  25  27
ENDBRANCH   1  25
TORSDOF 6
ENDMDL
MODEL 7
REMARK minimizedAffinity -6.68827295
REMARK CNNscore 0.390703321
REMARK CNNaffinity 5.64650869
REMARK  6 active torsions:
REMARK  status: ('A' for Active; 'I' for Inactive)
REMARK    1  A    between atoms: C2_2  and  C30_32 
REMARK    2  A    between atoms: C3_3  and  C4_4 
REMARK    3  A    between atoms: C4_4  and  C5_5 
REMARK    4  A    between atoms: C5_5  and  C6_6 
REMARK    5  A    between atoms: C6_6  and  C8_8 
REMARK    6  A    between atoms: C30_32  and  O4_34 
ROOT
HETATM    1  C8  UNL     1     -12.891  45.346 -26.852  1.00  0.00    -0.002 C 
HETATM    2  C9  UNL     1     -11.895  45.655 -25.733  1.00  0.00     0.007 C 
HETATM    3  C10 UNL     1     -10.551  45.410 -26.394  1.00  0.00     0.015 C 
HETATM    4  C11 UNL     1     -10.644  46.141 -27.755  1.00  0.00    -0.005 C 
HETATM    5  C12 UNL     1     -10.309  47.643 -27.523  1.00  0.00     0.021 C 
HETATM    6  C13 UNL     1      -9.622  45.597 -28.778  1.00  0.00    -0.000 C 
HETATM    7  C14 UNL     1      -9.941  45.194 -30.032  1.00  0.00    -0.060 C 
HETATM    8  C15 UNL     1     -11.398  45.132 -30.445  1.00  0.00     0.036 C 
HETATM    9  C16 UNL     1     -12.309  44.851 -29.262  1.00  0.00     0.015 C 
HETATM   10  C17 UNL     1     -12.190  45.923 -28.155  1.00  0.00    -0.028 C 
HETATM   11  C18 UNL     1     -12.845  47.225 -28.674  1.00  0.00     0.016 C 
HETATM   12  C19 UNL     1      -8.920  44.767 -31.111  1.00  0.00    -0.014 C 
HETATM   13  C20 UNL     1      -8.994  43.220 -31.241  1.00  0.00     0.020 C 
HETATM   14  C21 UNL     1      -9.297  45.392 -32.489  1.00  0.00     0.021 C 
HETATM   15  C22 UNL     1      -8.098  45.594 -33.398  1.00  0.00     0.080 C 
HETATM   16  C23 UNL     1      -7.173  46.615 -32.778  1.00  0.00     0.135 C 
HETATM   17  O1  UNL     1      -6.605  47.446 -33.487  1.00  0.00    -0.297 OA
HETATM   18  C24 UNL     1      -6.967  46.557 -31.251  1.00  0.00     0.018 C 
HETATM   19  C25 UNL     1      -5.454  46.742 -30.999  1.00  0.00     0.023 C 
HETATM   20  C26 UNL     1      -7.703  47.757 -30.638  1.00  0.00     0.023 C 
HETATM   21  C27 UNL     1      -7.443  45.149 -30.738  1.00  0.00     0.020 C 
HETATM   22  C28 UNL     1      -7.183  44.863 -29.260  1.00  0.00     0.090 C 
HETATM   23  C29 UNL     1      -8.180  45.521 -28.347  1.00  0.00     0.157 C 
HETATM   24  O2  UNL     1      -7.811  45.926 -27.247  1.00  0.00    -0.293 OA
ENDROOT
BRANCH   1  25
HETATM   25  C6  UNL     1     -14.353  45.763 -26.525  1.00  0.00    -0.014 C 
HETATM   26  C7  UNL     1     -14.425  46.710 -25.314  1.00  0.00     0.010 C 
BRANCH  25  27
HETATM   27  C5  UNL     1     -15.317  44.569 -26.300  1.00  0.00     0.008 C 
BRANCH  27  28
HETATM   28  C4  UNL     1     -16.563  44.549 -27.194  1.00  0.00     0.028 C 
BRANCH  28  29
HETATM   29  C3  UNL     1     -17.641  45.438 -26.633  1.00  0.00    -0.013 C 
HETATM   30  C2  UNL     1     -18.274  45.306 -25.449  1.00  0.00     0.008 C 
HETATM   31  C1  UNL     1     -17.988  44.254 -24.418  1.00  0.00     0.055 C 
BRANCH  30  32
HETATM   32  C30 UNL     1     -19.350  46.254 -25.051  1.00  0.00     0.171 C 
HETATM   33  O3  UNL     1     -20.532  45.972 -24.948  1.00  0.00    -0.646 OA
BRANCH  32  34
HETATM   34  O4  UNL     1     -18.919  47.502 -24.802  1.00  0.00    -0.773 OA
HETATM   35  H44 UNL     1     -19.739  47.980 -24.562  1.00  0.00     0.167 HD
ENDBRANCH  32  34
ENDBRANCH  30  32
ENDBRANCH  28  29
ENDBRANCH  27  28
ENDBRANCH  25  27
ENDBRANCH   1  25
TORSDOF 6
ENDMDL
MODEL 8
REMARK minimizedAffinity -7.49639511
REMARK CNNscore 0.390271187
REMARK CNNaffinity 5.99686432
REMARK  6 active torsions:
REMARK  status: ('A' for Active; 'I' for Inactive)
REMARK    1  A    between atoms: C2_2  and  C30_32 
REMARK    2  A    between atoms: C3_3  and  C4_4 
REMARK    3  A    between atoms: C4_4  and  C5_5 
REMARK    4  A    between atoms: C5_5  and  C6_6 
REMARK    5  A    between atoms: C6_6  and  C8_8 
REMARK    6  A    between atoms: C30_32  and  O4_34 
ROOT
HETATM    1  C8  UNL     1      12.582  64.299 -13.436  1.00  0.00    -0.002 C 
HETATM    2  C9  UNL     1      12.740  64.481 -14.946  1.00  0.00     0.007 C 
HETATM    3  C10 UNL     1      11.305  64.519 -15.439  1.00  0.00     0.015 C 
HETATM    4  C11 UNL     1      10.586  65.494 -14.477  1.00  0.00    -0.005 C 
HETATM    5  C12 UNL     1      10.844  66.945 -14.975  1.00  0.00     0.021 C 
HETATM    6  C13 UNL     1       9.056  65.279 -14.468  1.00  0.00    -0.000 C 
HETATM    7  C14 UNL     1       8.318  65.104 -13.344  1.00  0.00    -0.060 C 
HETATM    8  C15 UNL     1       9.019  64.971 -12.008  1.00  0.00     0.036 C 
HETATM    9  C16 UNL     1      10.403  64.363 -12.153  1.00  0.00     0.015 C 
HETATM   10  C17 UNL     1      11.323  65.197 -13.074  1.00  0.00    -0.028 C 
HETATM   11  C18 UNL     1      11.697  66.500 -12.328  1.00  0.00     0.016 C 
HETATM   12  C19 UNL     1       6.776  65.014 -13.304  1.00  0.00    -0.014 C 
HETATM   13  C20 UNL     1       6.399  63.526 -13.062  1.00  0.00     0.020 C 
HETATM   14  C21 UNL     1       6.215  65.859 -12.120  1.00  0.00     0.021 C 
HETATM   15  C22 UNL     1       4.806  66.367 -12.365  1.00  0.00     0.080 C 
HETATM   16  C23 UNL     1       4.823  67.335 -13.525  1.00  0.00     0.135 C 
HETATM   17  O1  UNL     1       4.122  68.347 -13.495  1.00  0.00    -0.297 OA
HETATM   18  C24 UNL     1       5.727  66.993 -14.726  1.00  0.00     0.018 C 
HETATM   19  C25 UNL     1       4.902  67.284 -16.000  1.00  0.00     0.023 C 
HETATM   20  C26 UNL     1       6.920  67.960 -14.699  1.00  0.00     0.023 C 
HETATM   21  C27 UNL     1       6.102  65.468 -14.649  1.00  0.00     0.020 C 
HETATM   22  C28 UNL     1       6.885  64.921 -15.840  1.00  0.00     0.090 C 
HETATM   23  C29 UNL     1       8.347  65.272 -15.798  1.00  0.00     0.157 C 
HETATM   24  O2  UNL     1       8.944  65.484 -16.851  1.00  0.00    -0.293 OA
ENDROOT
BRANCH   1  25
HETATM   25  C6  UNL     1      13.904  64.483 -12.637  1.00  0.00    -0.014 C 
HETATM   26  C7  UNL     1      13.705  65.366 -11.392  1.00  0.00     0.010 C 
BRANCH  25  27
HETATM   27  C5  UNL     1      15.080  65.040 -13.480  1.00  0.00     0.008 C 
BRANCH  27  28
HETATM   28  C4  UNL     1      16.482  64.722 -12.947  1.00  0.00     0.028 C 
BRANCH  28  29
HETATM   29  C3  UNL     1      16.446  63.551 -12.002  1.00  0.00    -0.013 C 
HETATM   30  C2  UNL     1      17.184  63.379 -10.885  1.00  0.00     0.008 C 
HETATM   31  C1  UNL     1      18.170  64.364 -10.330  1.00  0.00     0.055 C 
BRANCH  30  32
HETATM   32  C30 UNL     1      17.056  62.140 -10.071  1.00  0.00     0.171 C 
HETATM   33  O3  UNL     1      17.724  61.875  -9.086  1.00  0.00    -0.646 OA
BRANCH  32  34
HETATM   34  O4  UNL     1      16.115  61.289 -10.511  1.00  0.00    -0.773 OA
HETATM   35  H44 UNL     1      16.167  60.547  -9.874  1.00  0.00     0.167 HD
ENDBRANCH  32  34
ENDBRANCH  30  32
ENDBRANCH  28  29
ENDBRANCH  27  28
ENDBRANCH  25  27
ENDBRANCH   1  25
TORSDOF 6
ENDMDL
MODEL 9
REMARK minimizedAffinity -7.07356262
REMARK CNNscore 0.385760427
REMARK CNNaffinity 6.46981096
REMARK  6 active torsions:
REMARK  status: ('A' for Active; 'I' for Inactive)
REMARK    1  A    between atoms: C2_2  and  C30_32 
REMARK    2  A    between atoms: C3_3  and  C4_4 
REMARK    3  A    between atoms: C4_4  and  C5_5 
REMARK    4  A    between atoms: C5_5  and  C6_6 
REMARK    5  A    between atoms: C6_6  and  C8_8 
REMARK    6  A    between atoms: C30_32  and  O4_34 
ROOT
HETATM    1  C8  UNL     1      -0.345  51.515  -9.808  1.00  0.00    -0.002 C 
HETATM    2  C9  UNL     1       0.688  50.391  -9.889  1.00  0.00     0.007 C 
HETATM    3  C10 UNL     1       2.003  51.141  -9.994  1.00  0.00     0.015 C 
HETATM    4  C11 UNL     1       1.925  52.225  -8.893  1.00  0.00    -0.005 C 
HETATM    5  C12 UNL     1       2.349  51.577  -7.543  1.00  0.00     0.021 C 
HETATM    6  C13 UNL     1       2.894  53.398  -9.162  1.00  0.00    -0.000 C 
HETATM    7  C14 UNL     1       2.528  54.703  -9.163  1.00  0.00    -0.060 C 
HETATM    8  C15 UNL     1       1.063  55.065  -9.031  1.00  0.00     0.036 C 
HETATM    9  C16 UNL     1       0.161  53.984  -9.602  1.00  0.00     0.015 C 
HETATM   10  C17 UNL     1       0.361  52.617  -8.909  1.00  0.00    -0.028 C 
HETATM   11  C18 UNL     1      -0.228  52.710  -7.481  1.00  0.00     0.016 C 
HETATM   12  C19 UNL     1       3.503  55.895  -9.304  1.00  0.00    -0.014 C 
HETATM   13  C20 UNL     1       3.339  56.467 -10.739  1.00  0.00     0.020 C 
HETATM   14  C21 UNL     1       3.136  57.016  -8.285  1.00  0.00     0.021 C 
HETATM   15  C22 UNL     1       4.326  57.868  -7.883  1.00  0.00     0.080 C 
HETATM   16  C23 UNL     1       5.319  57.010  -7.135  1.00  0.00     0.135 C 
HETATM   17  O1  UNL     1       5.920  57.466  -6.162  1.00  0.00    -0.297 OA
HETATM   18  C24 UNL     1       5.551  55.575  -7.648  1.00  0.00     0.018 C 
HETATM   19  C25 UNL     1       7.077  55.333  -7.619  1.00  0.00     0.023 C 
HETATM   20  C26 UNL     1       4.897  54.612  -6.647  1.00  0.00     0.023 C 
HETATM   21  C27 UNL     1       5.006  55.479  -9.120  1.00  0.00     0.020 C 
HETATM   22  C28 UNL     1       5.279  54.158  -9.839  1.00  0.00     0.090 C 
HETATM   23  C29 UNL     1       4.338  53.059  -9.430  1.00  0.00     0.157 C 
HETATM   24  O2  UNL     1       4.751  51.902  -9.384  1.00  0.00    -0.293 OA
ENDROOT
BRANCH   1  25
HETATM   25  C6  UNL     1      -1.775  51.030  -9.435  1.00  0.00    -0.014 C 
HETATM   26  C7  UNL     1      -1.966  49.529  -9.719  1.00  0.00     0.010 C 
BRANCH  25  27
HETATM   27  C5  UNL     1      -2.914  51.830 -10.118  1.00  0.00     0.008 C 
BRANCH  27  28
HETATM   28  C4  UNL     1      -3.859  51.009 -11.004  1.00  0.00     0.028 C 
BRANCH  28  29
HETATM   29  C3  UNL     1      -5.126  50.668 -10.267  1.00  0.00    -0.013 C 
HETATM   30  C2  UNL     1      -5.910  49.585 -10.448  1.00  0.00     0.008 C 
HETATM   31  C1  UNL     1      -5.640  48.462 -11.405  1.00  0.00     0.055 C 
BRANCH  30  32
HETATM   32  C30 UNL     1      -7.159  49.409  -9.659  1.00  0.00     0.171 C 
HETATM   33  O3  UNL     1      -7.431  48.431  -8.983  1.00  0.00    -0.646 OA
BRANCH  32  34
HETATM   34  O4  UNL     1      -8.013  50.442  -9.742  1.00  0.00    -0.773 OA
HETATM   35  H44 UNL     1      -8.762  50.163  -9.176  1.00  0.00     0.167 HD
ENDBRANCH  32  34
ENDBRANCH  30  32
ENDBRANCH  28  29
ENDBRANCH  27  28
ENDBRANCH  25  27
ENDBRANCH   1  25
TORSDOF 6
ENDMDL
