MODEL 1
REMARK minimizedAffinity -9.35678101
REMARK  4 active torsions:
REMARK  status: ('A' for Active; 'I' for Inactive)
REMARK    1  A    between atoms: C2_2  and  C3_3 
REMARK    2  A    between atoms: C2_2  and  C9_9 
REMARK    3  A    between atoms: C3_3  and  C4_4 
REMARK    4  A    between atoms: C4_4  and  C5_5 
ROOT
HETATM    1  C9  UNL     1      -1.175  48.875 -18.173  1.00  0.00     0.018 C 
HETATM    2  C10 UNL     1      -2.301  47.835 -18.401  1.00  0.00     0.010 C 
HETATM    3  C11 UNL     1      -2.923  48.154 -19.780  1.00  0.00     0.011 C 
HETATM    4  C12 UNL     1      -1.836  48.954 -20.535  1.00  0.00    -0.032 C 
HETATM    5  C13 UNL     1      -0.767  47.909 -21.000  1.00  0.00     0.016 C 
HETATM    6  C14 UNL     1      -1.329  49.839 -19.365  1.00  0.00     0.002 C 
HETATM    7  C15 UNL     1      -0.124  50.681 -19.753  1.00  0.00     0.006 C 
HETATM    8  C16 UNL     1      -0.469  51.581 -20.952  1.00  0.00     0.006 C 
HETATM    9  C17 UNL     1      -1.060  50.796 -22.158  1.00  0.00     0.003 C 
HETATM   10  C18 UNL     1      -1.198  51.642 -23.496  1.00  0.00    -0.035 C 
HETATM   11  C19 UNL     1      -2.063  52.908 -23.311  1.00  0.00     0.016 C 
HETATM   12  C20 UNL     1       0.234  52.141 -23.907  1.00  0.00     0.017 C 
HETATM   13  C21 UNL     1       0.504  52.229 -25.405  1.00  0.00     0.080 C 
HETATM   14  C22 UNL     1      -0.756  52.441 -26.205  1.00  0.00     0.135 C 
HETATM   15  O1  UNL     1      -0.845  53.380 -26.996  1.00  0.00    -0.297 OA
HETATM   16  C23 UNL     1      -1.857  51.386 -26.049  1.00  0.00     0.017 C 
HETATM   17  C24 UNL     1      -1.622  50.340 -27.160  1.00  0.00     0.023 C 
HETATM   18  C25 UNL     1      -3.227  52.040 -26.317  1.00  0.00     0.023 C 
HETATM   19  C26 UNL     1      -1.731  50.701 -24.640  1.00  0.00     0.009 C 
HETATM   20  C27 UNL     1      -2.993  49.921 -24.226  1.00  0.00     0.007 C 
HETATM   21  C28 UNL     1      -2.761  49.080 -22.968  1.00  0.00     0.011 C 
HETATM   22  C29 UNL     1      -2.304  49.906 -21.739  1.00  0.00    -0.032 C 
HETATM   23  C30 UNL     1      -3.517  50.777 -21.299  1.00  0.00     0.016 C 
ENDROOT
BRANCH   1  24
HETATM   24  C2  UNL     1      -1.168  49.532 -16.792  1.00  0.00    -0.084 C 
HETATM   25  C1  UNL     1      -2.343  49.764 -16.176  1.00  0.00     0.014 C 
BRANCH  24  26
HETATM   26  C3  UNL     1       0.185  49.903 -16.192  1.00  0.00     0.037 C 
BRANCH  26  27
HETATM   27  C4  UNL     1       0.400  51.330 -15.644  1.00  0.00     0.031 C 
BRANCH  27  28
HETATM   28  C5  UNL     1       1.678  51.972 -16.124  1.00  0.00    -0.024 C 
HETATM   29  C6  UNL     1       2.884  51.946 -15.524  1.00  0.00    -0.091 C 
HETATM   30  C7  UNL     1       4.067  52.636 -16.154  1.00  0.00     0.042 C 
HETATM   31  C8  UNL     1       3.190  51.274 -14.214  1.00  0.00     0.042 C 
ENDBRANCH  27  28
ENDBRANCH  26  27
ENDBRANCH  24  26
ENDBRANCH   1  24
TORSDOF 4
ENDMDL
MODEL 2
REMARK minimizedAffinity -9.27766132
REMARK  4 active torsions:
REMARK  status: ('A' for Active; 'I' for Inactive)
REMARK    1  A    between atoms: C2_2  and  C3_3 
REMARK    2  A    between atoms: C2_2  and  C9_9 
REMARK    3  A    between atoms: C3_3  and  C4_4 
REMARK    4  A    between atoms: C4_4  and  C5_5 
ROOT
HETATM    1  C9  UNL     1      -4.588  49.060 -25.042  1.00  0.00     0.018 C 
HETATM    2  C10 UNL     1      -5.669  48.094 -24.494  1.00  0.00     0.010 C 
HETATM    3  C11 UNL     1      -5.295  47.803 -23.024  1.00  0.00     0.011 C 
HETATM    4  C12 UNL     1      -4.393  48.985 -22.597  1.00  0.00    -0.032 C 
HETATM    5  C13 UNL     1      -5.349  50.200 -22.357  1.00  0.00     0.016 C 
HETATM    6  C14 UNL     1      -3.559  49.135 -23.898  1.00  0.00     0.002 C 
HETATM    7  C15 UNL     1      -2.633  50.341 -23.858  1.00  0.00     0.006 C 
HETATM    8  C16 UNL     1      -1.678  50.236 -22.657  1.00  0.00     0.006 C 
HETATM    9  C17 UNL     1      -2.413  50.007 -21.307  1.00  0.00     0.003 C 
HETATM   10  C18 UNL     1      -1.491  50.140 -20.019  1.00  0.00    -0.035 C 
HETATM   11  C19 UNL     1      -0.286  49.174 -20.050  1.00  0.00     0.016 C 
HETATM   12  C20 UNL     1      -0.894  51.592 -19.996  1.00  0.00     0.017 C 
HETATM   13  C21 UNL     1      -0.696  52.209 -18.616  1.00  0.00     0.080 C 
HETATM   14  C22 UNL     1      -0.499  51.169 -17.543  1.00  0.00     0.135 C 
HETATM   15  O1  UNL     1       0.483  51.211 -16.802  1.00  0.00    -0.297 OA
HETATM   16  C23 UNL     1      -1.617  50.133 -17.373  1.00  0.00     0.017 C 
HETATM   17  C24 UNL     1      -2.576  50.698 -16.303  1.00  0.00     0.023 C 
HETATM   18  C25 UNL     1      -1.019  48.829 -16.811  1.00  0.00     0.023 C 
HETATM   19  C26 UNL     1      -2.384  49.961 -18.734  1.00  0.00     0.009 C 
HETATM   20  C27 UNL     1      -3.253  48.690 -18.787  1.00  0.00     0.007 C 
HETATM   21  C28 UNL     1      -4.159  48.667 -20.021  1.00  0.00     0.011 C 
HETATM   22  C29 UNL     1      -3.391  48.759 -21.364  1.00  0.00    -0.032 C 
HETATM   23  C30 UNL     1      -2.614  47.421 -21.537  1.00  0.00     0.016 C 
ENDROOT
BRANCH   1  24
HETATM   24  C2  UNL     1      -4.022  48.692 -26.414  1.00  0.00    -0.084 C 
HETATM   25  C1  UNL     1      -4.867  48.272 -27.375  1.00  0.00     0.014 C 
BRANCH  24  26
HETATM   26  C3  UNL     1      -2.514  48.808 -26.612  1.00  0.00     0.037 C 
BRANCH  26  27
HETATM   27  C4  UNL     1      -1.919  50.149 -27.093  1.00  0.00     0.031 C 
BRANCH  27  28
HETATM   28  C5  UNL     1      -0.543  50.428 -26.541  1.00  0.00    -0.024 C 
HETATM   29  C6  UNL     1       0.395  51.248 -27.053  1.00  0.00    -0.091 C 
HETATM   30  C7  UNL     1       1.722  51.422 -26.359  1.00  0.00     0.042 C 
HETATM   31  C8  UNL     1       0.254  52.047 -28.320  1.00  0.00     0.042 C 
ENDBRANCH  27  28
ENDBRANCH  26  27
ENDBRANCH  24  26
ENDBRANCH   1  24
TORSDOF 4
ENDMDL
MODEL 3
REMARK minimizedAffinity -9.19057751
REMARK  4 active torsions:
REMARK  status: ('A' for Active; 'I' for Inactive)
REMARK    1  A    between atoms: C2_2  and  C3_3 
REMARK    2  A    between atoms: C2_2  and  C9_9 
REMARK    3  A    between atoms: C3_3  and  C4_4 
REMARK    4  A    between atoms: C4_4  and  C5_5 
ROOT
HETATM    1  C9  UNL     1      -0.760  50.308 -21.853  1.00  0.00     0.018 C 
HETATM    2  C10 UNL     1      -0.705  49.698 -20.429  1.00  0.00     0.010 C 
HETATM    3  C11 UNL     1      -2.090  49.066 -20.167  1.00  0.00     0.011 C 
HETATM    4  C12 UNL     1      -2.693  48.823 -21.571  1.00  0.00    -0.032 C 
HETATM    5  C13 UNL     1      -1.968  47.561 -22.146  1.00  0.00     0.016 C 
HETATM    6  C14 UNL     1      -2.235  50.136 -22.262  1.00  0.00     0.002 C 
HETATM    7  C15 UNL     1      -2.565  50.156 -23.746  1.00  0.00     0.006 C 
HETATM    8  C16 UNL     1      -4.078  49.978 -23.956  1.00  0.00     0.006 C 
HETATM    9  C17 UNL     1      -4.654  48.726 -23.237  1.00  0.00     0.003 C 
HETATM   10  C18 UNL     1      -6.152  48.368 -23.628  1.00  0.00    -0.035 C 
HETATM   11  C19 UNL     1      -7.130  49.534 -23.361  1.00  0.00     0.016 C 
HETATM   12  C20 UNL     1      -6.200  48.094 -25.173  1.00  0.00     0.017 C 
HETATM   13  C21 UNL     1      -7.189  47.027 -25.630  1.00  0.00     0.080 C 
HETATM   14  C22 UNL     1      -8.350  46.874 -24.681  1.00  0.00     0.135 C 
HETATM   15  O1  UNL     1      -9.509  46.957 -25.090  1.00  0.00    -0.297 OA
HETATM   16  C23 UNL     1      -8.012  46.524 -23.228  1.00  0.00     0.017 C 
HETATM   17  C24 UNL     1      -8.049  44.983 -23.130  1.00  0.00     0.023 C 
HETATM   18  C25 UNL     1      -9.118  47.069 -22.304  1.00  0.00     0.023 C 
HETATM   19  C26 UNL     1      -6.567  47.042 -22.886  1.00  0.00     0.009 C 
HETATM   20  C27 UNL     1      -6.280  47.093 -21.373  1.00  0.00     0.007 C 
HETATM   21  C28 UNL     1      -4.805  47.378 -21.079  1.00  0.00     0.011 C 
HETATM   22  C29 UNL     1      -4.288  48.704 -21.693  1.00  0.00    -0.032 C 
HETATM   23  C30 UNL     1      -4.979  49.864 -20.918  1.00  0.00     0.016 C 
ENDROOT
BRANCH   1  24
HETATM   24  C2  UNL     1      -0.205  51.727 -21.974  1.00  0.00    -0.084 C 
HETATM   25  C1  UNL     1       0.410  52.278 -20.909  1.00  0.00     0.014 C 
BRANCH  24  26
HETATM   26  C3  UNL     1      -0.393  52.451 -23.304  1.00  0.00     0.037 C 
BRANCH  26  27
HETATM   27  C4  UNL     1       0.792  52.541 -24.288  1.00  0.00     0.031 C 
BRANCH  27  28
HETATM   28  C5  UNL     1       0.386  52.398 -25.733  1.00  0.00    -0.024 C 
HETATM   29  C6  UNL     1       1.132  51.930 -26.752  1.00  0.00    -0.091 C 
HETATM   30  C7  UNL     1       0.559  51.843 -28.144  1.00  0.00     0.042 C 
HETATM   31  C8  UNL     1       2.559  51.468 -26.645  1.00  0.00     0.042 C 
ENDBRANCH  27  28
ENDBRANCH  26  27
ENDBRANCH  24  26
ENDBRANCH   1  24
TORSDOF 4
ENDMDL
MODEL 4
REMARK minimizedAffinity -9.18131447
REMARK  4 active torsions:
REMARK  status: ('A' for Active; 'I' for Inactive)
REMARK    1  A    between atoms: C2_2  and  C3_3 
REMARK    2  A    between atoms: C2_2  and  C9_9 
REMARK    3  A    between atoms: C3_3  and  C4_4 
REMARK    4  A    between atoms: C4_4  and  C5_5 
ROOT
HETATM    1  C9  UNL     1      -0.709  51.452 -23.130  1.00  0.00     0.018 C 
HETATM    2  C10 UNL     1       0.042  52.804 -23.233  1.00  0.00     0.010 C 
HETATM    3  C11 UNL     1       0.362  53.241 -21.787  1.00  0.00     0.011 C 
HETATM    4  C12 UNL     1       0.311  51.939 -20.953  1.00  0.00    -0.032 C 
HETATM    5  C13 UNL     1       1.640  51.171 -21.262  1.00  0.00     0.016 C 
HETATM    6  C14 UNL     1      -0.925  51.275 -21.615  1.00  0.00     0.002 C 
HETATM    7  C15 UNL     1      -1.176  49.867 -21.096  1.00  0.00     0.006 C 
HETATM    8  C16 UNL     1      -1.373  49.891 -19.571  1.00  0.00     0.006 C 
HETATM    9  C17 UNL     1      -0.219  50.607 -18.814  1.00  0.00     0.003 C 
HETATM   10  C18 UNL     1      -0.258  50.439 -17.235  1.00  0.00    -0.035 C 
HETATM   11  C19 UNL     1      -1.583  50.938 -16.617  1.00  0.00     0.016 C 
HETATM   12  C20 UNL     1      -0.165  48.906 -16.906  1.00  0.00     0.017 C 
HETATM   13  C21 UNL     1       0.592  48.542 -15.633  1.00  0.00     0.080 C 
HETATM   14  C22 UNL     1       0.572  49.653 -14.614  1.00  0.00     0.135 C 
HETATM   15  O1  UNL     1       0.182  49.442 -13.465  1.00  0.00    -0.297 OA
HETATM   16  C23 UNL     1       1.140  51.006 -15.057  1.00  0.00     0.017 C 
HETATM   17  C24 UNL     1       2.632  51.004 -14.660  1.00  0.00     0.023 C 
HETATM   18  C25 UNL     1       0.454  52.130 -14.257  1.00  0.00     0.023 C 
HETATM   19  C26 UNL     1       1.006  51.145 -16.617  1.00  0.00     0.009 C 
HETATM   20  C27 UNL     1       1.181  52.592 -17.116  1.00  0.00     0.007 C 
HETATM   21  C28 UNL     1       1.275  52.665 -18.643  1.00  0.00     0.011 C 
HETATM   22  C29 UNL     1       0.048  52.067 -19.375  1.00  0.00    -0.032 C 
HETATM   23  C30 UNL     1      -1.153  53.020 -19.103  1.00  0.00     0.016 C 
ENDROOT
BRANCH   1  24
HETATM   24  C2  UNL     1      -1.967  51.341 -23.992  1.00  0.00    -0.084 C 
HETATM   25  C1  UNL     1      -3.007  52.158 -23.734  1.00  0.00     0.014 C 
BRANCH  24  26
HETATM   26  C3  UNL     1      -1.979  50.289 -25.097  1.00  0.00     0.037 C 
BRANCH  26  27
HETATM   27  C4  UNL     1      -1.272  50.593 -26.434  1.00  0.00     0.031 C 
BRANCH  27  28
HETATM   28  C5  UNL     1       0.224  50.737 -26.305  1.00  0.00    -0.024 C 
HETATM   29  C6  UNL     1       1.049  51.461 -27.086  1.00  0.00    -0.091 C 
HETATM   30  C7  UNL     1       2.529  51.504 -26.804  1.00  0.00     0.042 C 
HETATM   31  C8  UNL     1       0.627  52.269 -28.282  1.00  0.00     0.042 C 
ENDBRANCH  27  28
ENDBRANCH  26  27
ENDBRANCH  24  26
ENDBRANCH   1  24
TORSDOF 4
ENDMDL
MODEL 5
REMARK minimizedAffinity -9.01446724
REMARK  4 active torsions:
REMARK  status: ('A' for Active; 'I' for Inactive)
REMARK    1  A    between atoms: C2_2  and  C3_3 
REMARK    2  A    between atoms: C2_2  and  C9_9 
REMARK    3  A    between atoms: C3_3  and  C4_4 
REMARK    4  A    between atoms: C4_4  and  C5_5 
ROOT
HETATM    1  C9  UNL     1      -3.720  47.843 -19.571  1.00  0.00     0.018 C 
HETATM    2  C10 UNL     1      -4.401  46.793 -20.485  1.00  0.00     0.010 C 
HETATM    3  C11 UNL     1      -4.297  47.333 -21.929  1.00  0.00     0.011 C 
HETATM    4  C12 UNL     1      -3.122  48.339 -21.898  1.00  0.00    -0.032 C 
HETATM    5  C13 UNL     1      -1.813  47.482 -21.877  1.00  0.00     0.016 C 
HETATM    6  C14 UNL     1      -3.413  49.010 -20.529  1.00  0.00     0.002 C 
HETATM    7  C15 UNL     1      -2.326  49.992 -20.121  1.00  0.00     0.006 C 
HETATM    8  C16 UNL     1      -2.169  51.084 -21.193  1.00  0.00     0.006 C 
HETATM    9  C17 UNL     1      -1.948  50.513 -22.623  1.00  0.00     0.003 C 
HETATM   10  C18 UNL     1      -1.536  51.594 -23.712  1.00  0.00    -0.035 C 
HETATM   11  C19 UNL     1      -2.569  52.736 -23.834  1.00  0.00     0.016 C 
HETATM   12  C20 UNL     1      -0.191  52.260 -23.252  1.00  0.00     0.017 C 
HETATM   13  C21 UNL     1       0.770  52.660 -24.367  1.00  0.00     0.080 C 
HETATM   14  C22 UNL     1       0.060  52.938 -25.667  1.00  0.00     0.135 C 
HETATM   15  O1  UNL     1       0.227  54.006 -26.256  1.00  0.00    -0.297 OA
HETATM   16  C23 UNL     1      -0.789  51.800 -26.245  1.00  0.00     0.017 C 
HETATM   17  C24 UNL     1       0.131  51.011 -27.202  1.00  0.00     0.023 C 
HETATM   18  C25 UNL     1      -1.928  52.398 -27.093  1.00  0.00     0.023 C 
HETATM   19  C26 UNL     1      -1.272  50.862 -25.080  1.00  0.00     0.009 C 
HETATM   20  C27 UNL     1      -2.430  49.930 -25.488  1.00  0.00     0.007 C 
HETATM   21  C28 UNL     1      -2.723  48.877 -24.417  1.00  0.00     0.011 C 
HETATM   22  C29 UNL     1      -3.076  49.474 -23.031  1.00  0.00    -0.032 C 
HETATM   23  C30 UNL     1      -4.468  50.157 -23.171  1.00  0.00     0.016 C 
ENDROOT
BRANCH   1  24
HETATM   24  C2  UNL     1      -4.505  48.214 -18.312  1.00  0.00    -0.084 C 
HETATM   25  C1  UNL     1      -5.847  48.306 -18.385  1.00  0.00     0.014 C 
BRANCH  24  26
HETATM   26  C3  UNL     1      -3.713  48.477 -17.035  1.00  0.00     0.037 C 
BRANCH  26  27
HETATM   27  C4  UNL     1      -2.224  48.075 -16.975  1.00  0.00     0.031 C 
BRANCH  27  28
HETATM   28  C5  UNL     1      -1.280  49.249 -17.061  1.00  0.00    -0.024 C 
HETATM   29  C6  UNL     1      -0.086  49.387 -16.454  1.00  0.00    -0.091 C 
HETATM   30  C7  UNL     1       0.740  50.631 -16.662  1.00  0.00     0.042 C 
HETATM   31  C8  UNL     1       0.542  48.379 -15.531  1.00  0.00     0.042 C 
ENDBRANCH  27  28
ENDBRANCH  26  27
ENDBRANCH  24  26
ENDBRANCH   1  24
TORSDOF 4
ENDMDL
MODEL 6
REMARK minimizedAffinity -8.98498821
REMARK  4 active torsions:
REMARK  status: ('A' for Active; 'I' for Inactive)
REMARK    1  A    between atoms: C2_2  and  C3_3 
REMARK    2  A    between atoms: C2_2  and  C9_9 
REMARK    3  A    between atoms: C3_3  and  C4_4 
REMARK    4  A    between atoms: C4_4  and  C5_5 
ROOT
HETATM    1  C9  UNL     1      -0.335  51.082 -21.112  1.00  0.00     0.018 C 
HETATM    2  C10 UNL     1      -0.270  50.429 -19.708  1.00  0.00     0.010 C 
HETATM    3  C11 UNL     1      -1.631  49.731 -19.485  1.00  0.00     0.011 C 
HETATM    4  C12 UNL     1      -2.207  49.511 -20.903  1.00  0.00    -0.032 C 
HETATM    5  C13 UNL     1      -1.423  48.299 -21.510  1.00  0.00     0.016 C 
HETATM    6  C14 UNL     1      -1.797  50.863 -21.544  1.00  0.00     0.002 C 
HETATM    7  C15 UNL     1      -2.111  50.919 -23.032  1.00  0.00     0.006 C 
HETATM    8  C16 UNL     1      -3.613  50.685 -23.266  1.00  0.00     0.006 C 
HETATM    9  C17 UNL     1      -4.144  49.387 -22.595  1.00  0.00     0.003 C 
HETATM   10  C18 UNL     1      -5.621  48.980 -23.015  1.00  0.00    -0.035 C 
HETATM   11  C19 UNL     1      -6.650  50.095 -22.723  1.00  0.00     0.016 C 
HETATM   12  C20 UNL     1      -5.641  48.756 -24.570  1.00  0.00     0.017 C 
HETATM   13  C21 UNL     1      -6.579  47.664 -25.073  1.00  0.00     0.080 C 
HETATM   14  C22 UNL     1      -7.744  47.432 -24.144  1.00  0.00     0.135 C 
HETATM   15  O1  UNL     1      -8.900  47.480 -24.565  1.00  0.00    -0.297 OA
HETATM   16  C23 UNL     1      -7.406  47.048 -22.699  1.00  0.00     0.017 C 
HETATM   17  C24 UNL     1      -7.380  45.505 -22.651  1.00  0.00     0.023 C 
HETATM   18  C25 UNL     1      -8.544  47.517 -21.771  1.00  0.00     0.023 C 
HETATM   19  C26 UNL     1      -5.989  47.615 -22.323  1.00  0.00     0.009 C 
HETATM   20  C27 UNL     1      -5.721  47.627 -20.806  1.00  0.00     0.007 C 
HETATM   21  C28 UNL     1      -4.262  47.963 -20.484  1.00  0.00     0.011 C 
HETATM   22  C29 UNL     1      -3.795  49.329 -21.049  1.00  0.00    -0.032 C 
HETATM   23  C30 UNL     1      -4.542  50.433 -20.244  1.00  0.00     0.016 C 
ENDROOT
BRANCH   1  24
HETATM   24  C2  UNL     1       0.162  52.527 -21.180  1.00  0.00    -0.084 C 
HETATM   25  C1  UNL     1      -0.069  53.344 -20.134  1.00  0.00     0.014 C 
BRANCH  24  26
HETATM   26  C3  UNL     1       0.886  52.968 -22.448  1.00  0.00     0.037 C 
BRANCH  26  27
HETATM   27  C4  UNL     1       0.223  52.724 -23.820  1.00  0.00     0.031 C 
BRANCH  27  28
HETATM   28  C5  UNL     1       1.213  52.530 -24.941  1.00  0.00    -0.024 C 
HETATM   29  C6  UNL     1       1.091  51.722 -26.012  1.00  0.00    -0.091 C 
HETATM   30  C7  UNL     1       2.181  51.660 -27.052  1.00  0.00     0.042 C 
HETATM   31  C8  UNL     1      -0.077  50.817 -26.290  1.00  0.00     0.042 C 
ENDBRANCH  27  28
ENDBRANCH  26  27
ENDBRANCH  24  26
ENDBRANCH   1  24
TORSDOF 4
ENDMDL
MODEL 7
REMARK minimizedAffinity -8.96142483
REMARK  4 active torsions:
REMARK  status: ('A' for Active; 'I' for Inactive)
REMARK    1  A    between atoms: C2_2  and  C3_3 
REMARK    2  A    between atoms: C2_2  and  C9_9 
REMARK    3  A    between atoms: C3_3  and  C4_4 
REMARK    4  A    between atoms: C4_4  and  C5_5 
ROOT
HETATM    1  C9  UNL     1      -0.270  50.515 -20.534  1.00  0.00     0.018 C 
HETATM    2  C10 UNL     1      -0.578  49.833 -19.177  1.00  0.00     0.010 C 
HETATM    3  C11 UNL     1      -2.021  49.289 -19.275  1.00  0.00     0.011 C 
HETATM    4  C12 UNL     1      -2.300  49.160 -20.791  1.00  0.00    -0.032 C 
HETATM    5  C13 UNL     1      -1.536  47.879 -21.268  1.00  0.00     0.016 C 
HETATM    6  C14 UNL     1      -1.620  50.469 -21.275  1.00  0.00     0.002 C 
HETATM    7  C15 UNL     1      -1.599  50.586 -22.791  1.00  0.00     0.006 C 
HETATM    8  C16 UNL     1      -3.032  50.527 -23.347  1.00  0.00     0.006 C 
HETATM    9  C17 UNL     1      -3.830  49.285 -22.858  1.00  0.00     0.003 C 
HETATM   10  C18 UNL     1      -5.217  49.055 -23.598  1.00  0.00    -0.035 C 
HETATM   11  C19 UNL     1      -6.160  50.273 -23.484  1.00  0.00     0.016 C 
HETATM   12  C20 UNL     1      -4.926  48.862 -25.129  1.00  0.00     0.017 C 
HETATM   13  C21 UNL     1      -5.844  47.892 -25.865  1.00  0.00     0.080 C 
HETATM   14  C22 UNL     1      -7.199  47.776 -25.213  1.00  0.00     0.135 C 
HETATM   15  O1  UNL     1      -8.226  47.961 -25.866  1.00  0.00    -0.297 OA
HETATM   16  C23 UNL     1      -7.223  47.330 -23.746  1.00  0.00     0.017 C 
HETATM   17  C24 UNL     1      -7.371  45.794 -23.759  1.00  0.00     0.023 C 
HETATM   18  C25 UNL     1      -8.477  47.907 -23.062  1.00  0.00     0.023 C 
HETATM   19  C26 UNL     1      -5.867  47.727 -23.056  1.00  0.00     0.009 C 
HETATM   20  C27 UNL     1      -5.931  47.682 -21.517  1.00  0.00     0.007 C 
HETATM   21  C28 UNL     1      -4.549  47.847 -20.881  1.00  0.00     0.011 C 
HETATM   22  C29 UNL     1      -3.829  49.161 -21.277  1.00  0.00    -0.032 C 
HETATM   23  C30 UNL     1      -4.610  50.327 -20.604  1.00  0.00     0.016 C 
ENDROOT
BRANCH   1  24
HETATM   24  C2  UNL     1       0.380  51.895 -20.435  1.00  0.00    -0.084 C 
HETATM   25  C1  UNL     1       1.180  52.311 -21.435  1.00  0.00     0.014 C 
BRANCH  24  26
HETATM   26  C3  UNL     1       0.092  52.726 -19.188  1.00  0.00     0.037 C 
BRANCH  26  27
HETATM   27  C4  UNL     1       0.547  52.200 -17.810  1.00  0.00     0.031 C 
BRANCH  27  28
HETATM   28  C5  UNL     1       1.964  52.579 -17.460  1.00  0.00    -0.024 C 
HETATM   29  C6  UNL     1       2.627  52.306 -16.319  1.00  0.00    -0.091 C 
HETATM   30  C7  UNL     1       4.056  52.752 -16.139  1.00  0.00     0.042 C 
HETATM   31  C8  UNL     1       2.058  51.572 -15.136  1.00  0.00     0.042 C 
ENDBRANCH  27  28
ENDBRANCH  26  27
ENDBRANCH  24  26
ENDBRANCH   1  24
TORSDOF 4
ENDMDL
MODEL 8
REMARK minimizedAffinity -8.86532021
REMARK  4 active torsions:
REMARK  status: ('A' for Active; 'I' for Inactive)
REMARK    1  A    between atoms: C2_2  and  C3_3 
REMARK    2  A    between atoms: C2_2  and  C9_9 
REMARK    3  A    between atoms: C3_3  and  C4_4 
REMARK    4  A    between atoms: C4_4  and  C5_5 
ROOT
HETATM    1  C9  UNL     1      -3.933  47.834 -19.765  1.00  0.00     0.018 C 
HETATM    2  C10 UNL     1      -4.595  46.808 -20.720  1.00  0.00     0.010 C 
HETATM    3  C11 UNL     1      -4.427  47.366 -22.151  1.00  0.00     0.011 C 
HETATM    4  C12 UNL     1      -3.237  48.351 -22.061  1.00  0.00    -0.032 C 
HETATM    5  C13 UNL     1      -1.945  47.470 -22.002  1.00  0.00     0.016 C 
HETATM    6  C14 UNL     1      -3.570  49.008 -20.694  1.00  0.00     0.002 C 
HETATM    7  C15 UNL     1      -2.483  49.965 -20.231  1.00  0.00     0.006 C 
HETATM    8  C16 UNL     1      -2.266  51.069 -21.281  1.00  0.00     0.006 C 
HETATM    9  C17 UNL     1      -2.000  50.514 -22.709  1.00  0.00     0.003 C 
HETATM   10  C18 UNL     1      -1.528  51.602 -23.766  1.00  0.00    -0.035 C 
HETATM   11  C19 UNL     1      -2.536  52.764 -23.911  1.00  0.00     0.016 C 
HETATM   12  C20 UNL     1      -0.190  52.239 -23.245  1.00  0.00     0.017 C 
HETATM   13  C21 UNL     1       0.819  52.637 -24.316  1.00  0.00     0.080 C 
HETATM   14  C22 UNL     1       0.164  52.944 -25.639  1.00  0.00     0.135 C 
HETATM   15  O1  UNL     1       0.372  54.017 -26.206  1.00  0.00    -0.297 OA
HETATM   16  C23 UNL     1      -0.681  51.829 -26.266  1.00  0.00     0.017 C 
HETATM   17  C24 UNL     1       0.262  51.038 -27.198  1.00  0.00     0.023 C 
HETATM   18  C25 UNL     1      -1.776  52.459 -27.148  1.00  0.00     0.023 C 
HETATM   19  C26 UNL     1      -1.224  50.884 -25.133  1.00  0.00     0.009 C 
HETATM   20  C27 UNL     1      -2.380  49.978 -25.599  1.00  0.00     0.007 C 
HETATM   21  C28 UNL     1      -2.733  48.916 -24.554  1.00  0.00     0.011 C 
HETATM   22  C29 UNL     1      -3.128  49.500 -23.175  1.00  0.00    -0.032 C 
HETATM   23  C30 UNL     1      -4.502  50.209 -23.358  1.00  0.00     0.016 C 
ENDROOT
BRANCH   1  24
HETATM   24  C2  UNL     1      -4.759  48.201 -18.532  1.00  0.00    -0.084 C 
HETATM   25  C1  UNL     1      -4.162  48.865 -17.523  1.00  0.00     0.014 C 
BRANCH  24  26
HETATM   26  C3  UNL     1      -6.225  47.778 -18.509  1.00  0.00     0.037 C 
BRANCH  26  27
HETATM   27  C4  UNL     1      -7.317  48.826 -18.810  1.00  0.00     0.031 C 
BRANCH  27  28
HETATM   28  C5  UNL     1      -7.289  49.332 -20.231  1.00  0.00    -0.024 C 
HETATM   29  C6  UNL     1      -7.809  48.739 -21.323  1.00  0.00    -0.091 C 
HETATM   30  C7  UNL     1      -7.702  49.396 -22.676  1.00  0.00     0.042 C 
HETATM   31  C8  UNL     1      -8.515  47.411 -21.339  1.00  0.00     0.042 C 
ENDBRANCH  27  28
ENDBRANCH  26  27
ENDBRANCH  24  26
ENDBRANCH   1  24
TORSDOF 4
ENDMDL
MODEL 9
REMARK minimizedAffinity -8.82153034
REMARK  4 active torsions:
REMARK  status: ('A' for Active; 'I' for Inactive)
REMARK    1  A    between atoms: C2_2  and  C3_3 
REMARK    2  A    between atoms: C2_2  and  C9_9 
REMARK    3  A    between atoms: C3_3  and  C4_4 
REMARK    4  A    between atoms: C4_4  and  C5_5 
ROOT
HETATM    1  C9  UNL     1      -1.301  51.362 -16.917  1.00  0.00     0.018 C 
HETATM    2  C10 UNL     1       0.245  51.463 -16.861  1.00  0.00     0.010 C 
HETATM    3  C11 UNL     1       0.747  51.344 -18.318  1.00  0.00     0.011 C 
HETATM    4  C12 UNL     1      -0.466  51.737 -19.194  1.00  0.00    -0.032 C 
HETATM    5  C13 UNL     1      -0.576  53.297 -19.113  1.00  0.00     0.016 C 
HETATM    6  C14 UNL     1      -1.586  51.022 -18.392  1.00  0.00     0.002 C 
HETATM    7  C15 UNL     1      -2.974  51.329 -18.933  1.00  0.00     0.006 C 
HETATM    8  C16 UNL     1      -3.070  50.917 -20.412  1.00  0.00     0.006 C 
HETATM    9  C17 UNL     1      -1.942  51.522 -21.293  1.00  0.00     0.003 C 
HETATM   10  C18 UNL     1      -2.144  51.326 -22.856  1.00  0.00    -0.035 C 
HETATM   11  C19 UNL     1      -2.282  49.840 -23.255  1.00  0.00     0.016 C 
HETATM   12  C20 UNL     1      -3.492  52.021 -23.264  1.00  0.00     0.017 C 
HETATM   13  C21 UNL     1      -3.518  52.663 -24.647  1.00  0.00     0.080 C 
HETATM   14  C22 UNL     1      -2.549  52.015 -25.602  1.00  0.00     0.135 C 
HETATM   15  O1  UNL     1      -2.932  51.589 -26.692  1.00  0.00    -0.297 OA
HETATM   16  C23 UNL     1      -1.074  52.003 -25.184  1.00  0.00     0.017 C 
HETATM   17  C24 UNL     1      -0.437  53.272 -25.789  1.00  0.00     0.023 C 
HETATM   18  C25 UNL     1      -0.375  50.788 -25.826  1.00  0.00     0.023 C 
HETATM   19  C26 UNL     1      -0.973  52.054 -23.616  1.00  0.00     0.009 C 
HETATM   20  C27 UNL     1       0.418  51.660 -23.082  1.00  0.00     0.007 C 
HETATM   21  C28 UNL     1       0.556  51.939 -21.583  1.00  0.00     0.011 C 
HETATM   22  C29 UNL     1      -0.499  51.213 -20.710  1.00  0.00    -0.032 C 
HETATM   23  C30 UNL     1      -0.166  49.693 -20.765  1.00  0.00     0.016 C 
ENDROOT
BRANCH   1  24
HETATM   24  C2  UNL     1      -1.928  50.418 -15.891  1.00  0.00    -0.084 C 
HETATM   25  C1  UNL     1      -2.572  49.319 -16.326  1.00  0.00     0.014 C 
BRANCH  24  26
HETATM   26  C3  UNL     1      -1.799  50.788 -14.416  1.00  0.00     0.037 C 
BRANCH  26  27
HETATM   27  C4  UNL     1      -3.074  50.924 -13.558  1.00  0.00     0.031 C 
BRANCH  27  28
HETATM   28  C5  UNL     1      -3.156  52.228 -12.803  1.00  0.00    -0.024 C 
HETATM   29  C6  UNL     1      -3.740  52.449 -11.610  1.00  0.00    -0.091 C 
HETATM   30  C7  UNL     1      -3.717  53.823 -10.989  1.00  0.00     0.042 C 
HETATM   31  C8  UNL     1      -4.464  51.416 -10.791  1.00  0.00     0.042 C 
ENDBRANCH  27  28
ENDBRANCH  26  27
ENDBRANCH  24  26
ENDBRANCH   1  24
TORSDOF 4
ENDMDL
