MODEL 1
REMARK minimizedAffinity -6.77821589
REMARK CNNscore 0.229769796
REMARK CNNaffinity 6.42251778
REMARK  9 active torsions:
REMARK  status: ('A' for Active; 'I' for Inactive)
REMARK    1  A    between atoms: O1_2  and  C2_3 
REMARK    2  A    between atoms: C2_3  and  C3_4 
REMARK    3  A    between atoms: C3_4  and  C4_5 
REMARK    4  A    between atoms: C4_5  and  O2_6 
REMARK    5  A    between atoms: O2_6  and  C5_7 
REMARK    6  A    between atoms: C31_36  and  O5_37 
REMARK    7  A    between atoms: C36_42  and  O6_44 
REMARK    8  A    between atoms: C38_45  and  O7_46 
REMARK    9  A    between atoms: C45_54  and  O9_55 
ROOT
HETATM    1  C5  UNL     1     -13.854   6.249  22.549  1.00  0.00     0.122 C 
HETATM    2  C6  UNL     1     -14.416   5.452  21.375  1.00  0.00     0.033 C 
HETATM    3  C7  UNL     1     -14.390   6.216  20.048  1.00  0.00     0.014 C 
HETATM    4  C8  UNL     1     -15.049   7.641  20.099  1.00  0.00    -0.010 C 
HETATM    5  C9  UNL     1     -16.561   7.452  20.406  1.00  0.00     0.018 C 
HETATM    6  C10 UNL     1     -14.360   8.409  21.267  1.00  0.00     0.073 C 
HETATM    7  C11 UNL     1     -14.455   7.658  22.608  1.00  0.00     0.045 C 
HETATM    8  C12 UNL     1     -12.887   8.704  20.947  1.00  0.00     0.161 C 
HETATM    9  O3  UNL     1     -11.984   8.591  21.771  1.00  0.00    -0.292 OA
HETATM   10  C13 UNL     1     -12.571   9.259  19.607  1.00  0.00    -0.005 C 
HETATM   11  C14 UNL     1     -13.547   9.254  18.679  1.00  0.00    -0.013 C 
HETATM   12  C15 UNL     1     -14.874   8.456  18.713  1.00  0.00     0.058 C 
HETATM   13  C16 UNL     1     -14.967   7.452  17.582  1.00  0.00    -0.091 C 
HETATM   14  C17 UNL     1     -15.273   6.714  16.679  1.00  0.00    -0.104 C 
HETATM   15  C18 UNL     1     -15.831   5.903  15.573  1.00  0.00     0.115 C 
HETATM   16  C19 UNL     1     -14.791   5.793  14.501  1.00  0.00     0.090 A 
HETATM   17  C20 UNL     1     -13.799   6.915  14.223  1.00  0.00     0.120 A 
HETATM   18  N1  UNL     1     -14.787   6.558  13.296  1.00  0.00    -0.243 NA
HETATM   19  C21 UNL     1     -15.826   7.260  12.713  1.00  0.00     0.240 C 
HETATM   20  O4  UNL     1     -16.815   6.644  12.295  1.00  0.00    -0.277 OA
HETATM   21  C22 UNL     1     -15.809   8.852  12.729  1.00  0.00     0.245 C 
HETATM   22  C23 UNL     1     -14.318   9.386  12.584  1.00  0.00     0.145 C 
HETATM   23  C24 UNL     1     -13.871  10.211  13.728  1.00  0.00    -0.103 C 
HETATM   24  C25 UNL     1     -13.816  10.955  14.674  1.00  0.00    -0.092 C 
HETATM   25  C26 UNL     1     -13.951  11.880  15.853  1.00  0.00     0.067 C 
HETATM   26  C27 UNL     1     -12.410  12.082  16.327  1.00  0.00     0.034 C 
HETATM   27  C28 UNL     1     -12.240  11.227  17.621  1.00  0.00     0.027 C 
HETATM   28  C29 UNL     1     -10.941  10.564  18.032  1.00  0.00     0.013 C 
HETATM   29  C30 UNL     1     -11.196   9.897  19.418  1.00  0.00     0.043 C 
HETATM   30  C31 UNL     1     -13.343  10.168  17.506  1.00  0.00     0.096 C 
HETATM   31  C32 UNL     1     -14.531  11.120  17.163  1.00  0.00     0.013 C 
HETATM   32  C33 UNL     1     -14.805  12.142  18.336  1.00  0.00     0.020 C 
HETATM   33  C34 UNL     1     -15.801  10.275  17.076  1.00  0.00     0.016 C 
HETATM   34  C35 UNL     1     -16.038   9.465  18.391  1.00  0.00     0.029 C 
HETATM   35  C36 UNL     1     -14.825  13.203  15.377  1.00  0.00     0.102 C 
HETATM   36  C37 UNL     1     -14.100  14.504  15.777  1.00  0.00     0.050 C 
HETATM   37  C38 UNL     1     -15.227  13.336  13.819  1.00  0.00     0.183 C 
HETATM   38  C39 UNL     1     -16.162  12.227  13.278  1.00  0.00     0.158 C 
HETATM   39  O8  UNL     1     -17.492  12.105  13.793  1.00  0.00    -0.373 OA
HETATM   40  C40 UNL     1     -18.052  10.942  13.080  1.00  0.00     0.185 C 
HETATM   41  C41 UNL     1     -17.300  10.840  11.731  1.00  0.00     0.028 C 
HETATM   42  C42 UNL     1     -16.646   9.434  11.526  1.00  0.00     0.060 C 
HETATM   43  C43 UNL     1     -16.325  12.035  11.772  1.00  0.00     0.020 C 
HETATM   44  C44 UNL     1     -16.933  13.252  11.071  1.00  0.00     0.013 C 
HETATM   45  C45 UNL     1     -17.901   9.610  13.876  1.00  0.00     0.385 C 
HETATM   46  N2  UNL     1     -16.512   9.200  14.002  1.00  0.00     0.134 N 
HETATM   47  H60 UNL     1     -16.411   8.448  14.672  1.00  0.00     0.321 HD
ENDROOT
BRANCH   1  48
HETATM   48  O2  UNL     1     -14.182   5.593  23.780  1.00  0.00    -0.386 OA
BRANCH  48  49
HETATM   49  C4  UNL     1     -14.394   4.191  23.628  1.00  0.00     0.170 C 
BRANCH  49  50
HETATM   50  C3  UNL     1     -13.175   3.435  24.138  1.00  0.00     0.052 C 
BRANCH  50  51
HETATM   51  C2  UNL     1     -13.457   2.698  25.442  1.00  0.00     0.169 C 
BRANCH  51  52
HETATM   52  O1  UNL     1     -12.422   1.734  25.640  1.00  0.00    -0.396 OA
HETATM   53  C1  UNL     1     -11.511   1.713  24.549  1.00  0.00     0.201 C 
ENDBRANCH  51  52
ENDBRANCH  50  51
ENDBRANCH  49  50
ENDBRANCH  48  49
ENDBRANCH   1  48
BRANCH  30  54
HETATM   54  O5  UNL     1     -12.985   9.270  16.456  1.00  0.00    -0.384 OA
HETATM   55  H35 UNL     1     -12.384   8.595  16.809  1.00  0.00     0.211 HD
ENDBRANCH  30  54
BRANCH  35  56
HETATM   56  O6  UNL     1     -16.067  13.249  16.113  1.00  0.00    -0.386 OA
HETATM   57  H46 UNL     1     -16.804  13.065  15.487  1.00  0.00     0.210 HD
ENDBRANCH  35  56
BRANCH  37  58
HETATM   58  O7  UNL     1     -15.886  14.590  13.563  1.00  0.00    -0.390 OA
HETATM   59  H48 UNL     1     -15.231  15.302  13.644  1.00  0.00     0.210 HD
ENDBRANCH  37  58
BRANCH  45  60
HETATM   60  O9  UNL     1     -18.455   9.769  15.167  1.00  0.00    -0.366 OA
HETATM   61  H59 UNL     1     -18.183   8.997  15.684  1.00  0.00     0.212 HD
ENDBRANCH  45  60
TORSDOF 9
ENDMDL
MODEL 2
REMARK minimizedAffinity -6.92194653
REMARK CNNscore 0.168289587
REMARK CNNaffinity 6.03349066
REMARK  9 active torsions:
REMARK  status: ('A' for Active; 'I' for Inactive)
REMARK    1  A    between atoms: O1_2  and  C2_3 
REMARK    2  A    between atoms: C2_3  and  C3_4 
REMARK    3  A    between atoms: C3_4  and  C4_5 
REMARK    4  A    between atoms: C4_5  and  O2_6 
REMARK    5  A    between atoms: O2_6  and  C5_7 
REMARK    6  A    between atoms: C31_36  and  O5_37 
REMARK    7  A    between atoms: C36_42  and  O6_44 
REMARK    8  A    between atoms: C38_45  and  O7_46 
REMARK    9  A    between atoms: C45_54  and  O9_55 
ROOT
HETATM    1  C5  UNL     1     -16.502  -0.148  15.631  1.00  0.00     0.122 C 
HETATM    2  C6  UNL     1     -15.282   0.651  15.182  1.00  0.00     0.033 C 
HETATM    3  C7  UNL     1     -15.505   2.166  15.190  1.00  0.00     0.014 C 
HETATM    4  C8  UNL     1     -16.783   2.645  14.410  1.00  0.00    -0.010 C 
HETATM    5  C9  UNL     1     -16.580   2.292  12.910  1.00  0.00     0.018 C 
HETATM    6  C10 UNL     1     -17.986   1.840  14.990  1.00  0.00     0.073 C 
HETATM    7  C11 UNL     1     -17.773   0.318  14.911  1.00  0.00     0.045 C 
HETATM    8  C12 UNL     1     -18.277   2.245  16.442  1.00  0.00     0.161 C 
HETATM    9  O3  UNL     1     -18.558   1.435  17.322  1.00  0.00    -0.292 OA
HETATM   10  C13 UNL     1     -18.329   3.694  16.757  1.00  0.00    -0.005 C 
HETATM   11  C14 UNL     1     -17.894   4.557  15.819  1.00  0.00    -0.013 C 
HETATM   12  C15 UNL     1     -17.045   4.233  14.565  1.00  0.00     0.058 C 
HETATM   13  C16 UNL     1     -15.693   4.915  14.597  1.00  0.00    -0.091 C 
HETATM   14  C17 UNL     1     -14.650   5.483  14.387  1.00  0.00    -0.104 C 
HETATM   15  C18 UNL     1     -13.442   6.214  13.941  1.00  0.00     0.115 C 
HETATM   16  C19 UNL     1     -13.043   7.168  15.024  1.00  0.00     0.090 A 
HETATM   17  C20 UNL     1     -14.072   7.838  15.925  1.00  0.00     0.120 A 
HETATM   18  N1  UNL     1     -13.310   8.570  15.005  1.00  0.00    -0.243 NA
HETATM   19  C21 UNL     1     -13.650   9.372  13.932  1.00  0.00     0.240 C 
HETATM   20  O4  UNL     1     -12.836   9.536  13.014  1.00  0.00    -0.277 OA
HETATM   21  C22 UNL     1     -15.131   9.944  13.812  1.00  0.00     0.245 C 
HETATM   22  C23 UNL     1     -15.711  10.273  15.257  1.00  0.00     0.145 C 
HETATM   23  C24 UNL     1     -16.935   9.512  15.591  1.00  0.00    -0.103 C 
HETATM   24  C25 UNL     1     -17.976   8.907  15.549  1.00  0.00    -0.092 C 
HETATM   25  C26 UNL     1     -19.252   8.151  15.293  1.00  0.00     0.067 C 
HETATM   26  C27 UNL     1     -19.755   7.782  16.793  1.00  0.00     0.034 C 
HETATM   27  C28 UNL     1     -19.453   6.264  16.990  1.00  0.00     0.027 C 
HETATM   28  C29 UNL     1     -19.110   5.636  18.325  1.00  0.00     0.013 C 
HETATM   29  C30 UNL     1     -18.977   4.103  18.079  1.00  0.00     0.043 C 
HETATM   30  C31 UNL     1     -18.328   5.983  15.986  1.00  0.00     0.096 C 
HETATM   31  C32 UNL     1     -18.975   6.655  14.734  1.00  0.00     0.013 C 
HETATM   32  C33 UNL     1     -20.326   5.941  14.333  1.00  0.00     0.020 C 
HETATM   33  C34 UNL     1     -18.043   6.426  13.545  1.00  0.00     0.016 C 
HETATM   34  C35 UNL     1     -17.754   4.906  13.331  1.00  0.00     0.029 C 
HETATM   35  C36 UNL     1     -20.221   9.083  14.327  1.00  0.00     0.102 C 
HETATM   36  C37 UNL     1     -21.640   9.189  14.925  1.00  0.00     0.050 C 
HETATM   37  C38 UNL     1     -19.737  10.581  13.971  1.00  0.00     0.183 C 
HETATM   38  C39 UNL     1     -18.425  10.677  13.154  1.00  0.00     0.158 C 
HETATM   39  O8  UNL     1     -18.378  10.156  11.822  1.00  0.00    -0.373 OA
HETATM   40  C40 UNL     1     -16.988  10.392  11.388  1.00  0.00     0.185 C 
HETATM   41  C41 UNL     1     -16.469  11.606  12.194  1.00  0.00     0.028 C 
HETATM   42  C42 UNL     1     -15.152  11.279  12.972  1.00  0.00     0.060 C 
HETATM   43  C43 UNL     1     -17.680  12.007  13.061  1.00  0.00     0.020 C 
HETATM   44  C44 UNL     1     -18.494  13.108  12.378  1.00  0.00     0.013 C 
HETATM   45  C45 UNL     1     -16.061   9.160  11.624  1.00  0.00     0.385 C 
HETATM   46  N2  UNL     1     -15.855   8.890  13.037  1.00  0.00     0.134 N 
HETATM   47  H60 UNL     1     -15.414   7.989  13.179  1.00  0.00     0.321 HD
ENDROOT
BRANCH   1  48
HETATM   48  O2  UNL     1     -16.317  -1.533  15.318  1.00  0.00    -0.386 OA
BRANCH  48  49
HETATM   49  C4  UNL     1     -14.972  -1.973  15.498  1.00  0.00     0.170 C 
BRANCH  49  50
HETATM   50  C3  UNL     1     -14.560  -2.847  14.322  1.00  0.00     0.052 C 
BRANCH  50  51
HETATM   51  C2  UNL     1     -13.740  -4.054  14.760  1.00  0.00     0.169 C 
BRANCH  51  52
HETATM   52  O1  UNL     1     -14.388  -4.646  15.887  1.00  0.00    -0.396 OA
HETATM   53  C1  UNL     1     -15.071  -5.841  15.531  1.00  0.00     0.201 C 
ENDBRANCH  51  52
ENDBRANCH  50  51
ENDBRANCH  49  50
ENDBRANCH  48  49
ENDBRANCH   1  48
BRANCH  30  54
HETATM   54  O5  UNL     1     -17.146   6.628  16.456  1.00  0.00    -0.384 OA
HETATM   55  H35 UNL     1     -16.706   6.051  17.100  1.00  0.00     0.211 HD
ENDBRANCH  30  54
BRANCH  35  56
HETATM   56  O6  UNL     1     -20.419   8.418  13.061  1.00  0.00    -0.386 OA
HETATM   57  H46 UNL     1     -19.951   8.933  12.365  1.00  0.00     0.210 HD
ENDBRANCH  35  56
BRANCH  37  58
HETATM   58  O7  UNL     1     -20.742  11.282  13.218  1.00  0.00    -0.390 OA
HETATM   59  H48 UNL     1     -21.492  11.469  13.806  1.00  0.00     0.210 HD
ENDBRANCH  37  58
BRANCH  45  60
HETATM   60  O9  UNL     1     -16.630   8.020  11.012  1.00  0.00    -0.366 OA
HETATM   61  H59 UNL     1     -16.130   7.254  11.331  1.00  0.00     0.212 HD
ENDBRANCH  45  60
TORSDOF 9
ENDMDL
MODEL 3
REMARK minimizedAffinity -7.22749376
REMARK CNNscore 0.16133976
REMARK CNNaffinity 5.92270517
REMARK  9 active torsions:
REMARK  status: ('A' for Active; 'I' for Inactive)
REMARK    1  A    between atoms: O1_2  and  C2_3 
REMARK    2  A    between atoms: C2_3  and  C3_4 
REMARK    3  A    between atoms: C3_4  and  C4_5 
REMARK    4  A    between atoms: C4_5  and  O2_6 
REMARK    5  A    between atoms: O2_6  and  C5_7 
REMARK    6  A    between atoms: C31_36  and  O5_37 
REMARK    7  A    between atoms: C36_42  and  O6_44 
REMARK    8  A    between atoms: C38_45  and  O7_46 
REMARK    9  A    between atoms: C45_54  and  O9_55 
ROOT
HETATM    1  C5  UNL     1     -15.379   2.945  25.358  1.00  0.00     0.122 C 
HETATM    2  C6  UNL     1     -16.373   3.960  25.917  1.00  0.00     0.033 C 
HETATM    3  C7  UNL     1     -16.154   5.383  25.395  1.00  0.00     0.014 C 
HETATM    4  C8  UNL     1     -14.686   5.920  25.550  1.00  0.00    -0.010 C 
HETATM    5  C9  UNL     1     -14.376   6.015  27.070  1.00  0.00     0.018 C 
HETATM    6  C10 UNL     1     -13.753   4.866  24.880  1.00  0.00     0.073 C 
HETATM    7  C11 UNL     1     -13.938   3.454  25.465  1.00  0.00     0.045 C 
HETATM    8  C12 UNL     1     -13.962   4.824  23.359  1.00  0.00     0.161 C 
HETATM    9  O3  UNL     1     -13.999   3.780  22.715  1.00  0.00    -0.292 OA
HETATM   10  C13 UNL     1     -14.010   6.118  22.634  1.00  0.00    -0.005 C 
HETATM   11  C14 UNL     1     -14.098   7.246  23.365  1.00  0.00    -0.013 C 
HETATM   12  C15 UNL     1     -14.479   7.369  24.861  1.00  0.00     0.058 C 
HETATM   13  C16 UNL     1     -15.760   8.153  25.064  1.00  0.00    -0.091 C 
HETATM   14  C17 UNL     1     -16.668   8.863  25.418  1.00  0.00    -0.104 C 
HETATM   15  C18 UNL     1     -17.651   9.810  25.991  1.00  0.00     0.115 C 
HETATM   16  C19 UNL     1     -18.383  10.467  24.863  1.00  0.00     0.090 A 
HETATM   17  C20 UNL     1     -17.712  10.753  23.526  1.00  0.00     0.120 A 
HETATM   18  N1  UNL     1     -18.116  11.785  24.384  1.00  0.00    -0.243 NA
HETATM   19  C21 UNL     1     -17.429  12.810  25.007  1.00  0.00     0.240 C 
HETATM   20  O4  UNL     1     -17.888  13.304  26.046  1.00  0.00    -0.277 OA
HETATM   21  C22 UNL     1     -15.990  13.235  24.475  1.00  0.00     0.245 C 
HETATM   22  C23 UNL     1     -15.927  13.093  22.892  1.00  0.00     0.145 C 
HETATM   23  C24 UNL     1     -14.891  12.146  22.423  1.00  0.00    -0.103 C 
HETATM   24  C25 UNL     1     -13.900  11.470  22.307  1.00  0.00    -0.092 C 
HETATM   25  C26 UNL     1     -12.618  10.684  22.352  1.00  0.00     0.067 C 
HETATM   26  C27 UNL     1     -12.650   9.868  20.948  1.00  0.00     0.034 C 
HETATM   27  C28 UNL     1     -13.011   8.394  21.312  1.00  0.00     0.027 C 
HETATM   28  C29 UNL     1     -13.786   7.464  20.402  1.00  0.00     0.013 C 
HETATM   29  C30 UNL     1     -13.839   6.079  21.116  1.00  0.00     0.043 C 
HETATM   30  C31 UNL     1     -13.735   8.518  22.658  1.00  0.00     0.096 C 
HETATM   31  C32 UNL     1     -12.702   9.435  23.383  1.00  0.00     0.013 C 
HETATM   32  C33 UNL     1     -11.299   8.722  23.524  1.00  0.00     0.020 C 
HETATM   33  C34 UNL     1     -13.182   9.640  24.820  1.00  0.00     0.016 C 
HETATM   34  C35 UNL     1     -13.393   8.275  25.550  1.00  0.00     0.029 C 
HETATM   35  C36 UNL     1     -11.374  11.738  22.641  1.00  0.00     0.102 C 
HETATM   36  C37 UNL     1     -10.237  11.527  21.619  1.00  0.00     0.050 C 
HETATM   37  C38 UNL     1     -11.701  13.319  22.677  1.00  0.00     0.183 C 
HETATM   38  C39 UNL     1     -12.661  13.771  23.804  1.00  0.00     0.158 C 
HETATM   39  O8  UNL     1     -12.262  13.643  25.172  1.00  0.00    -0.373 OA
HETATM   40  C40 UNL     1     -13.425  14.133  25.937  1.00  0.00     0.185 C 
HETATM   41  C41 UNL     1     -14.176  15.128  25.020  1.00  0.00     0.028 C 
HETATM   42  C42 UNL     1     -15.680  14.739  24.834  1.00  0.00     0.060 C 
HETATM   43  C43 UNL     1     -13.323  15.146  23.734  1.00  0.00     0.020 C 
HETATM   44  C44 UNL     1     -12.319  16.301  23.769  1.00  0.00     0.013 C 
HETATM   45  C45 UNL     1     -14.386  12.988  26.381  1.00  0.00     0.385 C 
HETATM   46  N2  UNL     1     -15.056  12.364  25.252  1.00  0.00     0.134 N 
HETATM   47  H60 UNL     1     -15.525  11.510  25.529  1.00  0.00     0.321 HD
ENDROOT
BRANCH   1  48
HETATM   48  O2  UNL     1     -15.459   1.726  26.106  1.00  0.00    -0.386 OA
BRANCH  48  49
HETATM   49  C4  UNL     1     -14.332   1.516  26.955  1.00  0.00     0.170 C 
BRANCH  49  50
HETATM   50  C3  UNL     1     -14.772   1.591  28.411  1.00  0.00     0.052 C 
BRANCH  50  51
HETATM   51  C2  UNL     1     -14.045   2.690  29.177  1.00  0.00     0.169 C 
BRANCH  51  52
HETATM   52  O1  UNL     1     -12.843   2.135  29.715  1.00  0.00    -0.396 OA
HETATM   53  C1  UNL     1     -12.392   2.866  30.848  1.00  0.00     0.201 C 
ENDBRANCH  51  52
ENDBRANCH  50  51
ENDBRANCH  49  50
ENDBRANCH  48  49
ENDBRANCH   1  48
BRANCH  30  54
HETATM   54  O5  UNL     1     -15.003   9.130  22.422  1.00  0.00    -0.384 OA
HETATM   55  H35 UNL     1     -15.637   8.447  22.152  1.00  0.00     0.211 HD
ENDBRANCH  30  54
BRANCH  35  56
HETATM   56  O6  UNL     1     -10.768  11.429  23.914  1.00  0.00    -0.386 OA
HETATM   57  H46 UNL     1     -10.971  12.161  24.540  1.00  0.00     0.210 HD
ENDBRANCH  35  56
BRANCH  37  58
HETATM   58  O7  UNL     1     -10.496  14.090  22.830  1.00  0.00    -0.390 OA
HETATM   59  H48 UNL     1      -9.986  14.028  22.006  1.00  0.00     0.210 HD
ENDBRANCH  37  58
BRANCH  45  60
HETATM   60  O9  UNL     1     -13.652  12.005  27.085  1.00  0.00    -0.366 OA
HETATM   61  H59 UNL     1     -14.236  11.239  27.181  1.00  0.00     0.212 HD
ENDBRANCH  45  60
TORSDOF 9
ENDMDL
MODEL 4
REMARK minimizedAffinity -7.13830948
REMARK CNNscore 0.155663878
REMARK CNNaffinity 6.4259553
REMARK  9 active torsions:
REMARK  status: ('A' for Active; 'I' for Inactive)
REMARK    1  A    between atoms: O1_2  and  C2_3 
REMARK    2  A    between atoms: C2_3  and  C3_4 
REMARK    3  A    between atoms: C3_4  and  C4_5 
REMARK    4  A    between atoms: C4_5  and  O2_6 
REMARK    5  A    between atoms: O2_6  and  C5_7 
REMARK    6  A    between atoms: C31_36  and  O5_37 
REMARK    7  A    between atoms: C36_42  and  O6_44 
REMARK    8  A    between atoms: C38_45  and  O7_46 
REMARK    9  A    between atoms: C45_54  and  O9_55 
ROOT
HETATM    1  C5  UNL     1      -4.598 -11.398   4.055  1.00  0.00     0.122 C 
HETATM    2  C6  UNL     1      -5.905 -12.183   4.130  1.00  0.00     0.033 C 
HETATM    3  C7  UNL     1      -6.811 -11.980   2.912  1.00  0.00     0.014 C 
HETATM    4  C8  UNL     1      -7.100 -10.478   2.553  1.00  0.00    -0.010 C 
HETATM    5  C9  UNL     1      -7.896  -9.855   3.733  1.00  0.00     0.018 C 
HETATM    6  C10 UNL     1      -5.715  -9.778   2.414  1.00  0.00     0.073 C 
HETATM    7  C11 UNL     1      -4.844  -9.934   3.674  1.00  0.00     0.045 C 
HETATM    8  C12 UNL     1      -4.948 -10.300   1.191  1.00  0.00     0.161 C 
HETATM    9  O3  UNL     1      -3.744 -10.540   1.205  1.00  0.00    -0.292 OA
HETATM   10  C13 UNL     1      -5.687 -10.407  -0.092  1.00  0.00    -0.005 C 
HETATM   11  C14 UNL     1      -7.025 -10.266  -0.060  1.00  0.00    -0.013 C 
HETATM   12  C15 UNL     1      -7.947 -10.320   1.184  1.00  0.00     0.058 C 
HETATM   13  C16 UNL     1      -8.926 -11.474   1.120  1.00  0.00    -0.091 C 
HETATM   14  C17 UNL     1      -9.858 -12.238   1.172  1.00  0.00    -0.104 C 
HETATM   15  C18 UNL     1     -11.113 -13.014   1.292  1.00  0.00     0.115 C 
HETATM   16  C19 UNL     1     -11.223 -13.917   0.103  1.00  0.00     0.090 A 
HETATM   17  C20 UNL     1     -10.679 -13.519  -1.263  1.00  0.00     0.120 A 
HETATM   18  N1  UNL     1     -12.053 -13.666  -1.030  1.00  0.00    -0.243 NA
HETATM   19  C21 UNL     1     -13.122 -12.797  -1.143  1.00  0.00     0.240 C 
HETATM   20  O4  UNL     1     -14.141 -12.996  -0.467  1.00  0.00    -0.277 OA
HETATM   21  C22 UNL     1     -12.975 -11.473  -2.015  1.00  0.00     0.245 C 
HETATM   22  C23 UNL     1     -12.047 -11.748  -3.277  1.00  0.00     0.145 C 
HETATM   23  C24 UNL     1     -10.835 -10.899  -3.317  1.00  0.00    -0.103 C 
HETATM   24  C25 UNL     1     -10.039 -10.002  -3.198  1.00  0.00    -0.092 C 
HETATM   25  C26 UNL     1      -9.183  -8.795  -2.927  1.00  0.00     0.067 C 
HETATM   26  C27 UNL     1      -7.789  -9.172  -3.671  1.00  0.00     0.034 C 
HETATM   27  C28 UNL     1      -6.783  -9.550  -2.539  1.00  0.00     0.027 C 
HETATM   28  C29 UNL     1      -5.665 -10.558  -2.703  1.00  0.00     0.013 C 
HETATM   29  C30 UNL     1      -4.860 -10.557  -1.368  1.00  0.00     0.043 C 
HETATM   30  C31 UNL     1      -7.687  -9.970  -1.374  1.00  0.00     0.096 C 
HETATM   31  C32 UNL     1      -8.658  -8.749  -1.394  1.00  0.00     0.013 C 
HETATM   32  C33 UNL     1      -7.891  -7.400  -1.098  1.00  0.00     0.020 C 
HETATM   33  C34 UNL     1      -9.636  -8.907  -0.230  1.00  0.00     0.016 C 
HETATM   34  C35 UNL     1      -8.883  -9.055   1.131  1.00  0.00     0.029 C 
HETATM   35  C36 UNL     1     -10.015  -7.449  -3.415  1.00  0.00     0.102 C 
HETATM   36  C37 UNL     1      -9.132  -6.565  -4.321  1.00  0.00     0.050 C 
HETATM   37  C38 UNL     1     -11.427  -7.652  -4.171  1.00  0.00     0.183 C 
HETATM   38  C39 UNL     1     -12.538  -8.326  -3.329  1.00  0.00     0.158 C 
HETATM   39  O8  UNL     1     -13.053  -7.663  -2.170  1.00  0.00    -0.373 OA
HETATM   40  C40 UNL     1     -14.047  -8.605  -1.623  1.00  0.00     0.185 C 
HETATM   41  C41 UNL     1     -14.553  -9.460  -2.810  1.00  0.00     0.028 C 
HETATM   42  C42 UNL     1     -14.379 -10.993  -2.549  1.00  0.00     0.060 C 
HETATM   43  C43 UNL     1     -13.779  -8.892  -4.018  1.00  0.00     0.020 C 
HETATM   44  C44 UNL     1     -14.607  -7.827  -4.738  1.00  0.00     0.013 C 
HETATM   45  C45 UNL     1     -13.460  -9.530  -0.513  1.00  0.00     0.385 C 
HETATM   46  N2  UNL     1     -12.473 -10.460  -1.037  1.00  0.00     0.134 N 
HETATM   47  H60 UNL     1     -11.967 -10.919  -0.289  1.00  0.00     0.321 HD
ENDROOT
BRANCH   1  48
HETATM   48  O2  UNL     1      -3.955 -11.404   5.335  1.00  0.00    -0.386 OA
BRANCH  48  49
HETATM   49  C4  UNL     1      -4.607 -10.572   6.293  1.00  0.00     0.170 C 
BRANCH  49  50
HETATM   50  C3  UNL     1      -4.280 -11.061   7.697  1.00  0.00     0.052 C 
BRANCH  50  51
HETATM   51  C2  UNL     1      -4.060  -9.910   8.672  1.00  0.00     0.169 C 
BRANCH  51  52
HETATM   52  O1  UNL     1      -4.540 -10.316   9.954  1.00  0.00    -0.396 OA
HETATM   53  C1  UNL     1      -4.075  -9.454  10.984  1.00  0.00     0.201 C 
ENDBRANCH  51  52
ENDBRANCH  50  51
ENDBRANCH  49  50
ENDBRANCH  48  49
ENDBRANCH   1  48
BRANCH  30  54
HETATM   54  O5  UNL     1      -8.297 -11.214  -1.715  1.00  0.00    -0.384 OA
HETATM   55  H35 UNL     1      -7.688 -11.936  -1.493  1.00  0.00     0.211 HD
ENDBRANCH  30  54
BRANCH  35  56
HETATM   56  O6  UNL     1     -10.294  -6.615  -2.270  1.00  0.00    -0.386 OA
HETATM   57  H46 UNL     1     -11.264  -6.635  -2.102  1.00  0.00     0.210 HD
ENDBRANCH  35  56
BRANCH  37  58
HETATM   58  O7  UNL     1     -11.958  -6.392  -4.618  1.00  0.00    -0.390 OA
HETATM   59  H48 UNL     1     -11.406  -6.068  -5.348  1.00  0.00     0.210 HD
ENDBRANCH  37  58
BRANCH  45  60
HETATM   60  O9  UNL     1     -12.861  -8.736   0.491  1.00  0.00    -0.366 OA
HETATM   61  H59 UNL     1     -12.356  -9.338   1.058  1.00  0.00     0.212 HD
ENDBRANCH  45  60
TORSDOF 9
ENDMDL
MODEL 5
REMARK minimizedAffinity -7.35894012
REMARK CNNscore 0.155275464
REMARK CNNaffinity 6.20663023
REMARK  9 active torsions:
REMARK  status: ('A' for Active; 'I' for Inactive)
REMARK    1  A    between atoms: O1_2  and  C2_3 
REMARK    2  A    between atoms: C2_3  and  C3_4 
REMARK    3  A    between atoms: C3_4  and  C4_5 
REMARK    4  A    between atoms: C4_5  and  O2_6 
REMARK    5  A    between atoms: O2_6  and  C5_7 
REMARK    6  A    between atoms: C31_36  and  O5_37 
REMARK    7  A    between atoms: C36_42  and  O6_44 
REMARK    8  A    between atoms: C38_45  and  O7_46 
REMARK    9  A    between atoms: C45_54  and  O9_55 
ROOT
HETATM    1  C5  UNL     1      -6.640  -9.868   4.337  1.00  0.00     0.122 C 
HETATM    2  C6  UNL     1      -5.972  -9.761   2.969  1.00  0.00     0.033 C 
HETATM    3  C7  UNL     1      -6.949  -9.433   1.835  1.00  0.00     0.014 C 
HETATM    4  C8  UNL     1      -8.201 -10.378   1.754  1.00  0.00    -0.010 C 
HETATM    5  C9  UNL     1      -7.692 -11.809   1.423  1.00  0.00     0.018 C 
HETATM    6  C10 UNL     1      -8.864 -10.361   3.164  1.00  0.00     0.073 C 
HETATM    7  C11 UNL     1      -7.886 -10.760   4.284  1.00  0.00     0.045 C 
HETATM    8  C12 UNL     1      -9.471  -8.986   3.477  1.00  0.00     0.161 C 
HETATM    9  O3  UNL     1      -9.380  -8.445   4.576  1.00  0.00    -0.292 OA
HETATM   10  C13 UNL     1     -10.299  -8.342   2.427  1.00  0.00    -0.005 C 
HETATM   11  C14 UNL     1     -10.281  -8.883   1.194  1.00  0.00    -0.013 C 
HETATM   12  C15 UNL     1      -9.263  -9.905   0.630  1.00  0.00     0.058 C 
HETATM   13  C16 UNL     1      -8.472  -9.344  -0.533  1.00  0.00    -0.091 C 
HETATM   14  C17 UNL     1      -7.860  -9.119  -1.548  1.00  0.00    -0.104 C 
HETATM   15  C18 UNL     1      -7.168  -9.029  -2.854  1.00  0.00     0.115 C 
HETATM   16  C19 UNL     1      -7.436  -7.676  -3.435  1.00  0.00     0.090 A 
HETATM   17  C20 UNL     1      -8.749  -6.942  -3.197  1.00  0.00     0.120 A 
HETATM   18  N1  UNL     1      -8.387  -7.412  -4.466  1.00  0.00    -0.243 NA
HETATM   19  C21 UNL     1      -8.982  -8.300  -5.343  1.00  0.00     0.240 C 
HETATM   20  O4  UNL     1      -8.281  -8.896  -6.172  1.00  0.00    -0.277 OA
HETATM   21  C22 UNL     1     -10.523  -8.662  -5.176  1.00  0.00     0.245 C 
HETATM   22  C23 UNL     1     -11.334  -7.389  -4.673  1.00  0.00     0.145 C 
HETATM   23  C24 UNL     1     -12.013  -7.595  -3.374  1.00  0.00    -0.103 C 
HETATM   24  C25 UNL     1     -12.578  -8.064  -2.419  1.00  0.00    -0.092 C 
HETATM   25  C26 UNL     1     -13.243  -8.831  -1.309  1.00  0.00     0.067 C 
HETATM   26  C27 UNL     1     -13.633  -7.662  -0.251  1.00  0.00     0.034 C 
HETATM   27  C28 UNL     1     -12.610  -7.779   0.921  1.00  0.00     0.027 C 
HETATM   28  C29 UNL     1     -12.131  -6.603   1.747  1.00  0.00     0.013 C 
HETATM   29  C30 UNL     1     -11.197  -7.182   2.853  1.00  0.00     0.043 C 
HETATM   30  C31 UNL     1     -11.406  -8.485   0.285  1.00  0.00     0.096 C 
HETATM   31  C32 UNL     1     -12.175  -9.653  -0.409  1.00  0.00     0.013 C 
HETATM   32  C33 UNL     1     -12.910 -10.566   0.651  1.00  0.00     0.020 C 
HETATM   33  C34 UNL     1     -11.143 -10.570  -1.065  1.00  0.00     0.016 C 
HETATM   34  C35 UNL     1     -10.086 -11.073  -0.030  1.00  0.00     0.029 C 
HETATM   35  C36 UNL     1     -14.450  -9.754  -1.967  1.00  0.00     0.102 C 
HETATM   36  C37 UNL     1     -15.770  -9.549  -1.196  1.00  0.00     0.050 C 
HETATM   37  C38 UNL     1     -14.779  -9.581  -3.538  1.00  0.00     0.183 C 
HETATM   38  C39 UNL     1     -13.631  -9.968  -4.502  1.00  0.00     0.158 C 
HETATM   39  O8  UNL     1     -13.184 -11.326  -4.565  1.00  0.00    -0.373 OA
HETATM   40  C40 UNL     1     -12.081 -11.300  -5.545  1.00  0.00     0.185 C 
HETATM   41  C41 UNL     1     -12.354 -10.107  -6.493  1.00  0.00     0.028 C 
HETATM   42  C42 UNL     1     -11.146  -9.114  -6.552  1.00  0.00     0.060 C 
HETATM   43  C43 UNL     1     -13.679  -9.521  -5.962  1.00  0.00     0.020 C 
HETATM   44  C44 UNL     1     -14.870 -10.098  -6.730  1.00  0.00     0.013 C 
HETATM   45  C45 UNL     1     -10.680 -11.142  -4.880  1.00  0.00     0.385 C 
HETATM   46  N2  UNL     1     -10.511  -9.840  -4.256  1.00  0.00     0.134 N 
HETATM   47  H60 UNL     1      -9.684  -9.818  -3.672  1.00  0.00     0.321 HD
ENDROOT
BRANCH   1  48
HETATM   48  O2  UNL     1      -5.732 -10.459   5.274  1.00  0.00    -0.386 OA
BRANCH  48  49
HETATM   49  C4  UNL     1      -6.134 -10.281   6.631  1.00  0.00     0.170 C 
BRANCH  49  50
HETATM   50  C3  UNL     1      -5.314  -9.164   7.262  1.00  0.00     0.052 C 
BRANCH  50  51
HETATM   51  C2  UNL     1      -3.832  -9.512   7.342  1.00  0.00     0.169 C 
BRANCH  51  52
HETATM   52  O1  UNL     1      -3.111  -8.563   6.554  1.00  0.00    -0.396 OA
HETATM   53  C1  UNL     1      -2.561  -9.161   5.388  1.00  0.00     0.201 C 
ENDBRANCH  51  52
ENDBRANCH  50  51
ENDBRANCH  49  50
ENDBRANCH  48  49
ENDBRANCH   1  48
BRANCH  30  54
HETATM   54  O5  UNL     1     -10.785  -7.570  -0.617  1.00  0.00    -0.384 OA
HETATM   55  H35 UNL     1     -10.179  -7.000  -0.120  1.00  0.00     0.211 HD
ENDBRANCH  30  54
BRANCH  35  56
HETATM   56  O6  UNL     1     -14.143 -11.152  -1.778  1.00  0.00    -0.386 OA
HETATM   57  H46 UNL     1     -13.941 -11.546  -2.657  1.00  0.00     0.210 HD
ENDBRANCH  35  56
BRANCH  37  58
HETATM   58  O7  UNL     1     -15.918 -10.373  -3.916  1.00  0.00    -0.390 OA
HETATM   59  H48 UNL     1     -16.712  -9.979  -3.519  1.00  0.00     0.210 HD
ENDBRANCH  37  58
BRANCH  45  60
HETATM   60  O9  UNL     1     -10.509 -12.150  -3.902  1.00  0.00    -0.366 OA
HETATM   61  H59 UNL     1      -9.720 -11.912  -3.393  1.00  0.00     0.212 HD
ENDBRANCH  45  60
TORSDOF 9
ENDMDL
MODEL 6
REMARK minimizedAffinity -7.63531399
REMARK CNNscore 0.130438671
REMARK CNNaffinity 5.46852922
REMARK  9 active torsions:
REMARK  status: ('A' for Active; 'I' for Inactive)
REMARK    1  A    between atoms: O1_2  and  C2_3 
REMARK    2  A    between atoms: C2_3  and  C3_4 
REMARK    3  A    between atoms: C3_4  and  C4_5 
REMARK    4  A    between atoms: C4_5  and  O2_6 
REMARK    5  A    between atoms: O2_6  and  C5_7 
REMARK    6  A    between atoms: C31_36  and  O5_37 
REMARK    7  A    between atoms: C36_42  and  O6_44 
REMARK    8  A    between atoms: C38_45  and  O7_46 
REMARK    9  A    between atoms: C45_54  and  O9_55 
ROOT
HETATM    1  C5  UNL     1      -3.101   7.083  14.348  1.00  0.00     0.122 C 
HETATM    2  C6  UNL     1      -3.471   8.412  13.696  1.00  0.00     0.033 C 
HETATM    3  C7  UNL     1      -2.639   9.595  14.201  1.00  0.00     0.014 C 
HETATM    4  C8  UNL     1      -2.602   9.750  15.764  1.00  0.00    -0.010 C 
HETATM    5  C9  UNL     1      -4.048  10.063  16.242  1.00  0.00     0.018 C 
HETATM    6  C10 UNL     1      -2.137   8.378  16.337  1.00  0.00     0.073 C 
HETATM    7  C11 UNL     1      -3.026   7.209  15.874  1.00  0.00     0.045 C 
HETATM    8  C12 UNL     1      -0.674   8.088  15.970  1.00  0.00     0.161 C 
HETATM    9  O3  UNL     1      -0.277   6.982  15.613  1.00  0.00    -0.292 OA
HETATM   10  C13 UNL     1       0.314   9.177  16.167  1.00  0.00    -0.005 C 
HETATM   11  C14 UNL     1      -0.154  10.412  16.432  1.00  0.00    -0.013 C 
HETATM   12  C15 UNL     1      -1.604  10.927  16.247  1.00  0.00     0.058 C 
HETATM   13  C16 UNL     1      -1.689  12.042  15.226  1.00  0.00    -0.091 C 
HETATM   14  C17 UNL     1      -1.922  13.020  14.560  1.00  0.00    -0.104 C 
HETATM   15  C18 UNL     1      -2.319  14.286  13.903  1.00  0.00     0.115 C 
HETATM   16  C19 UNL     1      -1.110  14.872  13.242  1.00  0.00     0.090 A 
HETATM   17  C20 UNL     1       0.287  14.699  13.823  1.00  0.00     0.120 A 
HETATM   18  N1  UNL     1      -0.341  15.950  13.773  1.00  0.00    -0.243 NA
HETATM   19  C21 UNL     1      -0.691  16.864  14.749  1.00  0.00     0.240 C 
HETATM   20  O4  UNL     1      -1.617  17.658  14.535  1.00  0.00    -0.277 OA
HETATM   21  C22 UNL     1      -0.011  16.783  16.186  1.00  0.00     0.245 C 
HETATM   22  C23 UNL     1       1.503  16.316  16.051  1.00  0.00     0.145 C 
HETATM   23  C24 UNL     1       1.801  15.058  16.770  1.00  0.00    -0.103 C 
HETATM   24  C25 UNL     1       1.813  14.138  17.549  1.00  0.00    -0.092 C 
HETATM   25  C26 UNL     1       1.658  13.070  18.597  1.00  0.00     0.067 C 
HETATM   26  C27 UNL     1       2.845  12.027  18.223  1.00  0.00     0.034 C 
HETATM   27  C28 UNL     1       2.150  10.802  17.552  1.00  0.00     0.027 C 
HETATM   28  C29 UNL     1       2.795   9.943  16.484  1.00  0.00     0.013 C 
HETATM   29  C30 UNL     1       1.793   8.792  16.166  1.00  0.00     0.043 C 
HETATM   30  C31 UNL     1       0.831  11.377  17.021  1.00  0.00     0.096 C 
HETATM   31  C32 UNL     1       0.375  12.119  18.316  1.00  0.00     0.013 C 
HETATM   32  C33 UNL     1       0.148  11.107  19.508  1.00  0.00     0.020 C 
HETATM   33  C34 UNL     1      -1.002  12.725  18.050  1.00  0.00     0.016 C 
HETATM   34  C35 UNL     1      -2.024  11.638  17.587  1.00  0.00     0.029 C 
HETATM   35  C36 UNL     1       1.667  13.798  20.084  1.00  0.00     0.102 C 
HETATM   36  C37 UNL     1       2.671  13.099  21.024  1.00  0.00     0.050 C 
HETATM   37  C38 UNL     1       1.963  15.384  20.159  1.00  0.00     0.183 C 
HETATM   38  C39 UNL     1       0.919  16.287  19.459  1.00  0.00     0.158 C 
HETATM   39  O8  UNL     1      -0.423  16.336  19.952  1.00  0.00    -0.373 OA
HETATM   40  C40 UNL     1      -1.116  17.255  19.029  1.00  0.00     0.185 C 
HETATM   41  C41 UNL     1      -0.040  18.207  18.455  1.00  0.00     0.028 C 
HETATM   42  C42 UNL     1      -0.016  18.195  16.891  1.00  0.00     0.060 C 
HETATM   43  C43 UNL     1       1.257  17.745  19.150  1.00  0.00     0.020 C 
HETATM   44  C44 UNL     1       1.525  18.580  20.404  1.00  0.00     0.013 C 
HETATM   45  C45 UNL     1      -1.846  16.513  17.868  1.00  0.00     0.385 C 
HETATM   46  N2  UNL     1      -0.915  15.873  16.954  1.00  0.00     0.134 N 
HETATM   47  H60 UNL     1      -1.395  15.244  16.321  1.00  0.00     0.321 HD
ENDROOT
BRANCH   1  48
HETATM   48  O2  UNL     1      -4.102   6.102  14.050  1.00  0.00    -0.386 OA
BRANCH  48  49
HETATM   49  C4  UNL     1      -3.918   5.484  12.777  1.00  0.00     0.170 C 
BRANCH  49  50
HETATM   50  C3  UNL     1      -4.182   3.989  12.896  1.00  0.00     0.052 C 
BRANCH  50  51
HETATM   51  C2  UNL     1      -5.477   3.577  12.205  1.00  0.00     0.169 C 
BRANCH  51  52
HETATM   52  O1  UNL     1      -6.570   4.097  12.964  1.00  0.00    -0.396 OA
HETATM   53  C1  UNL     1      -7.556   3.103  13.211  1.00  0.00     0.201 C 
ENDBRANCH  51  52
ENDBRANCH  50  51
ENDBRANCH  49  50
ENDBRANCH  48  49
ENDBRANCH   1  48
BRANCH  30  54
HETATM   54  O5  UNL     1       1.135  12.238  15.925  1.00  0.00    -0.384 OA
HETATM   55  H35 UNL     1       1.218  11.705  15.118  1.00  0.00     0.211 HD
ENDBRANCH  30  54
BRANCH  35  56
HETATM   56  O6  UNL     1       0.388  13.603  20.723  1.00  0.00    -0.386 OA
HETATM   57  H46 UNL     1      -0.071  14.473  20.770  1.00  0.00     0.210 HD
ENDBRANCH  35  56
BRANCH  37  58
HETATM   58  O7  UNL     1       2.041  15.828  21.525  1.00  0.00    -0.390 OA
HETATM   59  H48 UNL     1       2.855  15.473  21.918  1.00  0.00     0.210 HD
ENDBRANCH  37  58
BRANCH  45  60
HETATM   60  O9  UNL     1      -2.713  15.535  18.407  1.00  0.00    -0.366 OA
HETATM   61  H59 UNL     1      -3.003  14.982  17.666  1.00  0.00     0.212 HD
ENDBRANCH  45  60
TORSDOF 9
ENDMDL
MODEL 7
REMARK minimizedAffinity -6.70803213
REMARK CNNscore 0.128120229
REMARK CNNaffinity 5.93312836
REMARK  9 active torsions:
REMARK  status: ('A' for Active; 'I' for Inactive)
REMARK    1  A    between atoms: O1_2  and  C2_3 
REMARK    2  A    between atoms: C2_3  and  C3_4 
REMARK    3  A    between atoms: C3_4  and  C4_5 
REMARK    4  A    between atoms: C4_5  and  O2_6 
REMARK    5  A    between atoms: O2_6  and  C5_7 
REMARK    6  A    between atoms: C31_36  and  O5_37 
REMARK    7  A    between atoms: C36_42  and  O6_44 
REMARK    8  A    between atoms: C38_45  and  O7_46 
REMARK    9  A    between atoms: C45_54  and  O9_55 
ROOT
HETATM    1  C5  UNL     1      -2.052  17.506   7.806  1.00  0.00     0.122 C 
HETATM    2  C6  UNL     1      -0.533  17.648   7.791  1.00  0.00     0.033 C 
HETATM    3  C7  UNL     1       0.069  17.647   6.383  1.00  0.00     0.014 C 
HETATM    4  C8  UNL     1      -0.371  16.436   5.483  1.00  0.00    -0.010 C 
HETATM    5  C9  UNL     1       0.178  15.138   6.138  1.00  0.00     0.018 C 
HETATM    6  C10 UNL     1      -1.929  16.419   5.489  1.00  0.00     0.073 C 
HETATM    7  C11 UNL     1      -2.516  16.351   6.911  1.00  0.00     0.045 C 
HETATM    8  C12 UNL     1      -2.502  17.640   4.755  1.00  0.00     0.161 C 
HETATM    9  O3  UNL     1      -3.469  18.278   5.163  1.00  0.00    -0.292 OA
HETATM   10  C13 UNL     1      -1.919  17.986   3.434  1.00  0.00    -0.005 C 
HETATM   11  C14 UNL     1      -0.785  17.363   3.065  1.00  0.00    -0.013 C 
HETATM   12  C15 UNL     1       0.182  16.557   3.968  1.00  0.00     0.058 C 
HETATM   13  C16 UNL     1       1.559  17.184   4.037  1.00  0.00    -0.091 C 
HETATM   14  C17 UNL     1       2.732  17.458   4.093  1.00  0.00    -0.104 C 
HETATM   15  C18 UNL     1       4.206  17.593   4.130  1.00  0.00     0.115 C 
HETATM   16  C19 UNL     1       4.587  18.795   3.323  1.00  0.00     0.090 A 
HETATM   17  C20 UNL     1       3.795  19.226   2.095  1.00  0.00     0.120 A 
HETATM   18  N1  UNL     1       5.108  18.747   1.995  1.00  0.00    -0.243 NA
HETATM   19  C21 UNL     1       5.667  17.675   1.323  1.00  0.00     0.240 C 
HETATM   20  O4  UNL     1       6.728  17.188   1.734  1.00  0.00    -0.277 OA
HETATM   21  C22 UNL     1       4.867  16.985   0.133  1.00  0.00     0.245 C 
HETATM   22  C23 UNL     1       4.038  18.076  -0.676  1.00  0.00     0.145 C 
HETATM   23  C24 UNL     1       2.578  17.830  -0.676  1.00  0.00    -0.103 C 
HETATM   24  C25 UNL     1       1.484  17.326  -0.657  1.00  0.00    -0.092 C 
HETATM   25  C26 UNL     1       0.213  16.523  -0.587  1.00  0.00     0.067 C 
HETATM   26  C27 UNL     1      -0.936  17.657  -0.770  1.00  0.00     0.034 C 
HETATM   27  C28 UNL     1      -1.557  17.876   0.645  1.00  0.00     0.027 C 
HETATM   28  C29 UNL     1      -2.125  19.195   1.124  1.00  0.00     0.013 C 
HETATM   29  C30 UNL     1      -2.714  18.941   2.545  1.00  0.00     0.043 C 
HETATM   30  C31 UNL     1      -0.452  17.414   1.603  1.00  0.00     0.096 C 
HETATM   31  C32 UNL     1      -0.127  16.046   0.925  1.00  0.00     0.013 C 
HETATM   32  C33 UNL     1      -1.378  15.082   0.947  1.00  0.00     0.020 C 
HETATM   33  C34 UNL     1       0.928  15.339   1.775  1.00  0.00     0.016 C 
HETATM   34  C35 UNL     1       0.453  15.180   3.256  1.00  0.00     0.029 C 
HETATM   35  C36 UNL     1       0.314  15.296  -1.694  1.00  0.00     0.102 C 
HETATM   36  C37 UNL     1      -0.951  15.257  -2.577  1.00  0.00     0.050 C 
HETATM   37  C38 UNL     1       1.591  15.257  -2.682  1.00  0.00     0.183 C 
HETATM   38  C39 UNL     1       2.961  15.063  -1.987  1.00  0.00     0.158 C 
HETATM   39  O8  UNL     1       3.239  13.843  -1.292  1.00  0.00    -0.373 OA
HETATM   40  C40 UNL     1       4.595  14.039  -0.745  1.00  0.00     0.185 C 
HETATM   41  C41 UNL     1       5.308  15.054  -1.669  1.00  0.00     0.028 C 
HETATM   42  C42 UNL     1       5.855  16.288  -0.879  1.00  0.00     0.060 C 
HETATM   43  C43 UNL     1       4.251  15.362  -2.749  1.00  0.00     0.020 C 
HETATM   44  C44 UNL     1       4.450  14.466  -3.973  1.00  0.00     0.013 C 
HETATM   45  C45 UNL     1       4.587  14.568   0.722  1.00  0.00     0.385 C 
HETATM   46  N2  UNL     1       4.066  15.922   0.814  1.00  0.00     0.134 N 
HETATM   47  H60 UNL     1       3.890  16.183   1.777  1.00  0.00     0.321 HD
ENDROOT
BRANCH   1  48
HETATM   48  O2  UNL     1      -2.499  17.220   9.137  1.00  0.00    -0.386 OA
BRANCH  48  49
HETATM   49  C4  UNL     1      -2.726  18.394   9.915  1.00  0.00     0.170 C 
BRANCH  49  50
HETATM   50  C3  UNL     1      -2.219  18.170  11.333  1.00  0.00     0.052 C 
BRANCH  50  51
HETATM   51  C2  UNL     1      -1.172  17.064  11.402  1.00  0.00     0.169 C 
BRANCH  51  52
HETATM   52  O1  UNL     1      -1.726  15.974  12.140  1.00  0.00    -0.396 OA
HETATM   53  C1  UNL     1      -0.718  15.234  12.817  1.00  0.00     0.201 C 
ENDBRANCH  51  52
ENDBRANCH  50  51
ENDBRANCH  49  50
ENDBRANCH  48  49
ENDBRANCH   1  48
BRANCH  30  54
HETATM   54  O5  UNL     1       0.608  18.367   1.546  1.00  0.00    -0.384 OA
HETATM   55  H35 UNL     1       0.405  19.101   2.147  1.00  0.00     0.211 HD
ENDBRANCH  30  54
BRANCH  35  56
HETATM   56  O6  UNL     1       0.306  14.027  -1.006  1.00  0.00    -0.386 OA
HETATM   57  H46 UNL     1       1.195  13.617  -1.102  1.00  0.00     0.210 HD
ENDBRANCH  35  56
BRANCH  37  58
HETATM   58  O7  UNL     1       1.464  14.195  -3.644  1.00  0.00    -0.390 OA
HETATM   59  H48 UNL     1       0.758  14.429  -4.269  1.00  0.00     0.210 HD
ENDBRANCH  37  58
BRANCH  45  60
HETATM   60  O9  UNL     1       3.799  13.713   1.526  1.00  0.00    -0.366 OA
HETATM   61  H59 UNL     1       3.669  14.167   2.371  1.00  0.00     0.212 HD
ENDBRANCH  45  60
TORSDOF 9
ENDMDL
MODEL 8
REMARK minimizedAffinity -7.05999279
REMARK CNNscore 0.126671642
REMARK CNNaffinity 6.33278704
REMARK  9 active torsions:
REMARK  status: ('A' for Active; 'I' for Inactive)
REMARK    1  A    between atoms: O1_2  and  C2_3 
REMARK    2  A    between atoms: C2_3  and  C3_4 
REMARK    3  A    between atoms: C3_4  and  C4_5 
REMARK    4  A    between atoms: C4_5  and  O2_6 
REMARK    5  A    between atoms: O2_6  and  C5_7 
REMARK    6  A    between atoms: C31_36  and  O5_37 
REMARK    7  A    between atoms: C36_42  and  O6_44 
REMARK    8  A    between atoms: C38_45  and  O7_46 
REMARK    9  A    between atoms: C45_54  and  O9_55 
ROOT
HETATM    1  C5  UNL     1      -4.473 -10.279   4.520  1.00  0.00     0.122 C 
HETATM    2  C6  UNL     1      -4.462  -9.789   3.075  1.00  0.00     0.033 C 
HETATM    3  C7  UNL     1      -5.861  -9.557   2.497  1.00  0.00     0.014 C 
HETATM    4  C8  UNL     1      -6.843 -10.774   2.649  1.00  0.00    -0.010 C 
HETATM    5  C9  UNL     1      -6.270 -11.951   1.811  1.00  0.00     0.018 C 
HETATM    6  C10 UNL     1      -6.855 -11.151   4.161  1.00  0.00     0.073 C 
HETATM    7  C11 UNL     1      -5.447 -11.447   4.709  1.00  0.00     0.045 C 
HETATM    8  C12 UNL     1      -7.513 -10.049   5.004  1.00  0.00     0.161 C 
HETATM    9  O3  UNL     1      -7.074  -9.681   6.090  1.00  0.00    -0.292 OA
HETATM   10  C13 UNL     1      -8.802  -9.491   4.523  1.00  0.00    -0.005 C 
HETATM   11  C14 UNL     1      -9.199  -9.810   3.277  1.00  0.00    -0.013 C 
HETATM   12  C15 UNL     1      -8.341 -10.429   2.146  1.00  0.00     0.058 C 
HETATM   13  C16 UNL     1      -8.217  -9.506   0.951  1.00  0.00    -0.091 C 
HETATM   14  C17 UNL     1      -8.130  -8.973  -0.128  1.00  0.00    -0.104 C 
HETATM   15  C18 UNL     1      -8.069  -8.504  -1.530  1.00  0.00     0.115 C 
HETATM   16  C19 UNL     1      -8.790  -7.195  -1.620  1.00  0.00     0.090 A 
HETATM   17  C20 UNL     1      -9.996  -6.879  -0.743  1.00  0.00     0.120 A 
HETATM   18  N1  UNL     1     -10.113  -7.034  -2.131  1.00  0.00    -0.243 NA
HETATM   19  C21 UNL     1     -10.848  -7.900  -2.919  1.00  0.00     0.240 C 
HETATM   20  O4  UNL     1     -10.458  -8.155  -4.066  1.00  0.00    -0.277 OA
HETATM   21  C22 UNL     1     -12.090  -8.676  -2.294  1.00  0.00     0.245 C 
HETATM   22  C23 UNL     1     -12.834  -7.755  -1.232  1.00  0.00     0.145 C 
HETATM   23  C24 UNL     1     -12.866  -8.331   0.131  1.00  0.00    -0.103 C 
HETATM   24  C25 UNL     1     -12.891  -9.074   1.079  1.00  0.00    -0.092 C 
HETATM   25  C26 UNL     1     -12.888 -10.151   2.129  1.00  0.00     0.067 C 
HETATM   26  C27 UNL     1     -13.008  -9.304   3.511  1.00  0.00     0.034 C 
HETATM   27  C28 UNL     1     -11.589  -9.329   4.158  1.00  0.00     0.027 C 
HETATM   28  C29 UNL     1     -11.030  -8.211   5.014  1.00  0.00     0.013 C 
HETATM   29  C30 UNL     1      -9.635  -8.689   5.522  1.00  0.00     0.043 C 
HETATM   30  C31 UNL     1     -10.651  -9.586   2.972  1.00  0.00     0.096 C 
HETATM   31  C32 UNL     1     -11.415 -10.793   2.343  1.00  0.00     0.013 C 
HETATM   32  C33 UNL     1     -11.469 -12.020   3.337  1.00  0.00     0.020 C 
HETATM   33  C34 UNL     1     -10.601 -11.293   1.149  1.00  0.00     0.016 C 
HETATM   34  C35 UNL     1      -9.140 -11.655   1.567  1.00  0.00     0.029 C 
HETATM   35  C36 UNL     1     -14.072 -11.246   1.753  1.00  0.00     0.102 C 
HETATM   36  C37 UNL     1     -14.969 -11.517   2.979  1.00  0.00     0.050 C 
HETATM   37  C38 UNL     1     -15.047 -10.923   0.507  1.00  0.00     0.183 C 
HETATM   38  C39 UNL     1     -14.352 -10.841  -0.874  1.00  0.00     0.158 C 
HETATM   39  O8  UNL     1     -13.735 -12.007  -1.430  1.00  0.00    -0.373 OA
HETATM   40  C40 UNL     1     -13.162 -11.541  -2.707  1.00  0.00     0.185 C 
HETATM   41  C41 UNL     1     -14.010 -10.329  -3.162  1.00  0.00     0.028 C 
HETATM   42  C42 UNL     1     -13.135  -9.057  -3.413  1.00  0.00     0.060 C 
HETATM   43  C43 UNL     1     -15.078 -10.202  -2.056  1.00  0.00     0.020 C 
HETATM   44  C44 UNL     1     -16.356 -10.945  -2.451  1.00  0.00     0.013 C 
HETATM   45  C45 UNL     1     -11.663 -11.125  -2.584  1.00  0.00     0.385 C 
HETATM   46  N2  UNL     1     -11.488  -9.938  -1.765  1.00  0.00     0.134 N 
HETATM   47  H60 UNL     1     -10.512  -9.789  -1.538  1.00  0.00     0.321 HD
ENDROOT
BRANCH   1  48
HETATM   48  O2  UNL     1      -3.169 -10.747   4.883  1.00  0.00    -0.386 OA
BRANCH  48  49
HETATM   49  C4  UNL     1      -2.652 -10.116   6.053  1.00  0.00     0.170 C 
BRANCH  49  50
HETATM   50  C3  UNL     1      -3.800  -9.525   6.860  1.00  0.00     0.052 C 
BRANCH  50  51
HETATM   51  C2  UNL     1      -4.127 -10.360   8.093  1.00  0.00     0.169 C 
BRANCH  51  52
HETATM   52  O1  UNL     1      -3.803  -9.588   9.251  1.00  0.00    -0.396 OA
HETATM   53  C1  UNL     1      -4.572  -9.987  10.378  1.00  0.00     0.201 C 
ENDBRANCH  51  52
ENDBRANCH  50  51
ENDBRANCH  49  50
ENDBRANCH  48  49
ENDBRANCH   1  48
BRANCH  30  54
HETATM   54  O5  UNL     1     -10.634  -8.412   2.161  1.00  0.00    -0.384 OA
HETATM   55  H35 UNL     1      -9.989  -7.786   2.526  1.00  0.00     0.211 HD
ENDBRANCH  30  54
BRANCH  35  56
HETATM   56  O6  UNL     1     -13.469 -12.526   1.465  1.00  0.00    -0.386 OA
HETATM   57  H46 UNL     1     -13.582 -12.712   0.505  1.00  0.00     0.210 HD
ENDBRANCH  35  56
BRANCH  37  58
HETATM   58  O7  UNL     1     -16.078 -11.919   0.389  1.00  0.00    -0.390 OA
HETATM   59  H48 UNL     1     -16.693 -11.813   1.133  1.00  0.00     0.210 HD
ENDBRANCH  37  58
BRANCH  45  60
HETATM   60  O9  UNL     1     -10.926 -12.191  -2.018  1.00  0.00    -0.366 OA
HETATM   61  H59 UNL     1     -10.054 -11.836  -1.791  1.00  0.00     0.212 HD
ENDBRANCH  45  60
TORSDOF 9
ENDMDL
MODEL 9
REMARK minimizedAffinity -6.87252569
REMARK CNNscore 0.124792151
REMARK CNNaffinity 5.30691195
REMARK  9 active torsions:
REMARK  status: ('A' for Active; 'I' for Inactive)
REMARK    1  A    between atoms: O1_2  and  C2_3 
REMARK    2  A    between atoms: C2_3  and  C3_4 
REMARK    3  A    between atoms: C3_4  and  C4_5 
REMARK    4  A    between atoms: C4_5  and  O2_6 
REMARK    5  A    between atoms: O2_6  and  C5_7 
REMARK    6  A    between atoms: C31_36  and  O5_37 
REMARK    7  A    between atoms: C36_42  and  O6_44 
REMARK    8  A    between atoms: C38_45  and  O7_46 
REMARK    9  A    between atoms: C45_54  and  O9_55 
ROOT
HETATM    1  C5  UNL     1      -2.936   8.071  14.851  1.00  0.00     0.122 C 
HETATM    2  C6  UNL     1      -3.382   9.516  14.643  1.00  0.00     0.033 C 
HETATM    3  C7  UNL     1      -2.429  10.545  15.258  1.00  0.00     0.014 C 
HETATM    4  C8  UNL     1      -2.083  10.297  16.771  1.00  0.00    -0.010 C 
HETATM    5  C9  UNL     1      -3.397  10.452  17.587  1.00  0.00     0.018 C 
HETATM    6  C10 UNL     1      -1.560   8.833  16.874  1.00  0.00     0.073 C 
HETATM    7  C11 UNL     1      -2.560   7.806  16.314  1.00  0.00     0.045 C 
HETATM    8  C12 UNL     1      -0.207   8.674  16.165  1.00  0.00     0.161 C 
HETATM    9  O3  UNL     1       0.076   7.703  15.469  1.00  0.00    -0.292 OA
HETATM   10  C13 UNL     1       0.836   9.695  16.434  1.00  0.00    -0.005 C 
HETATM   11  C14 UNL     1       0.468  10.812  17.090  1.00  0.00    -0.013 C 
HETATM   12  C15 UNL     1      -0.972  11.330  17.331  1.00  0.00     0.058 C 
HETATM   13  C16 UNL     1      -1.218  12.667  16.662  1.00  0.00    -0.091 C 
HETATM   14  C17 UNL     1      -1.544  13.779  16.326  1.00  0.00    -0.104 C 
HETATM   15  C18 UNL     1      -2.020  15.162  16.103  1.00  0.00     0.115 C 
HETATM   16  C19 UNL     1      -0.944  15.920  15.388  1.00  0.00     0.090 A 
HETATM   17  C20 UNL     1       0.533  15.630  15.619  1.00  0.00     0.120 A 
HETATM   18  N1  UNL     1      -0.052  16.841  16.013  1.00  0.00    -0.243 NA
HETATM   19  C21 UNL     1      -0.174  17.469  17.238  1.00  0.00     0.240 C 
HETATM   20  O4  UNL     1      -1.098  18.274  17.418  1.00  0.00    -0.277 OA
HETATM   21  C22 UNL     1       0.769  17.037  18.445  1.00  0.00     0.245 C 
HETATM   22  C23 UNL     1       2.213  16.648  17.901  1.00  0.00     0.145 C 
HETATM   23  C24 UNL     1       2.603  15.253  18.204  1.00  0.00    -0.103 C 
HETATM   24  C25 UNL     1       2.736  14.165  18.706  1.00  0.00    -0.092 C 
HETATM   25  C26 UNL     1       2.753  12.863  19.459  1.00  0.00     0.067 C 
HETATM   26  C27 UNL     1       3.811  11.971  18.606  1.00  0.00     0.034 C 
HETATM   27  C28 UNL     1       2.958  10.945  17.797  1.00  0.00     0.027 C 
HETATM   28  C29 UNL     1       3.355  10.400  16.440  1.00  0.00     0.013 C 
HETATM   29  C30 UNL     1       2.272   9.350  16.045  1.00  0.00     0.043 C 
HETATM   30  C31 UNL     1       1.580  11.613  17.699  1.00  0.00     0.096 C 
HETATM   31  C32 UNL     1       1.410  11.991  19.203  1.00  0.00     0.013 C 
HETATM   32  C33 UNL     1       1.386  10.705  20.120  1.00  0.00     0.020 C 
HETATM   33  C34 UNL     1       0.028  12.620  19.376  1.00  0.00     0.016 C 
HETATM   34  C35 UNL     1      -1.100  11.668  18.862  1.00  0.00     0.029 C 
HETATM   35  C36 UNL     1       3.076  13.188  21.049  1.00  0.00     0.102 C 
HETATM   36  C37 UNL     1       4.220  12.290  21.565  1.00  0.00     0.050 C 
HETATM   37  C38 UNL     1       3.433  14.707  21.465  1.00  0.00     0.183 C 
HETATM   38  C39 UNL     1       2.302  15.740  21.236  1.00  0.00     0.158 C 
HETATM   39  O8  UNL     1       1.084  15.636  21.979  1.00  0.00    -0.373 OA
HETATM   40  C40 UNL     1       0.255  16.747  21.475  1.00  0.00     0.185 C 
HETATM   41  C41 UNL     1       1.229  17.834  20.960  1.00  0.00     0.028 C 
HETATM   42  C42 UNL     1       0.948  18.221  19.471  1.00  0.00     0.060 C 
HETATM   43  C43 UNL     1       2.622  17.234  21.247  1.00  0.00     0.020 C 
HETATM   44  C44 UNL     1       3.156  17.726  22.594  1.00  0.00     0.013 C 
HETATM   45  C45 UNL     1      -0.711  16.313  20.330  1.00  0.00     0.385 C 
HETATM   46  N2  UNL     1       0.003  15.944  19.119  1.00  0.00     0.134 N 
HETATM   47  H60 UNL     1      -0.611  15.489  18.455  1.00  0.00     0.321 HD
ENDROOT
BRANCH   1  48
HETATM   48  O2  UNL     1      -4.006   7.181  14.517  1.00  0.00    -0.386 OA
BRANCH  48  49
HETATM   49  C4  UNL     1      -5.283   7.817  14.513  1.00  0.00     0.170 C 
BRANCH  49  50
HETATM   50  C3  UNL     1      -6.353   6.810  14.913  1.00  0.00     0.052 C 
BRANCH  50  51
HETATM   51  C2  UNL     1      -7.493   7.459  15.690  1.00  0.00     0.169 C 
BRANCH  51  52
HETATM   52  O1  UNL     1      -8.707   7.226  14.975  1.00  0.00    -0.396 OA
HETATM   53  C1  UNL     1      -9.625   8.300  15.138  1.00  0.00     0.201 C 
ENDBRANCH  51  52
ENDBRANCH  50  51
ENDBRANCH  49  50
ENDBRANCH  48  49
ENDBRANCH   1  48
BRANCH  30  54
HETATM   54  O5  UNL     1       1.693  12.731  16.819  1.00  0.00    -0.384 OA
HETATM   55  H35 UNL     1       1.600  12.422  15.904  1.00  0.00     0.211 HD
ENDBRANCH  30  54
BRANCH  35  56
HETATM   56  O6  UNL     1       1.940  12.812  21.857  1.00  0.00    -0.386 OA
HETATM   57  H46 UNL     1       1.527  13.633  22.212  1.00  0.00     0.210 HD
ENDBRANCH  35  56
BRANCH  37  58
HETATM   58  O7  UNL     1       3.789  14.789  22.856  1.00  0.00    -0.390 OA
HETATM   59  H48 UNL     1       4.652  14.360  22.978  1.00  0.00     0.210 HD
ENDBRANCH  37  58
BRANCH  45  60
HETATM   60  O9  UNL     1      -1.488  15.214  20.763  1.00  0.00    -0.366 OA
HETATM   61  H59 UNL     1      -1.934  14.863  19.978  1.00  0.00     0.212 HD
ENDBRANCH  45  60
TORSDOF 9
ENDMDL
