MODEL 1
REMARK minimizedAffinity -7.91150951
REMARK CNNscore 0.619306684
REMARK CNNaffinity 6.91544104
REMARK  12 active torsions:
REMARK  status: ('A' for Active; 'I' for Inactive)
REMARK    1  A    between atoms: C2_2  and  C4_4 
REMARK    2  A    between atoms: C4_4  and  C6_6 
REMARK    3  A    between atoms: C7_8  and  C8_9 
REMARK    4  A    between atoms: C8_9  and  O2_11 
REMARK    5  A    between atoms: C8_9  and  C10_12 
REMARK    6  A    between atoms: C13_15  and  O3_16 
REMARK    7  A    between atoms: C19_23  and  O5_24 
REMARK    8  A    between atoms: C20_25  and  O6_26 
REMARK    9  A    between atoms: C27_33  and  C28_34 
REMARK   10  A    between atoms: C28_34  and  C29_35 
REMARK   11  A    between atoms: C29_35  and  C30_36 
REMARK   12  A    between atoms: C34_40  and  O7_41 
ROOT
HETATM    1  C10 UNL     1      -1.552  52.992 -10.959  1.00  0.00     0.034 C 
HETATM    2  C11 UNL     1      -3.023  53.445 -10.849  1.00  0.00     0.012 C 
HETATM    3  C12 UNL     1      -3.633  52.960 -12.152  1.00  0.00     0.044 C 
HETATM    4  C13 UNL     1      -3.108  51.519 -12.266  1.00  0.00     0.090 C 
HETATM    5  C14 UNL     1      -3.897  50.505 -11.425  1.00  0.00    -0.037 C 
HETATM    6  C15 UNL     1      -5.088  50.750 -10.837  1.00  0.00     0.057 C 
HETATM    7  C16 UNL     1      -5.787  49.737 -10.010  1.00  0.00     0.154 C 
HETATM    8  O4  UNL     1      -6.966  49.927  -9.709  1.00  0.00    -0.293 OA
HETATM    9  C17 UNL     1      -4.990  48.522  -9.573  1.00  0.00     0.071 C 
HETATM   10  C18 UNL     1      -5.891  47.445  -8.961  1.00  0.00     0.047 C 
HETATM   11  C19 UNL     1      -5.092  46.210  -8.531  1.00  0.00     0.147 C 
HETATM   12  C20 UNL     1      -4.200  45.647  -9.646  1.00  0.00     0.147 C 
HETATM   13  C21 UNL     1      -3.350  46.744 -10.300  1.00  0.00     0.044 C 
HETATM   14  C22 UNL     1      -4.146  48.003 -10.766  1.00  0.00    -0.023 C 
HETATM   15  C23 UNL     1      -5.049  47.603 -11.971  1.00  0.00     0.016 C 
HETATM   16  C24 UNL     1      -3.199  49.155 -11.279  1.00  0.00     0.027 C 
HETATM   17  C25 UNL     1      -1.973  49.477 -10.422  1.00  0.00     0.011 C 
HETATM   18  C26 UNL     1      -1.010  50.363 -11.214  1.00  0.00     0.014 C 
HETATM   19  C27 UNL     1      -1.573  51.672 -11.855  1.00  0.00     0.002 C 
ENDROOT
BRANCH   1  20
HETATM   20  C8  UNL     1      -0.716  53.197  -9.655  1.00  0.00     0.087 C 
HETATM   21  C9  UNL     1      -1.328  52.410  -8.483  1.00  0.00     0.049 C 
BRANCH  20  22
HETATM   22  C7  UNL     1      -0.516  54.633  -9.226  1.00  0.00     0.185 A 
HETATM   23  C6  UNL     1       0.801  55.386  -9.020  1.00  0.00     0.158 A 
HETATM   24  O1  UNL     1       0.005  55.543 -10.203  1.00  0.00    -0.372 OA
BRANCH  23  25
HETATM   25  C4  UNL     1       2.203  54.896  -9.288  1.00  0.00     0.017 C 
HETATM   26  C5  UNL     1       2.846  54.400  -7.987  1.00  0.00     0.013 C 
BRANCH  25  27
HETATM   27  C2  UNL     1       3.046  55.997 -10.002  1.00  0.00    -0.016 C 
HETATM   28  C1  UNL     1       3.740  56.979  -9.048  1.00  0.00     0.010 C 
HETATM   29  C3  UNL     1       4.092  55.378 -10.938  1.00  0.00     0.010 C 
ENDBRANCH  25  27
ENDBRANCH  23  25
ENDBRANCH  20  22
BRANCH  20  30
HETATM   30  O2  UNL     1       0.559  52.574  -9.881  1.00  0.00    -0.387 OA
HETATM   31  H17 UNL     1       0.412  51.659 -10.176  1.00  0.00     0.210 HD
ENDBRANCH  20  30
ENDBRANCH   1  20
BRANCH  19  32
HETATM   32  C28 UNL     1      -0.617  51.886 -13.112  1.00  0.00     0.018 C 
BRANCH  32  33
HETATM   33  C29 UNL     1       0.678  51.072 -13.257  1.00  0.00     0.039 C 
BRANCH  33  34
HETATM   34  C30 UNL     1       1.522  51.614 -14.394  1.00  0.00    -0.056 A 
HETATM   35  C31 UNL     1       2.921  51.645 -14.302  1.00  0.00     0.007 A 
HETATM   36  C32 UNL     1       3.685  52.141 -15.359  1.00  0.00     0.003 A 
HETATM   37  C33 UNL     1       3.064  52.595 -16.525  1.00  0.00     0.036 A 
HETATM   38  C34 UNL     1       1.676  52.551 -16.620  1.00  0.00     0.066 A 
HETATM   39  C35 UNL     1       0.904  52.068 -15.567  1.00  0.00     0.043 A 
BRANCH  38  40
HETATM   40  O7  UNL     1       1.027  52.979 -17.741  1.00  0.00    -0.361 OA
HETATM   41  H49 UNL     1       1.686  53.187 -18.420  1.00  0.00     0.217 HD
ENDBRANCH  38  40
ENDBRANCH  33  34
ENDBRANCH  32  33
ENDBRANCH  19  32
BRANCH   4  42
HETATM   42  O3  UNL     1      -3.230  51.084 -13.617  1.00  0.00    -0.384 OA
HETATM   43  H23 UNL     1      -4.146  50.802 -13.760  1.00  0.00     0.211 HD
ENDBRANCH   4  42
BRANCH  12  44
HETATM   44  O6  UNL     1      -4.994  44.980 -10.629  1.00  0.00    -0.393 OA
HETATM   45  H31 UNL     1      -5.304  44.154 -10.211  1.00  0.00     0.210 HD
ENDBRANCH  12  44
BRANCH  11  46
HETATM   46  O5  UNL     1      -5.991  45.198  -8.076  1.00  0.00    -0.393 OA
HETATM   47  H29 UNL     1      -6.670  45.096  -8.771  1.00  0.00     0.210 HD
ENDBRANCH  11  46
TORSDOF 12
ENDMDL
MODEL 2
REMARK minimizedAffinity -10.6919909
REMARK CNNscore 0.587947726
REMARK CNNaffinity 7.4571805
REMARK  12 active torsions:
REMARK  status: ('A' for Active; 'I' for Inactive)
REMARK    1  A    between atoms: C2_2  and  C4_4 
REMARK    2  A    between atoms: C4_4  and  C6_6 
REMARK    3  A    between atoms: C7_8  and  C8_9 
REMARK    4  A    between atoms: C8_9  and  O2_11 
REMARK    5  A    between atoms: C8_9  and  C10_12 
REMARK    6  A    between atoms: C13_15  and  O3_16 
REMARK    7  A    between atoms: C19_23  and  O5_24 
REMARK    8  A    between atoms: C20_25  and  O6_26 
REMARK    9  A    between atoms: C27_33  and  C28_34 
REMARK   10  A    between atoms: C28_34  and  C29_35 
REMARK   11  A    between atoms: C29_35  and  C30_36 
REMARK   12  A    between atoms: C34_40  and  O7_41 
ROOT
HETATM    1  C10 UNL     1      -2.990  49.912 -23.468  1.00  0.00     0.034 C 
HETATM    2  C11 UNL     1      -3.013  48.378 -23.637  1.00  0.00     0.012 C 
HETATM    3  C12 UNL     1      -2.447  47.877 -22.319  1.00  0.00     0.044 C 
HETATM    4  C13 UNL     1      -3.206  48.712 -21.275  1.00  0.00     0.090 C 
HETATM    5  C14 UNL     1      -4.614  48.181 -20.964  1.00  0.00    -0.037 C 
HETATM    6  C15 UNL     1      -5.085  46.973 -21.343  1.00  0.00     0.057 C 
HETATM    7  C16 UNL     1      -6.466  46.530 -21.038  1.00  0.00     0.154 C 
HETATM    8  O4  UNL     1      -6.756  45.343 -21.188  1.00  0.00    -0.293 OA
HETATM    9  C17 UNL     1      -7.450  47.586 -20.568  1.00  0.00     0.071 C 
HETATM   10  C18 UNL     1      -8.745  46.957 -20.041  1.00  0.00     0.047 C 
HETATM   11  C19 UNL     1      -9.735  48.019 -19.553  1.00  0.00     0.147 C 
HETATM   12  C20 UNL     1      -9.122  49.002 -18.544  1.00  0.00     0.147 C 
HETATM   13  C21 UNL     1      -7.792  49.575 -19.050  1.00  0.00     0.044 C 
HETATM   14  C22 UNL     1      -6.758  48.510 -19.532  1.00  0.00    -0.023 C 
HETATM   15  C23 UNL     1      -6.257  47.706 -18.295  1.00  0.00     0.016 C 
HETATM   16  C24 UNL     1      -5.482  49.167 -20.187  1.00  0.00     0.027 C 
HETATM   17  C25 UNL     1      -5.722  50.300 -21.187  1.00  0.00     0.011 C 
HETATM   18  C26 UNL     1      -4.407  51.029 -21.464  1.00  0.00     0.014 C 
HETATM   19  C27 UNL     1      -3.173  50.178 -21.905  1.00  0.00     0.002 C 
ENDROOT
BRANCH   1  20
HETATM   20  C8  UNL     1      -3.701  50.696 -24.617  1.00  0.00     0.087 C 
HETATM   21  C9  UNL     1      -3.660  49.899 -25.932  1.00  0.00     0.049 C 
BRANCH  20  22
HETATM   22  C7  UNL     1      -3.178  52.092 -24.877  1.00  0.00     0.185 A 
HETATM   23  C6  UNL     1      -1.981  52.510 -25.733  1.00  0.00     0.158 A 
HETATM   24  O1  UNL     1      -3.332  52.613 -26.202  1.00  0.00    -0.372 OA
BRANCH  23  25
HETATM   25  C4  UNL     1      -1.101  51.634 -26.592  1.00  0.00     0.017 C 
HETATM   26  C5  UNL     1      -0.081  50.893 -25.719  1.00  0.00     0.013 C 
BRANCH  25  27
HETATM   27  C2  UNL     1      -0.435  52.467 -27.731  1.00  0.00    -0.016 C 
HETATM   28  C1  UNL     1      -0.092  53.910 -27.339  1.00  0.00     0.010 C 
HETATM   29  C3  UNL     1       0.825  51.774 -28.264  1.00  0.00     0.010 C 
ENDBRANCH  25  27
ENDBRANCH  23  25
ENDBRANCH  20  22
BRANCH  20  30
HETATM   30  O2  UNL     1      -5.096  50.754 -24.274  1.00  0.00    -0.387 OA
HETATM   31  H17 UNL     1      -5.410  49.853 -24.090  1.00  0.00     0.210 HD
ENDBRANCH  20  30
ENDBRANCH   1  20
BRANCH  19  32
HETATM   32  C28 UNL     1      -1.943  51.046 -21.382  1.00  0.00     0.018 C 
BRANCH  32  33
HETATM   33  C29 UNL     1      -0.565  50.934 -22.053  1.00  0.00     0.039 C 
BRANCH  33  34
HETATM   34  C30 UNL     1       0.219  52.219 -21.873  1.00  0.00    -0.056 A 
HETATM   35  C31 UNL     1       0.694  52.602 -20.610  1.00  0.00     0.007 A 
HETATM   36  C32 UNL     1       1.420  53.784 -20.460  1.00  0.00     0.003 A 
HETATM   37  C33 UNL     1       1.695  54.588 -21.570  1.00  0.00     0.036 A 
HETATM   38  C34 UNL     1       1.236  54.198 -22.824  1.00  0.00     0.066 A 
HETATM   39  C35 UNL     1       0.501  53.026 -22.983  1.00  0.00     0.043 A 
BRANCH  38  40
HETATM   40  O7  UNL     1       1.484  54.949 -23.936  1.00  0.00    -0.361 OA
HETATM   41  H49 UNL     1       2.085  55.670 -23.694  1.00  0.00     0.217 HD
ENDBRANCH  38  40
ENDBRANCH  33  34
ENDBRANCH  32  33
ENDBRANCH  19  32
BRANCH   4  42
HETATM   42  O3  UNL     1      -2.495  48.674 -20.042  1.00  0.00    -0.384 OA
HETATM   43  H23 UNL     1      -2.715  47.843 -19.593  1.00  0.00     0.211 HD
ENDBRANCH   4  42
BRANCH  12  44
HETATM   44  O6  UNL     1      -8.942  48.366 -17.278  1.00  0.00    -0.393 OA
HETATM   45  H31 UNL     1      -9.836  48.256 -16.900  1.00  0.00     0.210 HD
ENDBRANCH  12  44
BRANCH  11  46
HETATM   46  O5  UNL     1     -10.870  47.377 -18.969  1.00  0.00    -0.393 OA
HETATM   47  H29 UNL     1     -10.523  46.730 -18.325  1.00  0.00     0.210 HD
ENDBRANCH  11  46
TORSDOF 12
ENDMDL
MODEL 3
REMARK minimizedAffinity -7.50460005
REMARK CNNscore 0.575425029
REMARK CNNaffinity 6.97229385
REMARK  12 active torsions:
REMARK  status: ('A' for Active; 'I' for Inactive)
REMARK    1  A    between atoms: C2_2  and  C4_4 
REMARK    2  A    between atoms: C4_4  and  C6_6 
REMARK    3  A    between atoms: C7_8  and  C8_9 
REMARK    4  A    between atoms: C8_9  and  O2_11 
REMARK    5  A    between atoms: C8_9  and  C10_12 
REMARK    6  A    between atoms: C13_15  and  O3_16 
REMARK    7  A    between atoms: C19_23  and  O5_24 
REMARK    8  A    between atoms: C20_25  and  O6_26 
REMARK    9  A    between atoms: C27_33  and  C28_34 
REMARK   10  A    between atoms: C28_34  and  C29_35 
REMARK   11  A    between atoms: C29_35  and  C30_36 
REMARK   12  A    between atoms: C34_40  and  O7_41 
ROOT
HETATM    1  C10 UNL     1      -0.507  51.282 -14.863  1.00  0.00     0.034 C 
HETATM    2  C11 UNL     1      -2.002  51.296 -14.481  1.00  0.00     0.012 C 
HETATM    3  C12 UNL     1      -2.671  50.647 -15.681  1.00  0.00     0.044 C 
HETATM    4  C13 UNL     1      -1.789  49.417 -15.948  1.00  0.00     0.090 C 
HETATM    5  C14 UNL     1      -2.097  48.224 -15.030  1.00  0.00    -0.037 C 
HETATM    6  C15 UNL     1      -3.184  48.123 -14.236  1.00  0.00     0.057 C 
HETATM    7  C16 UNL     1      -3.411  46.957 -13.348  1.00  0.00     0.154 C 
HETATM    8  O4  UNL     1      -4.522  46.804 -12.840  1.00  0.00    -0.293 OA
HETATM    9  C17 UNL     1      -2.238  46.024 -13.109  1.00  0.00     0.071 C 
HETATM   10  C18 UNL     1      -2.675  44.737 -12.400  1.00  0.00     0.047 C 
HETATM   11  C19 UNL     1      -1.496  43.786 -12.169  1.00  0.00     0.147 C 
HETATM   12  C20 UNL     1      -0.694  43.495 -13.445  1.00  0.00     0.147 C 
HETATM   13  C21 UNL     1      -0.319  44.785 -14.185  1.00  0.00     0.044 C 
HETATM   14  C22 UNL     1      -1.507  45.760 -14.451  1.00  0.00    -0.023 C 
HETATM   15  C23 UNL     1      -2.459  45.111 -15.500  1.00  0.00     0.016 C 
HETATM   16  C24 UNL     1      -1.031  47.132 -15.066  1.00  0.00     0.027 C 
HETATM   17  C25 UNL     1       0.185  47.797 -14.420  1.00  0.00     0.011 C 
HETATM   18  C26 UNL     1       0.702  48.916 -15.324  1.00  0.00     0.014 C 
HETATM   19  C27 UNL     1      -0.312  50.005 -15.800  1.00  0.00     0.002 C 
ENDROOT
BRANCH   1  20
HETATM   20  C8  UNL     1       0.454  51.725 -13.714  1.00  0.00     0.087 C 
HETATM   21  C9  UNL     1       1.918  51.711 -14.188  1.00  0.00     0.049 C 
BRANCH  20  22
HETATM   22  C7  UNL     1       0.350  50.930 -12.432  1.00  0.00     0.185 A 
HETATM   23  C6  UNL     1      -0.534  51.209 -11.213  1.00  0.00     0.158 A 
HETATM   24  O1  UNL     1      -0.874  50.222 -12.197  1.00  0.00    -0.372 OA
BRANCH  23  25
HETATM   25  C4  UNL     1      -1.574  52.291 -11.048  1.00  0.00     0.017 C 
HETATM   26  C5  UNL     1      -1.188  53.222  -9.892  1.00  0.00     0.013 C 
BRANCH  25  27
HETATM   27  C2  UNL     1      -2.995  51.669 -10.880  1.00  0.00    -0.016 C 
HETATM   28  C1  UNL     1      -3.239  51.010  -9.516  1.00  0.00     0.010 C 
HETATM   29  C3  UNL     1      -4.092  52.709 -11.142  1.00  0.00     0.010 C 
ENDBRANCH  25  27
ENDBRANCH  23  25
ENDBRANCH  20  22
BRANCH  20  30
HETATM   30  O2  UNL     1       0.173  53.110 -13.453  1.00  0.00    -0.387 OA
HETATM   31  H17 UNL     1       0.224  53.602 -14.289  1.00  0.00     0.210 HD
ENDBRANCH  20  30
ENDBRANCH   1  20
BRANCH  19  32
HETATM   32  C28 UNL     1       0.306  50.476 -17.192  1.00  0.00     0.018 C 
BRANCH  32  33
HETATM   33  C29 UNL     1       0.417  51.970 -17.532  1.00  0.00     0.039 C 
BRANCH  33  34
HETATM   34  C30 UNL     1       0.472  52.170 -19.034  1.00  0.00    -0.056 A 
HETATM   35  C31 UNL     1      -0.156  51.267 -19.905  1.00  0.00     0.007 A 
HETATM   36  C32 UNL     1      -0.103  51.468 -21.285  1.00  0.00     0.003 A 
HETATM   37  C33 UNL     1       0.562  52.578 -21.810  1.00  0.00     0.036 A 
HETATM   38  C34 UNL     1       1.173  53.480 -20.944  1.00  0.00     0.066 A 
HETATM   39  C35 UNL     1       1.135  53.284 -19.566  1.00  0.00     0.043 A 
BRANCH  38  40
HETATM   40  O7  UNL     1       1.829  54.581 -21.412  1.00  0.00    -0.361 OA
HETATM   41  H49 UNL     1       1.687  54.642 -22.369  1.00  0.00     0.217 HD
ENDBRANCH  38  40
ENDBRANCH  33  34
ENDBRANCH  32  33
ENDBRANCH  19  32
BRANCH   4  42
HETATM   42  O3  UNL     1      -2.021  48.957 -17.276  1.00  0.00    -0.384 OA
HETATM   43  H23 UNL     1      -2.830  48.423 -17.272  1.00  0.00     0.211 HD
ENDBRANCH   4  42
BRANCH  12  44
HETATM   44  O6  UNL     1      -1.428  42.622 -14.305  1.00  0.00    -0.393 OA
HETATM   45  H31 UNL     1      -1.412  41.744 -13.878  1.00  0.00     0.210 HD
ENDBRANCH  12  44
BRANCH  11  46
HETATM   46  O5  UNL     1      -1.976  42.561 -11.613  1.00  0.00    -0.393 OA
HETATM   47  H29 UNL     1      -2.711  42.265 -12.184  1.00  0.00     0.210 HD
ENDBRANCH  11  46
TORSDOF 12
ENDMDL
MODEL 4
REMARK minimizedAffinity -8.32887268
REMARK CNNscore 0.53239131
REMARK CNNaffinity 7.3938098
REMARK  12 active torsions:
REMARK  status: ('A' for Active; 'I' for Inactive)
REMARK    1  A    between atoms: C2_2  and  C4_4 
REMARK    2  A    between atoms: C4_4  and  C6_6 
REMARK    3  A    between atoms: C7_8  and  C8_9 
REMARK    4  A    between atoms: C8_9  and  O2_11 
REMARK    5  A    between atoms: C8_9  and  C10_12 
REMARK    6  A    between atoms: C13_15  and  O3_16 
REMARK    7  A    between atoms: C19_23  and  O5_24 
REMARK    8  A    between atoms: C20_25  and  O6_26 
REMARK    9  A    between atoms: C27_33  and  C28_34 
REMARK   10  A    between atoms: C28_34  and  C29_35 
REMARK   11  A    between atoms: C29_35  and  C30_36 
REMARK   12  A    between atoms: C34_40  and  O7_41 
ROOT
HETATM    1  C10 UNL     1      -4.133  48.097 -19.025  1.00  0.00     0.034 C 
HETATM    2  C11 UNL     1      -5.626  48.255 -19.381  1.00  0.00     0.012 C 
HETATM    3  C12 UNL     1      -5.759  49.741 -19.666  1.00  0.00     0.044 C 
HETATM    4  C13 UNL     1      -4.548  50.031 -20.569  1.00  0.00     0.090 C 
HETATM    5  C14 UNL     1      -4.770  49.648 -22.040  1.00  0.00    -0.037 C 
HETATM    6  C15 UNL     1      -5.964  49.331 -22.584  1.00  0.00     0.057 C 
HETATM    7  C16 UNL     1      -6.108  48.939 -24.007  1.00  0.00     0.154 C 
HETATM    8  O4  UNL     1      -7.235  48.902 -24.502  1.00  0.00    -0.293 OA
HETATM    9  C17 UNL     1      -4.841  48.593 -24.767  1.00  0.00     0.071 C 
HETATM   10  C18 UNL     1      -5.101  48.468 -26.272  1.00  0.00     0.047 C 
HETATM   11  C19 UNL     1      -3.822  48.132 -27.045  1.00  0.00     0.147 C 
HETATM   12  C20 UNL     1      -2.661  49.089 -26.741  1.00  0.00     0.147 C 
HETATM   13  C21 UNL     1      -2.451  49.262 -25.231  1.00  0.00     0.044 C 
HETATM   14  C22 UNL     1      -3.736  49.626 -24.425  1.00  0.00    -0.023 C 
HETATM   15  C23 UNL     1      -4.171  51.073 -24.808  1.00  0.00     0.016 C 
HETATM   16  C24 UNL     1      -3.487  49.630 -22.867  1.00  0.00     0.027 C 
HETATM   17  C25 UNL     1      -2.703  48.451 -22.288  1.00  0.00     0.011 C 
HETATM   18  C26 UNL     1      -2.273  48.772 -20.857  1.00  0.00     0.014 C 
HETATM   19  C27 UNL     1      -3.370  49.234 -19.845  1.00  0.00     0.002 C 
ENDROOT
BRANCH   1  20
HETATM   20  C8  UNL     1      -3.663  46.616 -18.866  1.00  0.00     0.087 C 
HETATM   21  C9  UNL     1      -3.944  45.811 -20.147  1.00  0.00     0.049 C 
BRANCH  20  22
HETATM   22  C7  UNL     1      -4.243  45.870 -17.685  1.00  0.00     0.185 A 
HETATM   23  C6  UNL     1      -3.835  44.499 -17.137  1.00  0.00     0.158 A 
HETATM   24  O1  UNL     1      -3.411  45.726 -16.527  1.00  0.00    -0.372 OA
BRANCH  23  25
HETATM   25  C4  UNL     1      -2.698  43.617 -17.593  1.00  0.00     0.017 C 
HETATM   26  C5  UNL     1      -3.205  42.583 -18.606  1.00  0.00     0.013 C 
BRANCH  25  27
HETATM   27  C2  UNL     1      -1.978  42.968 -16.370  1.00  0.00    -0.016 C 
HETATM   28  C1  UNL     1      -0.691  42.213 -16.723  1.00  0.00     0.010 C 
HETATM   29  C3  UNL     1      -1.672  44.011 -15.287  1.00  0.00     0.010 C 
ENDBRANCH  25  27
ENDBRANCH  23  25
ENDBRANCH  20  22
BRANCH  20  30
HETATM   30  O2  UNL     1      -2.230  46.647 -18.767  1.00  0.00    -0.387 OA
HETATM   31  H17 UNL     1      -1.875  47.147 -19.521  1.00  0.00     0.210 HD
ENDBRANCH  20  30
ENDBRANCH   1  20
BRANCH  19  32
HETATM   32  C28 UNL     1      -2.548  50.142 -18.825  1.00  0.00     0.018 C 
BRANCH  32  33
HETATM   33  C29 UNL     1      -2.503  51.668 -18.998  1.00  0.00     0.039 C 
BRANCH  33  34
HETATM   34  C30 UNL     1      -1.168  52.099 -19.572  1.00  0.00    -0.056 A 
HETATM   35  C31 UNL     1      -0.122  52.512 -18.733  1.00  0.00     0.007 A 
HETATM   36  C32 UNL     1       1.103  52.899 -19.275  1.00  0.00     0.003 A 
HETATM   37  C33 UNL     1       1.306  52.863 -20.657  1.00  0.00     0.036 A 
HETATM   38  C34 UNL     1       0.272  52.440 -21.487  1.00  0.00     0.066 A 
HETATM   39  C35 UNL     1      -0.959  52.061 -20.957  1.00  0.00     0.043 A 
BRANCH  38  40
HETATM   40  O7  UNL     1       0.425  52.384 -22.841  1.00  0.00    -0.361 OA
HETATM   41  H49 UNL     1       1.352  52.574 -23.055  1.00  0.00     0.217 HD
ENDBRANCH  38  40
ENDBRANCH  33  34
ENDBRANCH  32  33
ENDBRANCH  19  32
BRANCH   4  42
HETATM   42  O3  UNL     1      -4.290  51.432 -20.566  1.00  0.00    -0.384 OA
HETATM   43  H23 UNL     1      -4.903  51.852 -21.187  1.00  0.00     0.211 HD
ENDBRANCH   4  42
BRANCH  12  44
HETATM   44  O6  UNL     1      -2.886  50.357 -27.361  1.00  0.00    -0.393 OA
HETATM   45  H31 UNL     1      -2.757  50.216 -28.318  1.00  0.00     0.210 HD
ENDBRANCH  12  44
BRANCH  11  46
HETATM   46  O5  UNL     1      -4.097  48.141 -28.446  1.00  0.00    -0.393 OA
HETATM   47  H29 UNL     1      -4.549  48.986 -28.635  1.00  0.00     0.210 HD
ENDBRANCH  11  46
TORSDOF 12
ENDMDL
MODEL 5
REMARK minimizedAffinity -10.5121574
REMARK CNNscore 0.529819906
REMARK CNNaffinity 7.66634369
REMARK  12 active torsions:
REMARK  status: ('A' for Active; 'I' for Inactive)
REMARK    1  A    between atoms: C2_2  and  C4_4 
REMARK    2  A    between atoms: C4_4  and  C6_6 
REMARK    3  A    between atoms: C7_8  and  C8_9 
REMARK    4  A    between atoms: C8_9  and  O2_11 
REMARK    5  A    between atoms: C8_9  and  C10_12 
REMARK    6  A    between atoms: C13_15  and  O3_16 
REMARK    7  A    between atoms: C19_23  and  O5_24 
REMARK    8  A    between atoms: C20_25  and  O6_26 
REMARK    9  A    between atoms: C27_33  and  C28_34 
REMARK   10  A    between atoms: C28_34  and  C29_35 
REMARK   11  A    between atoms: C29_35  and  C30_36 
REMARK   12  A    between atoms: C34_40  and  O7_41 
ROOT
HETATM    1  C10 UNL     1      -3.144  50.444 -23.816  1.00  0.00     0.034 C 
HETATM    2  C11 UNL     1      -3.722  49.291 -24.663  1.00  0.00     0.012 C 
HETATM    3  C12 UNL     1      -3.220  48.049 -23.946  1.00  0.00     0.044 C 
HETATM    4  C13 UNL     1      -3.514  48.359 -22.469  1.00  0.00     0.090 C 
HETATM    5  C14 UNL     1      -4.973  48.102 -22.062  1.00  0.00    -0.037 C 
HETATM    6  C15 UNL     1      -5.877  47.433 -22.810  1.00  0.00     0.057 C 
HETATM    7  C16 UNL     1      -7.281  47.244 -22.374  1.00  0.00     0.154 C 
HETATM    8  O4  UNL     1      -7.983  46.427 -22.971  1.00  0.00    -0.293 OA
HETATM    9  C17 UNL     1      -7.772  48.091 -21.215  1.00  0.00     0.071 C 
HETATM   10  C18 UNL     1      -9.135  47.613 -20.703  1.00  0.00     0.047 C 
HETATM   11  C19 UNL     1      -9.628  48.457 -19.523  1.00  0.00     0.147 C 
HETATM   12  C20 UNL     1      -8.599  48.574 -18.390  1.00  0.00     0.147 C 
HETATM   13  C21 UNL     1      -7.219  48.987 -18.919  1.00  0.00     0.044 C 
HETATM   14  C22 UNL     1      -6.687  48.128 -20.108  1.00  0.00    -0.023 C 
HETATM   15  C23 UNL     1      -6.360  46.698 -19.581  1.00  0.00     0.016 C 
HETATM   16  C24 UNL     1      -5.346  48.702 -20.709  1.00  0.00     0.027 C 
HETATM   17  C25 UNL     1      -5.287  50.210 -20.956  1.00  0.00     0.011 C 
HETATM   18  C26 UNL     1      -3.841  50.633 -21.218  1.00  0.00     0.014 C 
HETATM   19  C27 UNL     1      -3.042  49.877 -22.327  1.00  0.00     0.002 C 
ENDROOT
BRANCH   1  20
HETATM   20  C8  UNL     1      -3.664  51.861 -24.219  1.00  0.00     0.087 C 
HETATM   21  C9  UNL     1      -5.162  52.007 -23.900  1.00  0.00     0.049 C 
BRANCH  20  22
HETATM   22  C7  UNL     1      -3.431  52.256 -25.660  1.00  0.00     0.185 A 
HETATM   23  C6  UNL     1      -2.098  52.501 -26.372  1.00  0.00     0.158 A 
HETATM   24  O1  UNL     1      -2.834  51.278 -26.520  1.00  0.00    -0.372 OA
BRANCH  23  25
HETATM   25  C4  UNL     1      -0.704  52.313 -25.825  1.00  0.00     0.017 C 
HETATM   26  C5  UNL     1      -0.033  53.676 -25.612  1.00  0.00     0.013 C 
BRANCH  25  27
HETATM   27  C2  UNL     1       0.126  51.362 -26.742  1.00  0.00    -0.016 C 
HETATM   28  C1  UNL     1       0.249  51.836 -28.196  1.00  0.00     0.010 C 
HETATM   29  C3  UNL     1       1.529  51.121 -26.169  1.00  0.00     0.010 C 
ENDBRANCH  25  27
ENDBRANCH  23  25
ENDBRANCH  20  22
BRANCH  20  30
HETATM   30  O2  UNL     1      -3.016  52.801 -23.345  1.00  0.00    -0.387 OA
HETATM   31  H17 UNL     1      -3.157  52.521 -22.425  1.00  0.00     0.210 HD
ENDBRANCH  20  30
ENDBRANCH   1  20
BRANCH  19  32
HETATM   32  C28 UNL     1      -1.535  50.010 -21.827  1.00  0.00     0.018 C 
BRANCH  32  33
HETATM   33  C29 UNL     1      -0.528  50.877 -22.599  1.00  0.00     0.039 C 
BRANCH  33  34
HETATM   34  C30 UNL     1       0.038  51.960 -21.702  1.00  0.00    -0.056 A 
HETATM   35  C31 UNL     1      -0.158  51.921 -20.313  1.00  0.00     0.007 A 
HETATM   36  C32 UNL     1       0.375  52.921 -19.499  1.00  0.00     0.003 A 
HETATM   37  C33 UNL     1       1.121  53.961 -20.058  1.00  0.00     0.036 A 
HETATM   38  C34 UNL     1       1.326  53.991 -21.434  1.00  0.00     0.066 A 
HETATM   39  C35 UNL     1       0.790  53.003 -22.257  1.00  0.00     0.043 A 
BRANCH  38  40
HETATM   40  O7  UNL     1       2.053  54.984 -22.023  1.00  0.00    -0.361 OA
HETATM   41  H49 UNL     1       2.445  55.534 -21.328  1.00  0.00     0.217 HD
ENDBRANCH  38  40
ENDBRANCH  33  34
ENDBRANCH  32  33
ENDBRANCH  19  32
BRANCH   4  42
HETATM   42  O3  UNL     1      -2.724  47.504 -21.648  1.00  0.00    -0.384 OA
HETATM   43  H23 UNL     1      -3.168  46.644 -21.596  1.00  0.00     0.211 HD
ENDBRANCH   4  42
BRANCH  12  44
HETATM   44  O6  UNL     1      -8.508  47.343 -17.670  1.00  0.00    -0.393 OA
HETATM   45  H31 UNL     1      -9.335  47.269 -17.156  1.00  0.00     0.210 HD
ENDBRANCH  12  44
BRANCH  11  46
HETATM   46  O5  UNL     1     -10.841  47.899 -19.014  1.00  0.00    -0.393 OA
HETATM   47  H29 UNL     1     -10.671  46.948 -18.870  1.00  0.00     0.210 HD
ENDBRANCH  11  46
TORSDOF 12
ENDMDL
MODEL 6
REMARK minimizedAffinity -8.10734463
REMARK CNNscore 0.514045894
REMARK CNNaffinity 6.61054754
REMARK  12 active torsions:
REMARK  status: ('A' for Active; 'I' for Inactive)
REMARK    1  A    between atoms: C2_2  and  C4_4 
REMARK    2  A    between atoms: C4_4  and  C6_6 
REMARK    3  A    between atoms: C7_8  and  C8_9 
REMARK    4  A    between atoms: C8_9  and  O2_11 
REMARK    5  A    between atoms: C8_9  and  C10_12 
REMARK    6  A    between atoms: C13_15  and  O3_16 
REMARK    7  A    between atoms: C19_23  and  O5_24 
REMARK    8  A    between atoms: C20_25  and  O6_26 
REMARK    9  A    between atoms: C27_33  and  C28_34 
REMARK   10  A    between atoms: C28_34  and  C29_35 
REMARK   11  A    between atoms: C29_35  and  C30_36 
REMARK   12  A    between atoms: C34_40  and  O7_41 
ROOT
HETATM    1  C10 UNL     1      -8.851  46.894 -25.929  1.00  0.00     0.034 C 
HETATM    2  C11 UNL     1      -8.640  45.377 -26.117  1.00  0.00     0.012 C 
HETATM    3  C12 UNL     1      -9.755  44.988 -27.072  1.00  0.00     0.044 C 
HETATM    4  C13 UNL     1      -9.685  46.081 -28.152  1.00  0.00     0.090 C 
HETATM    5  C14 UNL     1      -8.591  45.840 -29.204  1.00  0.00    -0.037 C 
HETATM    6  C15 UNL     1      -7.912  44.684 -29.360  1.00  0.00     0.057 C 
HETATM    7  C16 UNL     1      -6.845  44.523 -30.376  1.00  0.00     0.154 C 
HETATM    8  O4  UNL     1      -6.437  43.391 -30.636  1.00  0.00    -0.293 OA
HETATM    9  C17 UNL     1      -6.307  45.784 -31.029  1.00  0.00     0.071 C 
HETATM   10  C18 UNL     1      -5.413  45.461 -32.231  1.00  0.00     0.047 C 
HETATM   11  C19 UNL     1      -4.880  46.731 -32.901  1.00  0.00     0.147 C 
HETATM   12  C20 UNL     1      -5.983  47.736 -33.260  1.00  0.00     0.147 C 
HETATM   13  C21 UNL     1      -6.915  48.002 -32.071  1.00  0.00     0.044 C 
HETATM   14  C22 UNL     1      -7.488  46.724 -31.385  1.00  0.00    -0.023 C 
HETATM   15  C23 UNL     1      -8.487  46.038 -32.365  1.00  0.00     0.016 C 
HETATM   16  C24 UNL     1      -8.304  47.059 -30.077  1.00  0.00     0.027 C 
HETATM   17  C25 UNL     1      -7.673  48.056 -29.104  1.00  0.00     0.011 C 
HETATM   18  C26 UNL     1      -8.716  48.510 -28.083  1.00  0.00     0.014 C 
HETATM   19  C27 UNL     1      -9.498  47.413 -27.292  1.00  0.00     0.002 C 
ENDROOT
BRANCH   1  20
HETATM   20  C8  UNL     1      -7.714  47.607 -25.129  1.00  0.00     0.087 C 
HETATM   21  C9  UNL     1      -6.419  47.670 -25.956  1.00  0.00     0.049 C 
BRANCH  20  22
HETATM   22  C7  UNL     1      -7.399  47.015 -23.773  1.00  0.00     0.185 A 
HETATM   23  C6  UNL     1      -6.546  47.615 -22.652  1.00  0.00     0.158 A 
HETATM   24  O1  UNL     1      -7.980  47.653 -22.628  1.00  0.00    -0.372 OA
BRANCH  23  25
HETATM   25  C4  UNL     1      -5.898  48.978 -22.606  1.00  0.00     0.017 C 
HETATM   26  C5  UNL     1      -6.971  50.073 -22.593  1.00  0.00     0.013 C 
BRANCH  25  27
HETATM   27  C2  UNL     1      -4.874  49.143 -23.771  1.00  0.00    -0.016 C 
HETATM   28  C1  UNL     1      -4.672  50.591 -24.234  1.00  0.00     0.010 C 
HETATM   29  C3  UNL     1      -3.513  48.533 -23.408  1.00  0.00     0.010 C 
ENDBRANCH  25  27
ENDBRANCH  23  25
ENDBRANCH  20  22
BRANCH  20  30
HETATM   30  O2  UNL     1      -8.114  48.980 -24.980  1.00  0.00    -0.387 OA
HETATM   31  H17 UNL     1      -8.332  49.338 -25.857  1.00  0.00     0.210 HD
ENDBRANCH  20  30
ENDBRANCH   1  20
BRANCH  19  32
HETATM   32  C28 UNL     1     -10.881  48.134 -26.965  1.00  0.00     0.018 C 
BRANCH  32  33
HETATM   33  C29 UNL     1     -12.197  47.608 -27.559  1.00  0.00     0.039 C 
BRANCH  33  34
HETATM   34  C30 UNL     1     -13.061  46.994 -26.475  1.00  0.00    -0.056 A 
HETATM   35  C31 UNL     1     -12.587  46.867 -25.161  1.00  0.00     0.007 A 
HETATM   36  C32 UNL     1     -13.396  46.306 -24.172  1.00  0.00     0.003 A 
HETATM   37  C33 UNL     1     -14.691  45.881 -24.478  1.00  0.00     0.036 A 
HETATM   38  C34 UNL     1     -15.165  46.021 -25.779  1.00  0.00     0.066 A 
HETATM   39  C35 UNL     1     -14.362  46.570 -26.776  1.00  0.00     0.043 A 
BRANCH  38  40
HETATM   40  O7  UNL     1     -16.424  45.625 -26.123  1.00  0.00    -0.361 OA
HETATM   41  H49 UNL     1     -16.896  45.363 -25.318  1.00  0.00     0.217 HD
ENDBRANCH  38  40
ENDBRANCH  33  34
ENDBRANCH  32  33
ENDBRANCH  19  32
BRANCH   4  42
HETATM   42  O3  UNL     1     -10.915  46.108 -28.868  1.00  0.00    -0.384 OA
HETATM   43  H23 UNL     1     -10.894  45.399 -29.529  1.00  0.00     0.211 HD
ENDBRANCH   4  42
BRANCH  12  44
HETATM   44  O6  UNL     1      -6.732  47.273 -34.385  1.00  0.00    -0.393 OA
HETATM   45  H31 UNL     1      -6.144  47.367 -35.159  1.00  0.00     0.210 HD
ENDBRANCH  12  44
BRANCH  11  46
HETATM   46  O5  UNL     1      -4.151  46.377 -34.078  1.00  0.00    -0.393 OA
HETATM   47  H29 UNL     1      -4.729  45.783 -34.595  1.00  0.00     0.210 HD
ENDBRANCH  11  46
TORSDOF 12
ENDMDL
MODEL 7
REMARK minimizedAffinity -9.78714657
REMARK CNNscore 0.476872265
REMARK CNNaffinity 7.59321594
REMARK  12 active torsions:
REMARK  status: ('A' for Active; 'I' for Inactive)
REMARK    1  A    between atoms: C2_2  and  C4_4 
REMARK    2  A    between atoms: C4_4  and  C6_6 
REMARK    3  A    between atoms: C7_8  and  C8_9 
REMARK    4  A    between atoms: C8_9  and  O2_11 
REMARK    5  A    between atoms: C8_9  and  C10_12 
REMARK    6  A    between atoms: C13_15  and  O3_16 
REMARK    7  A    between atoms: C19_23  and  O5_24 
REMARK    8  A    between atoms: C20_25  and  O6_26 
REMARK    9  A    between atoms: C27_33  and  C28_34 
REMARK   10  A    between atoms: C28_34  and  C29_35 
REMARK   11  A    between atoms: C29_35  and  C30_36 
REMARK   12  A    between atoms: C34_40  and  O7_41 
ROOT
HETATM    1  C10 UNL     1      -4.012  50.693 -24.619  1.00  0.00     0.034 C 
HETATM    2  C11 UNL     1      -3.889  52.001 -23.809  1.00  0.00     0.012 C 
HETATM    3  C12 UNL     1      -5.213  52.073 -23.068  1.00  0.00     0.044 C 
HETATM    4  C13 UNL     1      -5.382  50.648 -22.517  1.00  0.00     0.090 C 
HETATM    5  C14 UNL     1      -4.583  50.384 -21.230  1.00  0.00    -0.037 C 
HETATM    6  C15 UNL     1      -3.991  51.338 -20.481  1.00  0.00     0.057 C 
HETATM    7  C16 UNL     1      -3.207  51.017 -19.264  1.00  0.00     0.154 C 
HETATM    8  O4  UNL     1      -2.903  51.929 -18.495  1.00  0.00    -0.293 OA
HETATM    9  C17 UNL     1      -2.815  49.566 -19.050  1.00  0.00     0.071 C 
HETATM   10  C18 UNL     1      -2.249  49.335 -17.644  1.00  0.00     0.047 C 
HETATM   11  C19 UNL     1      -1.864  47.869 -17.419  1.00  0.00     0.147 C 
HETATM   12  C20 UNL     1      -2.997  46.888 -17.750  1.00  0.00     0.147 C 
HETATM   13  C21 UNL     1      -3.604  47.169 -19.131  1.00  0.00     0.044 C 
HETATM   14  C22 UNL     1      -4.024  48.651 -19.376  1.00  0.00    -0.023 C 
HETATM   15  C23 UNL     1      -5.247  48.979 -18.468  1.00  0.00     0.016 C 
HETATM   16  C24 UNL     1      -4.487  48.906 -20.862  1.00  0.00     0.027 C 
HETATM   17  C25 UNL     1      -3.615  48.316 -21.971  1.00  0.00     0.011 C 
HETATM   18  C26 UNL     1      -4.367  48.368 -23.301  1.00  0.00     0.014 C 
HETATM   19  C27 UNL     1      -4.959  49.739 -23.759  1.00  0.00     0.002 C 
ENDROOT
BRANCH   1  20
HETATM   20  C8  UNL     1      -2.697  50.260 -25.345  1.00  0.00     0.087 C 
HETATM   21  C9  UNL     1      -1.497  50.317 -24.384  1.00  0.00     0.049 C 
BRANCH  20  22
HETATM   22  C7  UNL     1      -2.357  51.037 -26.597  1.00  0.00     0.185 A 
HETATM   23  C6  UNL     1      -1.145  51.938 -26.852  1.00  0.00     0.158 A 
HETATM   24  O1  UNL     1      -1.223  50.596 -27.354  1.00  0.00    -0.372 OA
BRANCH  23  25
HETATM   25  C4  UNL     1       0.037  52.184 -25.947  1.00  0.00     0.017 C 
HETATM   26  C5  UNL     1      -0.178  53.466 -25.135  1.00  0.00     0.013 C 
BRANCH  25  27
HETATM   27  C2  UNL     1       1.366  52.197 -26.765  1.00  0.00    -0.016 C 
HETATM   28  C1  UNL     1       2.401  51.163 -26.304  1.00  0.00     0.010 C 
HETATM   29  C3  UNL     1       1.099  52.012 -28.264  1.00  0.00     0.010 C 
ENDBRANCH  25  27
ENDBRANCH  23  25
ENDBRANCH  20  22
BRANCH  20  30
HETATM   30  O2  UNL     1      -2.841  48.866 -25.660  1.00  0.00    -0.387 OA
HETATM   31  H17 UNL     1      -3.080  48.385 -24.851  1.00  0.00     0.210 HD
ENDBRANCH  20  30
ENDBRANCH   1  20
BRANCH  19  32
HETATM   32  C28 UNL     1      -6.202  49.303 -24.654  1.00  0.00     0.018 C 
BRANCH  32  33
HETATM   33  C29 UNL     1      -6.484  47.818 -24.932  1.00  0.00     0.039 C 
BRANCH  33  34
HETATM   34  C30 UNL     1      -6.542  47.558 -26.424  1.00  0.00    -0.056 A 
HETATM   35  C31 UNL     1      -7.640  46.901 -27.000  1.00  0.00     0.007 A 
HETATM   36  C32 UNL     1      -7.682  46.675 -28.376  1.00  0.00     0.003 A 
HETATM   37  C33 UNL     1      -6.639  47.114 -29.195  1.00  0.00     0.036 A 
HETATM   38  C34 UNL     1      -5.557  47.778 -28.624  1.00  0.00     0.066 A 
HETATM   39  C35 UNL     1      -5.500  48.000 -27.250  1.00  0.00     0.043 A 
BRANCH  38  40
HETATM   40  O7  UNL     1      -4.519  48.228 -29.385  1.00  0.00    -0.361 OA
HETATM   41  H49 UNL     1      -4.741  48.098 -30.319  1.00  0.00     0.217 HD
ENDBRANCH  38  40
ENDBRANCH  33  34
ENDBRANCH  32  33
ENDBRANCH  19  32
BRANCH   4  42
HETATM   42  O3  UNL     1      -6.748  50.438 -22.177  1.00  0.00    -0.384 OA
HETATM   43  H23 UNL     1      -6.906  50.835 -21.306  1.00  0.00     0.211 HD
ENDBRANCH   4  42
BRANCH  12  44
HETATM   44  O6  UNL     1      -4.008  46.937 -16.742  1.00  0.00    -0.393 OA
HETATM   45  H31 UNL     1      -3.624  46.509 -15.953  1.00  0.00     0.210 HD
ENDBRANCH  12  44
BRANCH  11  46
HETATM   46  O5  UNL     1      -1.453  47.689 -16.063  1.00  0.00    -0.393 OA
HETATM   47  H29 UNL     1      -2.154  48.079 -15.506  1.00  0.00     0.210 HD
ENDBRANCH  11  46
TORSDOF 12
ENDMDL
MODEL 8
REMARK minimizedAffinity -10.0993423
REMARK CNNscore 0.427566409
REMARK CNNaffinity 6.96216917
REMARK  12 active torsions:
REMARK  status: ('A' for Active; 'I' for Inactive)
REMARK    1  A    between atoms: C2_2  and  C4_4 
REMARK    2  A    between atoms: C4_4  and  C6_6 
REMARK    3  A    between atoms: C7_8  and  C8_9 
REMARK    4  A    between atoms: C8_9  and  O2_11 
REMARK    5  A    between atoms: C8_9  and  C10_12 
REMARK    6  A    between atoms: C13_15  and  O3_16 
REMARK    7  A    between atoms: C19_23  and  O5_24 
REMARK    8  A    between atoms: C20_25  and  O6_26 
REMARK    9  A    between atoms: C27_33  and  C28_34 
REMARK   10  A    between atoms: C28_34  and  C29_35 
REMARK   11  A    between atoms: C29_35  and  C30_36 
REMARK   12  A    between atoms: C34_40  and  O7_41 
ROOT
HETATM    1  C10 UNL     1      -2.298  51.332 -21.890  1.00  0.00     0.034 C 
HETATM    2  C11 UNL     1      -3.662  52.022 -21.681  1.00  0.00     0.012 C 
HETATM    3  C12 UNL     1      -4.393  51.744 -22.984  1.00  0.00     0.044 C 
HETATM    4  C13 UNL     1      -4.131  50.247 -23.216  1.00  0.00     0.090 C 
HETATM    5  C14 UNL     1      -5.057  49.325 -22.407  1.00  0.00    -0.037 C 
HETATM    6  C15 UNL     1      -6.165  49.728 -21.749  1.00  0.00     0.057 C 
HETATM    7  C16 UNL     1      -7.002  48.794 -20.959  1.00  0.00     0.154 C 
HETATM    8  O4  UNL     1      -8.118  49.161 -20.591  1.00  0.00    -0.293 OA
HETATM    9  C17 UNL     1      -6.414  47.431 -20.640  1.00  0.00     0.071 C 
HETATM   10  C18 UNL     1      -7.469  46.483 -20.058  1.00  0.00     0.047 C 
HETATM   11  C19 UNL     1      -6.883  45.102 -19.747  1.00  0.00     0.147 C 
HETATM   12  C20 UNL     1      -6.143  44.476 -20.938  1.00  0.00     0.147 C 
HETATM   13  C21 UNL     1      -5.137  45.455 -21.557  1.00  0.00     0.044 C 
HETATM   14  C22 UNL     1      -5.716  46.862 -21.902  1.00  0.00    -0.023 C 
HETATM   15  C23 UNL     1      -6.716  46.712 -23.088  1.00  0.00     0.016 C 
HETATM   16  C24 UNL     1      -4.601  47.869 -22.382  1.00  0.00     0.027 C 
HETATM   17  C25 UNL     1      -3.308  47.912 -21.565  1.00  0.00     0.011 C 
HETATM   18  C26 UNL     1      -2.234  48.674 -22.340  1.00  0.00     0.014 C 
HETATM   19  C27 UNL     1      -2.580  50.103 -22.868  1.00  0.00     0.002 C 
ENDROOT
BRANCH   1  20
HETATM   20  C8  UNL     1      -1.395  51.294 -20.615  1.00  0.00     0.087 C 
HETATM   21  C9  UNL     1      -0.302  50.220 -20.750  1.00  0.00     0.049 C 
BRANCH  20  22
HETATM   22  C7  UNL     1      -2.122  51.088 -19.305  1.00  0.00     0.185 A 
HETATM   23  C6  UNL     1      -1.538  50.669 -17.953  1.00  0.00     0.158 A 
HETATM   24  O1  UNL     1      -1.867  52.032 -18.258  1.00  0.00    -0.372 OA
BRANCH  23  25
HETATM   25  C4  UNL     1      -0.088  50.456 -17.593  1.00  0.00     0.017 C 
HETATM   26  C5  UNL     1       0.073  49.153 -16.802  1.00  0.00     0.013 C 
BRANCH  25  27
HETATM   27  C2  UNL     1       0.483  51.699 -16.843  1.00  0.00    -0.016 C 
HETATM   28  C1  UNL     1       1.186  51.369 -15.519  1.00  0.00     0.010 C 
HETATM   29  C3  UNL     1       1.439  52.499 -17.737  1.00  0.00     0.010 C 
ENDBRANCH  25  27
ENDBRANCH  23  25
ENDBRANCH  20  22
BRANCH  20  30
HETATM   30  O2  UNL     1      -0.676  52.538 -20.583  1.00  0.00    -0.387 OA
HETATM   31  H17 UNL     1      -0.233  52.665 -21.438  1.00  0.00     0.210 HD
ENDBRANCH  20  30
ENDBRANCH   1  20
BRANCH  19  32
HETATM   32  C28 UNL     1      -1.646  50.240 -24.151  1.00  0.00     0.018 C 
BRANCH  32  33
HETATM   33  C29 UNL     1      -0.563  51.329 -24.217  1.00  0.00     0.039 C 
BRANCH  33  34
HETATM   34  C30 UNL     1      -0.005  51.438 -25.622  1.00  0.00    -0.056 A 
HETATM   35  C31 UNL     1      -0.858  51.548 -26.731  1.00  0.00     0.007 A 
HETATM   36  C32 UNL     1      -0.330  51.654 -28.018  1.00  0.00     0.003 A 
HETATM   37  C33 UNL     1       1.054  51.669 -28.213  1.00  0.00     0.036 A 
HETATM   38  C34 UNL     1       1.898  51.574 -27.111  1.00  0.00     0.066 A 
HETATM   39  C35 UNL     1       1.382  51.457 -25.823  1.00  0.00     0.043 A 
BRANCH  38  40
HETATM   40  O7  UNL     1       3.255  51.589 -27.253  1.00  0.00    -0.361 OA
HETATM   41  H49 UNL     1       3.467  51.777 -28.180  1.00  0.00     0.217 HD
ENDBRANCH  38  40
ENDBRANCH  33  34
ENDBRANCH  32  33
ENDBRANCH  19  32
BRANCH   4  42
HETATM   42  O3  UNL     1      -4.375  49.939 -24.585  1.00  0.00    -0.384 OA
HETATM   43  H23 UNL     1      -5.331  49.830 -24.703  1.00  0.00     0.211 HD
ENDBRANCH   4  42
BRANCH  12  44
HETATM   44  O6  UNL     1      -7.074  44.029 -21.924  1.00  0.00    -0.393 OA
HETATM   45  H31 UNL     1      -7.509  43.240 -21.547  1.00  0.00     0.210 HD
ENDBRANCH  12  44
BRANCH  11  46
HETATM   46  O5  UNL     1      -7.929  44.229 -19.319  1.00  0.00    -0.393 OA
HETATM   47  H29 UNL     1      -8.639  44.296 -19.986  1.00  0.00     0.210 HD
ENDBRANCH  11  46
TORSDOF 12
ENDMDL
MODEL 9
REMARK minimizedAffinity -8.73293018
REMARK CNNscore 0.423132628
REMARK CNNaffinity 6.85774374
REMARK  12 active torsions:
REMARK  status: ('A' for Active; 'I' for Inactive)
REMARK    1  A    between atoms: C2_2  and  C4_4 
REMARK    2  A    between atoms: C4_4  and  C6_6 
REMARK    3  A    between atoms: C7_8  and  C8_9 
REMARK    4  A    between atoms: C8_9  and  O2_11 
REMARK    5  A    between atoms: C8_9  and  C10_12 
REMARK    6  A    between atoms: C13_15  and  O3_16 
REMARK    7  A    between atoms: C19_23  and  O5_24 
REMARK    8  A    between atoms: C20_25  and  O6_26 
REMARK    9  A    between atoms: C27_33  and  C28_34 
REMARK   10  A    between atoms: C28_34  and  C29_35 
REMARK   11  A    between atoms: C29_35  and  C30_36 
REMARK   12  A    between atoms: C34_40  and  O7_41 
ROOT
HETATM    1  C10 UNL     1      -3.038  50.249 -21.162  1.00  0.00     0.034 C 
HETATM    2  C11 UNL     1      -4.377  50.972 -20.909  1.00  0.00     0.012 C 
HETATM    3  C12 UNL     1      -5.071  50.899 -22.258  1.00  0.00     0.044 C 
HETATM    4  C13 UNL     1      -4.866  49.433 -22.675  1.00  0.00     0.090 C 
HETATM    5  C14 UNL     1      -5.861  48.461 -22.021  1.00  0.00    -0.037 C 
HETATM    6  C15 UNL     1      -6.974  48.829 -21.352  1.00  0.00     0.057 C 
HETATM    7  C16 UNL     1      -7.879  47.843 -20.716  1.00  0.00     0.154 C 
HETATM    8  O4  UNL     1      -8.991  48.213 -20.338  1.00  0.00    -0.293 OA
HETATM    9  C17 UNL     1      -7.364  46.424 -20.558  1.00  0.00     0.071 C 
HETATM   10  C18 UNL     1      -8.480  45.461 -20.137  1.00  0.00     0.047 C 
HETATM   11  C19 UNL     1      -7.967  44.025 -19.990  1.00  0.00     0.147 C 
HETATM   12  C20 UNL     1      -7.211  43.521 -21.227  1.00  0.00     0.147 C 
HETATM   13  C21 UNL     1      -6.141  44.522 -21.683  1.00  0.00     0.044 C 
HETATM   14  C22 UNL     1      -6.645  45.988 -21.861  1.00  0.00    -0.023 C 
HETATM   15  C23 UNL     1      -7.606  46.039 -23.087  1.00  0.00     0.016 C 
HETATM   16  C24 UNL     1      -5.469  46.993 -22.171  1.00  0.00     0.027 C 
HETATM   17  C25 UNL     1      -4.208  46.869 -21.315  1.00  0.00     0.011 C 
HETATM   18  C26 UNL     1      -3.073  47.671 -21.952  1.00  0.00     0.014 C 
HETATM   19  C27 UNL     1      -3.337  49.171 -22.300  1.00  0.00     0.002 C 
ENDROOT
BRANCH   1  20
HETATM   20  C8  UNL     1      -2.185  50.006 -19.876  1.00  0.00     0.087 C 
HETATM   21  C9  UNL     1      -2.485  48.622 -19.273  1.00  0.00     0.049 C 
BRANCH  20  22
HETATM   22  C7  UNL     1      -2.326  51.051 -18.791  1.00  0.00     0.185 A 
HETATM   23  C6  UNL     1      -1.358  51.365 -17.647  1.00  0.00     0.158 A 
HETATM   24  O1  UNL     1      -1.428  52.166 -18.835  1.00  0.00    -0.372 OA
BRANCH  23  25
HETATM   25  C4  UNL     1       0.005  50.768 -17.392  1.00  0.00     0.017 C 
HETATM   26  C5  UNL     1      -0.139  49.367 -16.785  1.00  0.00     0.013 C 
BRANCH  25  27
HETATM   27  C2  UNL     1       0.872  51.725 -16.517  1.00  0.00    -0.016 C 
HETATM   28  C1  UNL     1       1.577  51.038 -15.340  1.00  0.00     0.010 C 
HETATM   29  C3  UNL     1       1.912  52.467 -17.366  1.00  0.00     0.010 C 
ENDBRANCH  25  27
ENDBRANCH  23  25
ENDBRANCH  20  22
BRANCH  20  30
HETATM   30  O2  UNL     1      -0.814  49.925 -20.300  1.00  0.00    -0.387 OA
HETATM   31  H17 UNL     1      -0.745  49.265 -21.010  1.00  0.00     0.210 HD
ENDBRANCH  20  30
ENDBRANCH   1  20
BRANCH  19  32
HETATM   32  C28 UNL     1      -2.350  49.426 -23.525  1.00  0.00     0.018 C 
BRANCH  32  33
HETATM   33  C29 UNL     1      -2.483  50.693 -24.386  1.00  0.00     0.039 C 
BRANCH  33  34
HETATM   34  C30 UNL     1      -1.231  51.540 -24.281  1.00  0.00    -0.056 A 
HETATM   35  C31 UNL     1      -0.864  52.138 -23.066  1.00  0.00     0.007 A 
HETATM   36  C32 UNL     1       0.296  52.910 -22.984  1.00  0.00     0.003 A 
HETATM   37  C33 UNL     1       1.110  53.080 -24.106  1.00  0.00     0.036 A 
HETATM   38  C34 UNL     1       0.752  52.474 -25.307  1.00  0.00     0.066 A 
HETATM   39  C35 UNL     1      -0.408  51.711 -25.403  1.00  0.00     0.043 A 
BRANCH  38  40
HETATM   40  O7  UNL     1       1.519  52.609 -26.427  1.00  0.00    -0.361 OA
HETATM   41  H49 UNL     1       2.336  53.073 -26.188  1.00  0.00     0.217 HD
ENDBRANCH  38  40
ENDBRANCH  33  34
ENDBRANCH  32  33
ENDBRANCH  19  32
BRANCH   4  42
HETATM   42  O3  UNL     1      -5.072  49.315 -24.079  1.00  0.00    -0.384 OA
HETATM   43  H23 UNL     1      -6.026  49.268 -24.240  1.00  0.00     0.211 HD
ENDBRANCH   4  42
BRANCH  12  44
HETATM   44  O6  UNL     1      -8.124  43.249 -22.292  1.00  0.00    -0.393 OA
HETATM   45  H31 UNL     1      -8.607  42.440 -22.035  1.00  0.00     0.210 HD
ENDBRANCH  12  44
BRANCH  11  46
HETATM   46  O5  UNL     1      -9.065  43.155 -19.711  1.00  0.00    -0.393 OA
HETATM   47  H29 UNL     1      -9.746  43.341 -20.386  1.00  0.00     0.210 HD
ENDBRANCH  11  46
TORSDOF 12
ENDMDL
