MODEL 1
REMARK minimizedAffinity -8.1442461
REMARK CNNscore 0.606663465
REMARK CNNaffinity 7.30010843
REMARK  12 active torsions:
REMARK  status: ('A' for Active; 'I' for Inactive)
REMARK    1  A    between atoms: C12_13  and  O2_14 
REMARK    2  A    between atoms: C19_21  and  O3_22 
REMARK    3  A    between atoms: C19_21  and  C20_23 
REMARK    4  A    between atoms: C20_23  and  C21_25 
REMARK    5  A    between atoms: C21_25  and  O5_26 
REMARK    6  A    between atoms: O5_26  and  C22_27 
REMARK    7  A    between atoms: C22_27  and  C23_29 
REMARK    8  A    between atoms: C23_29  and  C24_30 
REMARK    9  A    between atoms: C24_30  and  C25_31 
REMARK       I    between atoms: C25_31  and  N1_33 
REMARK   10  A    between atoms: N1_33  and  C26_34 
REMARK   11  A    between atoms: C26_34  and  C27_35 
REMARK   12  A    between atoms: C27_35  and  C28_36 
ROOT
HETATM    1  C1  UNL     1       2.847   5.612  11.238  1.00  0.00     0.020 C 
HETATM    2  C2  UNL     1       2.131   6.752  10.467  1.00  0.00    -0.014 C 
HETATM    3  C3  UNL     1       2.133   6.318   8.969  1.00  0.00     0.022 C 
HETATM    4  C4  UNL     1       1.930   7.457   7.981  1.00  0.00     0.084 C 
HETATM    5  C5  UNL     1       2.942   8.547   8.219  1.00  0.00     0.149 C 
HETATM    6  O1  UNL     1       3.369   9.264   7.318  1.00  0.00    -0.293 OA
HETATM    7  C6  UNL     1       3.343   8.825   9.616  1.00  0.00     0.053 C 
HETATM    8  C7  UNL     1       2.945   8.041  10.632  1.00  0.00    -0.068 C 
HETATM    9  C8  UNL     1       3.177   8.478  12.057  1.00  0.00     0.035 C 
HETATM   10  C9  UNL     1       1.934   8.248  12.925  1.00  0.00     0.010 C 
HETATM   11  C10 UNL     1       0.632   8.183  12.104  1.00  0.00    -0.002 C 
HETATM   12  C11 UNL     1       0.669   7.068  10.995  1.00  0.00     0.031 C 
HETATM   13  C12 UNL     1      -0.255   5.870  11.334  1.00  0.00     0.124 C 
HETATM   14  C13 UNL     1      -0.355   5.594  12.836  1.00  0.00     0.045 C 
HETATM   15  C14 UNL     1      -1.000   6.754  13.629  1.00  0.00     0.001 C 
HETATM   16  C15 UNL     1      -0.486   6.691  15.087  1.00  0.00     0.019 C 
HETATM   17  C16 UNL     1      -0.602   8.145  13.030  1.00  0.00     0.002 C 
HETATM   18  C17 UNL     1      -1.870   8.675  12.352  1.00  0.00     0.009 C 
HETATM   19  C18 UNL     1      -2.969   8.201  13.286  1.00  0.00     0.047 C 
HETATM   20  C19 UNL     1      -2.587   6.739  13.569  1.00  0.00     0.128 C 
ENDROOT
BRANCH  20  21
HETATM   21  O3  UNL     1      -3.047   5.956  12.464  1.00  0.00    -0.381 OA
HETATM   22  H27 UNL     1      -3.956   6.231  12.239  1.00  0.00     0.211 HD
ENDBRANCH  20  21
BRANCH  20  23
HETATM   23  C20 UNL     1      -3.281   6.218  14.849  1.00  0.00     0.185 C 
HETATM   24  O4  UNL     1      -2.771   5.332  15.547  1.00  0.00    -0.292 OA
BRANCH  23  25
HETATM   25  C21 UNL     1      -4.633   6.835  15.192  1.00  0.00     0.260 C 
BRANCH  25  26
HETATM   26  O5  UNL     1      -5.553   6.552  14.137  1.00  0.00    -0.314 OA
BRANCH  26  27
HETATM   27  C22 UNL     1      -6.408   5.534  14.407  1.00  0.00     0.259 C 
HETATM   28  O6  UNL     1      -7.000   5.393  15.471  1.00  0.00    -0.265 OA
BRANCH  27  29
HETATM   29  C23 UNL     1      -6.502   4.542  13.268  1.00  0.00     0.120 C 
BRANCH  29  30
HETATM   30  C24 UNL     1      -7.919   4.253  12.781  1.00  0.00     0.112 C 
BRANCH  30  31
HETATM   31  C25 UNL     1      -8.765   5.509  12.699  1.00  0.00     0.218 C 
HETATM   32  O7  UNL     1      -8.882   6.179  11.679  1.00  0.00    -0.274 OA
HETATM   33  N1  UNL     1      -9.391   5.817  13.886  1.00  0.00    -0.361 N 
HETATM   34  H34 UNL     1      -9.421   5.121  14.621  1.00  0.00     0.162 HD
BRANCH  33  35
HETATM   35  C26 UNL     1     -10.333   6.919  13.977  1.00  0.00     0.128 C 
BRANCH  35  36
HETATM   36  C27 UNL     1      -9.807   8.077  14.833  1.00  0.00     0.078 C 
BRANCH  36  37
HETATM   37  C28 UNL     1     -10.478   9.369  14.507  1.00  0.00     0.027 A 
HETATM   38  C29 UNL     1     -11.528   9.677  13.667  1.00  0.00     0.114 A 
HETATM   39  N2  UNL     1     -11.786  11.022  13.682  1.00  0.00    -0.360 N 
HETATM   40  C30 UNL     1     -10.925  11.532  14.531  1.00  0.00     0.180 A 
ATOM     41  H2  UNL     1     -12.497  11.521  13.147  1.00  0.00     0.166 HD
HETATM   42  N3  UNL     1     -10.110  10.571  15.058  1.00  0.00    -0.355 N 
HETATM   43  H41 UNL     1      -9.374  10.735  15.741  1.00  0.00     0.166 HD
ENDBRANCH  36  37
ENDBRANCH  35  36
ENDBRANCH  33  35
ENDBRANCH  30  31
ENDBRANCH  29  30
ENDBRANCH  27  29
ENDBRANCH  26  27
ENDBRANCH  25  26
ENDBRANCH  23  25
ENDBRANCH  20  23
BRANCH  13  44
HETATM   44  O2  UNL     1       0.122   4.679  10.659  1.00  0.00    -0.395 OA
HETATM   45  H16 UNL     1      -0.569   4.015  10.828  1.00  0.00     0.210 HD
ENDBRANCH  13  44
TORSDOF 12
ENDMDL
MODEL 2
REMARK minimizedAffinity -8.0535078
REMARK CNNscore 0.601111412
REMARK CNNaffinity 7.10776758
REMARK  12 active torsions:
REMARK  status: ('A' for Active; 'I' for Inactive)
REMARK    1  A    between atoms: C12_13  and  O2_14 
REMARK    2  A    between atoms: C19_21  and  O3_22 
REMARK    3  A    between atoms: C19_21  and  C20_23 
REMARK    4  A    between atoms: C20_23  and  C21_25 
REMARK    5  A    between atoms: C21_25  and  O5_26 
REMARK    6  A    between atoms: O5_26  and  C22_27 
REMARK    7  A    between atoms: C22_27  and  C23_29 
REMARK    8  A    between atoms: C23_29  and  C24_30 
REMARK    9  A    between atoms: C24_30  and  C25_31 
REMARK       I    between atoms: C25_31  and  N1_33 
REMARK   10  A    between atoms: N1_33  and  C26_34 
REMARK   11  A    between atoms: C26_34  and  C27_35 
REMARK   12  A    between atoms: C27_35  and  C28_36 
ROOT
HETATM    1  C1  UNL     1      -7.830   5.006  15.775  1.00  0.00     0.020 C 
HETATM    2  C2  UNL     1      -8.086   6.171  14.784  1.00  0.00    -0.014 C 
HETATM    3  C3  UNL     1      -9.204   7.043  15.433  1.00  0.00     0.022 C 
HETATM    4  C4  UNL     1      -9.951   7.943  14.458  1.00  0.00     0.084 C 
HETATM    5  C5  UNL     1     -10.505   7.135  13.315  1.00  0.00     0.149 C 
HETATM    6  O1  UNL     1     -11.538   7.441  12.726  1.00  0.00    -0.293 OA
HETATM    7  C6  UNL     1      -9.703   5.993  12.822  1.00  0.00     0.053 C 
HETATM    8  C7  UNL     1      -8.593   5.585  13.460  1.00  0.00    -0.068 C 
HETATM    9  C8  UNL     1      -7.679   4.576  12.811  1.00  0.00     0.035 C 
HETATM   10  C9  UNL     1      -6.206   4.981  12.948  1.00  0.00     0.010 C 
HETATM   11  C10 UNL     1      -6.018   6.495  13.173  1.00  0.00    -0.002 C 
HETATM   12  C11 UNL     1      -6.792   7.020  14.437  1.00  0.00     0.031 C 
HETATM   13  C12 UNL     1      -5.836   7.392  15.600  1.00  0.00     0.124 C 
HETATM   14  C13 UNL     1      -4.586   6.511  15.654  1.00  0.00     0.045 C 
HETATM   15  C14 UNL     1      -3.679   6.659  14.411  1.00  0.00     0.001 C 
HETATM   16  C15 UNL     1      -2.868   5.352  14.243  1.00  0.00     0.019 C 
HETATM   17  C16 UNL     1      -4.525   6.879  13.112  1.00  0.00     0.002 C 
HETATM   18  C17 UNL     1      -4.306   8.346  12.727  1.00  0.00     0.009 C 
HETATM   19  C18 UNL     1      -2.849   8.570  13.090  1.00  0.00     0.047 C 
HETATM   20  C19 UNL     1      -2.729   7.929  14.482  1.00  0.00     0.128 C 
ENDROOT
BRANCH  20  21
HETATM   21  O3  UNL     1      -3.220   8.878  15.433  1.00  0.00    -0.381 OA
HETATM   22  H27 UNL     1      -2.851   9.756  15.223  1.00  0.00     0.211 HD
ENDBRANCH  20  21
BRANCH  20  23
HETATM   23  C20 UNL     1      -1.254   7.619  14.831  1.00  0.00     0.185 C 
HETATM   24  O4  UNL     1      -0.525   6.986  14.057  1.00  0.00    -0.292 OA
BRANCH  23  25
HETATM   25  C21 UNL     1      -0.754   8.114  16.184  1.00  0.00     0.260 C 
BRANCH  25  26
HETATM   26  O5  UNL     1      -0.213   9.427  16.026  1.00  0.00    -0.314 OA
BRANCH  26  27
HETATM   27  C22 UNL     1       0.233   9.984  17.181  1.00  0.00     0.259 C 
HETATM   28  O6  UNL     1       1.337   9.771  17.668  1.00  0.00    -0.265 OA
BRANCH  27  29
HETATM   29  C23 UNL     1      -0.814  10.851  17.845  1.00  0.00     0.120 C 
BRANCH  29  30
HETATM   30  C24 UNL     1      -0.584  11.114  19.330  1.00  0.00     0.112 C 
BRANCH  30  31
HETATM   31  C25 UNL     1       0.289  12.332  19.569  1.00  0.00     0.218 C 
HETATM   32  O7  UNL     1       0.231  13.348  18.885  1.00  0.00    -0.274 OA
HETATM   33  N1  UNL     1       1.149  12.180  20.632  1.00  0.00    -0.361 N 
HETATM   34  H34 UNL     1       1.005  11.410  21.276  1.00  0.00     0.162 HD
BRANCH  33  35
HETATM   35  C26 UNL     1       1.986  13.276  21.088  1.00  0.00     0.128 C 
BRANCH  35  36
HETATM   36  C27 UNL     1       2.698  12.967  22.410  1.00  0.00     0.078 C 
BRANCH  36  37
HETATM   37  C28 UNL     1       3.300  11.602  22.419  1.00  0.00     0.027 A 
HETATM   38  C29 UNL     1       4.347  11.051  21.712  1.00  0.00     0.114 A 
HETATM   39  N2  UNL     1       4.527   9.736  22.051  1.00  0.00    -0.360 N 
HETATM   40  C30 UNL     1       3.620   9.485  22.966  1.00  0.00     0.180 A 
ATOM     41  H2  UNL     1       5.219   9.089  21.673  1.00  0.00     0.166 HD
HETATM   42  N3  UNL     1       2.851  10.584  23.224  1.00  0.00    -0.355 N 
HETATM   43  H41 UNL     1       2.092  10.624  23.901  1.00  0.00     0.166 HD
ENDBRANCH  36  37
ENDBRANCH  35  36
ENDBRANCH  33  35
ENDBRANCH  30  31
ENDBRANCH  29  30
ENDBRANCH  27  29
ENDBRANCH  26  27
ENDBRANCH  25  26
ENDBRANCH  23  25
ENDBRANCH  20  23
BRANCH  13  44
HETATM   44  O2  UNL     1      -6.480   7.376  16.865  1.00  0.00    -0.395 OA
HETATM   45  H16 UNL     1      -5.852   7.733  17.518  1.00  0.00     0.210 HD
ENDBRANCH  13  44
TORSDOF 12
ENDMDL
MODEL 3
REMARK minimizedAffinity -7.13727379
REMARK CNNscore 0.556275666
REMARK CNNaffinity 6.47980738
REMARK  12 active torsions:
REMARK  status: ('A' for Active; 'I' for Inactive)
REMARK    1  A    between atoms: C12_13  and  O2_14 
REMARK    2  A    between atoms: C19_21  and  O3_22 
REMARK    3  A    between atoms: C19_21  and  C20_23 
REMARK    4  A    between atoms: C20_23  and  C21_25 
REMARK    5  A    between atoms: C21_25  and  O5_26 
REMARK    6  A    between atoms: O5_26  and  C22_27 
REMARK    7  A    between atoms: C22_27  and  C23_29 
REMARK    8  A    between atoms: C23_29  and  C24_30 
REMARK    9  A    between atoms: C24_30  and  C25_31 
REMARK       I    between atoms: C25_31  and  N1_33 
REMARK   10  A    between atoms: N1_33  and  C26_34 
REMARK   11  A    between atoms: C26_34  and  C27_35 
REMARK   12  A    between atoms: C27_35  and  C28_36 
ROOT
HETATM    1  C1  UNL     1       9.533   8.269  14.033  1.00  0.00     0.020 C 
HETATM    2  C2  UNL     1       8.170   9.008  13.965  1.00  0.00    -0.014 C 
HETATM    3  C3  UNL     1       7.098   7.900  13.727  1.00  0.00     0.022 C 
HETATM    4  C4  UNL     1       5.783   8.406  13.154  1.00  0.00     0.084 C 
HETATM    5  C5  UNL     1       6.025   9.191  11.892  1.00  0.00     0.149 C 
HETATM    6  O1  UNL     1       5.211   9.237  10.974  1.00  0.00    -0.293 OA
HETATM    7  C6  UNL     1       7.247  10.021  11.817  1.00  0.00     0.053 C 
HETATM    8  C7  UNL     1       8.193   9.969  12.770  1.00  0.00    -0.068 C 
HETATM    9  C8  UNL     1       9.306  10.987  12.784  1.00  0.00     0.035 C 
HETATM   10  C9  UNL     1       9.558  11.526  14.198  1.00  0.00     0.010 C 
HETATM   11  C10 UNL     1       8.336  11.375  15.125  1.00  0.00    -0.002 C 
HETATM   12  C11 UNL     1       7.847   9.885  15.246  1.00  0.00     0.031 C 
HETATM   13  C12 UNL     1       8.157   9.277  16.639  1.00  0.00     0.124 C 
HETATM   14  C13 UNL     1       9.447   9.818  17.257  1.00  0.00     0.045 C 
HETATM   15  C14 UNL     1       9.393  11.334  17.556  1.00  0.00     0.001 C 
HETATM   16  C15 UNL     1      10.839  11.884  17.543  1.00  0.00     0.019 C 
HETATM   17  C16 UNL     1       8.569  12.100  16.467  1.00  0.00     0.002 C 
HETATM   18  C17 UNL     1       7.263  12.508  17.155  1.00  0.00     0.009 C 
HETATM   19  C18 UNL     1       7.721  12.842  18.564  1.00  0.00     0.047 C 
HETATM   20  C19 UNL     1       8.654  11.673  18.919  1.00  0.00     0.128 C 
ENDROOT
BRANCH  20  21
HETATM   21  O3  UNL     1       7.829  10.581  19.336  1.00  0.00    -0.381 OA
HETATM   22  H27 UNL     1       7.146  10.915  19.946  1.00  0.00     0.211 HD
ENDBRANCH  20  21
BRANCH  20  23
HETATM   23  C20 UNL     1       9.591  12.042  20.093  1.00  0.00     0.185 C 
HETATM   24  O4  UNL     1      10.549  11.324  20.408  1.00  0.00    -0.292 OA
BRANCH  23  25
HETATM   25  C21 UNL     1       9.260  13.321  20.854  1.00  0.00     0.260 C 
BRANCH  25  26
HETATM   26  O5  UNL     1       9.625  13.153  22.225  1.00  0.00    -0.314 OA
BRANCH  26  27
HETATM   27  C22 UNL     1       8.746  12.411  22.945  1.00  0.00     0.259 C 
HETATM   28  O6  UNL     1       9.024  11.348  23.489  1.00  0.00    -0.265 OA
BRANCH  27  29
HETATM   29  C23 UNL     1       7.355  13.007  22.948  1.00  0.00     0.120 C 
BRANCH  29  30
HETATM   30  C24 UNL     1       6.220  11.991  23.029  1.00  0.00     0.112 C 
BRANCH  30  31
HETATM   31  C25 UNL     1       5.039  12.379  22.159  1.00  0.00     0.218 C 
HETATM   32  O7  UNL     1       5.128  13.132  21.197  1.00  0.00    -0.274 OA
HETATM   33  N1  UNL     1       3.858  11.796  22.561  1.00  0.00    -0.361 N 
HETATM   34  H34 UNL     1       3.888  11.031  23.225  1.00  0.00     0.162 HD
BRANCH  33  35
HETATM   35  C26 UNL     1       2.638  11.955  21.788  1.00  0.00     0.128 C 
BRANCH  35  36
HETATM   36  C27 UNL     1       2.080  10.621  21.282  1.00  0.00     0.078 C 
BRANCH  36  37
HETATM   37  C28 UNL     1       1.410  10.757  19.957  1.00  0.00     0.027 A 
HETATM   38  C29 UNL     1       1.862  10.557  18.670  1.00  0.00     0.114 A 
HETATM   39  N2  UNL     1       0.876  10.826  17.758  1.00  0.00    -0.360 N 
HETATM   40  C30 UNL     1      -0.173  11.166  18.471  1.00  0.00     0.180 A 
ATOM     41  H2  UNL     1       0.942  10.773  16.741  1.00  0.00     0.166 HD
HETATM   42  N3  UNL     1       0.099  11.141  19.808  1.00  0.00    -0.355 N 
HETATM   43  H41 UNL     1      -0.564  11.360  20.548  1.00  0.00     0.166 HD
ENDBRANCH  36  37
ENDBRANCH  35  36
ENDBRANCH  33  35
ENDBRANCH  30  31
ENDBRANCH  29  30
ENDBRANCH  27  29
ENDBRANCH  26  27
ENDBRANCH  25  26
ENDBRANCH  23  25
ENDBRANCH  20  23
BRANCH  13  44
HETATM   44  O2  UNL     1       8.201   7.857  16.619  1.00  0.00    -0.395 OA
HETATM   45  H16 UNL     1       8.279   7.554  17.540  1.00  0.00     0.210 HD
ENDBRANCH  13  44
TORSDOF 12
ENDMDL
MODEL 4
REMARK minimizedAffinity -9.21147728
REMARK CNNscore 0.527913868
REMARK CNNaffinity 7.09550667
REMARK  12 active torsions:
REMARK  status: ('A' for Active; 'I' for Inactive)
REMARK    1  A    between atoms: C12_13  and  O2_14 
REMARK    2  A    between atoms: C19_21  and  O3_22 
REMARK    3  A    between atoms: C19_21  and  C20_23 
REMARK    4  A    between atoms: C20_23  and  C21_25 
REMARK    5  A    between atoms: C21_25  and  O5_26 
REMARK    6  A    between atoms: O5_26  and  C22_27 
REMARK    7  A    between atoms: C22_27  and  C23_29 
REMARK    8  A    between atoms: C23_29  and  C24_30 
REMARK    9  A    between atoms: C24_30  and  C25_31 
REMARK       I    between atoms: C25_31  and  N1_33 
REMARK   10  A    between atoms: N1_33  and  C26_34 
REMARK   11  A    between atoms: C26_34  and  C27_35 
REMARK   12  A    between atoms: C27_35  and  C28_36 
ROOT
HETATM    1  C1  UNL     1       3.302   8.182  10.491  1.00  0.00     0.020 C 
HETATM    2  C2  UNL     1       2.788   6.761  10.136  1.00  0.00    -0.014 C 
HETATM    3  C3  UNL     1       4.027   5.821  10.251  1.00  0.00     0.022 C 
HETATM    4  C4  UNL     1       3.892   4.504   9.499  1.00  0.00     0.084 C 
HETATM    5  C5  UNL     1       3.548   4.755   8.055  1.00  0.00     0.149 C 
HETATM    6  O1  UNL     1       3.902   4.005   7.150  1.00  0.00    -0.293 OA
HETATM    7  C6  UNL     1       2.655   5.893   7.744  1.00  0.00     0.053 C 
HETATM    8  C7  UNL     1       2.281   6.772   8.688  1.00  0.00    -0.068 C 
HETATM    9  C8  UNL     1       1.195   7.778   8.394  1.00  0.00     0.035 C 
HETATM   10  C9  UNL     1       0.194   7.880   9.550  1.00  0.00     0.010 C 
HETATM   11  C10 UNL     1       0.168   6.617  10.435  1.00  0.00    -0.002 C 
HETATM   12  C11 UNL     1       1.578   6.269  11.036  1.00  0.00     0.031 C 
HETATM   13  C12 UNL     1       1.652   6.540  12.561  1.00  0.00     0.124 C 
HETATM   14  C13 UNL     1       0.792   7.727  13.001  1.00  0.00     0.045 C 
HETATM   15  C14 UNL     1      -0.721   7.507  12.770  1.00  0.00     0.001 C 
HETATM   16  C15 UNL     1      -1.396   8.890  12.618  1.00  0.00     0.019 C 
HETATM   17  C16 UNL     1      -0.983   6.688  11.461  1.00  0.00     0.002 C 
HETATM   18  C17 UNL     1      -1.444   5.304  11.931  1.00  0.00     0.009 C 
HETATM   19  C18 UNL     1      -2.276   5.631  13.158  1.00  0.00     0.047 C 
HETATM   20  C19 UNL     1      -1.405   6.646  13.915  1.00  0.00     0.128 C 
ENDROOT
BRANCH  20  21
HETATM   21  O3  UNL     1      -0.426   5.905  14.649  1.00  0.00    -0.381 OA
HETATM   22  H27 UNL     1      -0.864   5.153  15.089  1.00  0.00     0.211 HD
ENDBRANCH  20  21
BRANCH  20  23
HETATM   23  C20 UNL     1      -2.246   7.461  14.926  1.00  0.00     0.185 C 
HETATM   24  O4  UNL     1      -2.061   8.673  15.095  1.00  0.00    -0.292 OA
BRANCH  23  25
HETATM   25  C21 UNL     1      -3.299   6.690  15.716  1.00  0.00     0.260 C 
BRANCH  25  26
HETATM   26  O5  UNL     1      -3.998   5.816  14.828  1.00  0.00    -0.314 OA
BRANCH  26  27
HETATM   27  C22 UNL     1      -5.344   5.986  14.831  1.00  0.00     0.259 C 
HETATM   28  O6  UNL     1      -5.954   6.648  15.663  1.00  0.00    -0.265 OA
BRANCH  27  29
HETATM   29  C23 UNL     1      -6.026   5.208  13.727  1.00  0.00     0.120 C 
BRANCH  29  30
HETATM   30  C24 UNL     1      -7.464   4.795  14.024  1.00  0.00     0.112 C 
BRANCH  30  31
HETATM   31  C25 UNL     1      -8.469   5.583  13.206  1.00  0.00     0.218 C 
HETATM   32  O7  UNL     1      -8.452   5.631  11.981  1.00  0.00    -0.274 OA
HETATM   33  N1  UNL     1      -9.403   6.234  13.979  1.00  0.00    -0.361 N 
HETATM   34  H34 UNL     1      -9.488   5.990  14.958  1.00  0.00     0.162 HD
BRANCH  33  35
HETATM   35  C26 UNL     1     -10.515   6.949  13.376  1.00  0.00     0.128 C 
BRANCH  35  36
HETATM   36  C27 UNL     1     -11.216   7.891  14.360  1.00  0.00     0.078 C 
BRANCH  36  37
HETATM   37  C28 UNL     1     -11.896   9.025  13.669  1.00  0.00     0.027 A 
HETATM   38  C29 UNL     1     -11.919  10.380  13.923  1.00  0.00     0.114 A 
HETATM   39  N2  UNL     1     -12.706  11.034  13.013  1.00  0.00    -0.360 N 
HETATM   40  C30 UNL     1     -13.145  10.102  12.199  1.00  0.00     0.180 A 
ATOM     41  H2  UNL     1     -12.909  12.033  12.976  1.00  0.00     0.166 HD
HETATM   42  N3  UNL     1     -12.683   8.867  12.554  1.00  0.00    -0.355 N 
HETATM   43  H41 UNL     1     -12.887   7.999  12.064  1.00  0.00     0.166 HD
ENDBRANCH  36  37
ENDBRANCH  35  36
ENDBRANCH  33  35
ENDBRANCH  30  31
ENDBRANCH  29  30
ENDBRANCH  27  29
ENDBRANCH  26  27
ENDBRANCH  25  26
ENDBRANCH  23  25
ENDBRANCH  20  23
BRANCH  13  44
HETATM   44  O2  UNL     1       2.982   6.724  13.021  1.00  0.00    -0.395 OA
HETATM   45  H16 UNL     1       2.952   6.768  13.993  1.00  0.00     0.210 HD
ENDBRANCH  13  44
TORSDOF 12
ENDMDL
MODEL 5
REMARK minimizedAffinity -7.73418093
REMARK CNNscore 0.50498867
REMARK CNNaffinity 6.5053997
REMARK  12 active torsions:
REMARK  status: ('A' for Active; 'I' for Inactive)
REMARK    1  A    between atoms: C12_13  and  O2_14 
REMARK    2  A    between atoms: C19_21  and  O3_22 
REMARK    3  A    between atoms: C19_21  and  C20_23 
REMARK    4  A    between atoms: C20_23  and  C21_25 
REMARK    5  A    between atoms: C21_25  and  O5_26 
REMARK    6  A    between atoms: O5_26  and  C22_27 
REMARK    7  A    between atoms: C22_27  and  C23_29 
REMARK    8  A    between atoms: C23_29  and  C24_30 
REMARK    9  A    between atoms: C24_30  and  C25_31 
REMARK       I    between atoms: C25_31  and  N1_33 
REMARK   10  A    between atoms: N1_33  and  C26_34 
REMARK   11  A    between atoms: C26_34  and  C27_35 
REMARK   12  A    between atoms: C27_35  and  C28_36 
ROOT
HETATM    1  C1  UNL     1       2.885   8.583  11.204  1.00  0.00     0.020 C 
HETATM    2  C2  UNL     1       2.397   7.178  10.764  1.00  0.00    -0.014 C 
HETATM    3  C3  UNL     1       3.660   6.263  10.790  1.00  0.00     0.022 C 
HETATM    4  C4  UNL     1       3.541   4.996   9.954  1.00  0.00     0.084 C 
HETATM    5  C5  UNL     1       3.160   5.335   8.537  1.00  0.00     0.149 C 
HETATM    6  O1  UNL     1       3.512   4.656   7.576  1.00  0.00    -0.293 OA
HETATM    7  C6  UNL     1       2.234   6.469   8.321  1.00  0.00     0.053 C 
HETATM    8  C7  UNL     1       1.859   7.273   9.330  1.00  0.00    -0.068 C 
HETATM    9  C8  UNL     1       0.745   8.269   9.126  1.00  0.00     0.035 C 
HETATM   10  C9  UNL     1      -0.234   8.268  10.306  1.00  0.00     0.010 C 
HETATM   11  C10 UNL     1      -0.212   6.949  11.104  1.00  0.00    -0.002 C 
HETATM   12  C11 UNL     1       1.219   6.596  11.652  1.00  0.00     0.031 C 
HETATM   13  C12 UNL     1       1.318   6.766  13.190  1.00  0.00     0.124 C 
HETATM   14  C13 UNL     1       0.441   7.899  13.727  1.00  0.00     0.045 C 
HETATM   15  C14 UNL     1      -1.071   7.656  13.511  1.00  0.00     0.001 C 
HETATM   16  C15 UNL     1      -1.782   9.030  13.466  1.00  0.00     0.019 C 
HETATM   17  C16 UNL     1      -1.342   6.921  12.155  1.00  0.00     0.002 C 
HETATM   18  C17 UNL     1      -1.760   5.498  12.538  1.00  0.00     0.009 C 
HETATM   19  C18 UNL     1      -2.573   5.721  13.801  1.00  0.00     0.047 C 
HETATM   20  C19 UNL     1      -1.710   6.704  14.608  1.00  0.00     0.128 C 
ENDROOT
BRANCH  20  21
HETATM   21  O3  UNL     1      -0.699   5.940  15.271  1.00  0.00    -0.381 OA
HETATM   22  H27 UNL     1      -1.109   5.149  15.667  1.00  0.00     0.211 HD
ENDBRANCH  20  21
BRANCH  20  23
HETATM   23  C20 UNL     1      -2.549   7.429  15.688  1.00  0.00     0.185 C 
HETATM   24  O4  UNL     1      -3.779   7.301  15.746  1.00  0.00    -0.292 OA
BRANCH  23  25
HETATM   25  C21 UNL     1      -1.785   8.323  16.659  1.00  0.00     0.260 C 
BRANCH  25  26
HETATM   26  O5  UNL     1      -2.659   9.351  17.128  1.00  0.00    -0.314 OA
BRANCH  26  27
HETATM   27  C22 UNL     1      -2.023  10.379  17.745  1.00  0.00     0.259 C 
HETATM   28  O6  UNL     1      -0.833  10.378  18.038  1.00  0.00    -0.265 OA
BRANCH  27  29
HETATM   29  C23 UNL     1      -2.964  11.510  18.099  1.00  0.00     0.120 C 
BRANCH  29  30
HETATM   30  C24 UNL     1      -2.314  12.888  18.175  1.00  0.00     0.112 C 
BRANCH  30  31
HETATM   31  C25 UNL     1      -3.023  13.805  19.154  1.00  0.00     0.218 C 
HETATM   32  O7  UNL     1      -2.559  14.873  19.536  1.00  0.00    -0.274 OA
HETATM   33  N1  UNL     1      -4.242  13.315  19.567  1.00  0.00    -0.361 N 
HETATM   34  H34 UNL     1      -4.657  12.540  19.063  1.00  0.00     0.162 HD
BRANCH  33  35
HETATM   35  C26 UNL     1      -5.121  14.100  20.416  1.00  0.00     0.128 C 
BRANCH  35  36
HETATM   36  C27 UNL     1      -6.495  13.448  20.606  1.00  0.00     0.078 C 
BRANCH  36  37
HETATM   37  C28 UNL     1      -7.111  13.803  21.918  1.00  0.00     0.027 A 
HETATM   38  C29 UNL     1      -7.626  13.026  22.934  1.00  0.00     0.114 A 
HETATM   39  N2  UNL     1      -8.104  13.809  23.952  1.00  0.00    -0.360 N 
HETATM   40  C30 UNL     1      -7.869  15.046  23.579  1.00  0.00     0.180 A 
ATOM     41  H2  UNL     1      -8.548  13.497  24.816  1.00  0.00     0.166 HD
HETATM   42  N3  UNL     1      -7.269  15.095  22.354  1.00  0.00    -0.355 N 
HETATM   43  H41 UNL     1      -6.988  15.946  21.870  1.00  0.00     0.166 HD
ENDBRANCH  36  37
ENDBRANCH  35  36
ENDBRANCH  33  35
ENDBRANCH  30  31
ENDBRANCH  29  30
ENDBRANCH  27  29
ENDBRANCH  26  27
ENDBRANCH  25  26
ENDBRANCH  23  25
ENDBRANCH  20  23
BRANCH  13  44
HETATM   44  O2  UNL     1       2.654   6.951  13.636  1.00  0.00    -0.395 OA
HETATM   45  H16 UNL     1       2.643   6.929  14.608  1.00  0.00     0.210 HD
ENDBRANCH  13  44
TORSDOF 12
ENDMDL
MODEL 6
REMARK minimizedAffinity -6.96950197
REMARK CNNscore 0.502526045
REMARK CNNaffinity 6.1447053
REMARK  12 active torsions:
REMARK  status: ('A' for Active; 'I' for Inactive)
REMARK    1  A    between atoms: C12_13  and  O2_14 
REMARK    2  A    between atoms: C19_21  and  O3_22 
REMARK    3  A    between atoms: C19_21  and  C20_23 
REMARK    4  A    between atoms: C20_23  and  C21_25 
REMARK    5  A    between atoms: C21_25  and  O5_26 
REMARK    6  A    between atoms: O5_26  and  C22_27 
REMARK    7  A    between atoms: C22_27  and  C23_29 
REMARK    8  A    between atoms: C23_29  and  C24_30 
REMARK    9  A    between atoms: C24_30  and  C25_31 
REMARK       I    between atoms: C25_31  and  N1_33 
REMARK   10  A    between atoms: N1_33  and  C26_34 
REMARK   11  A    between atoms: C26_34  and  C27_35 
REMARK   12  A    between atoms: C27_35  and  C28_36 
ROOT
HETATM    1  C1  UNL     1      -4.485  15.420  17.536  1.00  0.00     0.020 C 
HETATM    2  C2  UNL     1      -4.833  14.277  18.526  1.00  0.00    -0.014 C 
HETATM    3  C3  UNL     1      -6.367  14.391  18.784  1.00  0.00     0.022 C 
HETATM    4  C4  UNL     1      -6.846  13.711  20.058  1.00  0.00     0.084 C 
HETATM    5  C5  UNL     1      -6.069  14.212  21.247  1.00  0.00     0.149 C 
HETATM    6  O1  UNL     1      -6.552  14.280  22.373  1.00  0.00    -0.293 OA
HETATM    7  C6  UNL     1      -4.636  14.526  21.054  1.00  0.00     0.053 C 
HETATM    8  C7  UNL     1      -4.071  14.515  19.835  1.00  0.00    -0.068 C 
HETATM    9  C8  UNL     1      -2.571  14.611  19.699  1.00  0.00     0.035 C 
HETATM   10  C9  UNL     1      -2.033  13.600  18.680  1.00  0.00     0.010 C 
HETATM   11  C10 UNL     1      -2.977  12.399  18.470  1.00  0.00    -0.002 C 
HETATM   12  C11 UNL     1      -4.418  12.833  18.017  1.00  0.00     0.031 C 
HETATM   13  C12 UNL     1      -4.701  12.479  16.534  1.00  0.00     0.124 C 
HETATM   14  C13 UNL     1      -3.455  12.559  15.649  1.00  0.00     0.045 C 
HETATM   15  C14 UNL     1      -2.362  11.537  16.039  1.00  0.00     0.001 C 
HETATM   16  C15 UNL     1      -0.992  12.092  15.581  1.00  0.00     0.019 C 
HETATM   17  C16 UNL     1      -2.309  11.322  17.589  1.00  0.00     0.002 C 
HETATM   18  C17 UNL     1      -2.884   9.922  17.827  1.00  0.00     0.009 C 
HETATM   19  C18 UNL     1      -2.363   9.142  16.633  1.00  0.00     0.047 C 
HETATM   20  C19 UNL     1      -2.629  10.087  15.450  1.00  0.00     0.128 C 
ENDROOT
BRANCH  20  21
HETATM   21  O3  UNL     1      -4.003   9.932  15.081  1.00  0.00    -0.381 OA
HETATM   22  H27 UNL     1      -4.218   8.982  15.056  1.00  0.00     0.211 HD
ENDBRANCH  20  21
BRANCH  20  23
HETATM   23  C20 UNL     1      -1.759   9.712  14.227  1.00  0.00     0.185 C 
HETATM   24  O4  UNL     1      -1.640  10.472  13.258  1.00  0.00    -0.292 OA
BRANCH  23  25
HETATM   25  C21 UNL     1      -1.075   8.349  14.269  1.00  0.00     0.260 C 
BRANCH  25  26
HETATM   26  O5  UNL     1      -1.804   7.438  13.445  1.00  0.00    -0.314 OA
BRANCH  26  27
HETATM   27  C22 UNL     1      -1.045   6.801  12.517  1.00  0.00     0.259 C 
HETATM   28  O6  UNL     1      -1.192   5.628  12.194  1.00  0.00    -0.265 OA
BRANCH  27  29
HETATM   29  C23 UNL     1       0.057   7.682  11.971  1.00  0.00     0.120 C 
BRANCH  29  30
HETATM   30  C24 UNL     1      -0.250   8.338  10.628  1.00  0.00     0.112 C 
BRANCH  30  31
HETATM   31  C25 UNL     1       0.790   8.006   9.575  1.00  0.00     0.218 C 
HETATM   32  O7  UNL     1       1.023   8.722   8.607  1.00  0.00    -0.274 OA
HETATM   33  N1  UNL     1       1.447   6.822   9.819  1.00  0.00    -0.361 N 
HETATM   34  H34 UNL     1       1.357   6.388  10.730  1.00  0.00     0.162 HD
BRANCH  33  35
HETATM   35  C26 UNL     1       2.556   6.389   8.986  1.00  0.00     0.128 C 
BRANCH  35  36
HETATM   36  C27 UNL     1       3.664   5.699   9.788  1.00  0.00     0.078 C 
BRANCH  36  37
HETATM   37  C28 UNL     1       4.327   6.629  10.748  1.00  0.00     0.027 A 
HETATM   38  C29 UNL     1       5.390   7.495  10.608  1.00  0.00     0.114 A 
HETATM   39  N2  UNL     1       5.655   8.139  11.788  1.00  0.00    -0.360 N 
HETATM   40  C30 UNL     1       4.757   7.694  12.635  1.00  0.00     0.180 A 
ATOM     41  H2  UNL     1       6.392   8.820  11.968  1.00  0.00     0.166 HD
HETATM   42  N3  UNL     1       3.929   6.776  12.054  1.00  0.00    -0.355 N 
HETATM   43  H41 UNL     1       3.156   6.304  12.519  1.00  0.00     0.166 HD
ENDBRANCH  36  37
ENDBRANCH  35  36
ENDBRANCH  33  35
ENDBRANCH  30  31
ENDBRANCH  29  30
ENDBRANCH  27  29
ENDBRANCH  26  27
ENDBRANCH  25  26
ENDBRANCH  23  25
ENDBRANCH  20  23
BRANCH  13  44
HETATM   44  O2  UNL     1      -5.734  13.272  15.968  1.00  0.00    -0.395 OA
HETATM   45  H16 UNL     1      -5.930  12.911  15.086  1.00  0.00     0.210 HD
ENDBRANCH  13  44
TORSDOF 12
ENDMDL
MODEL 7
REMARK minimizedAffinity -9.760396
REMARK CNNscore 0.48028335
REMARK CNNaffinity 7.2174983
REMARK  12 active torsions:
REMARK  status: ('A' for Active; 'I' for Inactive)
REMARK    1  A    between atoms: C12_13  and  O2_14 
REMARK    2  A    between atoms: C19_21  and  O3_22 
REMARK    3  A    between atoms: C19_21  and  C20_23 
REMARK    4  A    between atoms: C20_23  and  C21_25 
REMARK    5  A    between atoms: C21_25  and  O5_26 
REMARK    6  A    between atoms: O5_26  and  C22_27 
REMARK    7  A    between atoms: C22_27  and  C23_29 
REMARK    8  A    between atoms: C23_29  and  C24_30 
REMARK    9  A    between atoms: C24_30  and  C25_31 
REMARK       I    between atoms: C25_31  and  N1_33 
REMARK   10  A    between atoms: N1_33  and  C26_34 
REMARK   11  A    between atoms: C26_34  and  C27_35 
REMARK   12  A    between atoms: C27_35  and  C28_36 
ROOT
HETATM    1  C1  UNL     1       3.391   8.485  10.574  1.00  0.00     0.020 C 
HETATM    2  C2  UNL     1       2.789   7.092  10.255  1.00  0.00    -0.014 C 
HETATM    3  C3  UNL     1       3.996   6.105  10.219  1.00  0.00     0.022 C 
HETATM    4  C4  UNL     1       3.732   4.809   9.466  1.00  0.00     0.084 C 
HETATM    5  C5  UNL     1       3.242   5.101   8.071  1.00  0.00     0.149 C 
HETATM    6  O1  UNL     1       3.467   4.357   7.121  1.00  0.00    -0.293 OA
HETATM    7  C6  UNL     1       2.365   6.276   7.878  1.00  0.00     0.053 C 
HETATM    8  C7  UNL     1       2.129   7.150   8.871  1.00  0.00    -0.068 C 
HETATM    9  C8  UNL     1       1.056   8.199   8.713  1.00  0.00     0.035 C 
HETATM   10  C9  UNL     1       0.191   8.314   9.973  1.00  0.00     0.010 C 
HETATM   11  C10 UNL     1       0.213   7.036  10.835  1.00  0.00    -0.002 C 
HETATM   12  C11 UNL     1       1.666   6.625  11.273  1.00  0.00     0.031 C 
HETATM   13  C12 UNL     1       1.915   6.863  12.785  1.00  0.00     0.124 C 
HETATM   14  C13 UNL     1       1.154   8.071  13.336  1.00  0.00     0.045 C 
HETATM   15  C14 UNL     1      -0.383   7.910  13.267  1.00  0.00     0.001 C 
HETATM   16  C15 UNL     1      -1.018   9.319  13.212  1.00  0.00     0.019 C 
HETATM   17  C16 UNL     1      -0.816   7.127  11.982  1.00  0.00     0.002 C 
HETATM   18  C17 UNL     1      -1.275   5.752  12.477  1.00  0.00     0.009 C 
HETATM   19  C18 UNL     1      -1.957   6.084  13.793  1.00  0.00     0.047 C 
HETATM   20  C19 UNL     1      -0.971   7.052  14.467  1.00  0.00     0.128 C 
ENDROOT
BRANCH  20  21
HETATM   21  O3  UNL     1       0.053   6.261  15.077  1.00  0.00    -0.381 OA
HETATM   22  H27 UNL     1      -0.362   5.517  15.550  1.00  0.00     0.211 HD
ENDBRANCH  20  21
BRANCH  20  23
HETATM   23  C20 UNL     1      -1.666   7.876  15.575  1.00  0.00     0.185 C 
HETATM   24  O4  UNL     1      -1.041   8.692  16.265  1.00  0.00    -0.292 OA
BRANCH  23  25
HETATM   25  C21 UNL     1      -3.154   7.616  15.788  1.00  0.00     0.260 C 
BRANCH  25  26
HETATM   26  O5  UNL     1      -3.874   8.829  15.563  1.00  0.00    -0.314 OA
BRANCH  26  27
HETATM   27  C22 UNL     1      -4.880   8.716  14.659  1.00  0.00     0.259 C 
HETATM   28  O6  UNL     1      -4.761   8.950  13.462  1.00  0.00    -0.265 OA
BRANCH  27  29
HETATM   29  C23 UNL     1      -6.195   8.334  15.304  1.00  0.00     0.120 C 
BRANCH  29  30
HETATM   30  C24 UNL     1      -6.382   6.839  15.545  1.00  0.00     0.112 C 
BRANCH  30  31
HETATM   31  C25 UNL     1      -6.445   6.052  14.250  1.00  0.00     0.218 C 
HETATM   32  O7  UNL     1      -5.459   5.566  13.707  1.00  0.00    -0.274 OA
HETATM   33  N1  UNL     1      -7.722   5.936  13.750  1.00  0.00    -0.361 N 
HETATM   34  H34 UNL     1      -8.507   6.176  14.344  1.00  0.00     0.162 HD
BRANCH  33  35
HETATM   35  C26 UNL     1      -8.002   5.123  12.578  1.00  0.00     0.128 C 
BRANCH  35  36
HETATM   36  C27 UNL     1      -8.065   3.626  12.899  1.00  0.00     0.078 C 
BRANCH  36  37
HETATM   37  C28 UNL     1      -7.042   2.844  12.146  1.00  0.00     0.027 A 
HETATM   38  C29 UNL     1      -5.966   3.234  11.377  1.00  0.00     0.114 A 
HETATM   39  N2  UNL     1      -5.312   2.145  10.864  1.00  0.00    -0.360 N 
HETATM   40  C30 UNL     1      -5.962   1.101  11.324  1.00  0.00     0.180 A 
ATOM     41  H2  UNL     1      -4.495   2.145  10.254  1.00  0.00     0.166 HD
HETATM   42  N3  UNL     1      -7.018   1.472  12.106  1.00  0.00    -0.355 N 
HETATM   43  H41 UNL     1      -7.657   0.832  12.573  1.00  0.00     0.166 HD
ENDBRANCH  36  37
ENDBRANCH  35  36
ENDBRANCH  33  35
ENDBRANCH  30  31
ENDBRANCH  29  30
ENDBRANCH  27  29
ENDBRANCH  26  27
ENDBRANCH  25  26
ENDBRANCH  23  25
ENDBRANCH  20  23
BRANCH  13  44
HETATM   44  O2  UNL     1       3.294   6.990  13.101  1.00  0.00    -0.395 OA
HETATM   45  H16 UNL     1       3.370   7.016  14.070  1.00  0.00     0.210 HD
ENDBRANCH  13  44
TORSDOF 12
ENDMDL
MODEL 8
REMARK minimizedAffinity -8.67165565
REMARK CNNscore 0.456427872
REMARK CNNaffinity 7.0205245
REMARK  12 active torsions:
REMARK  status: ('A' for Active; 'I' for Inactive)
REMARK    1  A    between atoms: C12_13  and  O2_14 
REMARK    2  A    between atoms: C19_21  and  O3_22 
REMARK    3  A    between atoms: C19_21  and  C20_23 
REMARK    4  A    between atoms: C20_23  and  C21_25 
REMARK    5  A    between atoms: C21_25  and  O5_26 
REMARK    6  A    between atoms: O5_26  and  C22_27 
REMARK    7  A    between atoms: C22_27  and  C23_29 
REMARK    8  A    between atoms: C23_29  and  C24_30 
REMARK    9  A    between atoms: C24_30  and  C25_31 
REMARK       I    between atoms: C25_31  and  N1_33 
REMARK   10  A    between atoms: N1_33  and  C26_34 
REMARK   11  A    between atoms: C26_34  and  C27_35 
REMARK   12  A    between atoms: C27_35  and  C28_36 
ROOT
HETATM    1  C1  UNL     1       2.329   5.409  10.903  1.00  0.00     0.020 C 
HETATM    2  C2  UNL     1       1.922   6.804  10.360  1.00  0.00    -0.014 C 
HETATM    3  C3  UNL     1       1.670   6.608   8.833  1.00  0.00     0.022 C 
HETATM    4  C4  UNL     1       1.734   7.888   8.013  1.00  0.00     0.084 C 
HETATM    5  C5  UNL     1       3.039   8.601   8.248  1.00  0.00     0.149 C 
HETATM    6  O1  UNL     1       3.583   9.289   7.390  1.00  0.00    -0.293 OA
HETATM    7  C6  UNL     1       3.620   8.549   9.609  1.00  0.00     0.053 C 
HETATM    8  C7  UNL     1       3.093   7.772  10.570  1.00  0.00    -0.068 C 
HETATM    9  C8  UNL     1       3.562   7.915  11.996  1.00  0.00     0.035 C 
HETATM   10  C9  UNL     1       2.384   7.924  12.978  1.00  0.00     0.010 C 
HETATM   11  C10 UNL     1       1.057   8.349  12.319  1.00  0.00    -0.002 C 
HETATM   12  C11 UNL     1       0.669   7.442  11.094  1.00  0.00     0.031 C 
HETATM   13  C12 UNL     1      -0.537   6.519  11.405  1.00  0.00     0.124 C 
HETATM   14  C13 UNL     1      -0.589   6.069  12.867  1.00  0.00     0.045 C 
HETATM   15  C14 UNL     1      -0.793   7.237  13.860  1.00  0.00     0.001 C 
HETATM   16  C15 UNL     1      -0.201   6.821  15.227  1.00  0.00     0.019 C 
HETATM   17  C16 UNL     1      -0.051   8.529  13.378  1.00  0.00     0.002 C 
HETATM   18  C17 UNL     1      -1.156   9.488  12.924  1.00  0.00     0.009 C 
HETATM   19  C18 UNL     1      -2.264   9.216  13.926  1.00  0.00     0.047 C 
HETATM   20  C19 UNL     1      -2.311   7.681  13.992  1.00  0.00     0.128 C 
ENDROOT
BRANCH  20  21
HETATM   21  O3  UNL     1      -3.074   7.229  12.869  1.00  0.00    -0.381 OA
HETATM   22  H27 UNL     1      -3.875   7.778  12.789  1.00  0.00     0.211 HD
ENDBRANCH  20  21
BRANCH  20  23
HETATM   23  C20 UNL     1      -3.019   7.198  15.279  1.00  0.00     0.185 C 
HETATM   24  O4  UNL     1      -2.833   7.755  16.369  1.00  0.00    -0.292 OA
BRANCH  23  25
HETATM   25  C21 UNL     1      -3.939   5.989  15.140  1.00  0.00     0.260 C 
BRANCH  25  26
HETATM   26  O5  UNL     1      -3.245   4.957  14.438  1.00  0.00    -0.314 OA
BRANCH  26  27
HETATM   27  C22 UNL     1      -3.922   4.461  13.371  1.00  0.00     0.259 C 
HETATM   28  O6  UNL     1      -3.392   3.895  12.421  1.00  0.00    -0.265 OA
BRANCH  27  29
HETATM   29  C23 UNL     1      -5.406   4.745  13.447  1.00  0.00     0.120 C 
BRANCH  29  30
HETATM   30  C24 UNL     1      -6.300   3.664  12.847  1.00  0.00     0.112 C 
BRANCH  30  31
HETATM   31  C25 UNL     1      -7.743   4.115  12.723  1.00  0.00     0.218 C 
HETATM   32  O7  UNL     1      -8.696   3.345  12.769  1.00  0.00    -0.274 OA
HETATM   33  N1  UNL     1      -7.871   5.475  12.558  1.00  0.00    -0.361 N 
HETATM   34  H34 UNL     1      -7.071   6.070  12.735  1.00  0.00     0.162 HD
BRANCH  33  35
HETATM   35  C26 UNL     1      -9.177   6.111  12.533  1.00  0.00     0.128 C 
BRANCH  35  36
HETATM   36  C27 UNL     1      -9.713   6.416  13.936  1.00  0.00     0.078 C 
BRANCH  36  37
HETATM   37  C28 UNL     1      -8.617   6.685  14.912  1.00  0.00     0.027 A 
HETATM   38  C29 UNL     1      -7.778   7.766  15.081  1.00  0.00     0.114 A 
HETATM   39  N2  UNL     1      -6.905   7.550  16.115  1.00  0.00    -0.360 N 
HETATM   40  C30 UNL     1      -7.214   6.364  16.588  1.00  0.00     0.180 A 
ATOM     41  H2  UNL     1      -6.172   8.176  16.447  1.00  0.00     0.166 HD
HETATM   42  N3  UNL     1      -8.244   5.799  15.893  1.00  0.00    -0.355 N 
HETATM   43  H41 UNL     1      -8.654   4.888  16.087  1.00  0.00     0.166 HD
ENDBRANCH  36  37
ENDBRANCH  35  36
ENDBRANCH  33  35
ENDBRANCH  30  31
ENDBRANCH  29  30
ENDBRANCH  27  29
ENDBRANCH  26  27
ENDBRANCH  25  26
ENDBRANCH  23  25
ENDBRANCH  20  23
BRANCH  13  44
HETATM   44  O2  UNL     1      -0.588   5.380  10.558  1.00  0.00    -0.395 OA
HETATM   45  H16 UNL     1      -1.429   4.922  10.734  1.00  0.00     0.210 HD
ENDBRANCH  13  44
TORSDOF 12
ENDMDL
MODEL 9
REMARK minimizedAffinity -7.3611927
REMARK CNNscore 0.430191129
REMARK CNNaffinity 6.26914454
REMARK  12 active torsions:
REMARK  status: ('A' for Active; 'I' for Inactive)
REMARK    1  A    between atoms: C12_13  and  O2_14 
REMARK    2  A    between atoms: C19_21  and  O3_22 
REMARK    3  A    between atoms: C19_21  and  C20_23 
REMARK    4  A    between atoms: C20_23  and  C21_25 
REMARK    5  A    between atoms: C21_25  and  O5_26 
REMARK    6  A    between atoms: O5_26  and  C22_27 
REMARK    7  A    between atoms: C22_27  and  C23_29 
REMARK    8  A    between atoms: C23_29  and  C24_30 
REMARK    9  A    between atoms: C24_30  and  C25_31 
REMARK       I    between atoms: C25_31  and  N1_33 
REMARK   10  A    between atoms: N1_33  and  C26_34 
REMARK   11  A    between atoms: C26_34  and  C27_35 
REMARK   12  A    between atoms: C27_35  and  C28_36 
ROOT
HETATM    1  C1  UNL     1      -2.071   5.995  12.517  1.00  0.00     0.020 C 
HETATM    2  C2  UNL     1      -2.661   6.670  13.783  1.00  0.00    -0.014 C 
HETATM    3  C3  UNL     1      -3.461   5.555  14.524  1.00  0.00     0.022 C 
HETATM    4  C4  UNL     1      -4.504   6.071  15.505  1.00  0.00     0.084 C 
HETATM    5  C5  UNL     1      -5.441   7.031  14.821  1.00  0.00     0.149 C 
HETATM    6  O1  UNL     1      -6.615   7.163  15.155  1.00  0.00    -0.293 OA
HETATM    7  C6  UNL     1      -4.881   7.922  13.780  1.00  0.00     0.053 C 
HETATM    8  C7  UNL     1      -3.618   7.785  13.342  1.00  0.00    -0.068 C 
HETATM    9  C8  UNL     1      -3.008   8.844  12.457  1.00  0.00     0.035 C 
HETATM   10  C9  UNL     1      -1.584   9.197  12.901  1.00  0.00     0.010 C 
HETATM   11  C10 UNL     1      -1.316   8.863  14.382  1.00  0.00    -0.002 C 
HETATM   12  C11 UNL     1      -1.575   7.349  14.719  1.00  0.00     0.031 C 
HETATM   13  C12 UNL     1      -0.259   6.572  14.984  1.00  0.00     0.124 C 
HETATM   14  C13 UNL     1       0.919   7.085  14.154  1.00  0.00     0.045 C 
HETATM   15  C14 UNL     1       1.314   8.542  14.488  1.00  0.00     0.001 C 
HETATM   16  C15 UNL     1       1.999   9.158  13.245  1.00  0.00     0.019 C 
HETATM   17  C16 UNL     1       0.056   9.409  14.831  1.00  0.00     0.002 C 
HETATM   18  C17 UNL     1       0.130   9.656  16.341  1.00  0.00     0.009 C 
HETATM   19  C18 UNL     1       1.621   9.818  16.577  1.00  0.00     0.047 C 
HETATM   20  C19 UNL     1       2.233   8.657  15.777  1.00  0.00     0.128 C 
ENDROOT
BRANCH  20  21
HETATM   21  O3  UNL     1       2.128   7.480  16.583  1.00  0.00    -0.381 OA
HETATM   22  H27 UNL     1       2.402   7.695  17.494  1.00  0.00     0.211 HD
ENDBRANCH  20  21
BRANCH  20  23
HETATM   23  C20 UNL     1       3.732   8.907  15.486  1.00  0.00     0.185 C 
HETATM   24  O4  UNL     1       4.255  10.011  15.682  1.00  0.00    -0.292 OA
BRANCH  23  25
HETATM   25  C21 UNL     1       4.524   7.730  14.925  1.00  0.00     0.260 C 
BRANCH  25  26
HETATM   26  O5  UNL     1       5.287   8.176  13.803  1.00  0.00    -0.314 OA
BRANCH  26  27
HETATM   27  C22 UNL     1       6.451   7.502  13.622  1.00  0.00     0.259 C 
HETATM   28  O6  UNL     1       6.622   6.639  12.768  1.00  0.00    -0.265 OA
BRANCH  27  29
HETATM   29  C23 UNL     1       7.503   7.883  14.640  1.00  0.00     0.120 C 
BRANCH  29  30
HETATM   30  C24 UNL     1       8.944   7.753  14.156  1.00  0.00     0.112 C 
BRANCH  30  31
HETATM   31  C25 UNL     1       9.587   9.102  13.896  1.00  0.00     0.218 C 
HETATM   32  O7  UNL     1       9.316   9.802  12.927  1.00  0.00    -0.274 OA
HETATM   33  N1  UNL     1      10.502   9.459  14.860  1.00  0.00    -0.361 N 
HETATM   34  H34 UNL     1      10.527   8.941  15.730  1.00  0.00     0.162 HD
BRANCH  33  35
HETATM   35  C26 UNL     1      11.140  10.764  14.847  1.00  0.00     0.128 C 
BRANCH  35  36
HETATM   36  C27 UNL     1      12.539  10.731  14.223  1.00  0.00     0.078 C 
BRANCH  36  37
HETATM   37  C28 UNL     1      13.610  11.005  15.224  1.00  0.00     0.027 A 
HETATM   38  C29 UNL     1      14.983  10.892  15.161  1.00  0.00     0.114 A 
HETATM   39  N2  UNL     1      15.558  11.246  16.353  1.00  0.00    -0.360 N 
HETATM   40  C30 UNL     1      14.558  11.592  17.131  1.00  0.00     0.180 A 
ATOM     41  H2  UNL     1      16.551  11.243  16.586  1.00  0.00     0.166 HD
HETATM   42  N3  UNL     1      13.358  11.463  16.494  1.00  0.00    -0.355 N 
HETATM   43  H41 UNL     1      12.450  11.681  16.900  1.00  0.00     0.166 HD
ENDBRANCH  36  37
ENDBRANCH  35  36
ENDBRANCH  33  35
ENDBRANCH  30  31
ENDBRANCH  29  30
ENDBRANCH  27  29
ENDBRANCH  26  27
ENDBRANCH  25  26
ENDBRANCH  23  25
ENDBRANCH  20  23
BRANCH  13  44
HETATM   44  O2  UNL     1      -0.401   5.172  14.789  1.00  0.00    -0.395 OA
HETATM   45  H16 UNL     1       0.424   4.751  15.088  1.00  0.00     0.210 HD
ENDBRANCH  13  44
TORSDOF 12
ENDMDL
