MODEL 1
REMARK minimizedAffinity -8.2691412
REMARK  12 active torsions:
REMARK  status: ('A' for Active; 'I' for Inactive)
REMARK    1  A    between atoms: C2_2  and  C3_3 
REMARK    2  A    between atoms: C2_2  and  C15_20 
REMARK    3  A    between atoms: C3_3  and  O1_4 
REMARK    4  A    between atoms: C3_3  and  C4_5 
REMARK    5  A    between atoms: C4_5  and  C6_7 
REMARK    6  A    between atoms: C6_7  and  O2_8 
REMARK    7  A    between atoms: C6_7  and  C7_9 
REMARK    8  A    between atoms: C7_9  and  C9_11 
REMARK    9  A    between atoms: C10_12  and  C11_13 
REMARK   10  A    between atoms: C12_14  and  C13_15 
REMARK   11  A    between atoms: C12_14  and  C14_17 
REMARK   12  A    between atoms: C13_15  and  O3_16 
REMARK       I    between atoms: C14_17  and  N1_18 
ROOT
HETATM    1  C4  UNL     1      -3.334  51.520 -23.712  1.00  0.00     0.040 C 
HETATM    2  C5  UNL     1      -2.410  52.706 -24.003  1.00  0.00     0.015 C 
ENDROOT
BRANCH   1   3
HETATM    3  C3  UNL     1      -4.399  51.829 -22.608  1.00  0.00     0.130 C 
BRANCH   3   4
HETATM    4  C2  UNL     1      -4.674  50.799 -21.468  1.00  0.00     0.040 C 
HETATM    5  C1  UNL     1      -5.596  49.658 -21.908  1.00  0.00     0.015 C 
BRANCH   4   6
HETATM    6  C15 UNL     1      -3.317  50.231 -20.928  1.00  0.00     0.137 C 
HETATM    7  O5  UNL     1      -2.477  51.342 -20.563  1.00  0.00    -0.349 OA
HETATM    8  C16 UNL     1      -1.121  50.993 -20.279  1.00  0.00     0.161 C 
HETATM    9  C17 UNL     1      -0.371  52.271 -19.950  1.00  0.00     0.079 C 
HETATM   10  C18 UNL     1      -1.001  49.936 -19.181  1.00  0.00     0.071 C 
HETATM   11  O6  UNL     1      -0.535  50.371 -21.427  1.00  0.00    -0.350 OA
HETATM   12  C19 UNL     1      -0.986  48.626 -19.965  1.00  0.00     0.038 C 
HETATM   13  C20 UNL     1      -1.132  49.066 -21.420  1.00  0.00     0.131 C 
HETATM   14  C21 UNL     1      -2.583  49.265 -21.896  1.00  0.00     0.040 C 
HETATM   15  C22 UNL     1      -3.311  47.934 -22.068  1.00  0.00     0.015 C 
ENDBRANCH   4   6
ENDBRANCH   3   4
BRANCH   3  16
HETATM   16  O1  UNL     1      -5.650  51.975 -23.323  1.00  0.00    -0.395 OA
HETATM   17  H6  UNL     1      -5.609  52.820 -23.804  1.00  0.00     0.210 HD
ENDBRANCH   3  16
ENDBRANCH   1   3
BRANCH   1  18
HETATM   18  C6  UNL     1      -3.943  50.872 -24.987  1.00  0.00     0.131 C 
BRANCH  18  19
HETATM   19  O2  UNL     1      -3.870  51.797 -26.068  1.00  0.00    -0.394 OA
HETATM   20  H12 UNL     1      -4.522  51.524 -26.737  1.00  0.00     0.210 HD
ENDBRANCH  18  19
BRANCH  18  21
HETATM   21  C7  UNL     1      -3.280  49.531 -25.432  1.00  0.00     0.033 C 
HETATM   22  C8  UNL     1      -3.995  48.880 -26.622  1.00  0.00     0.017 C 
BRANCH  21  23
HETATM   23  C9  UNL     1      -1.787  49.733 -25.678  1.00  0.00    -0.020 C 
HETATM   24  C10 UNL     1      -1.213  50.593 -26.536  1.00  0.00    -0.003 C 
BRANCH  24  25
HETATM   25  C11 UNL     1       0.223  50.668 -26.719  1.00  0.00     0.014 C 
HETATM   26  C12 UNL     1       0.939  51.741 -27.111  1.00  0.00     0.033 C 
BRANCH  26  27
HETATM   27  C13 UNL     1       2.414  51.744 -27.402  1.00  0.00     0.208 C 
BRANCH  27  28
HETATM   28  O3  UNL     1       3.162  51.093 -26.379  1.00  0.00    -0.396 OA
HETATM   29  H22 UNL     1       3.050  50.137 -26.525  1.00  0.00     0.209 HD
ENDBRANCH  27  28
ENDBRANCH  26  27
BRANCH  26  30
HETATM   30  C14 UNL     1       0.320  53.070 -27.353  1.00  0.00     0.247 C 
HETATM   31  N1  UNL     1      -0.249  53.222 -28.577  1.00  0.00    -0.366 N 
HETATM   32  H23 UNL     1      -0.740  54.084 -28.766  1.00  0.00     0.159 HD
HETATM   33  H24 UNL     1      -0.289  52.477 -29.258  1.00  0.00     0.159 HD
HETATM   34  O4  UNL     1       0.268  53.934 -26.492  1.00  0.00    -0.268 OA
ENDBRANCH  26  30
ENDBRANCH  24  25
ENDBRANCH  21  23
ENDBRANCH  18  21
ENDBRANCH   1  18
TORSDOF 12
ENDMDL
MODEL 2
REMARK minimizedAffinity -8.17046928
REMARK  12 active torsions:
REMARK  status: ('A' for Active; 'I' for Inactive)
REMARK    1  A    between atoms: C2_2  and  C3_3 
REMARK    2  A    between atoms: C2_2  and  C15_20 
REMARK    3  A    between atoms: C3_3  and  O1_4 
REMARK    4  A    between atoms: C3_3  and  C4_5 
REMARK    5  A    between atoms: C4_5  and  C6_7 
REMARK    6  A    between atoms: C6_7  and  O2_8 
REMARK    7  A    between atoms: C6_7  and  C7_9 
REMARK    8  A    between atoms: C7_9  and  C9_11 
REMARK    9  A    between atoms: C10_12  and  C11_13 
REMARK   10  A    between atoms: C12_14  and  C13_15 
REMARK   11  A    between atoms: C12_14  and  C14_17 
REMARK   12  A    between atoms: C13_15  and  O3_16 
REMARK       I    between atoms: C14_17  and  N1_18 
ROOT
HETATM    1  C4  UNL     1      -3.944  49.570 -24.004  1.00  0.00     0.040 C 
HETATM    2  C5  UNL     1      -2.908  48.687 -24.705  1.00  0.00     0.015 C 
ENDROOT
BRANCH   1   3
HETATM    3  C3  UNL     1      -4.350  50.824 -24.846  1.00  0.00     0.130 C 
BRANCH   3   4
HETATM    4  C2  UNL     1      -3.593  52.177 -24.659  1.00  0.00     0.040 C 
HETATM    5  C1  UNL     1      -3.395  52.549 -23.187  1.00  0.00     0.015 C 
BRANCH   4   6
HETATM    6  C15 UNL     1      -2.214  52.119 -25.401  1.00  0.00     0.137 C 
HETATM    7  O5  UNL     1      -1.345  53.106 -24.814  1.00  0.00    -0.349 OA
HETATM    8  C16 UNL     1      -0.135  53.338 -25.539  1.00  0.00     0.161 C 
HETATM    9  C17 UNL     1       0.641  54.422 -24.812  1.00  0.00     0.079 C 
HETATM   10  C18 UNL     1       0.681  52.064 -25.749  1.00  0.00     0.071 C 
HETATM   11  O6  UNL     1      -0.447  53.775 -26.865  1.00  0.00    -0.350 OA
HETATM   12  C19 UNL     1       0.181  51.554 -27.098  1.00  0.00     0.038 C 
HETATM   13  C20 UNL     1      -0.888  52.566 -27.502  1.00  0.00     0.131 C 
HETATM   14  C21 UNL     1      -2.295  52.285 -26.942  1.00  0.00     0.040 C 
HETATM   15  C22 UNL     1      -2.951  51.091 -27.631  1.00  0.00     0.015 C 
ENDBRANCH   4   6
ENDBRANCH   3   4
BRANCH   3  16
HETATM   16  O1  UNL     1      -5.728  51.087 -24.488  1.00  0.00    -0.395 OA
HETATM   17  H6  UNL     1      -6.270  50.389 -24.897  1.00  0.00     0.210 HD
ENDBRANCH   3  16
ENDBRANCH   1   3
BRANCH   1  18
HETATM   18  C6  UNL     1      -5.165  48.784 -23.448  1.00  0.00     0.131 C 
BRANCH  18  19
HETATM   19  O2  UNL     1      -6.152  49.705 -22.993  1.00  0.00    -0.394 OA
HETATM   20  H12 UNL     1      -6.735  49.233 -22.372  1.00  0.00     0.210 HD
ENDBRANCH  18  19
BRANCH  18  21
HETATM   21  C7  UNL     1      -5.831  47.794 -24.453  1.00  0.00     0.033 C 
HETATM   22  C8  UNL     1      -7.346  47.671 -24.251  1.00  0.00     0.017 C 
BRANCH  21  23
HETATM   23  C9  UNL     1      -5.454  48.159 -25.887  1.00  0.00    -0.020 C 
HETATM   24  C10 UNL     1      -5.971  47.651 -27.018  1.00  0.00    -0.003 C 
BRANCH  24  25
HETATM   25  C11 UNL     1      -5.503  48.044 -28.333  1.00  0.00     0.014 C 
HETATM   26  C12 UNL     1      -6.247  48.218 -29.444  1.00  0.00     0.033 C 
BRANCH  26  27
HETATM   27  C13 UNL     1      -5.707  48.511 -30.815  1.00  0.00     0.208 C 
BRANCH  27  28
HETATM   28  O3  UNL     1      -4.675  49.493 -30.785  1.00  0.00    -0.396 OA
HETATM   29  H22 UNL     1      -3.873  49.036 -30.476  1.00  0.00     0.209 HD
ENDBRANCH  27  28
ENDBRANCH  26  27
BRANCH  26  30
HETATM   30  C14 UNL     1      -7.727  48.088 -29.443  1.00  0.00     0.247 C 
HETATM   31  N1  UNL     1      -8.402  49.240 -29.188  1.00  0.00    -0.366 N 
HETATM   32  H23 UNL     1      -9.411  49.217 -29.241  1.00  0.00     0.159 HD
HETATM   33  H24 UNL     1      -7.939  50.126 -29.052  1.00  0.00     0.159 HD
HETATM   34  O4  UNL     1      -8.293  47.042 -29.718  1.00  0.00    -0.268 OA
ENDBRANCH  26  30
ENDBRANCH  24  25
ENDBRANCH  21  23
ENDBRANCH  18  21
ENDBRANCH   1  18
TORSDOF 12
ENDMDL
MODEL 3
REMARK minimizedAffinity -8.12705994
REMARK  12 active torsions:
REMARK  status: ('A' for Active; 'I' for Inactive)
REMARK    1  A    between atoms: C2_2  and  C3_3 
REMARK    2  A    between atoms: C2_2  and  C15_20 
REMARK    3  A    between atoms: C3_3  and  O1_4 
REMARK    4  A    between atoms: C3_3  and  C4_5 
REMARK    5  A    between atoms: C4_5  and  C6_7 
REMARK    6  A    between atoms: C6_7  and  O2_8 
REMARK    7  A    between atoms: C6_7  and  C7_9 
REMARK    8  A    between atoms: C7_9  and  C9_11 
REMARK    9  A    between atoms: C10_12  and  C11_13 
REMARK   10  A    between atoms: C12_14  and  C13_15 
REMARK   11  A    between atoms: C12_14  and  C14_17 
REMARK   12  A    between atoms: C13_15  and  O3_16 
REMARK       I    between atoms: C14_17  and  N1_18 
ROOT
HETATM    1  C4  UNL     1      -4.201  50.204 -22.935  1.00  0.00     0.040 C 
HETATM    2  C5  UNL     1      -3.016  49.270 -23.199  1.00  0.00     0.015 C 
ENDROOT
BRANCH   1   3
HETATM    3  C3  UNL     1      -3.966  51.656 -23.466  1.00  0.00     0.130 C 
BRANCH   3   4
HETATM    4  C2  UNL     1      -2.599  52.371 -23.227  1.00  0.00     0.040 C 
HETATM    5  C1  UNL     1      -1.796  51.749 -22.082  1.00  0.00     0.015 C 
BRANCH   4   6
HETATM    6  C15 UNL     1      -1.762  52.367 -24.551  1.00  0.00     0.137 C 
HETATM    7  O5  UNL     1      -2.552  51.748 -25.583  1.00  0.00    -0.349 OA
HETATM    8  C16 UNL     1      -1.836  51.456 -26.785  1.00  0.00     0.161 C 
HETATM    9  C17 UNL     1      -2.797  50.779 -27.746  1.00  0.00     0.079 C 
HETATM   10  C18 UNL     1      -1.165  52.690 -27.388  1.00  0.00     0.071 C 
HETATM   11  O6  UNL     1      -0.747  50.576 -26.492  1.00  0.00    -0.350 OA
HETATM   12  C19 UNL     1       0.227  52.664 -26.763  1.00  0.00     0.038 C 
HETATM   13  C20 UNL     1       0.198  51.443 -25.847  1.00  0.00     0.131 C 
HETATM   14  C21 UNL     1      -0.364  51.702 -24.437  1.00  0.00     0.040 C 
HETATM   15  C22 UNL     1       0.607  52.509 -23.579  1.00  0.00     0.015 C 
ENDBRANCH   4   6
ENDBRANCH   3   4
BRANCH   3  16
HETATM   16  O1  UNL     1      -4.962  52.467 -22.795  1.00  0.00    -0.395 OA
HETATM   17  H6  UNL     1      -5.824  52.248 -23.189  1.00  0.00     0.210 HD
ENDBRANCH   3  16
ENDBRANCH   1   3
BRANCH   1  18
HETATM   18  C6  UNL     1      -5.574  49.611 -23.359  1.00  0.00     0.131 C 
BRANCH  18  19
HETATM   19  O2  UNL     1      -6.263  50.552 -24.177  1.00  0.00    -0.394 OA
HETATM   20  H12 UNL     1      -7.209  50.324 -24.161  1.00  0.00     0.210 HD
ENDBRANCH  18  19
BRANCH  18  21
HETATM   21  C7  UNL     1      -5.503  48.249 -24.118  1.00  0.00     0.033 C 
HETATM   22  C8  UNL     1      -6.768  47.402 -23.941  1.00  0.00     0.017 C 
BRANCH  21  23
HETATM   23  C9  UNL     1      -5.145  48.476 -25.585  1.00  0.00    -0.020 C 
HETATM   24  C10 UNL     1      -5.623  47.813 -26.651  1.00  0.00    -0.003 C 
BRANCH  24  25
HETATM   25  C11 UNL     1      -5.176  48.088 -28.003  1.00  0.00     0.014 C 
HETATM   26  C12 UNL     1      -5.932  48.120 -29.119  1.00  0.00     0.033 C 
BRANCH  26  27
HETATM   27  C13 UNL     1      -5.409  48.292 -30.518  1.00  0.00     0.208 C 
BRANCH  27  28
HETATM   28  O3  UNL     1      -4.719  49.528 -30.684  1.00  0.00    -0.396 OA
HETATM   29  H22 UNL     1      -3.841  49.405 -30.281  1.00  0.00     0.209 HD
ENDBRANCH  27  28
ENDBRANCH  26  27
BRANCH  26  30
HETATM   30  C14 UNL     1      -7.406  47.937 -29.092  1.00  0.00     0.247 C 
HETATM   31  N1  UNL     1      -8.127  49.070 -29.304  1.00  0.00    -0.366 N 
HETATM   32  H23 UNL     1      -9.132  48.986 -29.360  1.00  0.00     0.159 HD
HETATM   33  H24 UNL     1      -7.698  49.961 -29.507  1.00  0.00     0.159 HD
HETATM   34  O4  UNL     1      -7.927  46.841 -28.959  1.00  0.00    -0.268 OA
ENDBRANCH  26  30
ENDBRANCH  24  25
ENDBRANCH  21  23
ENDBRANCH  18  21
ENDBRANCH   1  18
TORSDOF 12
ENDMDL
MODEL 4
REMARK minimizedAffinity -8.12181187
REMARK  12 active torsions:
REMARK  status: ('A' for Active; 'I' for Inactive)
REMARK    1  A    between atoms: C2_2  and  C3_3 
REMARK    2  A    between atoms: C2_2  and  C15_20 
REMARK    3  A    between atoms: C3_3  and  O1_4 
REMARK    4  A    between atoms: C3_3  and  C4_5 
REMARK    5  A    between atoms: C4_5  and  C6_7 
REMARK    6  A    between atoms: C6_7  and  O2_8 
REMARK    7  A    between atoms: C6_7  and  C7_9 
REMARK    8  A    between atoms: C7_9  and  C9_11 
REMARK    9  A    between atoms: C10_12  and  C11_13 
REMARK   10  A    between atoms: C12_14  and  C13_15 
REMARK   11  A    between atoms: C12_14  and  C14_17 
REMARK   12  A    between atoms: C13_15  and  O3_16 
REMARK       I    between atoms: C14_17  and  N1_18 
ROOT
HETATM    1  C4  UNL     1      -4.519  49.304 -23.809  1.00  0.00     0.040 C 
HETATM    2  C5  UNL     1      -5.643  48.275 -23.662  1.00  0.00     0.015 C 
ENDROOT
BRANCH   1   3
HETATM    3  C3  UNL     1      -3.703  49.512 -22.490  1.00  0.00     0.130 C 
BRANCH   3   4
HETATM    4  C2  UNL     1      -3.826  50.847 -21.690  1.00  0.00     0.040 C 
HETATM    5  C1  UNL     1      -5.012  50.852 -20.722  1.00  0.00     0.015 C 
BRANCH   4   6
HETATM    6  C15 UNL     1      -2.489  51.129 -20.923  1.00  0.00     0.137 C 
HETATM    7  O5  UNL     1      -1.575  51.771 -21.831  1.00  0.00    -0.349 OA
HETATM    8  C16 UNL     1      -0.234  51.876 -21.349  1.00  0.00     0.161 C 
HETATM    9  C17 UNL     1       0.599  52.537 -22.433  1.00  0.00     0.079 C 
HETATM   10  C18 UNL     1      -0.144  52.600 -20.007  1.00  0.00     0.071 C 
HETATM   11  O6  UNL     1       0.280  50.569 -21.076  1.00  0.00    -0.350 OA
HETATM   12  C19 UNL     1      -0.229  51.461 -18.995  1.00  0.00     0.038 C 
HETATM   13  C20 UNL     1      -0.392  50.212 -19.858  1.00  0.00     0.131 C 
HETATM   14  C21 UNL     1      -1.842  49.884 -20.260  1.00  0.00     0.040 C 
HETATM   15  C22 UNL     1      -2.652  49.356 -19.078  1.00  0.00     0.015 C 
ENDBRANCH   4   6
ENDBRANCH   3   4
BRANCH   3  16
HETATM   16  O1  UNL     1      -2.314  49.413 -22.888  1.00  0.00    -0.395 OA
HETATM   17  H6  UNL     1      -2.138  48.476 -23.086  1.00  0.00     0.210 HD
ENDBRANCH   3  16
ENDBRANCH   1   3
BRANCH   1  18
HETATM   18  C6  UNL     1      -3.620  49.076 -25.056  1.00  0.00     0.131 C 
BRANCH  18  19
HETATM   19  O2  UNL     1      -4.189  48.053 -25.868  1.00  0.00    -0.394 OA
HETATM   20  H12 UNL     1      -3.484  47.701 -26.441  1.00  0.00     0.210 HD
ENDBRANCH  18  19
BRANCH  18  21
HETATM   21  C7  UNL     1      -3.379  50.338 -25.941  1.00  0.00     0.033 C 
HETATM   22  C8  UNL     1      -3.803  51.640 -25.249  1.00  0.00     0.017 C 
BRANCH  21  23
HETATM   23  C9  UNL     1      -1.935  50.375 -26.434  1.00  0.00    -0.020 C 
HETATM   24  C10 UNL     1      -0.868  50.878 -25.790  1.00  0.00    -0.003 C 
BRANCH  24  25
HETATM   25  C11 UNL     1       0.457  50.897 -26.377  1.00  0.00     0.014 C 
HETATM   26  C12 UNL     1       1.011  51.888 -27.105  1.00  0.00     0.033 C 
BRANCH  26  27
HETATM   27  C13 UNL     1       2.345  51.819 -27.794  1.00  0.00     0.208 C 
BRANCH  27  28
HETATM   28  O3  UNL     1       3.363  51.303 -26.941  1.00  0.00    -0.396 OA
HETATM   29  H22 UNL     1       3.233  50.338 -26.915  1.00  0.00     0.209 HD
ENDBRANCH  27  28
ENDBRANCH  26  27
BRANCH  26  30
HETATM   30  C14 UNL     1       0.322  53.180 -27.351  1.00  0.00     0.247 C 
HETATM   31  N1  UNL     1      -0.391  53.237 -28.508  1.00  0.00    -0.366 N 
HETATM   32  H23 UNL     1      -0.931  54.071 -28.689  1.00  0.00     0.159 HD
HETATM   33  H24 UNL     1      -0.482  52.449 -29.133  1.00  0.00     0.159 HD
HETATM   34  O4  UNL     1       0.338  54.096 -26.544  1.00  0.00    -0.268 OA
ENDBRANCH  26  30
ENDBRANCH  24  25
ENDBRANCH  21  23
ENDBRANCH  18  21
ENDBRANCH   1  18
TORSDOF 12
ENDMDL
MODEL 5
REMARK minimizedAffinity -8.06759834
REMARK  12 active torsions:
REMARK  status: ('A' for Active; 'I' for Inactive)
REMARK    1  A    between atoms: C2_2  and  C3_3 
REMARK    2  A    between atoms: C2_2  and  C15_20 
REMARK    3  A    between atoms: C3_3  and  O1_4 
REMARK    4  A    between atoms: C3_3  and  C4_5 
REMARK    5  A    between atoms: C4_5  and  C6_7 
REMARK    6  A    between atoms: C6_7  and  O2_8 
REMARK    7  A    between atoms: C6_7  and  C7_9 
REMARK    8  A    between atoms: C7_9  and  C9_11 
REMARK    9  A    between atoms: C10_12  and  C11_13 
REMARK   10  A    between atoms: C12_14  and  C13_15 
REMARK   11  A    between atoms: C12_14  and  C14_17 
REMARK   12  A    between atoms: C13_15  and  O3_16 
REMARK       I    between atoms: C14_17  and  N1_18 
ROOT
HETATM    1  C4  UNL     1      -1.795  50.904 -25.917  1.00  0.00     0.040 C 
HETATM    2  C5  UNL     1      -0.381  50.938 -26.505  1.00  0.00     0.015 C 
ENDROOT
BRANCH   1   3
HETATM    3  C3  UNL     1      -2.209  52.253 -25.240  1.00  0.00     0.130 C 
BRANCH   3   4
HETATM    4  C2  UNL     1      -3.027  52.248 -23.911  1.00  0.00     0.040 C 
HETATM    5  C1  UNL     1      -4.530  52.068 -24.139  1.00  0.00     0.015 C 
BRANCH   4   6
HETATM    6  C15 UNL     1      -2.479  51.134 -22.956  1.00  0.00     0.137 C 
HETATM    7  O5  UNL     1      -3.589  50.325 -22.524  1.00  0.00    -0.349 OA
HETATM    8  C16 UNL     1      -3.285  49.417 -21.463  1.00  0.00     0.161 C 
HETATM    9  C17 UNL     1      -4.561  48.674 -21.107  1.00  0.00     0.079 C 
HETATM   10  C18 UNL     1      -2.128  48.479 -21.802  1.00  0.00     0.071 C 
HETATM   11  O6  UNL     1      -2.820  50.148 -20.325  1.00  0.00    -0.350 OA
HETATM   12  C19 UNL     1      -0.910  49.229 -21.269  1.00  0.00     0.038 C 
HETATM   13  C20 UNL     1      -1.490  50.527 -20.713  1.00  0.00     0.131 C 
HETATM   14  C21 UNL     1      -1.660  51.657 -21.746  1.00  0.00     0.040 C 
HETATM   15  C22 UNL     1      -0.318  52.257 -22.155  1.00  0.00     0.015 C 
ENDBRANCH   4   6
ENDBRANCH   3   4
BRANCH   3  16
HETATM   16  O1  UNL     1      -3.041  52.923 -26.218  1.00  0.00    -0.395 OA
HETATM   17  H6  UNL     1      -2.455  53.231 -26.932  1.00  0.00     0.210 HD
ENDBRANCH   3  16
ENDBRANCH   1   3
BRANCH   1  18
HETATM   18  C6  UNL     1      -2.868  50.356 -26.898  1.00  0.00     0.131 C 
BRANCH  18  19
HETATM   19  O2  UNL     1      -2.475  50.643 -28.237  1.00  0.00    -0.394 OA
HETATM   20  H12 UNL     1      -3.270  50.598 -28.797  1.00  0.00     0.210 HD
ENDBRANCH  18  19
BRANCH  18  21
HETATM   21  C7  UNL     1      -3.157  48.827 -26.780  1.00  0.00     0.033 C 
HETATM   22  C8  UNL     1      -3.780  48.441 -25.433  1.00  0.00     0.017 C 
BRANCH  21  23
HETATM   23  C9  UNL     1      -3.984  48.348 -27.971  1.00  0.00    -0.020 C 
HETATM   24  C10 UNL     1      -5.273  47.973 -27.967  1.00  0.00    -0.003 C 
BRANCH  24  25
HETATM   25  C11 UNL     1      -5.947  47.492 -29.158  1.00  0.00     0.014 C 
HETATM   26  C12 UNL     1      -7.268  47.547 -29.424  1.00  0.00     0.033 C 
BRANCH  26  27
HETATM   27  C13 UNL     1      -7.941  46.931 -30.618  1.00  0.00     0.208 C 
BRANCH  27  28
HETATM   28  O3  UNL     1      -8.416  47.915 -31.532  1.00  0.00    -0.396 OA
HETATM   29  H22 UNL     1      -7.636  48.226 -32.027  1.00  0.00     0.209 HD
ENDBRANCH  27  28
ENDBRANCH  26  27
BRANCH  26  30
HETATM   30  C14 UNL     1      -8.241  48.204 -28.513  1.00  0.00     0.247 C 
HETATM   31  N1  UNL     1      -8.773  49.362 -28.983  1.00  0.00    -0.366 N 
HETATM   32  H23 UNL     1      -9.487  49.813 -28.430  1.00  0.00     0.159 HD
HETATM   33  H24 UNL     1      -8.559  49.730 -29.900  1.00  0.00     0.159 HD
HETATM   34  O4  UNL     1      -8.586  47.705 -27.454  1.00  0.00    -0.268 OA
ENDBRANCH  26  30
ENDBRANCH  24  25
ENDBRANCH  21  23
ENDBRANCH  18  21
ENDBRANCH   1  18
TORSDOF 12
ENDMDL
MODEL 6
REMARK minimizedAffinity -8.04957962
REMARK  12 active torsions:
REMARK  status: ('A' for Active; 'I' for Inactive)
REMARK    1  A    between atoms: C2_2  and  C3_3 
REMARK    2  A    between atoms: C2_2  and  C15_20 
REMARK    3  A    between atoms: C3_3  and  O1_4 
REMARK    4  A    between atoms: C3_3  and  C4_5 
REMARK    5  A    between atoms: C4_5  and  C6_7 
REMARK    6  A    between atoms: C6_7  and  O2_8 
REMARK    7  A    between atoms: C6_7  and  C7_9 
REMARK    8  A    between atoms: C7_9  and  C9_11 
REMARK    9  A    between atoms: C10_12  and  C11_13 
REMARK   10  A    between atoms: C12_14  and  C13_15 
REMARK   11  A    between atoms: C12_14  and  C14_17 
REMARK   12  A    between atoms: C13_15  and  O3_16 
REMARK       I    between atoms: C14_17  and  N1_18 
ROOT
HETATM    1  C4  UNL     1      -4.131  49.566 -24.250  1.00  0.00     0.040 C 
HETATM    2  C5  UNL     1      -2.736  49.245 -23.706  1.00  0.00     0.015 C 
ENDROOT
BRANCH   1   3
HETATM    3  C3  UNL     1      -4.266  51.037 -24.761  1.00  0.00     0.130 C 
BRANCH   3   4
HETATM    4  C2  UNL     1      -3.376  52.167 -24.154  1.00  0.00     0.040 C 
HETATM    5  C1  UNL     1      -3.191  52.029 -22.641  1.00  0.00     0.015 C 
BRANCH   4   6
HETATM    6  C15 UNL     1      -1.987  52.194 -24.878  1.00  0.00     0.137 C 
HETATM    7  O5  UNL     1      -1.056  52.904 -24.040  1.00  0.00    -0.349 OA
HETATM    8  C16 UNL     1       0.188  53.219 -24.668  1.00  0.00     0.161 C 
HETATM    9  C17 UNL     1       1.031  53.992 -23.669  1.00  0.00     0.079 C 
HETATM   10  C18 UNL     1       0.903  51.984 -25.216  1.00  0.00     0.071 C 
HETATM   11  O6  UNL     1      -0.050  54.026 -25.825  1.00  0.00    -0.350 OA
HETATM   12  C19 UNL     1       0.400  51.906 -26.655  1.00  0.00     0.038 C 
HETATM   13  C20 UNL     1      -0.570  53.079 -26.771  1.00  0.00     0.131 C 
HETATM   14  C21 UNL     1      -2.011  52.779 -26.315  1.00  0.00     0.040 C 
HETATM   15  C22 UNL     1      -2.744  51.880 -27.307  1.00  0.00     0.015 C 
ENDBRANCH   4   6
ENDBRANCH   3   4
BRANCH   3  16
HETATM   16  O1  UNL     1      -5.635  51.411 -24.474  1.00  0.00    -0.395 OA
HETATM   17  H6  UNL     1      -6.203  50.929 -25.102  1.00  0.00     0.210 HD
ENDBRANCH   3  16
ENDBRANCH   1   3
BRANCH   1  18
HETATM   18  C6  UNL     1      -4.667  48.513 -25.261  1.00  0.00     0.131 C 
BRANCH  18  19
HETATM   19  O2  UNL     1      -6.091  48.505 -25.223  1.00  0.00    -0.394 OA
HETATM   20  H12 UNL     1      -6.393  47.655 -25.592  1.00  0.00     0.210 HD
ENDBRANCH  18  19
BRANCH  18  21
HETATM   21  C7  UNL     1      -4.208  48.719 -26.738  1.00  0.00     0.033 C 
HETATM   22  C8  UNL     1      -2.745  48.323 -26.968  1.00  0.00     0.017 C 
BRANCH  21  23
HETATM   23  C9  UNL     1      -5.167  48.014 -27.695  1.00  0.00    -0.020 C 
HETATM   24  C10 UNL     1      -5.088  47.965 -29.035  1.00  0.00    -0.003 C 
BRANCH  24  25
HETATM   25  C11 UNL     1      -6.086  47.298 -29.849  1.00  0.00     0.014 C 
HETATM   26  C12 UNL     1      -5.974  46.942 -31.145  1.00  0.00     0.033 C 
BRANCH  26  27
HETATM   27  C13 UNL     1      -7.076  46.359 -31.984  1.00  0.00     0.208 C 
BRANCH  27  28
HETATM   28  O3  UNL     1      -6.647  46.085 -33.315  1.00  0.00    -0.396 OA
HETATM   29  H22 UNL     1      -6.131  45.260 -33.270  1.00  0.00     0.209 HD
ENDBRANCH  27  28
ENDBRANCH  26  27
BRANCH  26  30
HETATM   30  C14 UNL     1      -4.723  47.137 -31.922  1.00  0.00     0.247 C 
HETATM   31  N1  UNL     1      -4.636  48.325 -32.577  1.00  0.00    -0.366 N 
HETATM   32  H23 UNL     1      -3.777  48.532 -33.066  1.00  0.00     0.159 HD
HETATM   33  H24 UNL     1      -5.345  49.041 -32.508  1.00  0.00     0.159 HD
HETATM   34  O4  UNL     1      -3.815  46.321 -31.917  1.00  0.00    -0.268 OA
ENDBRANCH  26  30
ENDBRANCH  24  25
ENDBRANCH  21  23
ENDBRANCH  18  21
ENDBRANCH   1  18
TORSDOF 12
ENDMDL
MODEL 7
REMARK minimizedAffinity -8.03425503
REMARK  12 active torsions:
REMARK  status: ('A' for Active; 'I' for Inactive)
REMARK    1  A    between atoms: C2_2  and  C3_3 
REMARK    2  A    between atoms: C2_2  and  C15_20 
REMARK    3  A    between atoms: C3_3  and  O1_4 
REMARK    4  A    between atoms: C3_3  and  C4_5 
REMARK    5  A    between atoms: C4_5  and  C6_7 
REMARK    6  A    between atoms: C6_7  and  O2_8 
REMARK    7  A    between atoms: C6_7  and  C7_9 
REMARK    8  A    between atoms: C7_9  and  C9_11 
REMARK    9  A    between atoms: C10_12  and  C11_13 
REMARK   10  A    between atoms: C12_14  and  C13_15 
REMARK   11  A    between atoms: C12_14  and  C14_17 
REMARK   12  A    between atoms: C13_15  and  O3_16 
REMARK       I    between atoms: C14_17  and  N1_18 
ROOT
HETATM    1  C4  UNL     1      -1.011  50.418 -21.945  1.00  0.00     0.040 C 
HETATM    2  C5  UNL     1      -0.732  49.306 -20.930  1.00  0.00     0.015 C 
ENDROOT
BRANCH   1   3
HETATM    3  C3  UNL     1      -2.175  50.071 -22.930  1.00  0.00     0.130 C 
BRANCH   3   4
HETATM    4  C2  UNL     1      -2.909  48.697 -22.829  1.00  0.00     0.040 C 
HETATM    5  C1  UNL     1      -2.123  47.662 -22.020  1.00  0.00     0.015 C 
BRANCH   4   6
HETATM    6  C15 UNL     1      -4.337  48.902 -22.219  1.00  0.00     0.137 C 
HETATM    7  O5  UNL     1      -4.234  48.797 -20.787  1.00  0.00    -0.349 OA
HETATM    8  C16 UNL     1      -5.487  48.724 -20.104  1.00  0.00     0.161 C 
HETATM    9  C17 UNL     1      -5.201  48.582 -18.620  1.00  0.00     0.079 C 
HETATM   10  C18 UNL     1      -6.403  49.906 -20.422  1.00  0.00     0.071 C 
HETATM   11  O6  UNL     1      -6.218  47.584 -20.566  1.00  0.00    -0.350 OA
HETATM   12  C19 UNL     1      -7.220  49.399 -21.607  1.00  0.00     0.038 C 
HETATM   13  C20 UNL     1      -6.668  47.999 -21.864  1.00  0.00     0.131 C 
HETATM   14  C21 UNL     1      -5.427  47.948 -22.775  1.00  0.00     0.040 C 
HETATM   15  C22 UNL     1      -5.780  48.239 -24.232  1.00  0.00     0.015 C 
ENDBRANCH   4   6
ENDBRANCH   3   4
BRANCH   3  16
HETATM   16  O1  UNL     1      -1.576  50.107 -24.248  1.00  0.00    -0.395 OA
HETATM   17  H6  UNL     1      -1.406  51.041 -24.462  1.00  0.00     0.210 HD
ENDBRANCH   3  16
ENDBRANCH   1   3
BRANCH   1  18
HETATM   18  C6  UNL     1      -1.149  51.829 -21.307  1.00  0.00     0.131 C 
BRANCH  18  19
HETATM   19  O2  UNL     1      -1.140  51.708 -19.888  1.00  0.00    -0.394 OA
HETATM   20  H12 UNL     1      -1.543  52.514 -19.518  1.00  0.00     0.210 HD
ENDBRANCH  18  19
BRANCH  18  21
HETATM   21  C7  UNL     1      -0.052  52.858 -21.727  1.00  0.00     0.033 C 
HETATM   22  C8  UNL     1       0.880  53.239 -20.571  1.00  0.00     0.017 C 
BRANCH  21  23
HETATM   23  C9  UNL     1       0.704  52.357 -22.955  1.00  0.00    -0.020 C 
HETATM   24  C10 UNL     1       0.561  52.774 -24.224  1.00  0.00    -0.003 C 
BRANCH  24  25
HETATM   25  C11 UNL     1       1.307  52.192 -25.323  1.00  0.00     0.014 C 
HETATM   26  C12 UNL     1       1.111  52.402 -26.640  1.00  0.00     0.033 C 
BRANCH  26  27
HETATM   27  C13 UNL     1       1.831  51.688 -27.750  1.00  0.00     0.208 C 
BRANCH  27  28
HETATM   28  O3  UNL     1       3.209  51.485 -27.451  1.00  0.00    -0.396 OA
HETATM   29  H22 UNL     1       3.246  50.734 -26.832  1.00  0.00     0.209 HD
ENDBRANCH  27  28
ENDBRANCH  26  27
BRANCH  26  30
HETATM   30  C14 UNL     1       0.098  53.357 -27.156  1.00  0.00     0.247 C 
HETATM   31  N1  UNL     1      -0.220  53.201 -28.468  1.00  0.00    -0.366 N 
HETATM   32  H23 UNL     1      -0.952  53.783 -28.850  1.00  0.00     0.159 HD
HETATM   33  H24 UNL     1       0.168  52.465 -29.041  1.00  0.00     0.159 HD
HETATM   34  O4  UNL     1      -0.456  54.175 -26.439  1.00  0.00    -0.268 OA
ENDBRANCH  26  30
ENDBRANCH  24  25
ENDBRANCH  21  23
ENDBRANCH  18  21
ENDBRANCH   1  18
TORSDOF 12
ENDMDL
MODEL 8
REMARK minimizedAffinity -8.01342487
REMARK  12 active torsions:
REMARK  status: ('A' for Active; 'I' for Inactive)
REMARK    1  A    between atoms: C2_2  and  C3_3 
REMARK    2  A    between atoms: C2_2  and  C15_20 
REMARK    3  A    between atoms: C3_3  and  O1_4 
REMARK    4  A    between atoms: C3_3  and  C4_5 
REMARK    5  A    between atoms: C4_5  and  C6_7 
REMARK    6  A    between atoms: C6_7  and  O2_8 
REMARK    7  A    between atoms: C6_7  and  C7_9 
REMARK    8  A    between atoms: C7_9  and  C9_11 
REMARK    9  A    between atoms: C10_12  and  C11_13 
REMARK   10  A    between atoms: C12_14  and  C13_15 
REMARK   11  A    between atoms: C12_14  and  C14_17 
REMARK   12  A    between atoms: C13_15  and  O3_16 
REMARK       I    between atoms: C14_17  and  N1_18 
ROOT
HETATM    1  C4  UNL     1      -3.307  49.527 -24.139  1.00  0.00     0.040 C 
HETATM    2  C5  UNL     1      -3.082  48.397 -25.149  1.00  0.00     0.015 C 
ENDROOT
BRANCH   1   3
HETATM    3  C3  UNL     1      -4.205  50.678 -24.699  1.00  0.00     0.130 C 
BRANCH   3   4
HETATM    4  C2  UNL     1      -3.653  52.136 -24.787  1.00  0.00     0.040 C 
HETATM    5  C1  UNL     1      -3.586  52.830 -23.425  1.00  0.00     0.015 C 
BRANCH   4   6
HETATM    6  C15 UNL     1      -2.242  52.127 -25.469  1.00  0.00     0.137 C 
HETATM    7  O5  UNL     1      -1.424  53.121 -24.824  1.00  0.00    -0.349 OA
HETATM    8  C16 UNL     1      -0.190  53.398 -25.490  1.00  0.00     0.161 C 
HETATM    9  C17 UNL     1       0.527  54.483 -24.706  1.00  0.00     0.079 C 
HETATM   10  C18 UNL     1       0.666  52.148 -25.691  1.00  0.00     0.071 C 
HETATM   11  O6  UNL     1      -0.455  53.857 -26.818  1.00  0.00    -0.350 OA
HETATM   12  C19 UNL     1       0.237  51.657 -27.071  1.00  0.00     0.038 C 
HETATM   13  C20 UNL     1      -0.837  52.653 -27.500  1.00  0.00     0.131 C 
HETATM   14  C21 UNL     1      -2.260  52.325 -27.008  1.00  0.00     0.040 C 
HETATM   15  C22 UNL     1      -2.856  51.132 -27.751  1.00  0.00     0.015 C 
ENDBRANCH   4   6
ENDBRANCH   3   4
BRANCH   3  16
HETATM   16  O1  UNL     1      -5.341  50.737 -23.803  1.00  0.00    -0.395 OA
HETATM   17  H6  UNL     1      -5.890  49.953 -23.981  1.00  0.00     0.210 HD
ENDBRANCH   3  16
ENDBRANCH   1   3
BRANCH   1  18
HETATM   18  C6  UNL     1      -3.749  49.031 -22.734  1.00  0.00     0.131 C 
BRANCH  18  19
HETATM   19  O2  UNL     1      -4.610  47.905 -22.880  1.00  0.00    -0.394 OA
HETATM   20  H12 UNL     1      -5.123  47.814 -22.057  1.00  0.00     0.210 HD
ENDBRANCH  18  19
BRANCH  18  21
HETATM   21  C7  UNL     1      -2.586  48.648 -21.768  1.00  0.00     0.033 C 
HETATM   22  C8  UNL     1      -2.199  47.167 -21.858  1.00  0.00     0.017 C 
BRANCH  21  23
HETATM   23  C9  UNL     1      -1.396  49.582 -21.973  1.00  0.00    -0.020 C 
HETATM   24  C10 UNL     1      -1.292  50.865 -21.587  1.00  0.00    -0.003 C 
BRANCH  24  25
HETATM   25  C11 UNL     1      -0.123  51.673 -21.875  1.00  0.00     0.014 C 
HETATM   26  C12 UNL     1       0.588  52.415 -21.003  1.00  0.00     0.033 C 
BRANCH  26  27
HETATM   27  C13 UNL     1       1.723  53.332 -21.366  1.00  0.00     0.208 C 
BRANCH  27  28
HETATM   28  O3  UNL     1       1.350  54.705 -21.284  1.00  0.00    -0.396 OA
HETATM   29  H22 UNL     1       1.357  54.933 -20.337  1.00  0.00     0.209 HD
ENDBRANCH  27  28
ENDBRANCH  26  27
BRANCH  26  30
HETATM   30  C14 UNL     1       0.289  52.446 -19.549  1.00  0.00     0.247 C 
HETATM   31  N1  UNL     1      -0.031  53.671 -19.056  1.00  0.00    -0.366 N 
HETATM   32  H23 UNL     1      -0.306  53.733 -18.086  1.00  0.00     0.159 HD
HETATM   33  H24 UNL     1      -0.103  54.493 -19.639  1.00  0.00     0.159 HD
HETATM   34  O4  UNL     1       0.265  51.436 -18.864  1.00  0.00    -0.268 OA
ENDBRANCH  26  30
ENDBRANCH  24  25
ENDBRANCH  21  23
ENDBRANCH  18  21
ENDBRANCH   1  18
TORSDOF 12
ENDMDL
MODEL 9
REMARK minimizedAffinity -8.00542831
REMARK  12 active torsions:
REMARK  status: ('A' for Active; 'I' for Inactive)
REMARK    1  A    between atoms: C2_2  and  C3_3 
REMARK    2  A    between atoms: C2_2  and  C15_20 
REMARK    3  A    between atoms: C3_3  and  O1_4 
REMARK    4  A    between atoms: C3_3  and  C4_5 
REMARK    5  A    between atoms: C4_5  and  C6_7 
REMARK    6  A    between atoms: C6_7  and  O2_8 
REMARK    7  A    between atoms: C6_7  and  C7_9 
REMARK    8  A    between atoms: C7_9  and  C9_11 
REMARK    9  A    between atoms: C10_12  and  C11_13 
REMARK   10  A    between atoms: C12_14  and  C13_15 
REMARK   11  A    between atoms: C12_14  and  C14_17 
REMARK   12  A    between atoms: C13_15  and  O3_16 
REMARK       I    between atoms: C14_17  and  N1_18 
ROOT
HETATM    1  C4  UNL     1      -0.277  50.723 -20.238  1.00  0.00     0.040 C 
HETATM    2  C5  UNL     1      -0.315  50.103 -18.838  1.00  0.00     0.015 C 
ENDROOT
BRANCH   1   3
HETATM    3  C3  UNL     1      -0.996  49.846 -21.315  1.00  0.00     0.130 C 
BRANCH   3   4
HETATM    4  C2  UNL     1      -2.554  49.763 -21.352  1.00  0.00     0.040 C 
HETATM    5  C1  UNL     1      -3.229  51.013 -20.782  1.00  0.00     0.015 C 
BRANCH   4   6
HETATM    6  C15 UNL     1      -3.036  49.498 -22.818  1.00  0.00     0.137 C 
HETATM    7  O5  UNL     1      -2.814  50.694 -23.589  1.00  0.00    -0.349 OA
HETATM    8  C16 UNL     1      -3.421  50.689 -24.883  1.00  0.00     0.161 C 
HETATM    9  C17 UNL     1      -3.124  52.024 -25.541  1.00  0.00     0.079 C 
HETATM   10  C18 UNL     1      -2.986  49.497 -25.735  1.00  0.00     0.071 C 
HETATM   11  O6  UNL     1      -4.836  50.522 -24.747  1.00  0.00    -0.350 OA
HETATM   12  C19 UNL     1      -4.050  48.448 -25.427  1.00  0.00     0.038 C 
HETATM   13  C20 UNL     1      -4.961  49.132 -24.411  1.00  0.00     0.131 C 
HETATM   14  C21 UNL     1      -4.505  49.012 -22.945  1.00  0.00     0.040 C 
HETATM   15  C22 UNL     1      -4.709  47.601 -22.401  1.00  0.00     0.015 C 
ENDBRANCH   4   6
ENDBRANCH   3   4
BRANCH   3  16
HETATM   16  O1  UNL     1      -0.530  48.497 -21.073  1.00  0.00    -0.395 OA
HETATM   17  H6  UNL     1       0.397  48.455 -21.367  1.00  0.00     0.210 HD
ENDBRANCH   3  16
ENDBRANCH   1   3
BRANCH   1  18
HETATM   18  C6  UNL     1      -0.709  52.216 -20.274  1.00  0.00     0.131 C 
BRANCH  18  19
HETATM   19  O2  UNL     1      -0.835  52.704 -18.941  1.00  0.00    -0.394 OA
HETATM   20  H12 UNL     1      -1.401  53.496 -18.967  1.00  0.00     0.210 HD
ENDBRANCH  18  19
BRANCH  18  21
HETATM   21  C7  UNL     1       0.244  53.165 -21.065  1.00  0.00     0.033 C 
HETATM   22  C8  UNL     1       1.436  53.644 -20.227  1.00  0.00     0.017 C 
BRANCH  21  23
HETATM   23  C9  UNL     1       0.669  52.515 -22.380  1.00  0.00    -0.020 C 
HETATM   24  C10 UNL     1       0.293  52.868 -23.620  1.00  0.00    -0.003 C 
BRANCH  24  25
HETATM   25  C11 UNL     1       0.730  52.148 -24.800  1.00  0.00     0.014 C 
HETATM   26  C12 UNL     1       0.575  52.522 -26.086  1.00  0.00     0.033 C 
BRANCH  26  27
HETATM   27  C13 UNL     1       0.937  51.689 -27.284  1.00  0.00     0.208 C 
BRANCH  27  28
HETATM   28  O3  UNL     1       2.339  51.696 -27.537  1.00  0.00    -0.396 OA
HETATM   29  H22 UNL     1       2.736  51.087 -26.889  1.00  0.00     0.209 HD
ENDBRANCH  27  28
ENDBRANCH  26  27
BRANCH  26  30
HETATM   30  C14 UNL     1      -0.032  53.822 -26.473  1.00  0.00     0.247 C 
HETATM   31  N1  UNL     1       0.401  54.892 -25.754  1.00  0.00    -0.366 N 
HETATM   32  H23 UNL     1       0.067  55.806 -26.023  1.00  0.00     0.159 HD
HETATM   33  H24 UNL     1       1.111  54.819 -25.041  1.00  0.00     0.159 HD
HETATM   34  O4  UNL     1      -0.807  53.929 -27.410  1.00  0.00    -0.268 OA
ENDBRANCH  26  30
ENDBRANCH  24  25
ENDBRANCH  21  23
ENDBRANCH  18  21
ENDBRANCH   1  18
TORSDOF 12
ENDMDL
