MODEL 1
REMARK minimizedAffinity -8.2395792
REMARK CNNscore 0.567007661
REMARK CNNaffinity 6.49128675
REMARK  10 active torsions:
REMARK  status: ('A' for Active; 'I' for Inactive)
REMARK    1  A    between atoms: C2_2  and  C3_3 
REMARK    2  A    between atoms: C2_2  and  C9_11 
REMARK    3  A    between atoms: C3_3  and  C4_4 
REMARK    4  A    between atoms: C4_4  and  C5_5 
REMARK    5  A    between atoms: C5_5  and  O1_6 
REMARK    6  A    between atoms: C5_5  and  C6_7 
REMARK    7  A    between atoms: C6_7  and  O2_10 
REMARK    8  A    between atoms: C12_14  and  C13_15 
REMARK    9  A    between atoms: C13_15  and  O4_17 
REMARK   10  A    between atoms: C21_25  and  O5_26 
ROOT
HETATM    1  C9  UNL     1       7.624   9.423  15.962  1.00  0.00    -0.001 C 
HETATM    2  C10 UNL     1       6.783  10.710  16.179  1.00  0.00     0.007 C 
HETATM    3  C11 UNL     1       5.702  10.730  15.069  1.00  0.00     0.022 C 
HETATM    4  C12 UNL     1       5.744   9.311  14.459  1.00  0.00     0.057 C 
HETATM    5  C14 UNL     1       5.205   9.122  13.013  1.00  0.00     0.010 C 
HETATM    6  C15 UNL     1       3.745   9.561  12.804  1.00  0.00     0.010 C 
HETATM    7  C16 UNL     1       2.693   8.450  12.838  1.00  0.00     0.036 C 
HETATM    8  C17 UNL     1       2.535   7.646  11.552  1.00  0.00    -0.067 C 
HETATM    9  C18 UNL     1       3.577   7.293  10.757  1.00  0.00    -0.076 C 
HETATM   10  C19 UNL     1       3.386   6.609   9.411  1.00  0.00     0.037 C 
HETATM   11  C20 UNL     1       1.950   6.535   8.913  1.00  0.00     0.037 C 
HETATM   12  C21 UNL     1       0.996   6.210  10.051  1.00  0.00     0.130 C 
HETATM   13  C22 UNL     1       1.067   7.279  11.189  1.00  0.00     0.002 C 
HETATM   14  C23 UNL     1       0.306   6.714  12.414  1.00  0.00     0.022 C 
HETATM   15  C24 UNL     1       0.341   8.557  10.706  1.00  0.00     0.022 C 
HETATM   16  C25 UNL     1       5.061   7.472  11.061  1.00  0.00     0.039 C 
HETATM   17  C26 UNL     1       5.493   7.674  12.527  1.00  0.00    -0.005 C 
HETATM   18  C27 UNL     1       6.988   7.284  12.683  1.00  0.00     0.006 C 
HETATM   19  C28 UNL     1       7.608   7.606  14.054  1.00  0.00     0.011 C 
HETATM   20  C29 UNL     1       7.303   9.050  14.485  1.00  0.00    -0.022 C 
HETATM   21  C30 UNL     1       8.120   9.976  13.528  1.00  0.00     0.017 C 
ENDROOT
BRANCH   1  22
HETATM   22  C2  UNL     1       9.115   9.453  16.414  1.00  0.00    -0.014 C 
HETATM   23  C1  UNL     1       9.658   8.014  16.446  1.00  0.00     0.010 C 
BRANCH  22  24
HETATM   24  C3  UNL     1       9.387  10.146  17.771  1.00  0.00     0.007 C 
BRANCH  24  25
HETATM   25  C4  UNL     1      10.306  11.383  17.673  1.00  0.00     0.035 C 
BRANCH  25  26
HETATM   26  C5  UNL     1      11.577  11.267  18.538  1.00  0.00     0.151 C 
BRANCH  26  27
HETATM   27  O1  UNL     1      11.561   9.985  19.192  1.00  0.00    -0.393 OA
HETATM   28  H10 UNL     1      10.691   9.909  19.623  1.00  0.00     0.210 HD
ENDBRANCH  26  27
BRANCH  26  29
HETATM   29  C6  UNL     1      11.722  12.369  19.626  1.00  0.00     0.076 C 
HETATM   30  C7  UNL     1      10.567  12.368  20.629  1.00  0.00     0.048 C 
HETATM   31  C8  UNL     1      11.825  13.757  18.976  1.00  0.00     0.048 C 
BRANCH  29  32
HETATM   32  O2  UNL     1      12.932  12.137  20.366  1.00  0.00    -0.388 OA
HETATM   33  H17 UNL     1      13.669  12.456  19.815  1.00  0.00     0.210 HD
ENDBRANCH  29  32
ENDBRANCH  26  29
ENDBRANCH  25  26
ENDBRANCH  24  25
ENDBRANCH  22  24
ENDBRANCH   1  22
BRANCH   4  34
HETATM   34  C13 UNL     1       4.926   8.384  15.403  1.00  0.00     0.149 C 
HETATM   35  O3  UNL     1       3.934   8.664  16.055  1.00  0.00    -0.649 OA
BRANCH  34  36
HETATM   36  O4  UNL     1       5.436   7.140  15.525  1.00  0.00    -0.776 OA
HETATM   37  H23 UNL     1       4.825   6.703  16.155  1.00  0.00     0.167 HD
ENDBRANCH  34  36
ENDBRANCH   4  34
BRANCH  12  38
HETATM   38  O5  UNL     1       1.287   4.894  10.539  1.00  0.00    -0.394 OA
HETATM   39  H34 UNL     1       2.127   4.945  11.031  1.00  0.00     0.210 HD
ENDBRANCH  12  38
TORSDOF 10
ENDMDL
MODEL 2
REMARK minimizedAffinity -6.767766
REMARK CNNscore 0.482167244
REMARK CNNaffinity 6.40678358
REMARK  10 active torsions:
REMARK  status: ('A' for Active; 'I' for Inactive)
REMARK    1  A    between atoms: C2_2  and  C3_3 
REMARK    2  A    between atoms: C2_2  and  C9_11 
REMARK    3  A    between atoms: C3_3  and  C4_4 
REMARK    4  A    between atoms: C4_4  and  C5_5 
REMARK    5  A    between atoms: C5_5  and  O1_6 
REMARK    6  A    between atoms: C5_5  and  C6_7 
REMARK    7  A    between atoms: C6_7  and  O2_10 
REMARK    8  A    between atoms: C12_14  and  C13_15 
REMARK    9  A    between atoms: C13_15  and  O4_17 
REMARK   10  A    between atoms: C21_25  and  O5_26 
ROOT
HETATM    1  C9  UNL     1      -9.806  -7.509  -5.335  1.00  0.00    -0.001 C 
HETATM    2  C10 UNL     1      -8.525  -7.758  -6.177  1.00  0.00     0.007 C 
HETATM    3  C11 UNL     1      -7.461  -8.337  -5.210  1.00  0.00     0.022 C 
HETATM    4  C12 UNL     1      -8.252  -8.707  -3.936  1.00  0.00     0.057 C 
HETATM    5  C14 UNL     1      -7.471  -8.807  -2.595  1.00  0.00     0.010 C 
HETATM    6  C15 UNL     1      -6.304  -9.810  -2.598  1.00  0.00     0.010 C 
HETATM    7  C16 UNL     1      -6.593 -11.184  -1.989  1.00  0.00     0.036 C 
HETATM    8  C17 UNL     1      -6.530 -11.262  -0.468  1.00  0.00    -0.067 C 
HETATM    9  C18 UNL     1      -6.973 -10.275   0.351  1.00  0.00    -0.076 C 
HETATM   10  C19 UNL     1      -6.779 -10.313   1.860  1.00  0.00     0.037 C 
HETATM   11  C20 UNL     1      -5.872 -11.422   2.375  1.00  0.00     0.037 C 
HETATM   12  C21 UNL     1      -6.125 -12.721   1.627  1.00  0.00     0.130 C 
HETATM   13  C22 UNL     1      -5.882 -12.562   0.092  1.00  0.00     0.002 C 
HETATM   14  C23 UNL     1      -6.448 -13.822  -0.608  1.00  0.00     0.022 C 
HETATM   15  C24 UNL     1      -4.356 -12.504  -0.160  1.00  0.00     0.022 C 
HETATM   16  C25 UNL     1      -7.740  -9.022  -0.059  1.00  0.00     0.039 C 
HETATM   17  C26 UNL     1      -8.466  -9.015  -1.419  1.00  0.00    -0.005 C 
HETATM   18  C27 UNL     1      -9.591  -7.945  -1.398  1.00  0.00     0.006 C 
HETATM   19  C28 UNL     1     -10.282  -7.698  -2.750  1.00  0.00     0.011 C 
HETATM   20  C29 UNL     1      -9.258  -7.489  -3.878  1.00  0.00    -0.022 C 
HETATM   21  C30 UNL     1      -8.575  -6.111  -3.600  1.00  0.00     0.017 C 
ENDROOT
BRANCH   1  22
HETATM   22  C2  UNL     1     -10.752  -6.357  -5.790  1.00  0.00    -0.014 C 
HETATM   23  C1  UNL     1     -11.963  -6.963  -6.520  1.00  0.00     0.010 C 
BRANCH  22  24
HETATM   24  C3  UNL     1     -10.100  -5.267  -6.674  1.00  0.00     0.007 C 
BRANCH  24  25
HETATM   25  C4  UNL     1     -10.515  -3.826  -6.305  1.00  0.00     0.035 C 
BRANCH  25  26
HETATM   26  C5  UNL     1      -9.811  -3.295  -5.040  1.00  0.00     0.151 C 
BRANCH  26  27
HETATM   27  O1  UNL     1     -10.819  -2.982  -4.062  1.00  0.00    -0.393 OA
HETATM   28  H10 UNL     1     -11.469  -2.414  -4.512  1.00  0.00     0.210 HD
ENDBRANCH  26  27
BRANCH  26  29
HETATM   29  C6  UNL     1      -8.941  -2.026  -5.269  1.00  0.00     0.076 C 
HETATM   30  C7  UNL     1      -9.712  -0.727  -5.025  1.00  0.00     0.048 C 
HETATM   31  C8  UNL     1      -8.370  -2.014  -6.695  1.00  0.00     0.048 C 
BRANCH  29  32
HETATM   32  O2  UNL     1      -7.836  -2.047  -4.351  1.00  0.00    -0.388 OA
HETATM   33  H17 UNL     1      -7.180  -2.672  -4.708  1.00  0.00     0.210 HD
ENDBRANCH  29  32
ENDBRANCH  26  29
ENDBRANCH  25  26
ENDBRANCH  24  25
ENDBRANCH  22  24
ENDBRANCH   1  22
BRANCH   4  34
HETATM   34  C13 UNL     1      -8.930 -10.082  -4.202  1.00  0.00     0.149 C 
HETATM   35  O3  UNL     1      -9.932 -10.538  -3.677  1.00  0.00    -0.649 OA
BRANCH  34  36
HETATM   36  O4  UNL     1      -8.273 -10.853  -5.093  1.00  0.00    -0.776 OA
HETATM   37  H23 UNL     1      -8.812 -11.671  -5.130  1.00  0.00     0.167 HD
ENDBRANCH  34  36
ENDBRANCH   4  34
BRANCH  12  38
HETATM   38  O5  UNL     1      -7.456 -13.169   1.912  1.00  0.00    -0.394 OA
HETATM   39  H34 UNL     1      -8.069 -12.579   1.437  1.00  0.00     0.210 HD
ENDBRANCH  12  38
TORSDOF 10
ENDMDL
MODEL 3
REMARK minimizedAffinity -7.24559021
REMARK CNNscore 0.455055803
REMARK CNNaffinity 6.70624971
REMARK  10 active torsions:
REMARK  status: ('A' for Active; 'I' for Inactive)
REMARK    1  A    between atoms: C2_2  and  C3_3 
REMARK    2  A    between atoms: C2_2  and  C9_11 
REMARK    3  A    between atoms: C3_3  and  C4_4 
REMARK    4  A    between atoms: C4_4  and  C5_5 
REMARK    5  A    between atoms: C5_5  and  O1_6 
REMARK    6  A    between atoms: C5_5  and  C6_7 
REMARK    7  A    between atoms: C6_7  and  O2_10 
REMARK    8  A    between atoms: C12_14  and  C13_15 
REMARK    9  A    between atoms: C13_15  and  O4_17 
REMARK   10  A    between atoms: C21_25  and  O5_26 
ROOT
HETATM    1  C9  UNL     1     -10.806   8.182  15.125  1.00  0.00    -0.001 C 
HETATM    2  C10 UNL     1     -10.233   9.580  14.765  1.00  0.00     0.007 C 
HETATM    3  C11 UNL     1     -11.279  10.270  13.853  1.00  0.00     0.022 C 
HETATM    4  C12 UNL     1     -12.546   9.396  13.982  1.00  0.00     0.057 C 
HETATM    5  C14 UNL     1     -13.595   9.457  12.836  1.00  0.00     0.010 C 
HETATM    6  C15 UNL     1     -14.154  10.860  12.544  1.00  0.00     0.010 C 
HETATM    7  C16 UNL     1     -15.511  11.191  13.168  1.00  0.00     0.036 C 
HETATM    8  C17 UNL     1     -16.731  10.655  12.427  1.00  0.00    -0.067 C 
HETATM    9  C18 UNL     1     -16.767   9.440  11.823  1.00  0.00    -0.076 C 
HETATM   10  C19 UNL     1     -17.943   8.980  10.975  1.00  0.00     0.037 C 
HETATM   11  C20 UNL     1     -18.986  10.047  10.669  1.00  0.00     0.037 C 
HETATM   12  C21 UNL     1     -19.246  10.917  11.887  1.00  0.00     0.130 C 
HETATM   13  C22 UNL     1     -17.945  11.629  12.379  1.00  0.00     0.002 C 
HETATM   14  C23 UNL     1     -18.238  12.235  13.774  1.00  0.00     0.022 C 
HETATM   15  C24 UNL     1     -17.618  12.783  11.401  1.00  0.00     0.022 C 
HETATM   16  C25 UNL     1     -15.706   8.347  11.906  1.00  0.00     0.039 C 
HETATM   17  C26 UNL     1     -14.697   8.386  13.071  1.00  0.00    -0.005 C 
HETATM   18  C27 UNL     1     -14.107   6.967  13.291  1.00  0.00     0.006 C 
HETATM   19  C28 UNL     1     -12.951   6.890  14.303  1.00  0.00     0.011 C 
HETATM   20  C29 UNL     1     -11.884   7.961  14.023  1.00  0.00    -0.022 C 
HETATM   21  C30 UNL     1     -11.183   7.545  12.690  1.00  0.00     0.017 C 
ENDROOT
BRANCH   1  22
HETATM   22  C2  UNL     1      -9.786   7.038  15.407  1.00  0.00    -0.014 C 
HETATM   23  C1  UNL     1      -8.700   7.561  16.364  1.00  0.00     0.010 C 
BRANCH  22  24
HETATM   24  C3  UNL     1      -9.124   6.411  14.157  1.00  0.00     0.007 C 
BRANCH  24  25
HETATM   25  C4  UNL     1      -7.580   6.457  14.172  1.00  0.00     0.035 C 
BRANCH  25  26
HETATM   26  C5  UNL     1      -6.930   5.060  14.126  1.00  0.00     0.151 C 
BRANCH  26  27
HETATM   27  O1  UNL     1      -5.504   5.230  14.021  1.00  0.00    -0.393 OA
HETATM   28  H10 UNL     1      -5.357   5.842  13.278  1.00  0.00     0.210 HD
ENDBRANCH  26  27
BRANCH  26  29
HETATM   29  C6  UNL     1      -7.404   4.164  12.946  1.00  0.00     0.076 C 
HETATM   30  C7  UNL     1      -6.271   3.337  12.337  1.00  0.00     0.048 C 
HETATM   31  C8  UNL     1      -8.052   5.019  11.847  1.00  0.00     0.048 C 
BRANCH  29  32
HETATM   32  O2  UNL     1      -8.394   3.242  13.430  1.00  0.00    -0.388 OA
HETATM   33  H17 UNL     1      -9.229   3.736  13.510  1.00  0.00     0.210 HD
ENDBRANCH  29  32
ENDBRANCH  26  29
ENDBRANCH  25  26
ENDBRANCH  24  25
ENDBRANCH  22  24
ENDBRANCH   1  22
BRANCH   4  34
HETATM   34  C13 UNL     1     -13.254   9.810  15.304  1.00  0.00     0.149 C 
HETATM   35  O3  UNL     1     -14.005   9.141  15.994  1.00  0.00    -0.649 OA
BRANCH  34  36
HETATM   36  O4  UNL     1     -13.019  11.086  15.675  1.00  0.00    -0.776 OA
HETATM   37  H23 UNL     1     -13.541  11.185  16.499  1.00  0.00     0.167 HD
ENDBRANCH  34  36
ENDBRANCH   4  34
BRANCH  12  38
HETATM   38  O5  UNL     1     -19.833  10.111  12.916  1.00  0.00    -0.394 OA
HETATM   39  H34 UNL     1     -19.132   9.533  13.268  1.00  0.00     0.210 HD
ENDBRANCH  12  38
TORSDOF 10
ENDMDL
MODEL 4
REMARK minimizedAffinity -6.8236537
REMARK CNNscore 0.411781967
REMARK CNNaffinity 5.82838058
REMARK  10 active torsions:
REMARK  status: ('A' for Active; 'I' for Inactive)
REMARK    1  A    between atoms: C2_2  and  C3_3 
REMARK    2  A    between atoms: C2_2  and  C9_11 
REMARK    3  A    between atoms: C3_3  and  C4_4 
REMARK    4  A    between atoms: C4_4  and  C5_5 
REMARK    5  A    between atoms: C5_5  and  O1_6 
REMARK    6  A    between atoms: C5_5  and  C6_7 
REMARK    7  A    between atoms: C6_7  and  O2_10 
REMARK    8  A    between atoms: C12_14  and  C13_15 
REMARK    9  A    between atoms: C13_15  and  O4_17 
REMARK   10  A    between atoms: C21_25  and  O5_26 
ROOT
HETATM    1  C9  UNL     1     -14.887   7.329  24.173  1.00  0.00    -0.001 C 
HETATM    2  C10 UNL     1     -13.819   6.893  25.213  1.00  0.00     0.007 C 
HETATM    3  C11 UNL     1     -12.506   7.629  24.840  1.00  0.00     0.022 C 
HETATM    4  C12 UNL     1     -12.938   8.700  23.815  1.00  0.00     0.057 C 
HETATM    5  C14 UNL     1     -11.860   9.254  22.840  1.00  0.00     0.010 C 
HETATM    6  C15 UNL     1     -10.632   9.882  23.522  1.00  0.00     0.010 C 
HETATM    7  C16 UNL     1     -10.632  11.408  23.642  1.00  0.00     0.036 C 
HETATM    8  C17 UNL     1     -10.209  12.171  22.392  1.00  0.00    -0.067 C 
HETATM    9  C18 UNL     1     -10.545  11.791  21.133  1.00  0.00    -0.076 C 
HETATM   10  C19 UNL     1     -10.001  12.488  19.894  1.00  0.00     0.037 C 
HETATM   11  C20 UNL     1      -8.893  13.501  20.146  1.00  0.00     0.037 C 
HETATM   12  C21 UNL     1      -9.182  14.323  21.392  1.00  0.00     0.130 C 
HETATM   13  C22 UNL     1      -9.321  13.421  22.661  1.00  0.00     0.002 C 
HETATM   14  C23 UNL     1      -9.906  14.295  23.798  1.00  0.00     0.022 C 
HETATM   15  C24 UNL     1      -7.910  12.947  23.082  1.00  0.00     0.022 C 
HETATM   16  C25 UNL     1     -11.508  10.676  20.741  1.00  0.00     0.039 C 
HETATM   17  C26 UNL     1     -12.527  10.181  21.786  1.00  0.00    -0.005 C 
HETATM   18  C27 UNL     1     -13.718   9.496  21.062  1.00  0.00     0.006 C 
HETATM   19  C28 UNL     1     -14.726   8.792  21.987  1.00  0.00     0.011 C 
HETATM   20  C29 UNL     1     -14.020   7.880  23.004  1.00  0.00    -0.022 C 
HETATM   21  C30 UNL     1     -13.431   6.685  22.187  1.00  0.00     0.017 C 
ENDROOT
BRANCH   1  22
HETATM   22  C2  UNL     1     -16.023   6.315  23.842  1.00  0.00    -0.014 C 
HETATM   23  C1  UNL     1     -16.881   6.096  25.100  1.00  0.00     0.010 C 
BRANCH  22  24
HETATM   24  C3  UNL     1     -15.557   4.950  23.282  1.00  0.00     0.007 C 
BRANCH  24  25
HETATM   25  C4  UNL     1     -14.928   4.017  24.340  1.00  0.00     0.035 C 
BRANCH  25  26
HETATM   26  C5  UNL     1     -13.594   3.393  23.884  1.00  0.00     0.151 C 
BRANCH  26  27
HETATM   27  O1  UNL     1     -13.788   2.818  22.579  1.00  0.00    -0.393 OA
HETATM   28  H10 UNL     1     -14.575   2.249  22.646  1.00  0.00     0.210 HD
ENDBRANCH  26  27
BRANCH  26  29
HETATM   29  C6  UNL     1     -13.041   2.287  24.828  1.00  0.00     0.076 C 
HETATM   30  C7  UNL     1     -13.219   2.629  26.309  1.00  0.00     0.048 C 
HETATM   31  C8  UNL     1     -11.554   2.029  24.544  1.00  0.00     0.048 C 
BRANCH  29  32
HETATM   32  O2  UNL     1     -13.756   1.065  24.582  1.00  0.00    -0.388 OA
HETATM   33  H17 UNL     1     -13.389   0.680  23.766  1.00  0.00     0.210 HD
ENDBRANCH  29  32
ENDBRANCH  26  29
ENDBRANCH  25  26
ENDBRANCH  24  25
ENDBRANCH  22  24
ENDBRANCH   1  22
BRANCH   4  34
HETATM   34  C13 UNL     1     -13.518   9.897  24.621  1.00  0.00     0.149 C 
HETATM   35  O3  UNL     1     -14.327  10.730  24.249  1.00  0.00    -0.649 OA
BRANCH  34  36
HETATM   36  O4  UNL     1     -13.003  10.022  25.862  1.00  0.00    -0.776 OA
HETATM   37  H23 UNL     1     -13.453  10.817  26.218  1.00  0.00     0.167 HD
ENDBRANCH  34  36
ENDBRANCH   4  34
BRANCH  12  38
HETATM   38  O5  UNL     1     -10.359  15.110  21.167  1.00  0.00    -0.394 OA
HETATM   39  H34 UNL     1     -11.121  14.503  21.183  1.00  0.00     0.210 HD
ENDBRANCH  12  38
TORSDOF 10
ENDMDL
MODEL 5
REMARK minimizedAffinity -9.46834755
REMARK CNNscore 0.399635136
REMARK CNNaffinity 6.9090476
REMARK  10 active torsions:
REMARK  status: ('A' for Active; 'I' for Inactive)
REMARK    1  A    between atoms: C2_2  and  C3_3 
REMARK    2  A    between atoms: C2_2  and  C9_11 
REMARK    3  A    between atoms: C3_3  and  C4_4 
REMARK    4  A    between atoms: C4_4  and  C5_5 
REMARK    5  A    between atoms: C5_5  and  O1_6 
REMARK    6  A    between atoms: C5_5  and  C6_7 
REMARK    7  A    between atoms: C6_7  and  O2_10 
REMARK    8  A    between atoms: C12_14  and  C13_15 
REMARK    9  A    between atoms: C13_15  and  O4_17 
REMARK   10  A    between atoms: C21_25  and  O5_26 
ROOT
HETATM    1  C9  UNL     1       0.431   8.248  14.012  1.00  0.00    -0.001 C 
HETATM    2  C10 UNL     1      -0.258   9.630  13.850  1.00  0.00     0.007 C 
HETATM    3  C11 UNL     1      -1.736   9.351  13.477  1.00  0.00     0.022 C 
HETATM    4  C12 UNL     1      -1.931   7.844  13.756  1.00  0.00     0.057 C 
HETATM    5  C14 UNL     1      -3.084   7.108  13.017  1.00  0.00     0.010 C 
HETATM    6  C15 UNL     1      -4.484   7.701  13.249  1.00  0.00     0.010 C 
HETATM    7  C16 UNL     1      -5.347   7.004  14.303  1.00  0.00     0.036 C 
HETATM    8  C17 UNL     1      -6.063   5.738  13.844  1.00  0.00    -0.067 C 
HETATM    9  C18 UNL     1      -5.510   4.828  13.003  1.00  0.00    -0.076 C 
HETATM   10  C19 UNL     1      -6.289   3.643  12.450  1.00  0.00     0.037 C 
HETATM   11  C20 UNL     1      -7.785   3.656  12.729  1.00  0.00     0.037 C 
HETATM   12  C21 UNL     1      -8.070   4.136  14.143  1.00  0.00     0.130 C 
HETATM   13  C22 UNL     1      -7.512   5.575  14.390  1.00  0.00     0.002 C 
HETATM   14  C23 UNL     1      -7.576   5.850  15.913  1.00  0.00     0.022 C 
HETATM   15  C24 UNL     1      -8.432   6.588  13.668  1.00  0.00     0.022 C 
HETATM   16  C25 UNL     1      -4.069   4.801  12.506  1.00  0.00     0.039 C 
HETATM   17  C26 UNL     1      -3.001   5.581  13.298  1.00  0.00    -0.005 C 
HETATM   18  C27 UNL     1      -1.597   4.996  12.986  1.00  0.00     0.006 C 
HETATM   19  C28 UNL     1      -0.415   5.792  13.566  1.00  0.00     0.011 C 
HETATM   20  C29 UNL     1      -0.536   7.293  13.254  1.00  0.00    -0.022 C 
HETATM   21  C30 UNL     1      -0.311   7.441  11.715  1.00  0.00     0.017 C 
ENDROOT
BRANCH   1  22
HETATM   22  C2  UNL     1       1.956   8.164  13.699  1.00  0.00    -0.014 C 
HETATM   23  C1  UNL     1       2.228   6.894  12.874  1.00  0.00     0.010 C 
BRANCH  22  24
HETATM   24  C3  UNL     1       2.893   8.199  14.930  1.00  0.00     0.007 C 
BRANCH  24  25
HETATM   25  C4  UNL     1       4.270   8.842  14.654  1.00  0.00     0.035 C 
BRANCH  25  26
HETATM   26  C5  UNL     1       5.442   7.849  14.787  1.00  0.00     0.151 C 
BRANCH  26  27
HETATM   27  O1  UNL     1       5.044   6.802  15.691  1.00  0.00    -0.393 OA
HETATM   28  H10 UNL     1       4.709   7.244  16.491  1.00  0.00     0.210 HD
ENDBRANCH  26  27
BRANCH  26  29
HETATM   29  C6  UNL     1       6.763   8.477  15.317  1.00  0.00     0.076 C 
HETATM   30  C7  UNL     1       6.716  10.005  15.363  1.00  0.00     0.048 C 
HETATM   31  C8  UNL     1       7.954   8.034  14.454  1.00  0.00     0.048 C 
BRANCH  29  32
HETATM   32  O2  UNL     1       6.993   8.016  16.659  1.00  0.00    -0.388 OA
HETATM   33  H17 UNL     1       7.343   7.109  16.592  1.00  0.00     0.210 HD
ENDBRANCH  29  32
ENDBRANCH  26  29
ENDBRANCH  25  26
ENDBRANCH  24  25
ENDBRANCH  22  24
ENDBRANCH   1  22
BRANCH   4  34
HETATM   34  C13 UNL     1      -2.164   7.689  15.287  1.00  0.00     0.149 C 
HETATM   35  O3  UNL     1      -2.760   8.445  16.035  1.00  0.00    -0.649 OA
BRANCH  34  36
HETATM   36  O4  UNL     1      -1.579   6.597  15.821  1.00  0.00    -0.776 OA
HETATM   37  H23 UNL     1      -1.804   6.659  16.773  1.00  0.00     0.167 HD
ENDBRANCH  34  36
ENDBRANCH   4  34
BRANCH  12  38
HETATM   38  O5  UNL     1      -7.529   3.189  15.072  1.00  0.00    -0.394 OA
HETATM   39  H34 UNL     1      -6.559   3.284  15.053  1.00  0.00     0.210 HD
ENDBRANCH  12  38
TORSDOF 10
ENDMDL
MODEL 6
REMARK minimizedAffinity -7.80616426
REMARK CNNscore 0.390588433
REMARK CNNaffinity 6.36927748
REMARK  10 active torsions:
REMARK  status: ('A' for Active; 'I' for Inactive)
REMARK    1  A    between atoms: C2_2  and  C3_3 
REMARK    2  A    between atoms: C2_2  and  C9_11 
REMARK    3  A    between atoms: C3_3  and  C4_4 
REMARK    4  A    between atoms: C4_4  and  C5_5 
REMARK    5  A    between atoms: C5_5  and  O1_6 
REMARK    6  A    between atoms: C5_5  and  C6_7 
REMARK    7  A    between atoms: C6_7  and  O2_10 
REMARK    8  A    between atoms: C12_14  and  C13_15 
REMARK    9  A    between atoms: C13_15  and  O4_17 
REMARK   10  A    between atoms: C21_25  and  O5_26 
ROOT
HETATM    1  C9  UNL     1     -10.720  -7.306  -4.295  1.00  0.00    -0.001 C 
HETATM    2  C10 UNL     1     -11.931  -8.088  -3.718  1.00  0.00     0.007 C 
HETATM    3  C11 UNL     1     -11.365  -9.062  -2.653  1.00  0.00     0.022 C 
HETATM    4  C12 UNL     1      -9.915  -8.586  -2.419  1.00  0.00     0.057 C 
HETATM    5  C14 UNL     1      -8.894  -9.608  -1.845  1.00  0.00     0.010 C 
HETATM    6  C15 UNL     1      -9.291 -10.230  -0.494  1.00  0.00     0.010 C 
HETATM    7  C16 UNL     1      -8.654  -9.607   0.750  1.00  0.00     0.036 C 
HETATM    8  C17 UNL     1      -7.233 -10.061   1.067  1.00  0.00    -0.067 C 
HETATM    9  C18 UNL     1      -6.294 -10.297   0.116  1.00  0.00    -0.076 C 
HETATM   10  C19 UNL     1      -4.926 -10.879   0.443  1.00  0.00     0.037 C 
HETATM   11  C20 UNL     1      -4.751 -11.378   1.871  1.00  0.00     0.037 C 
HETATM   12  C21 UNL     1      -5.410 -10.432   2.861  1.00  0.00     0.130 C 
HETATM   13  C22 UNL     1      -6.939 -10.273   2.580  1.00  0.00     0.002 C 
HETATM   14  C23 UNL     1      -7.452  -9.081   3.427  1.00  0.00     0.022 C 
HETATM   15  C24 UNL     1      -7.661 -11.557   3.052  1.00  0.00     0.022 C 
HETATM   16  C25 UNL     1      -6.410 -10.005  -1.376  1.00  0.00     0.039 C 
HETATM   17  C26 UNL     1      -7.468  -8.989  -1.848  1.00  0.00    -0.005 C 
HETATM   18  C27 UNL     1      -7.066  -8.435  -3.242  1.00  0.00     0.006 C 
HETATM   19  C28 UNL     1      -8.123  -7.546  -3.921  1.00  0.00     0.011 C 
HETATM   20  C29 UNL     1      -9.512  -8.204  -3.900  1.00  0.00    -0.022 C 
HETATM   21  C30 UNL     1      -9.434  -9.425  -4.873  1.00  0.00     0.017 C 
ENDROOT
BRANCH   1  22
HETATM   22  C2  UNL     1     -10.824  -6.806  -5.768  1.00  0.00    -0.014 C 
HETATM   23  C1  UNL     1     -10.991  -8.019  -6.698  1.00  0.00     0.010 C 
BRANCH  22  24
HETATM   24  C3  UNL     1      -9.649  -5.927  -6.259  1.00  0.00     0.007 C 
BRANCH  24  25
HETATM   25  C4  UNL     1      -9.951  -4.413  -6.258  1.00  0.00     0.035 C 
BRANCH  25  26
HETATM   26  C5  UNL     1      -9.474  -3.699  -4.978  1.00  0.00     0.151 C 
BRANCH  26  27
HETATM   27  O1  UNL     1     -10.629  -3.402  -4.171  1.00  0.00    -0.393 OA
HETATM   28  H10 UNL     1     -11.261  -2.947  -4.755  1.00  0.00     0.210 HD
ENDBRANCH  26  27
BRANCH  26  29
HETATM   29  C6  UNL     1      -8.699  -2.373  -5.227  1.00  0.00     0.076 C 
HETATM   30  C7  UNL     1      -9.463  -1.140  -4.744  1.00  0.00     0.048 C 
HETATM   31  C8  UNL     1      -8.373  -2.213  -6.720  1.00  0.00     0.048 C 
BRANCH  29  32
HETATM   32  O2  UNL     1      -7.457  -2.417  -4.506  1.00  0.00    -0.388 OA
HETATM   33  H17 UNL     1      -6.848  -2.977  -5.020  1.00  0.00     0.210 HD
ENDBRANCH  29  32
ENDBRANCH  26  29
ENDBRANCH  25  26
ENDBRANCH  24  25
ENDBRANCH  22  24
ENDBRANCH   1  22
BRANCH   4  34
HETATM   34  C13 UNL     1      -9.983  -7.374  -1.445  1.00  0.00     0.149 C 
HETATM   35  O3  UNL     1     -10.830  -7.139  -0.599  1.00  0.00    -0.649 OA
BRANCH  34  36
HETATM   36  O4  UNL     1      -8.994  -6.473  -1.622  1.00  0.00    -0.776 OA
HETATM   37  H23 UNL     1      -9.192  -5.782  -0.956  1.00  0.00     0.167 HD
ENDBRANCH  34  36
ENDBRANCH   4  34
BRANCH  12  38
HETATM   38  O5  UNL     1      -4.728  -9.172   2.824  1.00  0.00    -0.394 OA
HETATM   39  H34 UNL     1      -4.969  -8.736   1.987  1.00  0.00     0.210 HD
ENDBRANCH  12  38
TORSDOF 10
ENDMDL
MODEL 7
REMARK minimizedAffinity -10.2582436
REMARK CNNscore 0.354852438
REMARK CNNaffinity 6.8369689
REMARK  10 active torsions:
REMARK  status: ('A' for Active; 'I' for Inactive)
REMARK    1  A    between atoms: C2_2  and  C3_3 
REMARK    2  A    between atoms: C2_2  and  C9_11 
REMARK    3  A    between atoms: C3_3  and  C4_4 
REMARK    4  A    between atoms: C4_4  and  C5_5 
REMARK    5  A    between atoms: C5_5  and  O1_6 
REMARK    6  A    between atoms: C5_5  and  C6_7 
REMARK    7  A    between atoms: C6_7  and  O2_10 
REMARK    8  A    between atoms: C12_14  and  C13_15 
REMARK    9  A    between atoms: C13_15  and  O4_17 
REMARK   10  A    between atoms: C21_25  and  O5_26 
ROOT
HETATM    1  C9  UNL     1       0.831   7.408  13.202  1.00  0.00    -0.001 C 
HETATM    2  C10 UNL     1       0.372   8.885  13.071  1.00  0.00     0.007 C 
HETATM    3  C11 UNL     1      -1.174   8.863  12.956  1.00  0.00     0.022 C 
HETATM    4  C12 UNL     1      -1.574   7.424  13.349  1.00  0.00     0.057 C 
HETATM    5  C14 UNL     1      -2.942   6.884  12.847  1.00  0.00     0.010 C 
HETATM    6  C15 UNL     1      -4.162   7.724  13.264  1.00  0.00     0.010 C 
HETATM    7  C16 UNL     1      -4.944   7.223  14.481  1.00  0.00     0.036 C 
HETATM    8  C17 UNL     1      -5.932   6.093  14.216  1.00  0.00    -0.067 C 
HETATM    9  C18 UNL     1      -5.691   5.075  13.352  1.00  0.00    -0.076 C 
HETATM   10  C19 UNL     1      -6.742   4.032  13.001  1.00  0.00     0.037 C 
HETATM   11  C20 UNL     1      -8.147   4.320  13.513  1.00  0.00     0.037 C 
HETATM   12  C21 UNL     1      -8.105   4.884  14.924  1.00  0.00     0.130 C 
HETATM   13  C22 UNL     1      -7.276   6.207  14.994  1.00  0.00     0.002 C 
HETATM   14  C23 UNL     1      -7.037   6.534  16.489  1.00  0.00     0.022 C 
HETATM   15  C24 UNL     1      -8.116   7.346  14.370  1.00  0.00     0.022 C 
HETATM   16  C25 UNL     1      -4.379   4.776  12.635  1.00  0.00     0.039 C 
HETATM   17  C26 UNL     1      -3.076   5.376  13.200  1.00  0.00    -0.005 C 
HETATM   18  C27 UNL     1      -1.865   4.541  12.704  1.00  0.00     0.006 C 
HETATM   19  C28 UNL     1      -0.484   5.130  13.041  1.00  0.00     0.011 C 
HETATM   20  C29 UNL     1      -0.398   6.618  12.665  1.00  0.00    -0.022 C 
HETATM   21  C30 UNL     1      -0.410   6.678  11.103  1.00  0.00     0.017 C 
ENDROOT
BRANCH   1  22
HETATM   22  C2  UNL     1       2.245   7.043  12.656  1.00  0.00    -0.014 C 
HETATM   23  C1  UNL     1       3.016   8.341  12.357  1.00  0.00     0.010 C 
BRANCH  22  24
HETATM   24  C3  UNL     1       2.264   6.125  11.411  1.00  0.00     0.007 C 
BRANCH  24  25
HETATM   25  C4  UNL     1       3.040   6.709  10.210  1.00  0.00     0.035 C 
BRANCH  25  26
HETATM   26  C5  UNL     1       2.411   6.352   8.848  1.00  0.00     0.151 C 
BRANCH  26  27
HETATM   27  O1  UNL     1       3.324   5.491   8.143  1.00  0.00    -0.393 OA
HETATM   28  H10 UNL     1       4.189   5.937   8.159  1.00  0.00     0.210 HD
ENDBRANCH  26  27
BRANCH  26  29
HETATM   29  C6  UNL     1       2.095   7.576   7.941  1.00  0.00     0.076 C 
HETATM   30  C7  UNL     1       0.878   8.369   8.420  1.00  0.00     0.048 C 
HETATM   31  C8  UNL     1       1.867   7.127   6.490  1.00  0.00     0.048 C 
BRANCH  29  32
HETATM   32  O2  UNL     1       3.221   8.470   7.956  1.00  0.00    -0.388 OA
HETATM   33  H17 UNL     1       3.894   8.089   7.364  1.00  0.00     0.210 HD
ENDBRANCH  29  32
ENDBRANCH  26  29
ENDBRANCH  25  26
ENDBRANCH  24  25
ENDBRANCH  22  24
ENDBRANCH   1  22
BRANCH   4  34
HETATM   34  C13 UNL     1      -1.571   7.358  14.904  1.00  0.00     0.149 C 
HETATM   35  O3  UNL     1      -1.859   8.243  15.692  1.00  0.00    -0.649 OA
BRANCH  34  36
HETATM   36  O4  UNL     1      -1.147   6.177  15.401  1.00  0.00    -0.776 OA
HETATM   37  H23 UNL     1      -1.190   6.309  16.371  1.00  0.00     0.167 HD
ENDBRANCH  34  36
ENDBRANCH   4  34
BRANCH  12  38
HETATM   38  O5  UNL     1      -7.587   3.883  15.809  1.00  0.00    -0.394 OA
HETATM   39  H34 UNL     1      -6.632   3.804  15.630  1.00  0.00     0.210 HD
ENDBRANCH  12  38
TORSDOF 10
ENDMDL
MODEL 8
REMARK minimizedAffinity -8.23226166
REMARK CNNscore 0.333685219
REMARK CNNaffinity 5.76690483
REMARK  10 active torsions:
REMARK  status: ('A' for Active; 'I' for Inactive)
REMARK    1  A    between atoms: C2_2  and  C3_3 
REMARK    2  A    between atoms: C2_2  and  C9_11 
REMARK    3  A    between atoms: C3_3  and  C4_4 
REMARK    4  A    between atoms: C4_4  and  C5_5 
REMARK    5  A    between atoms: C5_5  and  O1_6 
REMARK    6  A    between atoms: C5_5  and  C6_7 
REMARK    7  A    between atoms: C6_7  and  O2_10 
REMARK    8  A    between atoms: C12_14  and  C13_15 
REMARK    9  A    between atoms: C13_15  and  O4_17 
REMARK   10  A    between atoms: C21_25  and  O5_26 
ROOT
HETATM    1  C9  UNL     1       6.807   8.633  12.355  1.00  0.00    -0.001 C 
HETATM    2  C10 UNL     1       6.480  10.080  11.895  1.00  0.00     0.007 C 
HETATM    3  C11 UNL     1       7.124  11.033  12.934  1.00  0.00     0.022 C 
HETATM    4  C12 UNL     1       8.066  10.130  13.761  1.00  0.00     0.057 C 
HETATM    5  C14 UNL     1       8.459  10.600  15.190  1.00  0.00     0.010 C 
HETATM    6  C15 UNL     1       9.136  11.981  15.254  1.00  0.00     0.010 C 
HETATM    7  C16 UNL     1      10.664  11.981  15.343  1.00  0.00     0.036 C 
HETATM    8  C17 UNL     1      11.248  11.736  16.730  1.00  0.00    -0.067 C 
HETATM    9  C18 UNL     1      10.718  10.861  17.622  1.00  0.00    -0.076 C 
HETATM   10  C19 UNL     1      11.234  10.730  19.047  1.00  0.00     0.037 C 
HETATM   11  C20 UNL     1      12.240  11.788  19.479  1.00  0.00     0.037 C 
HETATM   12  C21 UNL     1      13.223  12.090  18.359  1.00  0.00     0.130 C 
HETATM   13  C22 UNL     1      12.497  12.599  17.072  1.00  0.00     0.002 C 
HETATM   14  C23 UNL     1      13.526  12.588  15.915  1.00  0.00     0.022 C 
HETATM   15  C24 UNL     1      12.043  14.059  17.311  1.00  0.00     0.022 C 
HETATM   16  C25 UNL     1       9.588   9.869  17.367  1.00  0.00     0.039 C 
HETATM   17  C26 UNL     1       9.261   9.481  15.912  1.00  0.00    -0.005 C 
HETATM   18  C27 UNL     1       8.521   8.116  15.895  1.00  0.00     0.006 C 
HETATM   19  C28 UNL     1       7.970   7.690  14.523  1.00  0.00     0.011 C 
HETATM   20  C29 UNL     1       7.178   8.825  13.854  1.00  0.00    -0.022 C 
HETATM   21  C30 UNL     1       5.872   9.002  14.693  1.00  0.00     0.017 C 
ENDROOT
BRANCH   1  22
HETATM   22  C2  UNL     1       5.790   7.513  11.978  1.00  0.00    -0.014 C 
HETATM   23  C1  UNL     1       6.456   6.545  10.985  1.00  0.00     0.010 C 
BRANCH  22  24
HETATM   24  C3  UNL     1       4.439   8.003  11.405  1.00  0.00     0.007 C 
BRANCH  24  25
HETATM   25  C4  UNL     1       4.337   7.908   9.867  1.00  0.00     0.035 C 
BRANCH  25  26
HETATM   26  C5  UNL     1       3.099   7.124   9.387  1.00  0.00     0.151 C 
BRANCH  26  27
HETATM   27  O1  UNL     1       3.518   5.792   9.039  1.00  0.00    -0.393 OA
HETATM   28  H10 UNL     1       4.275   5.892   8.434  1.00  0.00     0.210 HD
ENDBRANCH  26  27
BRANCH  26  29
HETATM   29  C6  UNL     1       2.376   7.746   8.157  1.00  0.00     0.076 C 
HETATM   30  C7  UNL     1       0.977   8.263   8.493  1.00  0.00     0.048 C 
HETATM   31  C8  UNL     1       2.277   6.723   7.016  1.00  0.00     0.048 C 
BRANCH  29  32
HETATM   32  O2  UNL     1       3.144   8.865   7.683  1.00  0.00    -0.388 OA
HETATM   33  H17 UNL     1       3.891   8.502   7.175  1.00  0.00     0.210 HD
ENDBRANCH  29  32
ENDBRANCH  26  29
ENDBRANCH  25  26
ENDBRANCH  24  25
ENDBRANCH  22  24
ENDBRANCH   1  22
BRANCH   4  34
HETATM   34  C13 UNL     1       9.373   9.955  12.935  1.00  0.00     0.149 C 
HETATM   35  O3  UNL     1       9.797  10.668  12.041  1.00  0.00    -0.649 OA
BRANCH  34  36
HETATM   36  O4  UNL     1      10.069   8.840  13.242  1.00  0.00    -0.776 OA
HETATM   37  H23 UNL     1      10.835   8.873  12.632  1.00  0.00     0.167 HD
ENDBRANCH  34  36
ENDBRANCH   4  34
BRANCH  12  38
HETATM   38  O5  UNL     1      14.006  10.918  18.100  1.00  0.00    -0.394 OA
HETATM   39  H34 UNL     1      13.428  10.276  17.649  1.00  0.00     0.210 HD
ENDBRANCH  12  38
TORSDOF 10
ENDMDL
MODEL 9
REMARK minimizedAffinity -8.21025372
REMARK CNNscore 0.297931463
REMARK CNNaffinity 6.34630537
REMARK  10 active torsions:
REMARK  status: ('A' for Active; 'I' for Inactive)
REMARK    1  A    between atoms: C2_2  and  C3_3 
REMARK    2  A    between atoms: C2_2  and  C9_11 
REMARK    3  A    between atoms: C3_3  and  C4_4 
REMARK    4  A    between atoms: C4_4  and  C5_5 
REMARK    5  A    between atoms: C5_5  and  O1_6 
REMARK    6  A    between atoms: C5_5  and  C6_7 
REMARK    7  A    between atoms: C6_7  and  O2_10 
REMARK    8  A    between atoms: C12_14  and  C13_15 
REMARK    9  A    between atoms: C13_15  and  O4_17 
REMARK   10  A    between atoms: C21_25  and  O5_26 
ROOT
HETATM    1  C9  UNL     1       7.918  10.266  14.357  1.00  0.00    -0.001 C 
HETATM    2  C10 UNL     1       8.793   9.171  13.689  1.00  0.00     0.007 C 
HETATM    3  C11 UNL     1       7.828   8.253  12.895  1.00  0.00     0.022 C 
HETATM    4  C12 UNL     1       6.492   9.026  12.861  1.00  0.00     0.057 C 
HETATM    5  C14 UNL     1       5.184   8.216  12.634  1.00  0.00     0.010 C 
HETATM    6  C15 UNL     1       5.154   7.388  11.338  1.00  0.00     0.010 C 
HETATM    7  C16 UNL     1       4.415   8.014  10.153  1.00  0.00     0.036 C 
HETATM    8  C17 UNL     1       2.897   7.871  10.167  1.00  0.00    -0.067 C 
HETATM    9  C18 UNL     1       2.147   7.956  11.295  1.00  0.00    -0.076 C 
HETATM   10  C19 UNL     1       0.651   7.677  11.309  1.00  0.00     0.037 C 
HETATM   11  C20 UNL     1       0.084   7.091  10.023  1.00  0.00     0.037 C 
HETATM   12  C21 UNL     1       0.703   7.755   8.804  1.00  0.00     0.130 C 
HETATM   13  C22 UNL     1       2.256   7.584   8.778  1.00  0.00     0.002 C 
HETATM   14  C23 UNL     1       2.817   8.533   7.690  1.00  0.00     0.022 C 
HETATM   15  C24 UNL     1       2.582   6.126   8.373  1.00  0.00     0.022 C 
HETATM   16  C25 UNL     1       2.630   8.360  12.685  1.00  0.00     0.039 C 
HETATM   17  C26 UNL     1       3.950   9.145  12.807  1.00  0.00    -0.005 C 
HETATM   18  C27 UNL     1       3.971   9.914  14.156  1.00  0.00     0.006 C 
HETATM   19  C28 UNL     1       5.307  10.597  14.497  1.00  0.00     0.011 C 
HETATM   20  C29 UNL     1       6.494   9.637  14.320  1.00  0.00    -0.022 C 
HETATM   21  C30 UNL     1       6.370   8.571  15.456  1.00  0.00     0.017 C 
ENDROOT
BRANCH   1  22
HETATM   22  C2  UNL     1       8.427  10.873  15.700  1.00  0.00    -0.014 C 
HETATM   23  C1  UNL     1       8.506  12.403  15.559  1.00  0.00     0.010 C 
BRANCH  22  24
HETATM   24  C3  UNL     1       9.781  10.324  16.209  1.00  0.00     0.007 C 
BRANCH  24  25
HETATM   25  C4  UNL     1       9.793   9.975  17.713  1.00  0.00     0.035 C 
BRANCH  25  26
HETATM   26  C5  UNL     1      10.679  10.920  18.549  1.00  0.00     0.151 C 
BRANCH  26  27
HETATM   27  O1  UNL     1      11.615  10.119  19.293  1.00  0.00    -0.393 OA
HETATM   28  H10 UNL     1      11.089   9.440  19.752  1.00  0.00     0.210 HD
ENDBRANCH  26  27
BRANCH  26  29
HETATM   29  C6  UNL     1       9.900  11.819  19.552  1.00  0.00     0.076 C 
HETATM   30  C7  UNL     1       8.386  11.611  19.481  1.00  0.00     0.048 C 
HETATM   31  C8  UNL     1      10.218  13.302  19.306  1.00  0.00     0.048 C 
BRANCH  29  32
HETATM   32  O2  UNL     1      10.314  11.494  20.889  1.00  0.00    -0.388 OA
HETATM   33  H17 UNL     1      11.176  11.924  21.032  1.00  0.00     0.210 HD
ENDBRANCH  29  32
ENDBRANCH  26  29
ENDBRANCH  25  26
ENDBRANCH  24  25
ENDBRANCH  22  24
ENDBRANCH   1  22
BRANCH   4  34
HETATM   34  C13 UNL     1       6.605  10.086  11.728  1.00  0.00     0.149 C 
HETATM   35  O3  UNL     1       5.925  11.084  11.563  1.00  0.00    -0.649 OA
BRANCH  34  36
HETATM   36  O4  UNL     1       7.552   9.803  10.808  1.00  0.00    -0.776 OA
HETATM   37  H23 UNL     1       7.480  10.545  10.171  1.00  0.00     0.167 HD
ENDBRANCH  34  36
ENDBRANCH   4  34
BRANCH  12  38
HETATM   38  O5  UNL     1       0.320   9.136   8.783  1.00  0.00    -0.394 OA
HETATM   39  H34 UNL     1       0.816   9.586   9.491  1.00  0.00     0.210 HD
ENDBRANCH  12  38
TORSDOF 10
ENDMDL
