MODEL 1
REMARK minimizedAffinity -7.61803579
REMARK CNNscore 0.774657071
REMARK CNNaffinity 6.74949646
REMARK  9 active torsions:
REMARK  status: ('A' for Active; 'I' for Inactive)
REMARK    1  A    between atoms: O1_2  and  C2_3 
REMARK    2  A    between atoms: C2_3  and  C4_5 
REMARK    3  A    between atoms: C2_3  and  C5_7 
REMARK    4  A    between atoms: C4_5  and  O2_6 
REMARK    5  A    between atoms: C5_7  and  O3_8 
REMARK    6  A    between atoms: C5_7  and  C6_9 
REMARK    7  A    between atoms: C6_9  and  C7_10 
REMARK    8  A    between atoms: C7_10  and  C8_11 
REMARK    9  A    between atoms: C8_11  and  C10_13 
ROOT
HETATM    1  C10 UNL     1       5.514  56.091  -7.951  1.00  0.00    -0.001 C 
HETATM    2  C11 UNL     1       6.278  55.087  -8.861  1.00  0.00     0.007 C 
HETATM    3  C12 UNL     1       5.231  54.316  -9.682  1.00  0.00     0.015 C 
HETATM    4  C13 UNL     1       3.922  55.107  -9.505  1.00  0.00    -0.004 C 
HETATM    5  C14 UNL     1       3.948  56.273 -10.538  1.00  0.00     0.021 C 
HETATM    6  C15 UNL     1       2.578  54.424  -9.705  1.00  0.00     0.007 C 
HETATM    7  C16 UNL     1       1.443  54.852  -9.098  1.00  0.00     0.007 C 
HETATM    8  C17 UNL     1       1.571  56.017  -8.126  1.00  0.00     0.157 C 
HETATM    9  O4  UNL     1       0.566  56.564  -7.669  1.00  0.00    -0.293 OA
HETATM   10  C18 UNL     1       2.941  56.537  -7.704  1.00  0.00     0.094 C 
HETATM   11  C19 UNL     1       4.056  55.536  -7.999  1.00  0.00    -0.022 C 
HETATM   12  C20 UNL     1       3.923  54.340  -7.002  1.00  0.00     0.017 C 
HETATM   13  C21 UNL     1       0.036  54.231  -9.308  1.00  0.00    -0.007 C 
HETATM   14  C22 UNL     1      -0.297  53.462  -8.007  1.00  0.00     0.021 C 
HETATM   15  C23 UNL     1      -1.060  55.320  -9.549  1.00  0.00     0.022 C 
HETATM   16  C24 UNL     1      -2.246  54.901 -10.418  1.00  0.00     0.080 C 
HETATM   17  C25 UNL     1      -2.472  53.411 -10.389  1.00  0.00     0.135 C 
HETATM   18  O5  UNL     1      -3.565  52.941 -10.077  1.00  0.00    -0.297 OA
HETATM   19  C26 UNL     1      -1.300  52.537 -10.849  1.00  0.00     0.018 C 
HETATM   20  C27 UNL     1      -1.386  51.154 -10.178  1.00  0.00     0.023 C 
HETATM   21  C28 UNL     1      -1.478  52.323 -12.368  1.00  0.00     0.023 C 
HETATM   22  C29 UNL     1       0.041  53.302 -10.575  1.00  0.00     0.021 C 
HETATM   23  C30 UNL     1       1.270  52.395 -10.590  1.00  0.00     0.090 C 
HETATM   24  C31 UNL     1       2.507  53.251 -10.629  1.00  0.00     0.157 C 
HETATM   25  O6  UNL     1       3.436  52.973 -11.382  1.00  0.00    -0.293 OA
ENDROOT
BRANCH   1  26
HETATM   26  C8  UNL     1       6.229  56.296  -6.580  1.00  0.00    -0.014 C 
HETATM   27  C9  UNL     1       6.206  57.763  -6.133  1.00  0.00     0.010 C 
BRANCH  26  28
HETATM   28  C7  UNL     1       7.700  55.801  -6.656  1.00  0.00     0.007 C 
BRANCH  28  29
HETATM   29  C6  UNL     1       8.329  55.542  -5.274  1.00  0.00     0.035 C 
BRANCH  29  30
HETATM   30  C5  UNL     1       9.821  55.929  -5.238  1.00  0.00     0.154 C 
BRANCH  30  31
HETATM   31  C2  UNL     1      10.132  57.279  -4.500  1.00  0.00     0.103 C 
HETATM   32  C3  UNL     1       9.255  57.466  -3.253  1.00  0.00     0.051 C 
BRANCH  31  33
HETATM   33  O1  UNL     1       9.971  58.428  -5.377  1.00  0.00    -0.381 OA
HETATM   34  C1  UNL     1      10.467  59.669  -4.898  1.00  0.00     0.202 C 
ENDBRANCH  31  33
BRANCH  31  35
HETATM   35  C4  UNL     1      11.616  57.365  -4.068  1.00  0.00     0.204 C 
BRANCH  35  36
HETATM   36  O2  UNL     1      12.452  56.766  -5.064  1.00  0.00    -0.398 OA
HETATM   37  H9  UNL     1      12.247  57.266  -5.882  1.00  0.00     0.209 HD
ENDBRANCH  35  36
ENDBRANCH  31  35
ENDBRANCH  30  31
BRANCH  30  38
HETATM   38  O3  UNL     1      10.557  54.845  -4.655  1.00  0.00    -0.392 OA
HETATM   39  H11 UNL     1      10.416  54.898  -3.686  1.00  0.00     0.210 HD
ENDBRANCH  30  38
ENDBRANCH  29  30
ENDBRANCH  28  29
ENDBRANCH  26  28
ENDBRANCH   1  26
TORSDOF 9
ENDMDL
MODEL 2
REMARK minimizedAffinity -9.59186459
REMARK CNNscore 0.522102416
REMARK CNNaffinity 7.12931824
REMARK  9 active torsions:
REMARK  status: ('A' for Active; 'I' for Inactive)
REMARK    1  A    between atoms: O1_2  and  C2_3 
REMARK    2  A    between atoms: C2_3  and  C4_5 
REMARK    3  A    between atoms: C2_3  and  C5_7 
REMARK    4  A    between atoms: C4_5  and  O2_6 
REMARK    5  A    between atoms: C5_7  and  O3_8 
REMARK    6  A    between atoms: C5_7  and  C6_9 
REMARK    7  A    between atoms: C6_9  and  C7_10 
REMARK    8  A    between atoms: C7_10  and  C8_11 
REMARK    9  A    between atoms: C8_11  and  C10_13 
ROOT
HETATM    1  C10 UNL     1      -4.058  50.411 -24.770  1.00  0.00    -0.001 C 
HETATM    2  C11 UNL     1      -5.499  50.132 -24.256  1.00  0.00     0.007 C 
HETATM    3  C12 UNL     1      -5.448  50.113 -22.719  1.00  0.00     0.015 C 
HETATM    4  C13 UNL     1      -4.079  50.719 -22.357  1.00  0.00    -0.004 C 
HETATM    5  C14 UNL     1      -4.242  52.269 -22.384  1.00  0.00     0.021 C 
HETATM    6  C15 UNL     1      -3.430  50.408 -21.017  1.00  0.00     0.007 C 
HETATM    7  C16 UNL     1      -2.088  50.450 -20.828  1.00  0.00     0.007 C 
HETATM    8  C17 UNL     1      -1.223  50.752 -22.044  1.00  0.00     0.157 C 
HETATM    9  O4  UNL     1      -0.018  50.971 -21.916  1.00  0.00    -0.293 OA
HETATM   10  C18 UNL     1      -1.828  50.796 -23.443  1.00  0.00     0.094 C 
HETATM   11  C19 UNL     1      -3.193  50.114 -23.505  1.00  0.00    -0.022 C 
HETATM   12  C20 UNL     1      -2.981  48.571 -23.373  1.00  0.00     0.017 C 
HETATM   13  C21 UNL     1      -1.375  50.199 -19.472  1.00  0.00    -0.007 C 
HETATM   14  C22 UNL     1      -0.689  48.816 -19.594  1.00  0.00     0.021 C 
HETATM   15  C23 UNL     1      -0.288  51.280 -19.167  1.00  0.00     0.022 C 
HETATM   16  C24 UNL     1      -0.029  51.577 -17.690  1.00  0.00     0.080 C 
HETATM   17  C25 UNL     1      -0.389  50.410 -16.805  1.00  0.00     0.135 C 
HETATM   18  O5  UNL     1       0.431  49.930 -16.025  1.00  0.00    -0.297 OA
HETATM   19  C26 UNL     1      -1.841  49.925 -16.877  1.00  0.00     0.018 C 
HETATM   20  C27 UNL     1      -1.911  48.433 -16.498  1.00  0.00     0.023 C 
HETATM   21  C28 UNL     1      -2.622  50.710 -15.801  1.00  0.00     0.023 C 
HETATM   22  C29 UNL     1      -2.417  50.255 -18.297  1.00  0.00     0.021 C 
HETATM   23  C30 UNL     1      -3.678  49.464 -18.639  1.00  0.00     0.090 C 
HETATM   24  C31 UNL     1      -4.315  50.067 -19.862  1.00  0.00     0.157 C 
HETATM   25  O6  UNL     1      -5.528  50.247 -19.909  1.00  0.00    -0.293 OA
ENDROOT
BRANCH   1  26
HETATM   26  C8  UNL     1      -3.764  49.670 -26.111  1.00  0.00    -0.014 C 
HETATM   27  C9  UNL     1      -4.201  48.201 -26.064  1.00  0.00     0.010 C 
BRANCH  26  28
HETATM   28  C7  UNL     1      -2.251  49.750 -26.456  1.00  0.00     0.007 C 
BRANCH  28  29
HETATM   29  C6  UNL     1      -1.900  50.918 -27.397  1.00  0.00     0.035 C 
BRANCH  29  30
HETATM   30  C5  UNL     1      -1.399  52.153 -26.623  1.00  0.00     0.154 C 
BRANCH  30  31
HETATM   31  C2  UNL     1      -0.162  52.874 -27.266  1.00  0.00     0.103 C 
HETATM   32  C3  UNL     1       0.495  52.020 -28.361  1.00  0.00     0.051 C 
BRANCH  31  33
HETATM   33  O1  UNL     1       0.836  53.233 -26.273  1.00  0.00    -0.381 OA
HETATM   34  C1  UNL     1       1.039  52.311 -25.211  1.00  0.00     0.202 C 
ENDBRANCH  31  33
BRANCH  31  35
HETATM   35  C4  UNL     1      -0.556  54.238 -27.886  1.00  0.00     0.204 C 
BRANCH  35  36
HETATM   36  O2  UNL     1      -1.795  54.116 -28.593  1.00  0.00    -0.398 OA
HETATM   37  H9  UNL     1      -2.426  53.789 -27.918  1.00  0.00     0.209 HD
ENDBRANCH  35  36
ENDBRANCH  31  35
ENDBRANCH  30  31
BRANCH  30  38
HETATM   38  O3  UNL     1      -2.496  53.062 -26.459  1.00  0.00    -0.392 OA
HETATM   39  H11 UNL     1      -2.610  53.522 -27.317  1.00  0.00     0.210 HD
ENDBRANCH  30  38
ENDBRANCH  29  30
ENDBRANCH  28  29
ENDBRANCH  26  28
ENDBRANCH   1  26
TORSDOF 9
ENDMDL
MODEL 3
REMARK minimizedAffinity -8.81278801
REMARK CNNscore 0.48771593
REMARK CNNaffinity 6.93839407
REMARK  9 active torsions:
REMARK  status: ('A' for Active; 'I' for Inactive)
REMARK    1  A    between atoms: O1_2  and  C2_3 
REMARK    2  A    between atoms: C2_3  and  C4_5 
REMARK    3  A    between atoms: C2_3  and  C5_7 
REMARK    4  A    between atoms: C4_5  and  O2_6 
REMARK    5  A    between atoms: C5_7  and  O3_8 
REMARK    6  A    between atoms: C5_7  and  C6_9 
REMARK    7  A    between atoms: C6_9  and  C7_10 
REMARK    8  A    between atoms: C7_10  and  C8_11 
REMARK    9  A    between atoms: C8_11  and  C10_13 
ROOT
HETATM    1  C10 UNL     1      -0.695  50.265 -21.773  1.00  0.00    -0.001 C 
HETATM    2  C11 UNL     1      -0.470  50.150 -20.238  1.00  0.00     0.007 C 
HETATM    3  C12 UNL     1      -1.698  49.442 -19.641  1.00  0.00     0.015 C 
HETATM    4  C13 UNL     1      -2.445  48.848 -20.851  1.00  0.00    -0.004 C 
HETATM    5  C14 UNL     1      -1.761  47.490 -21.190  1.00  0.00     0.021 C 
HETATM    6  C15 UNL     1      -3.930  48.538 -20.760  1.00  0.00     0.007 C 
HETATM    7  C16 UNL     1      -4.741  48.518 -21.848  1.00  0.00     0.007 C 
HETATM    8  C17 UNL     1      -4.120  48.900 -23.185  1.00  0.00     0.157 C 
HETATM    9  O4  UNL     1      -4.747  48.743 -24.233  1.00  0.00    -0.293 OA
HETATM   10  C18 UNL     1      -2.710  49.476 -23.256  1.00  0.00     0.094 C 
HETATM   11  C19 UNL     1      -2.226  49.995 -21.904  1.00  0.00    -0.022 C 
HETATM   12  C20 UNL     1      -3.014  51.302 -21.566  1.00  0.00     0.017 C 
HETATM   13  C21 UNL     1      -6.249  48.154 -21.824  1.00  0.00    -0.007 C 
HETATM   14  C22 UNL     1      -7.019  49.478 -22.046  1.00  0.00     0.021 C 
HETATM   15  C23 UNL     1      -6.632  47.148 -22.958  1.00  0.00     0.022 C 
HETATM   16  C24 UNL     1      -7.800  46.207 -22.659  1.00  0.00     0.080 C 
HETATM   17  C25 UNL     1      -8.742  46.783 -21.632  1.00  0.00     0.135 C 
HETATM   18  O5  UNL     1      -9.943  46.899 -21.869  1.00  0.00    -0.297 OA
HETATM   19  C26 UNL     1      -8.134  47.126 -20.268  1.00  0.00     0.018 C 
HETATM   20  C27 UNL     1      -8.951  48.248 -19.601  1.00  0.00     0.023 C 
HETATM   21  C28 UNL     1      -8.281  45.865 -19.389  1.00  0.00     0.023 C 
HETATM   22  C29 UNL     1      -6.615  47.464 -20.460  1.00  0.00     0.021 C 
HETATM   23  C30 UNL     1      -6.007  48.219 -19.280  1.00  0.00     0.090 C 
HETATM   24  C31 UNL     1      -4.509  48.219 -19.420  1.00  0.00     0.157 C 
HETATM   25  O6  UNL     1      -3.791  47.986 -18.451  1.00  0.00    -0.293 OA
ENDROOT
BRANCH   1  26
HETATM   26  C8  UNL     1      -0.078  51.573 -22.357  1.00  0.00    -0.014 C 
HETATM   27  C9  UNL     1      -0.070  52.712 -21.330  1.00  0.00     0.010 C 
BRANCH  26  28
HETATM   28  C7  UNL     1      -0.856  52.023 -23.624  1.00  0.00     0.007 C 
BRANCH  28  29
HETATM   29  C6  UNL     1      -0.445  51.259 -24.897  1.00  0.00     0.035 C 
BRANCH  29  30
HETATM   30  C5  UNL     1      -0.958  51.950 -26.175  1.00  0.00     0.154 C 
BRANCH  30  31
HETATM   31  C2  UNL     1       0.166  52.533 -27.104  1.00  0.00     0.103 C 
HETATM   32  C3  UNL     1       0.429  51.631 -28.320  1.00  0.00     0.051 C 
BRANCH  31  33
HETATM   33  O1  UNL     1       1.411  52.744 -26.384  1.00  0.00    -0.381 OA
HETATM   34  C1  UNL     1       2.473  51.845 -26.670  1.00  0.00     0.202 C 
ENDBRANCH  31  33
BRANCH  31  35
HETATM   35  C4  UNL     1      -0.195  53.948 -27.618  1.00  0.00     0.204 C 
BRANCH  35  36
HETATM   36  O2  UNL     1      -1.465  53.921 -28.279  1.00  0.00    -0.398 OA
HETATM   37  H9  UNL     1      -2.081  53.575 -27.600  1.00  0.00     0.209 HD
ENDBRANCH  35  36
ENDBRANCH  31  35
ENDBRANCH  30  31
BRANCH  30  38
HETATM   38  O3  UNL     1      -1.786  51.024 -26.892  1.00  0.00    -0.392 OA
HETATM   39  H11 UNL     1      -1.181  50.402 -27.350  1.00  0.00     0.210 HD
ENDBRANCH  30  38
ENDBRANCH  29  30
ENDBRANCH  28  29
ENDBRANCH  26  28
ENDBRANCH   1  26
TORSDOF 9
ENDMDL
MODEL 4
REMARK minimizedAffinity -6.61574507
REMARK CNNscore 0.450863779
REMARK CNNaffinity 6.35019922
REMARK  9 active torsions:
REMARK  status: ('A' for Active; 'I' for Inactive)
REMARK    1  A    between atoms: O1_2  and  C2_3 
REMARK    2  A    between atoms: C2_3  and  C4_5 
REMARK    3  A    between atoms: C2_3  and  C5_7 
REMARK    4  A    between atoms: C4_5  and  O2_6 
REMARK    5  A    between atoms: C5_7  and  O3_8 
REMARK    6  A    between atoms: C5_7  and  C6_9 
REMARK    7  A    between atoms: C6_9  and  C7_10 
REMARK    8  A    between atoms: C7_10  and  C8_11 
REMARK    9  A    between atoms: C8_11  and  C10_13 
ROOT
HETATM    1  C10 UNL     1      -1.624  52.339 -11.206  1.00  0.00    -0.001 C 
HETATM    2  C11 UNL     1      -0.553  52.578 -12.308  1.00  0.00     0.007 C 
HETATM    3  C12 UNL     1       0.611  53.351 -11.666  1.00  0.00     0.015 C 
HETATM    4  C13 UNL     1       0.370  53.247 -10.148  1.00  0.00    -0.004 C 
HETATM    5  C14 UNL     1       0.955  51.879  -9.684  1.00  0.00     0.021 C 
HETATM    6  C15 UNL     1       0.965  54.279  -9.203  1.00  0.00     0.007 C 
HETATM    7  C16 UNL     1       0.415  54.569  -7.997  1.00  0.00     0.007 C 
HETATM    8  C17 UNL     1      -0.890  53.869  -7.641  1.00  0.00     0.157 C 
HETATM    9  O4  UNL     1      -1.355  53.954  -6.504  1.00  0.00    -0.293 OA
HETATM   10  C18 UNL     1      -1.643  53.044  -8.679  1.00  0.00     0.094 C 
HETATM   11  C19 UNL     1      -1.198  53.360 -10.105  1.00  0.00    -0.022 C 
HETATM   12  C20 UNL     1      -1.724  54.782 -10.484  1.00  0.00     0.017 C 
HETATM   13  C21 UNL     1       1.008  55.569  -6.969  1.00  0.00    -0.007 C 
HETATM   14  C22 UNL     1       0.086  56.812  -6.992  1.00  0.00     0.021 C 
HETATM   15  C23 UNL     1       1.032  54.982  -5.520  1.00  0.00     0.022 C 
HETATM   16  C24 UNL     1       2.145  55.492  -4.605  1.00  0.00     0.080 C 
HETATM   17  C25 UNL     1       2.633  56.859  -5.013  1.00  0.00     0.135 C 
HETATM   18  O5  UNL     1       2.644  57.793  -4.213  1.00  0.00    -0.297 OA
HETATM   19  C26 UNL     1       3.184  56.986  -6.437  1.00  0.00     0.018 C 
HETATM   20  C27 UNL     1       3.016  58.435  -6.933  1.00  0.00     0.023 C 
HETATM   21  C28 UNL     1       4.699  56.703  -6.351  1.00  0.00     0.023 C 
HETATM   22  C29 UNL     1       2.494  55.912  -7.346  1.00  0.00     0.021 C 
HETATM   23  C30 UNL     1       2.631  56.202  -8.840  1.00  0.00     0.090 C 
HETATM   24  C31 UNL     1       2.219  54.980  -9.614  1.00  0.00     0.157 C 
HETATM   25  O6  UNL     1       2.886  54.591 -10.569  1.00  0.00    -0.293 OA
ENDROOT
BRANCH   1  26
HETATM   26  C8  UNL     1      -3.072  52.370 -11.784  1.00  0.00    -0.014 C 
HETATM   27  C9  UNL     1      -3.952  51.263 -11.191  1.00  0.00     0.010 C 
BRANCH  26  28
HETATM   28  C7  UNL     1      -3.042  52.236 -13.332  1.00  0.00     0.007 C 
BRANCH  28  29
HETATM   29  C6  UNL     1      -3.040  50.775 -13.818  1.00  0.00     0.035 C 
BRANCH  29  30
HETATM   30  C5  UNL     1      -2.537  50.651 -15.270  1.00  0.00     0.154 C 
BRANCH  30  31
HETATM   31  C2  UNL     1      -1.079  50.087 -15.414  1.00  0.00     0.103 C 
HETATM   32  C3  UNL     1      -0.688  49.197 -14.224  1.00  0.00     0.051 C 
BRANCH  31  33
HETATM   33  O1  UNL     1      -0.097  51.149 -15.562  1.00  0.00    -0.381 OA
HETATM   34  C1  UNL     1       0.688  51.130 -16.746  1.00  0.00     0.202 C 
ENDBRANCH  31  33
BRANCH  31  35
HETATM   35  C4  UNL     1      -0.911  49.261 -16.713  1.00  0.00     0.204 C 
BRANCH  35  36
HETATM   36  O2  UNL     1      -1.384  47.925 -16.509  1.00  0.00    -0.398 OA
HETATM   37  H9  UNL     1      -2.317  48.041 -16.229  1.00  0.00     0.209 HD
ENDBRANCH  35  36
ENDBRANCH  31  35
ENDBRANCH  30  31
BRANCH  30  38
HETATM   38  O3  UNL     1      -3.471  49.851 -16.008  1.00  0.00    -0.392 OA
HETATM   39  H11 UNL     1      -3.298  48.917 -15.762  1.00  0.00     0.210 HD
ENDBRANCH  30  38
ENDBRANCH  29  30
ENDBRANCH  28  29
ENDBRANCH  26  28
ENDBRANCH   1  26
TORSDOF 9
ENDMDL
MODEL 5
REMARK minimizedAffinity -7.82101488
REMARK CNNscore 0.435305506
REMARK CNNaffinity 6.54352999
REMARK  9 active torsions:
REMARK  status: ('A' for Active; 'I' for Inactive)
REMARK    1  A    between atoms: O1_2  and  C2_3 
REMARK    2  A    between atoms: C2_3  and  C4_5 
REMARK    3  A    between atoms: C2_3  and  C5_7 
REMARK    4  A    between atoms: C4_5  and  O2_6 
REMARK    5  A    between atoms: C5_7  and  O3_8 
REMARK    6  A    between atoms: C5_7  and  C6_9 
REMARK    7  A    between atoms: C6_9  and  C7_10 
REMARK    8  A    between atoms: C7_10  and  C8_11 
REMARK    9  A    between atoms: C8_11  and  C10_13 
ROOT
HETATM    1  C10 UNL     1      -3.606  48.805 -23.686  1.00  0.00    -0.001 C 
HETATM    2  C11 UNL     1      -2.776  49.575 -22.618  1.00  0.00     0.007 C 
HETATM    3  C12 UNL     1      -3.446  49.343 -21.254  1.00  0.00     0.015 C 
HETATM    4  C13 UNL     1      -4.430  48.180 -21.483  1.00  0.00    -0.004 C 
HETATM    5  C14 UNL     1      -3.613  46.859 -21.364  1.00  0.00     0.021 C 
HETATM    6  C15 UNL     1      -5.628  47.995 -20.566  1.00  0.00     0.007 C 
HETATM    7  C16 UNL     1      -6.766  47.375 -20.967  1.00  0.00     0.007 C 
HETATM    8  C17 UNL     1      -6.840  46.926 -22.420  1.00  0.00     0.157 C 
HETATM    9  O4  UNL     1      -7.765  46.213 -22.809  1.00  0.00    -0.293 OA
HETATM   10  C18 UNL     1      -5.768  47.343 -23.422  1.00  0.00     0.094 C 
HETATM   11  C19 UNL     1      -4.942  48.529 -22.928  1.00  0.00    -0.022 C 
HETATM   12  C20 UNL     1      -5.839  49.809 -22.973  1.00  0.00     0.017 C 
HETATM   13  C21 UNL     1      -7.997  47.107 -20.060  1.00  0.00    -0.007 C 
HETATM   14  C22 UNL     1      -9.102  48.084 -20.529  1.00  0.00     0.021 C 
HETATM   15  C23 UNL     1      -8.524  45.642 -20.197  1.00  0.00     0.022 C 
HETATM   16  C24 UNL     1      -9.200  45.049 -18.960  1.00  0.00     0.080 C 
HETATM   17  C25 UNL     1      -9.776  46.116 -18.064  1.00  0.00     0.135 C 
HETATM   18  O5  UNL     1     -10.960  46.094 -17.733  1.00  0.00    -0.297 OA
HETATM   19  C26 UNL     1      -8.790  47.162 -17.531  1.00  0.00     0.018 C 
HETATM   20  C27 UNL     1      -9.537  48.475 -17.231  1.00  0.00     0.023 C 
HETATM   21  C28 UNL     1      -8.255  46.619 -16.189  1.00  0.00     0.023 C 
HETATM   22  C29 UNL     1      -7.610  47.312 -18.551  1.00  0.00     0.021 C 
HETATM   23  C30 UNL     1      -6.801  48.594 -18.359  1.00  0.00     0.090 C 
HETATM   24  C31 UNL     1      -5.532  48.495 -19.161  1.00  0.00     0.157 C 
HETATM   25  O6  UNL     1      -4.459  48.841 -18.677  1.00  0.00    -0.293 OA
ENDROOT
BRANCH   1  26
HETATM   26  C8  UNL     1      -3.623  49.548 -25.057  1.00  0.00    -0.014 C 
HETATM   27  C9  UNL     1      -3.061  48.678 -26.188  1.00  0.00     0.010 C 
BRANCH  26  28
HETATM   28  C7  UNL     1      -2.812  50.870 -24.969  1.00  0.00     0.007 C 
BRANCH  28  29
HETATM   29  C6  UNL     1      -1.425  50.782 -25.632  1.00  0.00     0.035 C 
BRANCH  29  30
HETATM   30  C5  UNL     1      -0.614  52.080 -25.449  1.00  0.00     0.154 C 
BRANCH  30  31
HETATM   31  C2  UNL     1       0.285  52.472 -26.675  1.00  0.00     0.103 C 
HETATM   32  C3  UNL     1       0.148  51.468 -27.830  1.00  0.00     0.051 C 
BRANCH  31  33
HETATM   33  O1  UNL     1       1.686  52.592 -26.307  1.00  0.00    -0.381 OA
HETATM   34  C1  UNL     1       2.530  51.500 -26.645  1.00  0.00     0.202 C 
ENDBRANCH  31  33
BRANCH  31  35
HETATM   35  C4  UNL     1      -0.066  53.881 -27.212  1.00  0.00     0.204 C 
BRANCH  35  36
HETATM   36  O2  UNL     1      -1.333  53.851 -27.879  1.00  0.00    -0.398 OA
HETATM   37  H9  UNL     1      -1.955  53.519 -27.198  1.00  0.00     0.209 HD
ENDBRANCH  35  36
ENDBRANCH  31  35
ENDBRANCH  30  31
BRANCH  30  38
HETATM   38  O3  UNL     1      -1.521  53.140 -25.119  1.00  0.00    -0.392 OA
HETATM   39  H11 UNL     1      -1.955  53.410 -25.956  1.00  0.00     0.210 HD
ENDBRANCH  30  38
ENDBRANCH  29  30
ENDBRANCH  28  29
ENDBRANCH  26  28
ENDBRANCH   1  26
TORSDOF 9
ENDMDL
MODEL 6
REMARK minimizedAffinity -8.45853519
REMARK CNNscore 0.421062559
REMARK CNNaffinity 6.66786766
REMARK  9 active torsions:
REMARK  status: ('A' for Active; 'I' for Inactive)
REMARK    1  A    between atoms: O1_2  and  C2_3 
REMARK    2  A    between atoms: C2_3  and  C4_5 
REMARK    3  A    between atoms: C2_3  and  C5_7 
REMARK    4  A    between atoms: C4_5  and  O2_6 
REMARK    5  A    between atoms: C5_7  and  O3_8 
REMARK    6  A    between atoms: C5_7  and  C6_9 
REMARK    7  A    between atoms: C6_9  and  C7_10 
REMARK    8  A    between atoms: C7_10  and  C8_11 
REMARK    9  A    between atoms: C8_11  and  C10_13 
ROOT
HETATM    1  C10 UNL     1      -4.230  49.627 -22.634  1.00  0.00    -0.001 C 
HETATM    2  C11 UNL     1      -4.682  48.140 -22.686  1.00  0.00     0.007 C 
HETATM    3  C12 UNL     1      -4.568  47.570 -21.263  1.00  0.00     0.015 C 
HETATM    4  C13 UNL     1      -4.394  48.800 -20.352  1.00  0.00    -0.004 C 
HETATM    5  C14 UNL     1      -5.818  49.364 -20.067  1.00  0.00     0.021 C 
HETATM    6  C15 UNL     1      -3.738  48.659 -18.988  1.00  0.00     0.007 C 
HETATM    7  C16 UNL     1      -3.097  49.687 -18.375  1.00  0.00     0.007 C 
HETATM    8  C17 UNL     1      -2.985  50.995 -19.146  1.00  0.00     0.157 C 
HETATM    9  O4  UNL     1      -2.569  52.013 -18.592  1.00  0.00    -0.293 OA
HETATM   10  C18 UNL     1      -3.391  51.075 -20.614  1.00  0.00     0.094 C 
HETATM   11  C19 UNL     1      -3.482  49.697 -21.266  1.00  0.00    -0.022 C 
HETATM   12  C20 UNL     1      -2.034  49.134 -21.437  1.00  0.00     0.017 C 
HETATM   13  C21 UNL     1      -2.460  49.618 -16.962  1.00  0.00    -0.007 C 
HETATM   14  C22 UNL     1      -0.927  49.608 -17.177  1.00  0.00     0.021 C 
HETATM   15  C23 UNL     1      -2.840  50.853 -16.082  1.00  0.00     0.022 C 
HETATM   16  C24 UNL     1      -2.899  50.613 -14.573  1.00  0.00     0.080 C 
HETATM   17  C25 UNL     1      -2.026  49.460 -14.148  1.00  0.00     0.135 C 
HETATM   18  O5  UNL     1      -1.165  49.603 -13.282  1.00  0.00    -0.297 OA
HETATM   19  C26 UNL     1      -2.332  48.102 -14.790  1.00  0.00     0.018 C 
HETATM   20  C27 UNL     1      -1.057  47.238 -14.813  1.00  0.00     0.023 C 
HETATM   21  C28 UNL     1      -3.350  47.398 -13.868  1.00  0.00     0.023 C 
HETATM   22  C29 UNL     1      -2.972  48.341 -16.201  1.00  0.00     0.021 C 
HETATM   23  C30 UNL     1      -2.931  47.109 -17.102  1.00  0.00     0.090 C 
HETATM   24  C31 UNL     1      -3.828  47.342 -18.288  1.00  0.00     0.157 C 
HETATM   25  O6  UNL     1      -4.590  46.461 -18.676  1.00  0.00    -0.293 OA
ENDROOT
BRANCH   1  26
HETATM   26  C8  UNL     1      -3.507  50.063 -23.945  1.00  0.00    -0.014 C 
HETATM   27  C9  UNL     1      -2.897  48.869 -24.689  1.00  0.00     0.010 C 
BRANCH  26  28
HETATM   28  C7  UNL     1      -2.394  51.101 -23.632  1.00  0.00     0.007 C 
BRANCH  28  29
HETATM   29  C6  UNL     1      -1.209  51.042 -24.615  1.00  0.00     0.035 C 
BRANCH  29  30
HETATM   30  C5  UNL     1      -0.870  52.431 -25.192  1.00  0.00     0.154 C 
BRANCH  30  31
HETATM   31  C2  UNL     1       0.169  52.416 -26.370  1.00  0.00     0.103 C 
HETATM   32  C3  UNL     1      -0.038  51.212 -27.301  1.00  0.00     0.051 C 
BRANCH  31  33
HETATM   33  O1  UNL     1       1.540  52.420 -25.887  1.00  0.00    -0.381 OA
HETATM   34  C1  UNL     1       2.465  51.601 -26.588  1.00  0.00     0.202 C 
ENDBRANCH  31  33
BRANCH  31  35
HETATM   35  C4  UNL     1       0.086  53.708 -27.220  1.00  0.00     0.204 C 
BRANCH  35  36
HETATM   36  O2  UNL     1       0.165  54.859 -26.372  1.00  0.00    -0.398 OA
HETATM   37  H9  UNL     1       1.016  54.749 -25.898  1.00  0.00     0.209 HD
ENDBRANCH  35  36
ENDBRANCH  31  35
ENDBRANCH  30  31
BRANCH  30  38
HETATM   38  O3  UNL     1      -2.091  53.067 -25.593  1.00  0.00    -0.392 OA
HETATM   39  H11 UNL     1      -2.351  52.664 -26.449  1.00  0.00     0.210 HD
ENDBRANCH  30  38
ENDBRANCH  29  30
ENDBRANCH  28  29
ENDBRANCH  26  28
ENDBRANCH   1  26
TORSDOF 9
ENDMDL
MODEL 7
REMARK minimizedAffinity -7.87737083
REMARK CNNscore 0.419894069
REMARK CNNaffinity 7.10533142
REMARK  9 active torsions:
REMARK  status: ('A' for Active; 'I' for Inactive)
REMARK    1  A    between atoms: O1_2  and  C2_3 
REMARK    2  A    between atoms: C2_3  and  C4_5 
REMARK    3  A    between atoms: C2_3  and  C5_7 
REMARK    4  A    between atoms: C4_5  and  O2_6 
REMARK    5  A    between atoms: C5_7  and  O3_8 
REMARK    6  A    between atoms: C5_7  and  C6_9 
REMARK    7  A    between atoms: C6_9  and  C7_10 
REMARK    8  A    between atoms: C7_10  and  C8_11 
REMARK    9  A    between atoms: C8_11  and  C10_13 
ROOT
HETATM    1  C10 UNL     1      -4.798  49.394 -25.425  1.00  0.00    -0.001 C 
HETATM    2  C11 UNL     1      -5.912  49.369 -24.339  1.00  0.00     0.007 C 
HETATM    3  C12 UNL     1      -5.357  50.074 -23.089  1.00  0.00     0.015 C 
HETATM    4  C13 UNL     1      -4.085  50.797 -23.570  1.00  0.00    -0.004 C 
HETATM    5  C14 UNL     1      -4.536  52.151 -24.196  1.00  0.00     0.021 C 
HETATM    6  C15 UNL     1      -2.987  51.159 -22.582  1.00  0.00     0.007 C 
HETATM    7  C16 UNL     1      -1.690  51.304 -22.952  1.00  0.00     0.007 C 
HETATM    8  C17 UNL     1      -1.344  51.012 -24.406  1.00  0.00     0.157 C 
HETATM    9  O4  UNL     1      -0.228  51.282 -24.849  1.00  0.00    -0.293 OA
HETATM   10  C18 UNL     1      -2.372  50.387 -25.343  1.00  0.00     0.094 C 
HETATM   11  C19 UNL     1      -3.527  49.736 -24.586  1.00  0.00    -0.022 C 
HETATM   12  C20 UNL     1      -2.997  48.438 -23.895  1.00  0.00     0.017 C 
HETATM   13  C21 UNL     1      -0.538  51.726 -22.001  1.00  0.00    -0.007 C 
HETATM   14  C22 UNL     1       0.317  50.457 -21.766  1.00  0.00     0.021 C 
HETATM   15  C23 UNL     1       0.365  52.839 -22.625  1.00  0.00     0.022 C 
HETATM   16  C24 UNL     1       1.033  53.797 -21.638  1.00  0.00     0.080 C 
HETATM   17  C25 UNL     1       1.209  53.176 -20.276  1.00  0.00     0.135 C 
HETATM   18  O5  UNL     1       2.315  53.128 -19.739  1.00  0.00    -0.297 OA
HETATM   19  C26 UNL     1      -0.067  52.694 -19.578  1.00  0.00     0.018 C 
HETATM   20  C27 UNL     1       0.273  51.553 -18.601  1.00  0.00     0.023 C 
HETATM   21  C28 UNL     1      -0.585  53.881 -18.738  1.00  0.00     0.023 C 
HETATM   22  C29 UNL     1      -1.128  52.312 -20.667  1.00  0.00     0.021 C 
HETATM   23  C30 UNL     1      -2.259  51.436 -20.132  1.00  0.00     0.090 C 
HETATM   24  C31 UNL     1      -3.363  51.387 -21.154  1.00  0.00     0.157 C 
HETATM   25  O6  UNL     1      -4.536  51.507 -20.811  1.00  0.00    -0.293 OA
ENDROOT
BRANCH   1  26
HETATM   26  C8  UNL     1      -4.827  48.116 -26.318  1.00  0.00    -0.014 C 
HETATM   27  C9  UNL     1      -3.924  48.255 -27.550  1.00  0.00     0.010 C 
BRANCH  26  28
HETATM   28  C7  UNL     1      -6.279  47.804 -26.773  1.00  0.00     0.007 C 
BRANCH  28  29
HETATM   29  C6  UNL     1      -6.364  47.242 -28.204  1.00  0.00     0.035 C 
BRANCH  29  30
HETATM   30  C5  UNL     1      -6.742  48.329 -29.229  1.00  0.00     0.154 C 
BRANCH  30  31
HETATM   31  C2  UNL     1      -6.711  47.859 -30.727  1.00  0.00     0.103 C 
HETATM   32  C3  UNL     1      -5.363  48.165 -31.397  1.00  0.00     0.051 C 
BRANCH  31  33
HETATM   33  O1  UNL     1      -7.782  48.457 -31.507  1.00  0.00    -0.381 OA
HETATM   34  C1  UNL     1      -8.302  47.680 -32.577  1.00  0.00     0.202 C 
ENDBRANCH  31  33
BRANCH  31  35
HETATM   35  C4  UNL     1      -6.982  46.339 -30.854  1.00  0.00     0.204 C 
BRANCH  35  36
HETATM   36  O2  UNL     1      -5.792  45.661 -31.270  1.00  0.00    -0.398 OA
HETATM   37  H9  UNL     1      -5.132  45.892 -30.581  1.00  0.00     0.209 HD
ENDBRANCH  35  36
ENDBRANCH  31  35
ENDBRANCH  30  31
BRANCH  30  38
HETATM   38  O3  UNL     1      -8.031  48.852 -28.883  1.00  0.00    -0.392 OA
HETATM   39  H11 UNL     1      -8.693  48.195 -29.186  1.00  0.00     0.210 HD
ENDBRANCH  30  38
ENDBRANCH  29  30
ENDBRANCH  28  29
ENDBRANCH  26  28
ENDBRANCH   1  26
TORSDOF 9
ENDMDL
MODEL 8
REMARK minimizedAffinity -6.86927032
REMARK CNNscore 0.413083524
REMARK CNNaffinity 6.67076302
REMARK  9 active torsions:
REMARK  status: ('A' for Active; 'I' for Inactive)
REMARK    1  A    between atoms: O1_2  and  C2_3 
REMARK    2  A    between atoms: C2_3  and  C4_5 
REMARK    3  A    between atoms: C2_3  and  C5_7 
REMARK    4  A    between atoms: C4_5  and  O2_6 
REMARK    5  A    between atoms: C5_7  and  O3_8 
REMARK    6  A    between atoms: C5_7  and  C6_9 
REMARK    7  A    between atoms: C6_9  and  C7_10 
REMARK    8  A    between atoms: C7_10  and  C8_11 
REMARK    9  A    between atoms: C8_11  and  C10_13 
ROOT
HETATM    1  C10 UNL     1      -1.788  49.157 -18.170  1.00  0.00    -0.001 C 
HETATM    2  C11 UNL     1      -2.779  48.047 -18.625  1.00  0.00     0.007 C 
HETATM    3  C12 UNL     1      -2.900  48.132 -20.156  1.00  0.00     0.015 C 
HETATM    4  C13 UNL     1      -1.735  49.037 -20.600  1.00  0.00    -0.004 C 
HETATM    5  C14 UNL     1      -0.468  48.136 -20.699  1.00  0.00     0.021 C 
HETATM    6  C15 UNL     1      -1.802  49.782 -21.923  1.00  0.00     0.007 C 
HETATM    7  C16 UNL     1      -1.125  50.936 -22.148  1.00  0.00     0.007 C 
HETATM    8  C17 UNL     1      -0.336  51.517 -20.982  1.00  0.00     0.157 C 
HETATM    9  O4  UNL     1       0.433  52.463 -21.157  1.00  0.00    -0.293 OA
HETATM   10  C18 UNL     1      -0.475  50.939 -19.578  1.00  0.00     0.094 C 
HETATM   11  C19 UNL     1      -1.730  50.082 -19.426  1.00  0.00    -0.022 C 
HETATM   12  C20 UNL     1      -2.976  51.025 -19.433  1.00  0.00     0.017 C 
HETATM   13  C21 UNL     1      -1.110  51.708 -23.494  1.00  0.00    -0.007 C 
HETATM   14  C22 UNL     1      -1.963  52.981 -23.273  1.00  0.00     0.021 C 
HETATM   15  C23 UNL     1       0.334  52.133 -23.915  1.00  0.00     0.022 C 
HETATM   16  C24 UNL     1       0.593  52.244 -25.418  1.00  0.00     0.080 C 
HETATM   17  C25 UNL     1      -0.671  52.519 -26.192  1.00  0.00     0.135 C 
HETATM   18  O5  UNL     1      -0.753  53.486 -26.948  1.00  0.00    -0.297 OA
HETATM   19  C26 UNL     1      -1.796  51.490 -26.045  1.00  0.00     0.018 C 
HETATM   20  C27 UNL     1      -3.157  52.166 -26.295  1.00  0.00     0.023 C 
HETATM   21  C28 UNL     1      -1.588  50.447 -27.164  1.00  0.00     0.023 C 
HETATM   22  C29 UNL     1      -1.671  50.797 -24.645  1.00  0.00     0.021 C 
HETATM   23  C30 UNL     1      -2.945  50.077 -24.207  1.00  0.00     0.090 C 
HETATM   24  C31 UNL     1      -2.629  49.202 -23.025  1.00  0.00     0.157 C 
HETATM   25  O6  UNL     1      -3.063  48.055 -22.964  1.00  0.00    -0.293 OA
ENDROOT
BRANCH   1  26
HETATM   26  C8  UNL     1      -2.172  49.747 -16.779  1.00  0.00    -0.014 C 
HETATM   27  C9  UNL     1      -0.951  50.292 -16.028  1.00  0.00     0.010 C 
BRANCH  26  28
HETATM   28  C7  UNL     1      -2.878  48.671 -15.909  1.00  0.00     0.007 C 
BRANCH  28  29
HETATM   29  C6  UNL     1      -2.145  48.378 -14.586  1.00  0.00     0.035 C 
BRANCH  29  30
HETATM   30  C5  UNL     1      -3.040  48.642 -13.360  1.00  0.00     0.154 C 
BRANCH  30  31
HETATM   31  C2  UNL     1      -3.543  47.351 -12.622  1.00  0.00     0.103 C 
HETATM   32  C3  UNL     1      -2.761  46.102 -13.055  1.00  0.00     0.051 C 
BRANCH  31  33
HETATM   33  O1  UNL     1      -4.964  47.124 -12.830  1.00  0.00    -0.381 OA
HETATM   34  C1  UNL     1      -5.319  46.181 -13.832  1.00  0.00     0.202 C 
ENDBRANCH  31  33
BRANCH  31  35
HETATM   35  C4  UNL     1      -3.425  47.489 -11.084  1.00  0.00     0.204 C 
BRANCH  35  36
HETATM   36  O2  UNL     1      -4.387  48.433 -10.601  1.00  0.00    -0.398 OA
HETATM   37  H9  UNL     1      -5.248  48.074 -10.903  1.00  0.00     0.209 HD
ENDBRANCH  35  36
ENDBRANCH  31  35
ENDBRANCH  30  31
BRANCH  30  38
HETATM   38  O3  UNL     1      -2.333  49.505 -12.458  1.00  0.00    -0.392 OA
HETATM   39  H11 UNL     1      -1.680  48.945 -11.987  1.00  0.00     0.210 HD
ENDBRANCH  30  38
ENDBRANCH  29  30
ENDBRANCH  28  29
ENDBRANCH  26  28
ENDBRANCH   1  26
TORSDOF 9
ENDMDL
MODEL 9
REMARK minimizedAffinity -9.03068447
REMARK CNNscore 0.373561531
REMARK CNNaffinity 6.86319017
REMARK  9 active torsions:
REMARK  status: ('A' for Active; 'I' for Inactive)
REMARK    1  A    between atoms: O1_2  and  C2_3 
REMARK    2  A    between atoms: C2_3  and  C4_5 
REMARK    3  A    between atoms: C2_3  and  C5_7 
REMARK    4  A    between atoms: C4_5  and  O2_6 
REMARK    5  A    between atoms: C5_7  and  O3_8 
REMARK    6  A    between atoms: C5_7  and  C6_9 
REMARK    7  A    between atoms: C6_9  and  C7_10 
REMARK    8  A    between atoms: C7_10  and  C8_11 
REMARK    9  A    between atoms: C8_11  and  C10_13 
ROOT
HETATM    1  C10 UNL     1      -2.240  50.855 -22.294  1.00  0.00    -0.001 C 
HETATM    2  C11 UNL     1      -1.467  52.179 -22.558  1.00  0.00     0.007 C 
HETATM    3  C12 UNL     1      -0.574  52.446 -21.334  1.00  0.00     0.015 C 
HETATM    4  C13 UNL     1      -0.571  51.124 -20.545  1.00  0.00    -0.004 C 
HETATM    5  C14 UNL     1       0.507  50.205 -21.194  1.00  0.00     0.021 C 
HETATM    6  C15 UNL     1      -0.259  51.118 -19.056  1.00  0.00     0.007 C 
HETATM    7  C16 UNL     1      -0.718  50.156 -18.217  1.00  0.00     0.007 C 
HETATM    8  C17 UNL     1      -1.641  49.100 -18.808  1.00  0.00     0.157 C 
HETATM    9  O4  UNL     1      -1.960  48.109 -18.151  1.00  0.00    -0.293 OA
HETATM   10  C18 UNL     1      -2.185  49.241 -20.226  1.00  0.00     0.094 C 
HETATM   11  C19 UNL     1      -2.061  50.669 -20.755  1.00  0.00    -0.022 C 
HETATM   12  C20 UNL     1      -3.093  51.567 -20.000  1.00  0.00     0.017 C 
HETATM   13  C21 UNL     1      -0.386  50.068 -16.704  1.00  0.00    -0.007 C 
HETATM   14  C22 UNL     1      -1.678  50.469 -15.952  1.00  0.00     0.021 C 
HETATM   15  C23 UNL     1       0.023  48.622 -16.273  1.00  0.00     0.022 C 
HETATM   16  C24 UNL     1       0.995  48.518 -15.097  1.00  0.00     0.080 C 
HETATM   17  C25 UNL     1       0.921  49.723 -14.192  1.00  0.00     0.135 C 
HETATM   18  O5  UNL     1       0.707  49.599 -12.988  1.00  0.00    -0.297 OA
HETATM   19  C26 UNL     1       1.209  51.080 -14.843  1.00  0.00     0.018 C 
HETATM   20  C27 UNL     1       0.486  52.195 -14.065  1.00  0.00     0.023 C 
HETATM   21  C28 UNL     1       2.726  51.326 -14.697  1.00  0.00     0.023 C 
HETATM   22  C29 UNL     1       0.828  51.005 -16.362  1.00  0.00     0.021 C 
HETATM   23  C30 UNL     1       0.666  52.377 -17.015  1.00  0.00     0.090 C 
HETATM   24  C31 UNL     1       0.611  52.203 -18.509  1.00  0.00     0.157 C 
HETATM   25  O6  UNL     1       1.245  52.950 -19.248  1.00  0.00    -0.293 OA
ENDROOT
BRANCH   1  26
HETATM   26  C8  UNL     1      -3.669  50.880 -22.918  1.00  0.00    -0.014 C 
HETATM   27  C9  UNL     1      -4.151  49.477 -23.308  1.00  0.00     0.010 C 
BRANCH  26  28
HETATM   28  C7  UNL     1      -3.700  51.804 -24.167  1.00  0.00     0.007 C 
BRANCH  28  29
HETATM   29  C6  UNL     1      -3.308  51.084 -25.470  1.00  0.00     0.035 C 
BRANCH  29  30
HETATM   30  C5  UNL     1      -2.822  52.070 -26.551  1.00  0.00     0.154 C 
BRANCH  30  31
HETATM   31  C2  UNL     1      -1.314  52.490 -26.426  1.00  0.00     0.103 C 
HETATM   32  C3  UNL     1      -0.413  51.296 -26.080  1.00  0.00     0.051 C 
BRANCH  31  33
HETATM   33  O1  UNL     1      -1.122  53.540 -25.439  1.00  0.00    -0.381 OA
HETATM   34  C1  UNL     1       0.214  53.972 -25.221  1.00  0.00     0.202 C 
ENDBRANCH  31  33
BRANCH  31  35
HETATM   35  C4  UNL     1      -0.791  53.131 -27.735  1.00  0.00     0.204 C 
BRANCH  35  36
HETATM   36  O2  UNL     1      -1.808  53.951 -28.321  1.00  0.00    -0.398 OA
HETATM   37  H9  UNL     1      -2.026  54.600 -27.620  1.00  0.00     0.209 HD
ENDBRANCH  35  36
ENDBRANCH  31  35
ENDBRANCH  30  31
BRANCH  30  38
HETATM   38  O3  UNL     1      -3.090  51.500 -27.839  1.00  0.00    -0.392 OA
HETATM   39  H11 UNL     1      -2.396  50.826 -28.000  1.00  0.00     0.210 HD
ENDBRANCH  30  38
ENDBRANCH  29  30
ENDBRANCH  28  29
ENDBRANCH  26  28
ENDBRANCH   1  26
TORSDOF 9
ENDMDL
