MODEL 1
REMARK minimizedAffinity -9.53245258
REMARK  4 active torsions:
REMARK  status: ('A' for Active; 'I' for Inactive)
REMARK    1  A    between atoms: C4_4  and  C5_5 
REMARK    2  A    between atoms: C5_5  and  C6_7 
REMARK    3  A    between atoms: C6_7  and  C7_8 
REMARK    4  A    between atoms: C7_8  and  C8_9 
ROOT
HETATM    1  C8  UNL     1      -6.440   6.875  14.352  1.00  0.00     0.028 C 
HETATM    2  C9  UNL     1      -6.399   8.313  14.952  1.00  0.00     0.009 C 
HETATM    3  C10 UNL     1      -4.921   8.712  15.070  1.00  0.00     0.011 C 
HETATM    4  C11 UNL     1      -4.213   7.883  13.987  1.00  0.00    -0.032 C 
HETATM    5  C12 UNL     1      -4.567   8.548  12.611  1.00  0.00     0.016 C 
HETATM    6  C13 UNL     1      -4.941   6.523  14.179  1.00  0.00     0.001 C 
HETATM    7  C14 UNL     1      -4.534   5.559  13.066  1.00  0.00     0.006 C 
HETATM    8  C15 UNL     1      -3.011   5.339  13.071  1.00  0.00     0.006 C 
HETATM    9  C16 UNL     1      -2.172   6.652  13.029  1.00  0.00     0.003 C 
HETATM   10  C17 UNL     1      -0.601   6.422  12.892  1.00  0.00    -0.035 C 
HETATM   11  C18 UNL     1      -0.128   5.290  13.843  1.00  0.00     0.016 C 
HETATM   12  C19 UNL     1      -0.296   5.906  11.443  1.00  0.00     0.017 C 
HETATM   13  C20 UNL     1      -0.002   7.005  10.436  1.00  0.00     0.080 C 
HETATM   14  C21 UNL     1       1.215   7.803  10.840  1.00  0.00     0.135 C 
HETATM   15  O2  UNL     1       1.916   8.336   9.976  1.00  0.00    -0.297 OA
HETATM   16  C22 UNL     1       1.524   7.939  12.335  1.00  0.00     0.017 C 
HETATM   17  C23 UNL     1       2.599   6.895  12.695  1.00  0.00     0.023 C 
HETATM   18  C24 UNL     1       2.173   9.324  12.578  1.00  0.00     0.023 C 
HETATM   19  C25 UNL     1       0.198   7.763  13.178  1.00  0.00     0.009 C 
HETATM   20  C26 UNL     1      -0.727   9.002  13.033  1.00  0.00     0.007 C 
HETATM   21  C27 UNL     1      -1.879   9.015  14.029  1.00  0.00     0.011 C 
HETATM   22  C28 UNL     1      -2.638   7.669  14.152  1.00  0.00    -0.032 C 
HETATM   23  C29 UNL     1      -2.287   7.128  15.569  1.00  0.00     0.016 C 
ENDROOT
BRANCH   1  24
HETATM   24  C7  UNL     1      -7.238   5.863  15.186  1.00  0.00     0.093 A 
HETATM   25  C30 UNL     1      -8.489   6.334  15.925  1.00  0.00     0.207 A 
HETATM   26  O3  UNL     1      -7.239   6.117  16.600  1.00  0.00    -0.374 OA
BRANCH  24  27
HETATM   27  C6  UNL     1      -7.093   4.399  14.819  1.00  0.00     0.123 C 
BRANCH  27  28
HETATM   28  C5  UNL     1      -7.657   3.966  13.486  1.00  0.00     0.152 C 
HETATM   29  O1  UNL     1      -8.444   4.694  12.873  1.00  0.00    -0.293 OA
BRANCH  28  30
HETATM   30  C4  UNL     1      -7.239   2.698  12.812  1.00  0.00     0.052 C 
HETATM   31  C2  UNL     1      -6.397   2.425  11.797  1.00  0.00    -0.084 C 
HETATM   32  C1  UNL     1      -6.248   0.996  11.323  1.00  0.00     0.043 C 
HETATM   33  C3  UNL     1      -5.522   3.392  11.049  1.00  0.00     0.043 C 
ENDBRANCH  28  30
ENDBRANCH  27  28
ENDBRANCH  24  27
ENDBRANCH   1  24
TORSDOF 4
ENDMDL
MODEL 2
REMARK minimizedAffinity -8.97240734
REMARK  4 active torsions:
REMARK  status: ('A' for Active; 'I' for Inactive)
REMARK    1  A    between atoms: C4_4  and  C5_5 
REMARK    2  A    between atoms: C5_5  and  C6_7 
REMARK    3  A    between atoms: C6_7  and  C7_8 
REMARK    4  A    between atoms: C7_8  and  C8_9 
ROOT
HETATM    1  C8  UNL     1      -6.280   6.721  14.337  1.00  0.00     0.028 C 
HETATM    2  C9  UNL     1      -6.210   8.102  15.058  1.00  0.00     0.009 C 
HETATM    3  C10 UNL     1      -4.727   8.487  15.153  1.00  0.00     0.011 C 
HETATM    4  C11 UNL     1      -4.064   7.754  13.976  1.00  0.00    -0.032 C 
HETATM    5  C12 UNL     1      -4.466   8.536  12.678  1.00  0.00     0.016 C 
HETATM    6  C13 UNL     1      -4.790   6.383  14.078  1.00  0.00     0.001 C 
HETATM    7  C14 UNL     1      -4.431   5.519  12.871  1.00  0.00     0.006 C 
HETATM    8  C15 UNL     1      -2.910   5.297  12.799  1.00  0.00     0.006 C 
HETATM    9  C16 UNL     1      -2.066   6.607  12.839  1.00  0.00     0.003 C 
HETATM   10  C17 UNL     1      -0.502   6.388  12.623  1.00  0.00    -0.035 C 
HETATM   11  C18 UNL     1      -0.000   5.177  13.454  1.00  0.00     0.016 C 
HETATM   12  C19 UNL     1      -0.255   6.000  11.124  1.00  0.00     0.017 C 
HETATM   13  C20 UNL     1       0.006   7.181  10.206  1.00  0.00     0.080 C 
HETATM   14  C21 UNL     1       1.241   7.940  10.630  1.00  0.00     0.135 C 
HETATM   15  O2  UNL     1       1.912   8.544   9.790  1.00  0.00    -0.297 OA
HETATM   16  C22 UNL     1       1.607   7.945  12.119  1.00  0.00     0.017 C 
HETATM   17  C23 UNL     1       2.690   6.872  12.346  1.00  0.00     0.023 C 
HETATM   18  C24 UNL     1       2.271   9.302  12.456  1.00  0.00     0.023 C 
HETATM   19  C25 UNL     1       0.313   7.698  12.993  1.00  0.00     0.009 C 
HETATM   20  C26 UNL     1      -0.611   8.946  12.991  1.00  0.00     0.007 C 
HETATM   21  C27 UNL     1      -1.725   8.874  14.028  1.00  0.00     0.011 C 
HETATM   22  C28 UNL     1      -2.485   7.524  14.062  1.00  0.00    -0.032 C 
HETATM   23  C29 UNL     1      -2.083   6.862  15.413  1.00  0.00     0.016 C 
ENDROOT
BRANCH   1  24
HETATM   24  C7  UNL     1      -7.051   5.642  15.110  1.00  0.00     0.093 A 
HETATM   25  C30 UNL     1      -8.201   6.063  16.023  1.00  0.00     0.207 A 
HETATM   26  O3  UNL     1      -6.907   5.707  16.538  1.00  0.00    -0.374 OA
BRANCH  24  27
HETATM   27  C6  UNL     1      -7.020   4.235  14.547  1.00  0.00     0.123 C 
BRANCH  27  28
HETATM   28  C5  UNL     1      -7.881   3.960  13.336  1.00  0.00     0.152 C 
HETATM   29  O1  UNL     1      -8.389   2.847  13.168  1.00  0.00    -0.293 OA
BRANCH  28  30
HETATM   30  C4  UNL     1      -8.225   5.021  12.340  1.00  0.00     0.052 C 
HETATM   31  C2  UNL     1      -9.192   5.957  12.282  1.00  0.00    -0.084 C 
HETATM   32  C1  UNL     1      -9.281   6.855  11.069  1.00  0.00     0.043 C 
HETATM   33  C3  UNL     1     -10.232   6.261  13.324  1.00  0.00     0.043 C 
ENDBRANCH  28  30
ENDBRANCH  27  28
ENDBRANCH  24  27
ENDBRANCH   1  24
TORSDOF 4
ENDMDL
MODEL 3
REMARK minimizedAffinity -8.97023773
REMARK  4 active torsions:
REMARK  status: ('A' for Active; 'I' for Inactive)
REMARK    1  A    between atoms: C4_4  and  C5_5 
REMARK    2  A    between atoms: C5_5  and  C6_7 
REMARK    3  A    between atoms: C6_7  and  C7_8 
REMARK    4  A    between atoms: C7_8  and  C8_9 
ROOT
HETATM    1  C8  UNL     1      -3.190   7.184  15.067  1.00  0.00     0.028 C 
HETATM    2  C9  UNL     1      -3.064   5.671  15.419  1.00  0.00     0.009 C 
HETATM    3  C10 UNL     1      -2.242   5.014  14.301  1.00  0.00     0.011 C 
HETATM    4  C11 UNL     1      -1.379   6.154  13.739  1.00  0.00    -0.032 C 
HETATM    5  C12 UNL     1      -0.245   6.417  14.792  1.00  0.00     0.016 C 
HETATM    6  C13 UNL     1      -2.431   7.298  13.722  1.00  0.00     0.001 C 
HETATM    7  C14 UNL     1      -1.751   8.619  13.369  1.00  0.00     0.006 C 
HETATM    8  C15 UNL     1      -1.064   8.524  11.995  1.00  0.00     0.006 C 
HETATM    9  C16 UNL     1      -0.088   7.317  11.847  1.00  0.00     0.003 C 
HETATM   10  C17 UNL     1       0.729   7.298  10.478  1.00  0.00    -0.035 C 
HETATM   11  C18 UNL     1      -0.203   7.628   9.281  1.00  0.00     0.016 C 
HETATM   12  C19 UNL     1       1.790   8.452  10.514  1.00  0.00     0.017 C 
HETATM   13  C20 UNL     1       3.142   8.042  11.072  1.00  0.00     0.080 C 
HETATM   14  C21 UNL     1       3.768   6.949  10.238  1.00  0.00     0.135 C 
HETATM   15  O2  UNL     1       4.995   6.854  10.170  1.00  0.00    -0.297 OA
HETATM   16  C22 UNL     1       2.835   5.973   9.514  1.00  0.00     0.017 C 
HETATM   17  C23 UNL     1       2.698   6.442   8.052  1.00  0.00     0.023 C 
HETATM   18  C24 UNL     1       3.524   4.588   9.456  1.00  0.00     0.023 C 
HETATM   19  C25 UNL     1       1.445   5.898  10.262  1.00  0.00     0.009 C 
HETATM   20  C26 UNL     1       1.570   5.126  11.603  1.00  0.00     0.007 C 
HETATM   21  C27 UNL     1       0.225   4.783  12.230  1.00  0.00     0.011 C 
HETATM   22  C28 UNL     1      -0.785   5.958  12.269  1.00  0.00    -0.032 C 
HETATM   23  C29 UNL     1      -1.902   5.571  11.256  1.00  0.00     0.016 C 
ENDROOT
BRANCH   1  24
HETATM   24  C7  UNL     1      -4.633   7.707  15.030  1.00  0.00     0.093 A 
HETATM   25  C30 UNL     1      -4.939   8.985  14.251  1.00  0.00     0.207 A 
HETATM   26  O3  UNL     1      -4.831   8.970  15.684  1.00  0.00    -0.374 OA
BRANCH  24  27
HETATM   27  C6  UNL     1      -5.739   6.700  15.279  1.00  0.00     0.123 C 
BRANCH  27  28
HETATM   28  C5  UNL     1      -6.402   6.094  14.064  1.00  0.00     0.152 C 
HETATM   29  O1  UNL     1      -7.565   6.390  13.772  1.00  0.00    -0.293 OA
BRANCH  28  30
HETATM   30  C4  UNL     1      -5.675   5.186  13.124  1.00  0.00     0.052 C 
HETATM   31  C2  UNL     1      -5.883   3.920  12.714  1.00  0.00    -0.084 C 
HETATM   32  C1  UNL     1      -4.892   3.275  11.772  1.00  0.00     0.043 C 
HETATM   33  C3  UNL     1      -7.038   3.025  13.065  1.00  0.00     0.043 C 
ENDBRANCH  28  30
ENDBRANCH  27  28
ENDBRANCH  24  27
ENDBRANCH   1  24
TORSDOF 4
ENDMDL
MODEL 4
REMARK minimizedAffinity -8.88900185
REMARK  4 active torsions:
REMARK  status: ('A' for Active; 'I' for Inactive)
REMARK    1  A    between atoms: C4_4  and  C5_5 
REMARK    2  A    between atoms: C5_5  and  C6_7 
REMARK    3  A    between atoms: C6_7  and  C7_8 
REMARK    4  A    between atoms: C7_8  and  C8_9 
ROOT
HETATM    1  C8  UNL     1       3.293   7.747  10.656  1.00  0.00     0.028 C 
HETATM    2  C9  UNL     1       3.148   6.395   9.894  1.00  0.00     0.009 C 
HETATM    3  C10 UNL     1       1.993   5.627  10.552  1.00  0.00     0.011 C 
HETATM    4  C11 UNL     1       1.102   6.722  11.160  1.00  0.00    -0.032 C 
HETATM    5  C12 UNL     1       0.338   7.391   9.965  1.00  0.00     0.016 C 
HETATM    6  C13 UNL     1       2.197   7.657  11.746  1.00  0.00     0.001 C 
HETATM    7  C14 UNL     1       1.555   8.946  12.255  1.00  0.00     0.006 C 
HETATM    8  C15 UNL     1       0.503   8.637  13.334  1.00  0.00     0.006 C 
HETATM    9  C16 UNL     1      -0.571   7.592  12.905  1.00  0.00     0.003 C 
HETATM   10  C17 UNL     1      -1.740   7.377  13.967  1.00  0.00    -0.035 C 
HETATM   11  C18 UNL     1      -1.161   7.273  15.403  1.00  0.00     0.016 C 
HETATM   12  C19 UNL     1      -2.650   8.654  13.973  1.00  0.00     0.017 C 
HETATM   13  C20 UNL     1      -3.818   8.595  13.003  1.00  0.00     0.080 C 
HETATM   14  C21 UNL     1      -4.741   7.446  13.331  1.00  0.00     0.135 C 
HETATM   15  O2  UNL     1      -5.941   7.523  13.059  1.00  0.00    -0.297 OA
HETATM   16  C22 UNL     1      -4.134   6.197  13.980  1.00  0.00     0.017 C 
HETATM   17  C23 UNL     1      -4.378   6.285  15.500  1.00  0.00     0.023 C 
HETATM   18  C24 UNL     1      -4.922   4.957  13.492  1.00  0.00     0.023 C 
HETATM   19  C25 UNL     1      -2.600   6.090  13.615  1.00  0.00     0.009 C 
HETATM   20  C26 UNL     1      -2.404   5.681  12.131  1.00  0.00     0.007 C 
HETATM   21  C27 UNL     1      -0.969   5.294  11.795  1.00  0.00     0.011 C 
HETATM   22  C28 UNL     1       0.103   6.279  12.326  1.00  0.00    -0.032 C 
HETATM   23  C29 UNL     1       0.853   5.502  13.448  1.00  0.00     0.016 C 
ENDROOT
BRANCH   1  24
HETATM   24  C7  UNL     1       4.704   8.023  11.193  1.00  0.00     0.093 A 
HETATM   25  C30 UNL     1       5.134   9.467  11.442  1.00  0.00     0.207 A 
HETATM   26  O3  UNL     1       5.565   8.729  10.286  1.00  0.00    -0.374 OA
BRANCH  24  27
HETATM   27  C6  UNL     1       5.387   6.898  11.948  1.00  0.00     0.123 C 
BRANCH  27  28
HETATM   28  C5  UNL     1       6.804   7.144  12.411  1.00  0.00     0.152 C 
HETATM   29  O1  UNL     1       7.749   7.029  11.624  1.00  0.00    -0.293 OA
BRANCH  28  30
HETATM   30  C4  UNL     1       7.125   7.610  13.795  1.00  0.00     0.052 C 
HETATM   31  C2  UNL     1       8.278   7.895  14.431  1.00  0.00    -0.084 C 
HETATM   32  C1  UNL     1       8.240   8.298  15.887  1.00  0.00     0.043 C 
HETATM   33  C3  UNL     1       9.665   7.891  13.852  1.00  0.00     0.043 C 
ENDBRANCH  28  30
ENDBRANCH  27  28
ENDBRANCH  24  27
ENDBRANCH   1  24
TORSDOF 4
ENDMDL
MODEL 5
REMARK minimizedAffinity -8.64149952
REMARK  4 active torsions:
REMARK  status: ('A' for Active; 'I' for Inactive)
REMARK    1  A    between atoms: C4_4  and  C5_5 
REMARK    2  A    between atoms: C5_5  and  C6_7 
REMARK    3  A    between atoms: C6_7  and  C7_8 
REMARK    4  A    between atoms: C7_8  and  C8_9 
ROOT
HETATM    1  C8  UNL     1       2.063   7.192  12.058  1.00  0.00     0.028 C 
HETATM    2  C9  UNL     1       2.092   5.718  11.553  1.00  0.00     0.009 C 
HETATM    3  C10 UNL     1       0.866   5.011  12.148  1.00  0.00     0.011 C 
HETATM    4  C11 UNL     1      -0.149   6.141  12.385  1.00  0.00    -0.032 C 
HETATM    5  C12 UNL     1      -0.718   6.533  10.977  1.00  0.00     0.016 C 
HETATM    6  C13 UNL     1       0.799   7.233  12.953  1.00  0.00     0.001 C 
HETATM    7  C14 UNL     1       0.040   8.551  13.097  1.00  0.00     0.006 C 
HETATM    8  C15 UNL     1      -1.171   8.378  14.030  1.00  0.00     0.006 C 
HETATM    9  C16 UNL     1      -2.123   7.207  13.638  1.00  0.00     0.003 C 
HETATM   10  C17 UNL     1      -3.449   7.116  14.517  1.00  0.00    -0.035 C 
HETATM   11  C18 UNL     1      -3.121   7.311  16.022  1.00  0.00     0.016 C 
HETATM   12  C19 UNL     1      -4.386   8.314  14.133  1.00  0.00     0.017 C 
HETATM   13  C20 UNL     1      -5.368   8.007  13.016  1.00  0.00     0.080 C 
HETATM   14  C21 UNL     1      -6.297   6.880  13.401  1.00  0.00     0.135 C 
HETATM   15  O2  UNL     1      -7.436   6.833  12.928  1.00  0.00    -0.297 OA
HETATM   16  C22 UNL     1      -5.773   5.811  14.365  1.00  0.00     0.017 C 
HETATM   17  C23 UNL     1      -6.275   6.158  15.780  1.00  0.00     0.023 C 
HETATM   18  C24 UNL     1      -6.427   4.457  13.999  1.00  0.00     0.023 C 
HETATM   19  C25 UNL     1      -4.196   5.736  14.281  1.00  0.00     0.009 C 
HETATM   20  C26 UNL     1      -3.736   5.076  12.952  1.00  0.00     0.007 C 
HETATM   21  C27 UNL     1      -2.253   4.726  12.934  1.00  0.00     0.011 C 
HETATM   22  C28 UNL     1      -1.319   5.856  13.436  1.00  0.00    -0.032 C 
HETATM   23  C29 UNL     1      -0.749   5.343  14.791  1.00  0.00     0.016 C 
ENDROOT
BRANCH   1  24
HETATM   24  C7  UNL     1       3.351   7.648  12.756  1.00  0.00     0.093 A 
HETATM   25  C30 UNL     1       3.336   7.879  14.265  1.00  0.00     0.207 A 
HETATM   26  O3  UNL     1       3.292   8.965  13.325  1.00  0.00    -0.374 OA
BRANCH  24  27
HETATM   27  C6  UNL     1       4.662   7.331  12.061  1.00  0.00     0.123 C 
BRANCH  27  28
HETATM   28  C5  UNL     1       4.593   6.977  10.594  1.00  0.00     0.152 C 
HETATM   29  O1  UNL     1       5.029   5.894  10.190  1.00  0.00    -0.293 OA
BRANCH  28  30
HETATM   30  C4  UNL     1       3.935   7.863   9.586  1.00  0.00     0.052 C 
HETATM   31  C2  UNL     1       3.111   7.628   8.545  1.00  0.00    -0.084 C 
HETATM   32  C1  UNL     1       2.667   8.784   7.678  1.00  0.00     0.043 C 
HETATM   33  C3  UNL     1       2.525   6.310   8.124  1.00  0.00     0.043 C 
ENDBRANCH  28  30
ENDBRANCH  27  28
ENDBRANCH  24  27
ENDBRANCH   1  24
TORSDOF 4
ENDMDL
MODEL 6
REMARK minimizedAffinity -8.60294914
REMARK  4 active torsions:
REMARK  status: ('A' for Active; 'I' for Inactive)
REMARK    1  A    between atoms: C4_4  and  C5_5 
REMARK    2  A    between atoms: C5_5  and  C6_7 
REMARK    3  A    between atoms: C6_7  and  C7_8 
REMARK    4  A    between atoms: C7_8  and  C8_9 
ROOT
HETATM    1  C8  UNL     1      -0.856   4.853  12.347  1.00  0.00     0.028 C 
HETATM    2  C9  UNL     1      -0.307   5.725  11.177  1.00  0.00     0.009 C 
HETATM    3  C10 UNL     1      -0.835   7.151  11.389  1.00  0.00     0.011 C 
HETATM    4  C11 UNL     1      -1.067   7.252  12.905  1.00  0.00    -0.032 C 
HETATM    5  C12 UNL     1       0.349   7.384  13.566  1.00  0.00     0.016 C 
HETATM    6  C13 UNL     1      -1.704   5.858  13.167  1.00  0.00     0.001 C 
HETATM    7  C14 UNL     1      -1.859   5.637  14.670  1.00  0.00     0.006 C 
HETATM    8  C15 UNL     1      -2.740   6.736  15.290  1.00  0.00     0.006 C 
HETATM    9  C16 UNL     1      -2.277   8.189  14.968  1.00  0.00     0.003 C 
HETATM   10  C17 UNL     1      -3.103   9.324  15.723  1.00  0.00    -0.035 C 
HETATM   11  C18 UNL     1      -4.624   9.019  15.671  1.00  0.00     0.016 C 
HETATM   12  C19 UNL     1      -2.721   9.291  17.244  1.00  0.00     0.017 C 
HETATM   13  C20 UNL     1      -1.559  10.195  17.617  1.00  0.00     0.080 C 
HETATM   14  C21 UNL     1      -1.874  11.641  17.316  1.00  0.00     0.135 C 
HETATM   15  O2  UNL     1      -1.358  12.537  17.988  1.00  0.00    -0.297 OA
HETATM   16  C22 UNL     1      -2.824  11.944  16.152  1.00  0.00     0.017 C 
HETATM   17  C23 UNL     1      -4.230  12.188  16.736  1.00  0.00     0.023 C 
HETATM   18  C24 UNL     1      -2.392  13.280  15.501  1.00  0.00     0.023 C 
HETATM   19  C25 UNL     1      -2.797  10.755  15.110  1.00  0.00     0.009 C 
HETATM   20  C26 UNL     1      -1.467  10.743  14.308  1.00  0.00     0.007 C 
HETATM   21  C27 UNL     1      -1.494   9.802  13.110  1.00  0.00     0.011 C 
HETATM   22  C28 UNL     1      -2.065   8.393  13.410  1.00  0.00    -0.032 C 
HETATM   23  C29 UNL     1      -3.424   8.332  12.654  1.00  0.00     0.016 C 
ENDROOT
BRANCH   1  24
HETATM   24  C7  UNL     1      -1.615   3.597  11.900  1.00  0.00     0.093 A 
HETATM   25  C30 UNL     1      -0.823   2.389  11.404  1.00  0.00     0.207 A 
HETATM   26  O3  UNL     1      -1.492   3.286  10.502  1.00  0.00    -0.374 OA
BRANCH  24  27
HETATM   27  C6  UNL     1      -3.011   3.398  12.458  1.00  0.00     0.123 C 
BRANCH  27  28
HETATM   28  C5  UNL     1      -4.166   3.605  11.506  1.00  0.00     0.152 C 
HETATM   29  O1  UNL     1      -3.963   3.749  10.296  1.00  0.00    -0.293 OA
BRANCH  28  30
HETATM   30  C4  UNL     1      -5.591   3.565  11.956  1.00  0.00     0.052 C 
HETATM   31  C2  UNL     1      -6.321   4.335  12.787  1.00  0.00    -0.084 C 
HETATM   32  C1  UNL     1      -7.761   3.965  13.065  1.00  0.00     0.043 C 
HETATM   33  C3  UNL     1      -5.883   5.589  13.491  1.00  0.00     0.043 C 
ENDBRANCH  28  30
ENDBRANCH  27  28
ENDBRANCH  24  27
ENDBRANCH   1  24
TORSDOF 4
ENDMDL
MODEL 7
REMARK minimizedAffinity -8.49841309
REMARK  4 active torsions:
REMARK  status: ('A' for Active; 'I' for Inactive)
REMARK    1  A    between atoms: C4_4  and  C5_5 
REMARK    2  A    between atoms: C5_5  and  C6_7 
REMARK    3  A    between atoms: C6_7  and  C7_8 
REMARK    4  A    between atoms: C7_8  and  C8_9 
ROOT
HETATM    1  C8  UNL     1      -3.235   3.688  12.208  1.00  0.00     0.028 C 
HETATM    2  C9  UNL     1      -2.483   3.597  10.846  1.00  0.00     0.009 C 
HETATM    3  C10 UNL     1      -1.570   4.827  10.751  1.00  0.00     0.011 C 
HETATM    4  C11 UNL     1      -1.288   5.210  12.212  1.00  0.00    -0.032 C 
HETATM    5  C12 UNL     1      -0.266   4.155  12.762  1.00  0.00     0.016 C 
HETATM    6  C13 UNL     1      -2.708   5.013  12.814  1.00  0.00     0.001 C 
HETATM    7  C14 UNL     1      -2.647   5.155  14.334  1.00  0.00     0.006 C 
HETATM    8  C15 UNL     1      -2.105   6.541  14.726  1.00  0.00     0.006 C 
HETATM    9  C16 UNL     1      -0.744   6.911  14.060  1.00  0.00     0.003 C 
HETATM   10  C17 UNL     1      -0.113   8.281  14.572  1.00  0.00    -0.035 C 
HETATM   11  C18 UNL     1      -1.201   9.385  14.659  1.00  0.00     0.016 C 
HETATM   12  C19 UNL     1       0.397   8.078  16.042  1.00  0.00     0.017 C 
HETATM   13  C20 UNL     1       1.843   7.626  16.145  1.00  0.00     0.080 C 
HETATM   14  C21 UNL     1       2.777   8.645  15.536  1.00  0.00     0.135 C 
HETATM   15  O2  UNL     1       3.929   8.756  15.962  1.00  0.00    -0.297 OA
HETATM   16  C22 UNL     1       2.253   9.501  14.378  1.00  0.00     0.017 C 
HETATM   17  C23 UNL     1       1.811  10.861  14.954  1.00  0.00     0.023 C 
HETATM   18  C24 UNL     1       3.431   9.805  13.420  1.00  0.00     0.023 C 
HETATM   19  C25 UNL     1       1.081   8.745  13.635  1.00  0.00     0.009 C 
HETATM   20  C26 UNL     1       1.623   7.554  12.798  1.00  0.00     0.007 C 
HETATM   21  C27 UNL     1       0.589   6.963  11.849  1.00  0.00     0.011 C 
HETATM   22  C28 UNL     1      -0.799   6.706  12.489  1.00  0.00    -0.032 C 
HETATM   23  C29 UNL     1      -1.753   7.744  11.828  1.00  0.00     0.016 C 
ENDROOT
BRANCH   1  24
HETATM   24  C7  UNL     1      -4.764   3.605  12.095  1.00  0.00     0.093 A 
HETATM   25  C30 UNL     1      -5.405   2.289  11.659  1.00  0.00     0.207 A 
HETATM   26  O3  UNL     1      -5.256   3.401  10.761  1.00  0.00    -0.374 OA
BRANCH  24  27
HETATM   27  C6  UNL     1      -5.571   4.597  12.909  1.00  0.00     0.123 C 
BRANCH  27  28
HETATM   28  C5  UNL     1      -6.919   4.135  13.414  1.00  0.00     0.152 C 
HETATM   29  O1  UNL     1      -7.105   2.948  13.703  1.00  0.00    -0.293 OA
BRANCH  28  30
HETATM   30  C4  UNL     1      -8.049   5.081  13.662  1.00  0.00     0.052 C 
HETATM   31  C2  UNL     1      -8.841   5.809  12.851  1.00  0.00    -0.084 C 
HETATM   32  C1  UNL     1      -9.877   6.727  13.458  1.00  0.00     0.043 C 
HETATM   33  C3  UNL     1      -8.851   5.814  11.348  1.00  0.00     0.043 C 
ENDBRANCH  28  30
ENDBRANCH  27  28
ENDBRANCH  24  27
ENDBRANCH   1  24
TORSDOF 4
ENDMDL
MODEL 8
REMARK minimizedAffinity -8.44017887
REMARK  4 active torsions:
REMARK  status: ('A' for Active; 'I' for Inactive)
REMARK    1  A    between atoms: C4_4  and  C5_5 
REMARK    2  A    between atoms: C5_5  and  C6_7 
REMARK    3  A    between atoms: C6_7  and  C7_8 
REMARK    4  A    between atoms: C7_8  and  C8_9 
ROOT
HETATM    1  C8  UNL     1      -4.413   5.703  14.354  1.00  0.00     0.028 C 
HETATM    2  C9  UNL     1      -3.916   5.041  13.032  1.00  0.00     0.009 C 
HETATM    3  C10 UNL     1      -2.750   5.894  12.511  1.00  0.00     0.011 C 
HETATM    4  C11 UNL     1      -2.170   6.560  13.768  1.00  0.00    -0.032 C 
HETATM    5  C12 UNL     1      -1.373   5.449  14.536  1.00  0.00     0.016 C 
HETATM    6  C13 UNL     1      -3.489   6.938  14.498  1.00  0.00     0.001 C 
HETATM    7  C14 UNL     1      -3.172   7.461  15.898  1.00  0.00     0.006 C 
HETATM    8  C15 UNL     1      -2.251   8.691  15.819  1.00  0.00     0.006 C 
HETATM    9  C16 UNL     1      -0.955   8.471  14.981  1.00  0.00     0.003 C 
HETATM   10  C17 UNL     1       0.065   9.695  15.017  1.00  0.00    -0.035 C 
HETATM   11  C18 UNL     1      -0.689  11.041  14.845  1.00  0.00     0.016 C 
HETATM   12  C19 UNL     1       0.719   9.760  16.441  1.00  0.00     0.017 C 
HETATM   13  C20 UNL     1       2.007   8.966  16.574  1.00  0.00     0.080 C 
HETATM   14  C21 UNL     1       3.065   9.479  15.626  1.00  0.00     0.135 C 
HETATM   15  O2  UNL     1       4.258   9.373  15.919  1.00  0.00    -0.297 OA
HETATM   16  C22 UNL     1       2.605  10.104  14.304  1.00  0.00     0.017 C 
HETATM   17  C23 UNL     1       2.604  11.636  14.477  1.00  0.00     0.023 C 
HETATM   18  C24 UNL     1       3.667   9.796  13.220  1.00  0.00     0.023 C 
HETATM   19  C25 UNL     1       1.185   9.536  13.904  1.00  0.00     0.009 C 
HETATM   20  C26 UNL     1       1.286   8.062  13.425  1.00  0.00     0.007 C 
HETATM   21  C27 UNL     1       0.009   7.552  12.769  1.00  0.00     0.011 C 
HETATM   22  C28 UNL     1      -1.290   7.876  13.551  1.00  0.00    -0.032 C 
HETATM   23  C29 UNL     1      -2.043   8.922  12.678  1.00  0.00     0.016 C 
ENDROOT
BRANCH   1  24
HETATM   24  C7  UNL     1      -5.913   6.024  14.376  1.00  0.00     0.093 A 
HETATM   25  C30 UNL     1      -6.385   7.394  13.893  1.00  0.00     0.207 A 
HETATM   26  O3  UNL     1      -6.291   7.066  15.289  1.00  0.00    -0.374 OA
BRANCH  24  27
HETATM   27  C6  UNL     1      -6.871   4.849  14.345  1.00  0.00     0.123 C 
BRANCH  27  28
HETATM   28  C5  UNL     1      -7.244   4.302  12.987  1.00  0.00     0.152 C 
HETATM   29  O1  UNL     1      -7.847   5.007  12.172  1.00  0.00    -0.293 OA
BRANCH  28  30
HETATM   30  C4  UNL     1      -6.840   2.935  12.535  1.00  0.00     0.052 C 
HETATM   31  C2  UNL     1      -6.126   2.481  11.487  1.00  0.00    -0.084 C 
HETATM   32  C1  UNL     1      -5.952   0.991  11.301  1.00  0.00     0.043 C 
HETATM   33  C3  UNL     1      -5.423   3.297  10.438  1.00  0.00     0.043 C 
ENDBRANCH  28  30
ENDBRANCH  27  28
ENDBRANCH  24  27
ENDBRANCH   1  24
TORSDOF 4
ENDMDL
MODEL 9
REMARK minimizedAffinity -8.39853859
REMARK  4 active torsions:
REMARK  status: ('A' for Active; 'I' for Inactive)
REMARK    1  A    between atoms: C4_4  and  C5_5 
REMARK    2  A    between atoms: C5_5  and  C6_7 
REMARK    3  A    between atoms: C6_7  and  C7_8 
REMARK    4  A    between atoms: C7_8  and  C8_9 
ROOT
HETATM    1  C8  UNL     1      -1.148   5.044  12.484  1.00  0.00     0.028 C 
HETATM    2  C9  UNL     1      -1.239   5.102  10.929  1.00  0.00     0.009 C 
HETATM    3  C10 UNL     1      -0.249   6.178  10.458  1.00  0.00     0.011 C 
HETATM    4  C11 UNL     1       0.816   6.228  11.565  1.00  0.00    -0.032 C 
HETATM    5  C12 UNL     1       1.703   4.946  11.390  1.00  0.00     0.016 C 
HETATM    6  C13 UNL     1      -0.100   6.135  12.817  1.00  0.00     0.001 C 
HETATM    7  C14 UNL     1       0.757   5.975  14.071  1.00  0.00     0.006 C 
HETATM    8  C15 UNL     1       1.723   7.163  14.222  1.00  0.00     0.006 C 
HETATM    9  C16 UNL     1       2.597   7.445  12.961  1.00  0.00     0.003 C 
HETATM   10  C17 UNL     1       3.694   8.582  13.164  1.00  0.00    -0.035 C 
HETATM   11  C18 UNL     1       3.088   9.800  13.912  1.00  0.00     0.016 C 
HETATM   12  C19 UNL     1       4.819   8.029  14.107  1.00  0.00     0.017 C 
HETATM   13  C20 UNL     1       5.969   7.354  13.379  1.00  0.00     0.080 C 
HETATM   14  C21 UNL     1       6.667   8.318  12.449  1.00  0.00     0.135 C 
HETATM   15  O2  UNL     1       7.865   8.173  12.196  1.00  0.00    -0.297 OA
HETATM   16  C22 UNL     1       5.837   9.448  11.829  1.00  0.00     0.017 C 
HETATM   17  C23 UNL     1       6.074  10.724  12.661  1.00  0.00     0.023 C 
HETATM   18  C24 UNL     1       6.396   9.749  10.417  1.00  0.00     0.023 C 
HETATM   19  C25 UNL     1       4.313   9.031  11.774  1.00  0.00     0.009 C 
HETATM   20  C26 UNL     1       4.066   7.955  10.682  1.00  0.00     0.007 C 
HETATM   21  C27 UNL     1       2.589   7.717  10.393  1.00  0.00     0.011 C 
HETATM   22  C28 UNL     1       1.704   7.553  11.656  1.00  0.00    -0.032 C 
HETATM   23  C29 UNL     1       0.813   8.829  11.699  1.00  0.00     0.016 C 
ENDROOT
BRANCH   1  24
HETATM   24  C7  UNL     1      -2.493   5.214  13.204  1.00  0.00     0.093 A 
HETATM   25  C30 UNL     1      -3.098   6.612  13.325  1.00  0.00     0.207 A 
HETATM   26  O3  UNL     1      -2.430   5.969  14.424  1.00  0.00    -0.374 OA
BRANCH  24  27
HETATM   27  C6  UNL     1      -3.398   3.999  13.272  1.00  0.00     0.123 C 
BRANCH  27  28
HETATM   28  C5  UNL     1      -4.506   3.910  12.249  1.00  0.00     0.152 C 
HETATM   29  O1  UNL     1      -4.303   3.384  11.150  1.00  0.00    -0.293 OA
BRANCH  28  30
HETATM   30  C4  UNL     1      -5.900   4.369  12.535  1.00  0.00     0.052 C 
HETATM   31  C2  UNL     1      -7.076   3.726  12.670  1.00  0.00    -0.084 C 
HETATM   32  C1  UNL     1      -8.335   4.529  12.910  1.00  0.00     0.043 C 
HETATM   33  C3  UNL     1      -7.315   2.243  12.638  1.00  0.00     0.043 C 
ENDBRANCH  28  30
ENDBRANCH  27  28
ENDBRANCH  24  27
ENDBRANCH   1  24
TORSDOF 4
ENDMDL
