MODEL 1
REMARK minimizedAffinity -9.36878777
REMARK  9 active torsions:
REMARK  status: ('A' for Active; 'I' for Inactive)
REMARK    1  A    between atoms: C3_3  and  O1_4 
REMARK    2  A    between atoms: N1_14  and  O2_16 
REMARK    3  A    between atoms: O2_16  and  C13_17 
REMARK    4  A    between atoms: C13_17  and  C14_18 
REMARK       I    between atoms: C14_18  and  N2_20 
REMARK    5  A    between atoms: N2_20  and  C15_21 
REMARK    6  A    between atoms: C15_21  and  C16_22 
REMARK    7  A    between atoms: C15_21  and  C17_25 
REMARK    8  A    between atoms: C16_22  and  O5_24 
REMARK    9  A    between atoms: C17_25  and  C19_27 
ROOT
HETATM    1  C1  UNL     1      -7.957   4.998  15.878  1.00  0.00     0.015 C 
HETATM    2  C2  UNL     1      -7.293   5.639  15.110  1.00  0.00    -0.078 C 
HETATM    3  C3  UNL     1      -6.495   6.412  14.145  1.00  0.00     0.128 C 
HETATM    4  C4  UNL     1      -6.634   7.940  14.348  1.00  0.00     0.052 C 
HETATM    5  C5  UNL     1      -5.269   8.555  13.968  1.00  0.00     0.010 C 
HETATM    6  C6  UNL     1      -4.465   7.387  13.402  1.00  0.00     0.002 C 
HETATM    7  C7  UNL     1      -2.936   7.500  13.345  1.00  0.00    -0.004 C 
HETATM    8  C8  UNL     1      -2.495   8.728  12.537  1.00  0.00     0.010 C 
HETATM    9  C9  UNL     1      -0.977   8.816  12.452  1.00  0.00     0.035 C 
HETATM   10  C10 UNL     1      -0.367   7.552  11.892  1.00  0.00    -0.069 C 
HETATM   11  C11 UNL     1       0.510   7.633  10.875  1.00  0.00     0.030 C 
HETATM   12  C12 UNL     1       1.232   6.441  10.361  1.00  0.00     0.032 C 
HETATM   13  N1  UNL     1       2.009   6.597   9.328  1.00  0.00    -0.271 N 
ATOM     14  H1  UNL     1       2.126   7.475   8.823  1.00  0.00     0.194 HD
HETATM   15  C21 UNL     1       1.059   5.140  11.118  1.00  0.00     0.060 C 
HETATM   16  C22 UNL     1      -0.358   5.032  11.664  1.00  0.00     0.020 C 
HETATM   17  C23 UNL     1      -0.788   6.233  12.553  1.00  0.00    -0.016 C 
HETATM   18  C24 UNL     1      -0.075   6.125  13.919  1.00  0.00     0.020 C 
HETATM   19  C25 UNL     1      -2.358   6.200  12.703  1.00  0.00     0.002 C 
HETATM   20  C26 UNL     1      -2.897   4.923  13.402  1.00  0.00     0.007 C 
HETATM   21  C27 UNL     1      -4.430   4.903  13.541  1.00  0.00     0.014 C 
HETATM   22  C28 UNL     1      -4.959   6.174  14.227  1.00  0.00     0.003 C 
HETATM   23  C29 UNL     1      -4.475   6.205  15.706  1.00  0.00     0.020 C 
ENDROOT
BRANCH   3  24
HETATM   24  O1  UNL     1      -6.969   6.101  12.831  1.00  0.00    -0.377 OA
HETATM   25  H2  UNL     1      -7.939   6.182  12.855  1.00  0.00     0.211 HD
ENDBRANCH   3  24
BRANCH  13  26
HETATM   26  O2  UNL     1       2.667   5.402   9.000  1.00  0.00    -0.271 OA
BRANCH  26  27
HETATM   27  C13 UNL     1       3.715   5.181   9.929  1.00  0.00     0.303 C 
BRANCH  27  28
HETATM   28  C14 UNL     1       4.321   6.508  10.382  1.00  0.00     0.244 C 
HETATM   29  O3  UNL     1       4.588   7.436   9.625  1.00  0.00    -0.271 OA
HETATM   30  N2  UNL     1       4.535   6.577  11.751  1.00  0.00    -0.344 N 
HETATM   31  H16 UNL     1       4.644   5.689  12.227  1.00  0.00     0.163 HD
BRANCH  30  32
HETATM   32  C15 UNL     1       5.273   7.705  12.327  1.00  0.00     0.186 C 
BRANCH  32  33
HETATM   33  C16 UNL     1       6.577   7.156  12.914  1.00  0.00     0.163 C 
HETATM   34  O4  UNL     1       7.706   7.373  12.495  1.00  0.00    -0.648 OA
BRANCH  33  35
HETATM   35  O5  UNL     1       6.385   6.332  13.964  1.00  0.00    -0.775 OA
HETATM   36  H18 UNL     1       7.291   6.082  14.245  1.00  0.00     0.167 HD
ENDBRANCH  33  35
ENDBRANCH  32  33
BRANCH  32  37
HETATM   37  C17 UNL     1       4.475   8.473  13.408  1.00  0.00     0.014 C 
HETATM   38  C18 UNL     1       3.136   9.026  12.905  1.00  0.00     0.012 C 
BRANCH  37  39
HETATM   39  C19 UNL     1       5.315   9.564  14.110  1.00  0.00     0.002 C 
HETATM   40  C20 UNL     1       4.809  10.039  15.465  1.00  0.00     0.005 C 
ENDBRANCH  37  39
ENDBRANCH  32  37
ENDBRANCH  30  32
ENDBRANCH  27  28
ENDBRANCH  26  27
ENDBRANCH  13  26
TORSDOF 9
ENDMDL
MODEL 2
REMARK minimizedAffinity -9.16754723
REMARK  9 active torsions:
REMARK  status: ('A' for Active; 'I' for Inactive)
REMARK    1  A    between atoms: C3_3  and  O1_4 
REMARK    2  A    between atoms: N1_14  and  O2_16 
REMARK    3  A    between atoms: O2_16  and  C13_17 
REMARK    4  A    between atoms: C13_17  and  C14_18 
REMARK       I    between atoms: C14_18  and  N2_20 
REMARK    5  A    between atoms: N2_20  and  C15_21 
REMARK    6  A    between atoms: C15_21  and  C16_22 
REMARK    7  A    between atoms: C15_21  and  C17_25 
REMARK    8  A    between atoms: C16_22  and  O5_24 
REMARK    9  A    between atoms: C17_25  and  C19_27 
ROOT
HETATM    1  C1  UNL     1       3.682   8.291  11.594  1.00  0.00     0.015 C 
HETATM    2  C2  UNL     1       2.664   7.695  11.373  1.00  0.00    -0.078 C 
HETATM    3  C3  UNL     1       1.410   6.984  11.080  1.00  0.00     0.128 C 
HETATM    4  C4  UNL     1       1.639   5.490  10.745  1.00  0.00     0.052 C 
HETATM    5  C5  UNL     1       0.404   4.732  11.280  1.00  0.00     0.010 C 
HETATM    6  C6  UNL     1      -0.553   5.829  11.738  1.00  0.00     0.002 C 
HETATM    7  C7  UNL     1      -1.669   5.471  12.729  1.00  0.00    -0.004 C 
HETATM    8  C8  UNL     1      -2.565   4.351  12.183  1.00  0.00     0.010 C 
HETATM    9  C9  UNL     1      -3.693   4.025  13.153  1.00  0.00     0.035 C 
HETATM   10  C10 UNL     1      -4.509   5.247  13.505  1.00  0.00    -0.069 C 
HETATM   11  C11 UNL     1      -5.849   5.203  13.399  1.00  0.00     0.030 C 
HETATM   12  C12 UNL     1      -6.712   6.328  13.843  1.00  0.00     0.032 C 
HETATM   13  N1  UNL     1      -7.994   6.230  13.640  1.00  0.00    -0.271 N 
ATOM     14  H1  UNL     1      -8.443   5.449  13.161  1.00  0.00     0.194 HD
HETATM   15  C21 UNL     1      -6.040   7.483  14.557  1.00  0.00     0.060 C 
HETATM   16  C22 UNL     1      -4.655   7.730  13.975  1.00  0.00     0.020 C 
HETATM   17  C23 UNL     1      -3.730   6.478  13.987  1.00  0.00    -0.016 C 
HETATM   18  C24 UNL     1      -3.259   6.218  15.435  1.00  0.00     0.020 C 
HETATM   19  C25 UNL     1      -2.521   6.748  13.012  1.00  0.00     0.002 C 
HETATM   20  C26 UNL     1      -1.633   7.953  13.428  1.00  0.00     0.007 C 
HETATM   21  C27 UNL     1      -0.457   8.205  12.467  1.00  0.00     0.014 C 
HETATM   22  C28 UNL     1       0.392   6.940  12.255  1.00  0.00     0.003 C 
HETATM   23  C29 UNL     1       1.103   6.565  13.587  1.00  0.00     0.020 C 
ENDROOT
BRANCH   3  24
HETATM   24  O1  UNL     1       0.811   7.600   9.935  1.00  0.00    -0.377 OA
HETATM   25  H2  UNL     1       1.508   7.681   9.261  1.00  0.00     0.211 HD
ENDBRANCH   3  24
BRANCH  13  26
HETATM   26  O2  UNL     1      -8.679   7.336  14.165  1.00  0.00    -0.271 OA
BRANCH  26  27
HETATM   27  C13 UNL     1      -9.792   6.878  14.915  1.00  0.00     0.303 C 
BRANCH  27  28
HETATM   28  C14 UNL     1     -11.057   7.640  14.521  1.00  0.00     0.244 C 
HETATM   29  O3  UNL     1     -11.620   8.457  15.242  1.00  0.00    -0.271 OA
HETATM   30  N2  UNL     1     -11.512   7.330  13.248  1.00  0.00    -0.344 N 
HETATM   31  H16 UNL     1     -11.236   6.423  12.888  1.00  0.00     0.163 HD
BRANCH  30  32
HETATM   32  C15 UNL     1     -12.808   7.834  12.784  1.00  0.00     0.186 C 
BRANCH  32  33
HETATM   33  C16 UNL     1     -12.677   9.349  12.599  1.00  0.00     0.163 C 
HETATM   34  O4  UNL     1     -13.215  10.209  13.283  1.00  0.00    -0.648 OA
BRANCH  33  35
HETATM   35  O5  UNL     1     -11.917   9.695  11.539  1.00  0.00    -0.775 OA
HETATM   36  H18 UNL     1     -11.905  10.675  11.561  1.00  0.00     0.167 HD
ENDBRANCH  33  35
ENDBRANCH  32  33
BRANCH  32  37
HETATM   37  C17 UNL     1     -13.975   7.506  13.745  1.00  0.00     0.014 C 
HETATM   38  C18 UNL     1     -14.007   6.040  14.195  1.00  0.00     0.012 C 
BRANCH  37  39
HETATM   39  C19 UNL     1     -15.346   7.966  13.200  1.00  0.00     0.002 C 
HETATM   40  C20 UNL     1     -16.061   7.000  12.265  1.00  0.00     0.005 C 
ENDBRANCH  37  39
ENDBRANCH  32  37
ENDBRANCH  30  32
ENDBRANCH  27  28
ENDBRANCH  26  27
ENDBRANCH  13  26
TORSDOF 9
ENDMDL
MODEL 3
REMARK minimizedAffinity -9.11235046
REMARK  9 active torsions:
REMARK  status: ('A' for Active; 'I' for Inactive)
REMARK    1  A    between atoms: C3_3  and  O1_4 
REMARK    2  A    between atoms: N1_14  and  O2_16 
REMARK    3  A    between atoms: O2_16  and  C13_17 
REMARK    4  A    between atoms: C13_17  and  C14_18 
REMARK       I    between atoms: C14_18  and  N2_20 
REMARK    5  A    between atoms: N2_20  and  C15_21 
REMARK    6  A    between atoms: C15_21  and  C16_22 
REMARK    7  A    between atoms: C15_21  and  C17_25 
REMARK    8  A    between atoms: C16_22  and  O5_24 
REMARK    9  A    between atoms: C17_25  and  C19_27 
ROOT
HETATM    1  C1  UNL     1       3.240   8.528  11.887  1.00  0.00     0.015 C 
HETATM    2  C2  UNL     1       2.294   7.850  11.592  1.00  0.00    -0.078 C 
HETATM    3  C3  UNL     1       1.130   7.038  11.208  1.00  0.00     0.128 C 
HETATM    4  C4  UNL     1       1.506   5.568  10.901  1.00  0.00     0.052 C 
HETATM    5  C5  UNL     1       0.301   4.710  11.344  1.00  0.00     0.010 C 
HETATM    6  C6  UNL     1      -0.776   5.724  11.721  1.00  0.00     0.002 C 
HETATM    7  C7  UNL     1      -1.931   5.274  12.625  1.00  0.00    -0.004 C 
HETATM    8  C8  UNL     1      -2.687   4.085  12.019  1.00  0.00     0.010 C 
HETATM    9  C9  UNL     1      -3.856   3.665  12.902  1.00  0.00     0.035 C 
HETATM   10  C10 UNL     1      -4.794   4.816  13.183  1.00  0.00    -0.069 C 
HETATM   11  C11 UNL     1      -6.114   4.661  12.976  1.00  0.00     0.030 C 
HETATM   12  C12 UNL     1      -7.098   5.710  13.345  1.00  0.00     0.032 C 
HETATM   13  N1  UNL     1      -8.349   5.507  13.045  1.00  0.00    -0.271 N 
ATOM     14  H1  UNL     1      -8.694   4.692  12.538  1.00  0.00     0.194 HD
HETATM   15  C21 UNL     1      -6.581   6.916  14.102  1.00  0.00     0.060 C 
HETATM   16  C22 UNL     1      -5.180   7.277  13.626  1.00  0.00     0.020 C 
HETATM   17  C23 UNL     1      -4.159   6.107  13.716  1.00  0.00    -0.016 C 
HETATM   18  C24 UNL     1      -3.781   5.886  15.197  1.00  0.00     0.020 C 
HETATM   19  C25 UNL     1      -2.905   6.477  12.835  1.00  0.00     0.002 C 
HETATM   20  C26 UNL     1      -2.154   7.750  13.310  1.00  0.00     0.007 C 
HETATM   21  C27 UNL     1      -0.933   8.100  12.441  1.00  0.00     0.014 C 
HETATM   22  C28 UNL     1       0.031   6.909  12.302  1.00  0.00     0.003 C 
HETATM   23  C29 UNL     1       0.667   6.594  13.687  1.00  0.00     0.020 C 
ENDROOT
BRANCH   3  24
HETATM   24  O1  UNL     1       0.571   7.602  10.017  1.00  0.00    -0.377 OA
HETATM   25  H2  UNL     1       1.310   7.741   9.398  1.00  0.00     0.211 HD
ENDBRANCH   3  24
BRANCH  13  26
HETATM   26  O2  UNL     1      -9.161   6.552  13.509  1.00  0.00    -0.271 OA
BRANCH  26  27
HETATM   27  C13 UNL     1     -10.257   6.715  12.624  1.00  0.00     0.303 C 
BRANCH  27  28
HETATM   28  C14 UNL     1     -11.446   7.343  13.350  1.00  0.00     0.244 C 
HETATM   29  O3  UNL     1     -12.308   6.700  13.941  1.00  0.00    -0.271 OA
HETATM   30  N2  UNL     1     -11.458   8.728  13.292  1.00  0.00    -0.344 N 
HETATM   31  H16 UNL     1     -10.961   9.143  12.512  1.00  0.00     0.163 HD
BRANCH  30  32
HETATM   32  C15 UNL     1     -12.618   9.478  13.780  1.00  0.00     0.186 C 
BRANCH  32  33
HETATM   33  C16 UNL     1     -13.255  10.184  12.578  1.00  0.00     0.163 C 
HETATM   34  O4  UNL     1     -14.362  10.704  12.550  1.00  0.00    -0.648 OA
BRANCH  33  35
HETATM   35  O5  UNL     1     -12.485  10.154  11.471  1.00  0.00    -0.775 OA
HETATM   36  H18 UNL     1     -13.001  10.654  10.804  1.00  0.00     0.167 HD
ENDBRANCH  33  35
ENDBRANCH  32  33
BRANCH  32  37
HETATM   37  C17 UNL     1     -12.267  10.504  14.884  1.00  0.00     0.014 C 
HETATM   38  C18 UNL     1     -12.205  11.951  14.379  1.00  0.00     0.012 C 
BRANCH  37  39
HETATM   39  C19 UNL     1     -10.996  10.121  15.675  1.00  0.00     0.002 C 
HETATM   40  C20 UNL     1      -9.741  10.928  15.370  1.00  0.00     0.005 C 
ENDBRANCH  37  39
ENDBRANCH  32  37
ENDBRANCH  30  32
ENDBRANCH  27  28
ENDBRANCH  26  27
ENDBRANCH  13  26
TORSDOF 9
ENDMDL
MODEL 4
REMARK minimizedAffinity -8.99487114
REMARK  9 active torsions:
REMARK  status: ('A' for Active; 'I' for Inactive)
REMARK    1  A    between atoms: C3_3  and  O1_4 
REMARK    2  A    between atoms: N1_14  and  O2_16 
REMARK    3  A    between atoms: O2_16  and  C13_17 
REMARK    4  A    between atoms: C13_17  and  C14_18 
REMARK       I    between atoms: C14_18  and  N2_20 
REMARK    5  A    between atoms: N2_20  and  C15_21 
REMARK    6  A    between atoms: C15_21  and  C16_22 
REMARK    7  A    between atoms: C15_21  and  C17_25 
REMARK    8  A    between atoms: C16_22  and  O5_24 
REMARK    9  A    between atoms: C17_25  and  C19_27 
ROOT
HETATM    1  C1  UNL     1       2.309   9.129  12.509  1.00  0.00     0.015 C 
HETATM    2  C2  UNL     1       1.380   8.463  12.144  1.00  0.00    -0.078 C 
HETATM    3  C3  UNL     1       0.236   7.666  11.674  1.00  0.00     0.128 C 
HETATM    4  C4  UNL     1       0.646   6.239  11.235  1.00  0.00     0.052 C 
HETATM    5  C5  UNL     1      -0.545   5.319  11.585  1.00  0.00     0.010 C 
HETATM    6  C6  UNL     1      -1.645   6.271  12.044  1.00  0.00     0.002 C 
HETATM    7  C7  UNL     1      -2.798   5.716  12.892  1.00  0.00    -0.004 C 
HETATM    8  C8  UNL     1      -3.523   4.573  12.170  1.00  0.00     0.010 C 
HETATM    9  C9  UNL     1      -4.689   4.049  12.999  1.00  0.00     0.035 C 
HETATM   10  C10 UNL     1      -5.654   5.149  13.377  1.00  0.00    -0.069 C 
HETATM   11  C11 UNL     1      -6.969   4.986  13.143  1.00  0.00     0.030 C 
HETATM   12  C12 UNL     1      -7.978   5.977  13.600  1.00  0.00     0.032 C 
HETATM   13  N1  UNL     1      -9.222   5.776  13.270  1.00  0.00    -0.271 N 
ATOM     14  H1  UNL     1      -9.545   5.006  12.686  1.00  0.00     0.194 HD
HETATM   15  C21 UNL     1      -7.492   7.117  14.470  1.00  0.00     0.060 C 
HETATM   16  C22 UNL     1      -6.096   7.550  14.043  1.00  0.00     0.020 C 
HETATM   17  C23 UNL     1      -5.051   6.397  14.034  1.00  0.00    -0.016 C 
HETATM   18  C24 UNL     1      -4.679   6.047  15.492  1.00  0.00     0.020 C 
HETATM   19  C25 UNL     1      -3.798   6.873  13.203  1.00  0.00     0.002 C 
HETATM   20  C26 UNL     1      -3.079   8.112  13.802  1.00  0.00     0.007 C 
HETATM   21  C27 UNL     1      -1.858   8.566  12.981  1.00  0.00     0.014 C 
HETATM   22  C28 UNL     1      -0.868   7.413  12.742  1.00  0.00     0.003 C 
HETATM   23  C29 UNL     1      -0.237   6.983  14.097  1.00  0.00     0.020 C 
ENDROOT
BRANCH   3  24
HETATM   24  O1  UNL     1      -0.325   8.328  10.536  1.00  0.00    -0.377 OA
HETATM   25  H2  UNL     1       0.415   8.539   9.940  1.00  0.00     0.211 HD
ENDBRANCH   3  24
BRANCH  13  26
HETATM   26  O2  UNL     1     -10.059   6.757  13.822  1.00  0.00    -0.271 OA
BRANCH  26  27
HETATM   27  C13 UNL     1     -10.913   7.261  12.807  1.00  0.00     0.303 C 
BRANCH  27  28
HETATM   28  C14 UNL     1     -12.290   7.594  13.380  1.00  0.00     0.244 C 
HETATM   29  O3  UNL     1     -12.707   7.175  14.455  1.00  0.00    -0.271 OA
HETATM   30  N2  UNL     1     -13.036   8.436  12.568  1.00  0.00    -0.344 N 
HETATM   31  H16 UNL     1     -12.795   8.428  11.583  1.00  0.00     0.163 HD
BRANCH  30  32
HETATM   32  C15 UNL     1     -14.441   8.709  12.879  1.00  0.00     0.186 C 
BRANCH  32  33
HETATM   33  C16 UNL     1     -15.282   7.595  12.247  1.00  0.00     0.163 C 
HETATM   34  O4  UNL     1     -15.734   7.589  11.110  1.00  0.00    -0.648 OA
BRANCH  33  35
HETATM   35  O5  UNL     1     -15.543   6.577  13.092  1.00  0.00    -0.775 OA
HETATM   36  H18 UNL     1     -16.059   5.941  12.552  1.00  0.00     0.167 HD
ENDBRANCH  33  35
ENDBRANCH  32  33
BRANCH  32  37
HETATM   37  C17 UNL     1     -14.922  10.094  12.386  1.00  0.00     0.014 C 
HETATM   38  C18 UNL     1     -13.878  11.204  12.559  1.00  0.00     0.012 C 
BRANCH  37  39
HETATM   39  C19 UNL     1     -16.290  10.500  12.982  1.00  0.00     0.002 C 
HETATM   40  C20 UNL     1     -16.839  11.853  12.551  1.00  0.00     0.005 C 
ENDBRANCH  37  39
ENDBRANCH  32  37
ENDBRANCH  30  32
ENDBRANCH  27  28
ENDBRANCH  26  27
ENDBRANCH  13  26
TORSDOF 9
ENDMDL
MODEL 5
REMARK minimizedAffinity -8.71387577
REMARK  9 active torsions:
REMARK  status: ('A' for Active; 'I' for Inactive)
REMARK    1  A    between atoms: C3_3  and  O1_4 
REMARK    2  A    between atoms: N1_14  and  O2_16 
REMARK    3  A    between atoms: O2_16  and  C13_17 
REMARK    4  A    between atoms: C13_17  and  C14_18 
REMARK       I    between atoms: C14_18  and  N2_20 
REMARK    5  A    between atoms: N2_20  and  C15_21 
REMARK    6  A    between atoms: C15_21  and  C16_22 
REMARK    7  A    between atoms: C15_21  and  C17_25 
REMARK    8  A    between atoms: C16_22  and  O5_24 
REMARK    9  A    between atoms: C17_25  and  C19_27 
ROOT
HETATM    1  C1  UNL     1      -9.555   6.977  15.121  1.00  0.00     0.015 C 
HETATM    2  C2  UNL     1      -8.509   6.411  14.955  1.00  0.00    -0.078 C 
HETATM    3  C3  UNL     1      -7.229   5.707  14.781  1.00  0.00     0.128 C 
HETATM    4  C4  UNL     1      -7.271   4.675  13.628  1.00  0.00     0.052 C 
HETATM    5  C5  UNL     1      -5.856   4.658  13.008  1.00  0.00     0.010 C 
HETATM    6  C6  UNL     1      -5.022   5.542  13.932  1.00  0.00     0.002 C 
HETATM    7  C7  UNL     1      -3.706   6.129  13.403  1.00  0.00    -0.004 C 
HETATM    8  C8  UNL     1      -2.753   5.026  12.924  1.00  0.00     0.010 C 
HETATM    9  C9  UNL     1      -1.434   5.610  12.434  1.00  0.00     0.035 C 
HETATM   10  C10 UNL     1      -0.776   6.476  13.482  1.00  0.00    -0.069 C 
HETATM   11  C11 UNL     1       0.515   6.268  13.800  1.00  0.00     0.030 C 
HETATM   12  C12 UNL     1       1.251   7.160  14.733  1.00  0.00     0.032 C 
HETATM   13  N1  UNL     1       2.476   6.844  15.039  1.00  0.00    -0.271 N 
ATOM     14  H1  UNL     1       2.953   6.004  14.713  1.00  0.00     0.194 HD
HETATM   15  C21 UNL     1       0.539   8.409  15.210  1.00  0.00     0.060 C 
HETATM   16  C22 UNL     1      -0.948   8.135  15.386  1.00  0.00     0.020 C 
HETATM   17  C23 UNL     1      -1.644   7.573  14.113  1.00  0.00    -0.016 C 
HETATM   18  C24 UNL     1      -1.805   8.716  13.086  1.00  0.00     0.020 C 
HETATM   19  C25 UNL     1      -3.033   6.962  14.539  1.00  0.00     0.002 C 
HETATM   20  C26 UNL     1      -4.015   7.996  15.154  1.00  0.00     0.007 C 
HETATM   21  C27 UNL     1      -5.367   7.386  15.565  1.00  0.00     0.014 C 
HETATM   22  C28 UNL     1      -6.026   6.620  14.406  1.00  0.00     0.003 C 
HETATM   23  C29 UNL     1      -6.422   7.621  13.283  1.00  0.00     0.020 C 
ENDROOT
BRANCH   3  24
HETATM   24  O1  UNL     1      -6.948   4.997  15.991  1.00  0.00    -0.377 OA
HETATM   25  H2  UNL     1      -7.757   4.510  16.227  1.00  0.00     0.211 HD
ENDBRANCH   3  24
BRANCH  13  26
HETATM   26  O2  UNL     1       3.057   7.809  15.875  1.00  0.00    -0.271 OA
BRANCH  26  27
HETATM   27  C13 UNL     1       4.010   8.552  15.132  1.00  0.00     0.303 C 
BRANCH  27  28
HETATM   28  C14 UNL     1       3.990   8.134  13.663  1.00  0.00     0.244 C 
HETATM   29  O3  UNL     1       3.126   8.477  12.862  1.00  0.00    -0.271 OA
HETATM   30  N2  UNL     1       5.061   7.329  13.305  1.00  0.00    -0.344 N 
HETATM   31  H16 UNL     1       5.493   6.806  14.058  1.00  0.00     0.163 HD
BRANCH  30  32
HETATM   32  C15 UNL     1       5.099   6.694  11.984  1.00  0.00     0.186 C 
BRANCH  32  33
HETATM   33  C16 UNL     1       6.472   6.983  11.369  1.00  0.00     0.163 C 
HETATM   34  O4  UNL     1       6.928   6.480  10.351  1.00  0.00    -0.648 OA
BRANCH  33  35
HETATM   35  O5  UNL     1       7.209   7.852  12.091  1.00  0.00    -0.775 OA
HETATM   36  H18 UNL     1       8.035   7.957  11.573  1.00  0.00     0.167 HD
ENDBRANCH  33  35
ENDBRANCH  32  33
BRANCH  32  37
HETATM   37  C17 UNL     1       3.972   7.174  11.039  1.00  0.00     0.014 C 
HETATM   38  C18 UNL     1       3.254   6.032  10.309  1.00  0.00     0.012 C 
BRANCH  37  39
HETATM   39  C19 UNL     1       4.441   8.272  10.057  1.00  0.00     0.002 C 
HETATM   40  C20 UNL     1       3.658   8.396   8.758  1.00  0.00     0.005 C 
ENDBRANCH  37  39
ENDBRANCH  32  37
ENDBRANCH  30  32
ENDBRANCH  27  28
ENDBRANCH  26  27
ENDBRANCH  13  26
TORSDOF 9
ENDMDL
MODEL 6
REMARK minimizedAffinity -8.69654083
REMARK  9 active torsions:
REMARK  status: ('A' for Active; 'I' for Inactive)
REMARK    1  A    between atoms: C3_3  and  O1_4 
REMARK    2  A    between atoms: N1_14  and  O2_16 
REMARK    3  A    between atoms: O2_16  and  C13_17 
REMARK    4  A    between atoms: C13_17  and  C14_18 
REMARK       I    between atoms: C14_18  and  N2_20 
REMARK    5  A    between atoms: N2_20  and  C15_21 
REMARK    6  A    between atoms: C15_21  and  C16_22 
REMARK    7  A    between atoms: C15_21  and  C17_25 
REMARK    8  A    between atoms: C16_22  and  O5_24 
REMARK    9  A    between atoms: C17_25  and  C19_27 
ROOT
HETATM    1  C1  UNL     1       1.506   6.468  13.437  1.00  0.00     0.015 C 
HETATM    2  C2  UNL     1       0.450   6.140  12.968  1.00  0.00    -0.078 C 
HETATM    3  C3  UNL     1      -0.840   5.761  12.373  1.00  0.00     0.128 C 
HETATM    4  C4  UNL     1      -0.856   4.296  11.874  1.00  0.00     0.052 C 
HETATM    5  C5  UNL     1      -2.298   3.782  12.083  1.00  0.00     0.010 C 
HETATM    6  C6  UNL     1      -3.085   5.013  12.526  1.00  0.00     0.002 C 
HETATM    7  C7  UNL     1      -4.419   4.814  13.257  1.00  0.00    -0.004 C 
HETATM    8  C8  UNL     1      -5.399   3.984  12.417  1.00  0.00     0.010 C 
HETATM    9  C9  UNL     1      -6.736   3.821  13.130  1.00  0.00     0.035 C 
HETATM   10  C10 UNL     1      -7.341   5.152  13.510  1.00  0.00    -0.069 C 
HETATM   11  C11 UNL     1      -8.617   5.419  13.178  1.00  0.00     0.030 C 
HETATM   12  C12 UNL     1      -9.305   6.658  13.626  1.00  0.00     0.032 C 
HETATM   13  N1  UNL     1     -10.517   6.870  13.201  1.00  0.00    -0.271 N 
ATOM     14  H1  UNL     1     -11.013   6.263  12.549  1.00  0.00     0.194 HD
HETATM   15  C21 UNL     1      -8.565   7.554  14.598  1.00  0.00     0.060 C 
HETATM   16  C22 UNL     1      -7.073   7.543  14.295  1.00  0.00     0.020 C 
HETATM   17  C23 UNL     1      -6.439   6.123  14.284  1.00  0.00    -0.016 C 
HETATM   18  C24 UNL     1      -6.318   5.617  15.739  1.00  0.00     0.020 C 
HETATM   19  C25 UNL     1      -5.035   6.214  13.571  1.00  0.00     0.002 C 
HETATM   20  C26 UNL     1      -4.021   7.140  14.295  1.00  0.00     0.007 C 
HETATM   21  C27 UNL     1      -2.655   7.221  13.589  1.00  0.00     0.014 C 
HETATM   22  C28 UNL     1      -2.054   5.826  13.345  1.00  0.00     0.003 C 
HETATM   23  C29 UNL     1      -1.703   5.167  14.710  1.00  0.00     0.020 C 
ENDROOT
BRANCH   3  24
HETATM   24  O1  UNL     1      -1.071   6.609  11.243  1.00  0.00    -0.377 OA
HETATM   25  H2  UNL     1      -0.255   6.600  10.713  1.00  0.00     0.211 HD
ENDBRANCH   3  24
BRANCH  13  26
HETATM   26  O2  UNL     1     -11.054   8.042  13.755  1.00  0.00    -0.271 OA
BRANCH  26  27
HETATM   27  C13 UNL     1     -11.716   8.774  12.737  1.00  0.00     0.303 C 
BRANCH  27  28
HETATM   28  C14 UNL     1     -13.139   9.127  13.168  1.00  0.00     0.244 C 
HETATM   29  O3  UNL     1     -13.511   9.176  14.336  1.00  0.00    -0.271 OA
HETATM   30  N2  UNL     1     -13.984   9.404  12.104  1.00  0.00    -0.344 N 
HETATM   31  H16 UNL     1     -13.725   8.993  11.214  1.00  0.00     0.163 HD
BRANCH  30  32
HETATM   32  C15 UNL     1     -15.421   9.585  12.329  1.00  0.00     0.186 C 
BRANCH  32  33
HETATM   33  C16 UNL     1     -16.163   8.687  11.334  1.00  0.00     0.163 C 
HETATM   34  O4  UNL     1     -17.157   8.992  10.688  1.00  0.00    -0.648 OA
BRANCH  33  35
HETATM   35  O5  UNL     1     -15.643   7.446  11.243  1.00  0.00    -0.775 OA
HETATM   36  H18 UNL     1     -16.195   7.001  10.565  1.00  0.00     0.167 HD
ENDBRANCH  33  35
ENDBRANCH  32  33
BRANCH  32  37
HETATM   37  C17 UNL     1     -15.887  11.053  12.182  1.00  0.00     0.014 C 
HETATM   38  C18 UNL     1     -15.457  11.952  13.348  1.00  0.00     0.012 C 
BRANCH  37  39
HETATM   39  C19 UNL     1     -17.400  11.175  11.895  1.00  0.00     0.002 C 
HETATM   40  C20 UNL     1     -18.222  11.947  12.918  1.00  0.00     0.005 C 
ENDBRANCH  37  39
ENDBRANCH  32  37
ENDBRANCH  30  32
ENDBRANCH  27  28
ENDBRANCH  26  27
ENDBRANCH  13  26
TORSDOF 9
ENDMDL
MODEL 7
REMARK minimizedAffinity -8.69216633
REMARK  9 active torsions:
REMARK  status: ('A' for Active; 'I' for Inactive)
REMARK    1  A    between atoms: C3_3  and  O1_4 
REMARK    2  A    between atoms: N1_14  and  O2_16 
REMARK    3  A    between atoms: O2_16  and  C13_17 
REMARK    4  A    between atoms: C13_17  and  C14_18 
REMARK       I    between atoms: C14_18  and  N2_20 
REMARK    5  A    between atoms: N2_20  and  C15_21 
REMARK    6  A    between atoms: C15_21  and  C16_22 
REMARK    7  A    between atoms: C15_21  and  C17_25 
REMARK    8  A    between atoms: C16_22  and  O5_24 
REMARK    9  A    between atoms: C17_25  and  C19_27 
ROOT
HETATM    1  C1  UNL     1      -6.957   8.227  15.731  1.00  0.00     0.015 C 
HETATM    2  C2  UNL     1      -6.068   7.507  15.367  1.00  0.00    -0.078 C 
HETATM    3  C3  UNL     1      -4.971   6.620  14.951  1.00  0.00     0.128 C 
HETATM    4  C4  UNL     1      -5.468   5.405  14.129  1.00  0.00     0.052 C 
HETATM    5  C5  UNL     1      -4.354   5.086  13.108  1.00  0.00     0.010 C 
HETATM    6  C6  UNL     1      -3.201   6.008  13.496  1.00  0.00     0.002 C 
HETATM    7  C7  UNL     1      -2.112   6.307  12.457  1.00  0.00    -0.004 C 
HETATM    8  C8  UNL     1      -1.451   5.018  11.953  1.00  0.00     0.010 C 
HETATM    9  C9  UNL     1      -0.345   5.321  10.950  1.00  0.00     0.035 C 
HETATM   10  C10 UNL     1       0.685   6.273  11.513  1.00  0.00    -0.069 C 
HETATM   11  C11 UNL     1       1.991   5.958  11.437  1.00  0.00     0.030 C 
HETATM   12  C12 UNL     1       3.055   6.903  11.862  1.00  0.00     0.032 C 
HETATM   13  N1  UNL     1       4.289   6.491  11.821  1.00  0.00    -0.271 N 
ATOM     14  H1  UNL     1       4.573   5.548  11.552  1.00  0.00     0.194 HD
HETATM   15  C21 UNL     1       2.628   8.302  12.256  1.00  0.00     0.060 C 
HETATM   16  C22 UNL     1       1.277   8.265  12.956  1.00  0.00     0.020 C 
HETATM   17  C23 UNL     1       0.154   7.573  12.131  1.00  0.00    -0.016 C 
HETATM   18  C24 UNL     1      -0.277   8.515  10.985  1.00  0.00     0.020 C 
HETATM   19  C25 UNL     1      -1.041   7.241  13.104  1.00  0.00     0.002 C 
HETATM   20  C26 UNL     1      -1.687   8.492  13.758  1.00  0.00     0.007 C 
HETATM   21  C27 UNL     1      -2.852   8.154  14.705  1.00  0.00     0.014 C 
HETATM   22  C28 UNL     1      -3.914   7.279  14.018  1.00  0.00     0.003 C 
HETATM   23  C29 UNL     1      -4.607   8.097  12.890  1.00  0.00     0.020 C 
ENDROOT
BRANCH   3  24
HETATM   24  O1  UNL     1      -4.337   6.117  16.131  1.00  0.00    -0.377 OA
HETATM   25  H2  UNL     1      -5.045   5.795  16.716  1.00  0.00     0.211 HD
ENDBRANCH   3  24
BRANCH  13  26
HETATM   26  O2  UNL     1       5.179   7.509  12.192  1.00  0.00    -0.271 OA
BRANCH  26  27
HETATM   27  C13 UNL     1       6.296   6.931  12.849  1.00  0.00     0.303 C 
BRANCH  27  28
HETATM   28  C14 UNL     1       7.008   7.971  13.714  1.00  0.00     0.244 C 
HETATM   29  O3  UNL     1       6.586   9.106  13.912  1.00  0.00    -0.271 OA
HETATM   30  N2  UNL     1       8.188   7.505  14.275  1.00  0.00    -0.344 N 
HETATM   31  H16 UNL     1       8.638   6.739  13.787  1.00  0.00     0.163 HD
BRANCH  30  32
HETATM   32  C15 UNL     1       9.082   8.425  14.983  1.00  0.00     0.186 C 
BRANCH  32  33
HETATM   33  C16 UNL     1       8.623   8.486  16.444  1.00  0.00     0.163 C 
HETATM   34  O4  UNL     1       9.313   8.802  17.405  1.00  0.00    -0.648 OA
BRANCH  33  35
HETATM   35  O5  UNL     1       7.341   8.105  16.618  1.00  0.00    -0.775 OA
HETATM   36  H18 UNL     1       7.185   8.217  17.580  1.00  0.00     0.167 HD
ENDBRANCH  33  35
ENDBRANCH  32  33
BRANCH  32  37
HETATM   37  C17 UNL     1       9.117   9.844  14.368  1.00  0.00     0.014 C 
HETATM   38  C18 UNL     1      10.388  10.133  13.562  1.00  0.00     0.012 C 
BRANCH  37  39
HETATM   39  C19 UNL     1       8.835  10.954  15.407  1.00  0.00     0.002 C 
HETATM   40  C20 UNL     1       8.629  12.358  14.856  1.00  0.00     0.005 C 
ENDBRANCH  37  39
ENDBRANCH  32  37
ENDBRANCH  30  32
ENDBRANCH  27  28
ENDBRANCH  26  27
ENDBRANCH  13  26
TORSDOF 9
ENDMDL
MODEL 8
REMARK minimizedAffinity -8.60472107
REMARK  9 active torsions:
REMARK  status: ('A' for Active; 'I' for Inactive)
REMARK    1  A    between atoms: C3_3  and  O1_4 
REMARK    2  A    between atoms: N1_14  and  O2_16 
REMARK    3  A    between atoms: O2_16  and  C13_17 
REMARK    4  A    between atoms: C13_17  and  C14_18 
REMARK       I    between atoms: C14_18  and  N2_20 
REMARK    5  A    between atoms: N2_20  and  C15_21 
REMARK    6  A    between atoms: C15_21  and  C16_22 
REMARK    7  A    between atoms: C15_21  and  C17_25 
REMARK    8  A    between atoms: C16_22  and  O5_24 
REMARK    9  A    between atoms: C17_25  and  C19_27 
ROOT
HETATM    1  C1  UNL     1      -5.123   9.604  15.981  1.00  0.00     0.015 C 
HETATM    2  C2  UNL     1      -4.365   8.726  15.673  1.00  0.00    -0.078 C 
HETATM    3  C3  UNL     1      -3.421   7.653  15.324  1.00  0.00     0.128 C 
HETATM    4  C4  UNL     1      -4.130   6.303  15.053  1.00  0.00     0.052 C 
HETATM    5  C5  UNL     1      -3.300   5.589  13.963  1.00  0.00     0.010 C 
HETATM    6  C6  UNL     1      -2.066   6.468  13.780  1.00  0.00     0.002 C 
HETATM    7  C7  UNL     1      -1.250   6.337  12.487  1.00  0.00    -0.004 C 
HETATM    8  C8  UNL     1      -0.760   4.899  12.278  1.00  0.00     0.010 C 
HETATM    9  C9  UNL     1       0.081   4.781  11.013  1.00  0.00     0.035 C 
HETATM   10  C10 UNL     1       1.238   5.753  11.010  1.00  0.00    -0.069 C 
HETATM   11  C11 UNL     1       2.480   5.305  10.750  1.00  0.00     0.030 C 
HETATM   12  C12 UNL     1       3.637   6.226  10.615  1.00  0.00     0.032 C 
HETATM   13  N1  UNL     1       4.815   5.702  10.433  1.00  0.00    -0.271 N 
ATOM     14  H1  UNL     1       5.004   4.700  10.417  1.00  0.00     0.194 HD
HETATM   15  C21 UNL     1       3.351   7.713  10.636  1.00  0.00     0.060 C 
HETATM   16  C22 UNL     1       2.206   8.017  11.592  1.00  0.00     0.020 C 
HETATM   17  C23 UNL     1       0.902   7.223  11.292  1.00  0.00    -0.016 C 
HETATM   18  C24 UNL     1       0.232   7.818  10.034  1.00  0.00     0.020 C 
HETATM   19  C25 UNL     1      -0.033   7.313  12.558  1.00  0.00     0.002 C 
HETATM   20  C26 UNL     1      -0.474   8.759  12.914  1.00  0.00     0.007 C 
HETATM   21  C27 UNL     1      -1.386   8.832  14.152  1.00  0.00     0.014 C 
HETATM   22  C28 UNL     1      -2.603   7.899  14.023  1.00  0.00     0.003 C 
HETATM   23  C29 UNL     1      -3.526   8.408  12.878  1.00  0.00     0.020 C 
ENDROOT
BRANCH   3  24
HETATM   24  O1  UNL     1      -2.535   7.466  16.432  1.00  0.00    -0.377 OA
HETATM   25  H2  UNL     1      -3.091   7.402  17.229  1.00  0.00     0.211 HD
ENDBRANCH   3  24
BRANCH  13  26
HETATM   26  O2  UNL     1       5.793   6.694  10.262  1.00  0.00    -0.271 OA
BRANCH  26  27
HETATM   27  C13 UNL     1       6.808   6.516  11.237  1.00  0.00     0.303 C 
BRANCH  27  28
HETATM   28  C14 UNL     1       6.840   7.701  12.202  1.00  0.00     0.244 C 
HETATM   29  O3  UNL     1       6.571   8.855  11.883  1.00  0.00    -0.271 OA
HETATM   30  N2  UNL     1       7.195   7.348  13.496  1.00  0.00    -0.344 N 
HETATM   31  H16 UNL     1       7.742   6.500  13.589  1.00  0.00     0.163 HD
BRANCH  30  32
HETATM   32  C15 UNL     1       7.448   8.384  14.501  1.00  0.00     0.186 C 
BRANCH  32  33
HETATM   33  C16 UNL     1       8.635   7.925  15.353  1.00  0.00     0.163 C 
HETATM   34  O4  UNL     1       9.772   7.714  14.953  1.00  0.00    -0.648 OA
BRANCH  33  35
HETATM   35  O5  UNL     1       8.315   7.714  16.646  1.00  0.00    -0.775 OA
HETATM   36  H18 UNL     1       9.162   7.452  17.066  1.00  0.00     0.167 HD
ENDBRANCH  33  35
ENDBRANCH  32  33
BRANCH  32  37
HETATM   37  C17 UNL     1       6.223   8.683  15.398  1.00  0.00     0.014 C 
HETATM   38  C18 UNL     1       5.043   7.731  15.162  1.00  0.00     0.012 C 
BRANCH  37  39
HETATM   39  C19 UNL     1       5.783  10.163  15.337  1.00  0.00     0.002 C 
HETATM   40  C20 UNL     1       4.524  10.461  14.534  1.00  0.00     0.005 C 
ENDBRANCH  37  39
ENDBRANCH  32  37
ENDBRANCH  30  32
ENDBRANCH  27  28
ENDBRANCH  26  27
ENDBRANCH  13  26
TORSDOF 9
ENDMDL
MODEL 9
REMARK minimizedAffinity -8.45167255
REMARK  9 active torsions:
REMARK  status: ('A' for Active; 'I' for Inactive)
REMARK    1  A    between atoms: C3_3  and  O1_4 
REMARK    2  A    between atoms: N1_14  and  O2_16 
REMARK    3  A    between atoms: O2_16  and  C13_17 
REMARK    4  A    between atoms: C13_17  and  C14_18 
REMARK       I    between atoms: C14_18  and  N2_20 
REMARK    5  A    between atoms: N2_20  and  C15_21 
REMARK    6  A    between atoms: C15_21  and  C16_22 
REMARK    7  A    between atoms: C15_21  and  C17_25 
REMARK    8  A    between atoms: C16_22  and  O5_24 
REMARK    9  A    between atoms: C17_25  and  C19_27 
ROOT
HETATM    1  C1  UNL     1      -5.403 -12.308   5.485  1.00  0.00     0.015 C 
HETATM    2  C2  UNL     1      -5.160 -11.754   4.448  1.00  0.00    -0.078 C 
HETATM    3  C3  UNL     1      -4.854 -11.051   3.193  1.00  0.00     0.128 C 
HETATM    4  C4  UNL     1      -3.775 -11.776   2.353  1.00  0.00     0.052 C 
HETATM    5  C5  UNL     1      -4.131 -11.518   0.872  1.00  0.00     0.010 C 
HETATM    6  C6  UNL     1      -5.286 -10.522   0.922  1.00  0.00     0.002 C 
HETATM    7  C7  UNL     1      -6.195 -10.381  -0.306  1.00  0.00    -0.004 C 
HETATM    8  C8  UNL     1      -5.391 -10.009  -1.558  1.00  0.00     0.010 C 
HETATM    9  C9  UNL     1      -6.301  -9.834  -2.767  1.00  0.00     0.035 C 
HETATM   10  C10 UNL     1      -7.397  -8.826  -2.509  1.00  0.00    -0.069 C 
HETATM   11  C11 UNL     1      -7.601  -7.829  -3.389  1.00  0.00     0.030 C 
HETATM   12  C12 UNL     1      -8.736  -6.880  -3.254  1.00  0.00     0.032 C 
HETATM   13  N1  UNL     1      -8.819  -5.903  -4.110  1.00  0.00    -0.271 N 
ATOM     14  H1  UNL     1      -8.135  -5.721  -4.845  1.00  0.00     0.194 HD
HETATM   15  C21 UNL     1      -9.751  -7.157  -2.164  1.00  0.00     0.060 C 
HETATM   16  C22 UNL     1      -9.064  -7.748  -0.940  1.00  0.00     0.020 C 
HETATM   17  C23 UNL     1      -8.232  -9.028  -1.238  1.00  0.00    -0.016 C 
HETATM   18  C24 UNL     1      -9.198 -10.210  -1.474  1.00  0.00     0.020 C 
HETATM   19  C25 UNL     1      -7.270  -9.286  -0.015  1.00  0.00     0.002 C 
HETATM   20  C26 UNL     1      -8.010  -9.547   1.324  1.00  0.00     0.007 C 
HETATM   21  C27 UNL     1      -7.060  -9.798   2.509  1.00  0.00     0.014 C 
HETATM   22  C28 UNL     1      -6.052 -10.919   2.208  1.00  0.00     0.003 C 
HETATM   23  C29 UNL     1      -6.807 -12.273   2.074  1.00  0.00     0.020 C 
ENDROOT
BRANCH   3  24
HETATM   24  O1  UNL     1      -4.349  -9.754   3.526  1.00  0.00    -0.377 OA
HETATM   25  H2  UNL     1      -3.664  -9.884   4.205  1.00  0.00     0.211 HD
ENDBRANCH   3  24
BRANCH  13  26
HETATM   26  O2  UNL     1      -9.971  -5.131  -3.893  1.00  0.00    -0.271 OA
BRANCH  26  27
HETATM   27  C13 UNL     1     -10.393  -4.573  -5.127  1.00  0.00     0.303 C 
BRANCH  27  28
HETATM   28  C14 UNL     1      -9.761  -3.198  -5.338  1.00  0.00     0.244 C 
HETATM   29  O3  UNL     1     -10.056  -2.198  -4.691  1.00  0.00    -0.271 OA
HETATM   30  N2  UNL     1      -8.797  -3.182  -6.336  1.00  0.00    -0.344 N 
HETATM   31  H16 UNL     1      -8.879  -3.906  -7.041  1.00  0.00     0.163 HD
BRANCH  30  32
HETATM   32  C15 UNL     1      -8.223  -1.912  -6.789  1.00  0.00     0.186 C 
BRANCH  32  33
HETATM   33  C16 UNL     1      -7.062  -1.567  -5.851  1.00  0.00     0.163 C 
HETATM   34  O4  UNL     1      -6.093  -0.872  -6.126  1.00  0.00    -0.648 OA
BRANCH  33  35
HETATM   35  O5  UNL     1      -7.162  -2.151  -4.639  1.00  0.00    -0.775 OA
HETATM   36  H18 UNL     1      -6.377  -1.826  -4.149  1.00  0.00     0.167 HD
ENDBRANCH  33  35
ENDBRANCH  32  33
BRANCH  32  37
HETATM   37  C17 UNL     1      -9.248  -0.753  -6.828  1.00  0.00     0.014 C 
HETATM   38  C18 UNL     1     -10.314  -0.913  -7.919  1.00  0.00     0.012 C 
BRANCH  37  39
HETATM   39  C19 UNL     1      -8.577   0.638  -6.885  1.00  0.00     0.002 C 
HETATM   40  C20 UNL     1      -8.097   1.101  -8.253  1.00  0.00     0.005 C 
ENDBRANCH  37  39
ENDBRANCH  32  37
ENDBRANCH  30  32
ENDBRANCH  27  28
ENDBRANCH  26  27
ENDBRANCH  13  26
TORSDOF 9
ENDMDL
