MODEL 1
REMARK minimizedAffinity -9.77891254
REMARK  5 active torsions:
REMARK  status: ('A' for Active; 'I' for Inactive)
REMARK    1  A    between atoms: C5_5  and  C6_6 
REMARK    2  A    between atoms: C6_6  and  C7_8 
REMARK    3  A    between atoms: C7_8  and  O2_9 
REMARK    4  A    between atoms: O2_9  and  C8_10 
REMARK    5  A    between atoms: C14_17  and  C15_18 
ROOT
HETATM    1  C8  UNL     1      -3.086  50.277 -27.511  1.00  0.00     0.093 A 
HETATM    2  C9  UNL     1      -2.410  51.474 -27.748  1.00  0.00     0.076 A 
HETATM    3  C10 UNL     1      -1.673  52.060 -26.716  1.00  0.00     0.093 A 
HETATM    4  C11 UNL     1      -1.577  51.487 -25.448  1.00  0.00     0.011 A 
HETATM    5  C12 UNL     1      -2.248  50.281 -25.220  1.00  0.00     0.042 A 
HETATM    6  C13 UNL     1      -2.990  49.681 -26.244  1.00  0.00     0.068 A 
HETATM    7 CL1  UNL     1      -3.810  48.198 -25.892  1.00  0.00    -0.081 Cl
HETATM    8  C14 UNL     1      -0.781  52.162 -24.414  1.00  0.00    -0.007 A 
HETATM    9  C21 UNL     1      -0.173  53.314 -24.737  1.00  0.00     0.095 A 
HETATM   10  C22 UNL     1      -0.262  53.932 -26.068  1.00  0.00     0.289 A 
HETATM   11  O3  UNL     1       0.311  54.987 -26.309  1.00  0.00    -0.260 OA
HETATM   12  O4  UNL     1      -1.019  53.268 -27.019  1.00  0.00    -0.275 OA
ENDROOT
BRANCH   1  13
HETATM   13  O2  UNL     1      -3.813  49.615 -28.464  1.00  0.00    -0.342 OA
BRANCH  13  14
HETATM   14  C7  UNL     1      -4.484  48.436 -28.041  1.00  0.00     0.254 C 
BRANCH  14  15
HETATM   15  C6  UNL     1      -5.693  48.165 -28.932  1.00  0.00     0.155 C 
HETATM   16  O1  UNL     1      -6.793  47.927 -28.427  1.00  0.00    -0.295 OA
BRANCH  15  17
HETATM   17  C5  UNL     1      -5.463  48.094 -30.446  1.00  0.00     0.062 C 
HETATM   18  C4  UNL     1      -4.844  46.732 -30.787  1.00  0.00     0.049 C 
HETATM   19  C2  UNL     1      -5.057  46.325 -32.256  1.00  0.00     0.054 C 
HETATM   20  C1  UNL     1      -4.641  44.862 -32.448  1.00  0.00     0.045 C 
HETATM   21  C3  UNL     1      -4.225  47.202 -33.200  1.00  0.00     0.045 C 
HETATM   22  O5  UNL     1      -6.426  46.418 -32.675  1.00  0.00    -0.381 OA
HETATM   23  C24 UNL     1      -7.327  47.039 -31.761  1.00  0.00     0.169 C 
HETATM   24  C23 UNL     1      -6.758  48.344 -31.234  1.00  0.00     0.038 C 
ENDBRANCH  15  17
ENDBRANCH  14  15
ENDBRANCH  13  14
ENDBRANCH   1  13
BRANCH   8  25
HETATM   25  C15 UNL     1      -0.582  51.685 -23.032  1.00  0.00    -0.025 A 
HETATM   26  C16 UNL     1       0.204  52.423 -22.139  1.00  0.00     0.012 A 
HETATM   27  C17 UNL     1       0.396  51.968 -20.832  1.00  0.00     0.001 A 
HETATM   28  C18 UNL     1      -0.197  50.777 -20.414  1.00  0.00     0.000 A 
HETATM   29  C19 UNL     1      -0.982  50.039 -21.298  1.00  0.00     0.001 A 
HETATM   30  C20 UNL     1      -1.175  50.490 -22.605  1.00  0.00     0.012 A 
ENDBRANCH   8  25
TORSDOF 5
ENDMDL
MODEL 2
REMARK minimizedAffinity -9.73002434
REMARK  5 active torsions:
REMARK  status: ('A' for Active; 'I' for Inactive)
REMARK    1  A    between atoms: C5_5  and  C6_6 
REMARK    2  A    between atoms: C6_6  and  C7_8 
REMARK    3  A    between atoms: C7_8  and  O2_9 
REMARK    4  A    between atoms: O2_9  and  C8_10 
REMARK    5  A    between atoms: C14_17  and  C15_18 
ROOT
HETATM    1  C8  UNL     1      -2.718  50.425 -27.320  1.00  0.00     0.093 A 
HETATM    2  C9  UNL     1      -2.113  51.659 -27.558  1.00  0.00     0.076 A 
HETATM    3  C10 UNL     1      -1.421  52.294 -26.524  1.00  0.00     0.093 A 
HETATM    4  C11 UNL     1      -1.302  51.735 -25.252  1.00  0.00     0.011 A 
HETATM    5  C12 UNL     1      -1.901  50.493 -25.021  1.00  0.00     0.042 A 
HETATM    6  C13 UNL     1      -2.598  49.843 -26.047  1.00  0.00     0.068 A 
HETATM    7 CL1  UNL     1      -3.330  48.316 -25.693  1.00  0.00    -0.081 Cl
HETATM    8  C14 UNL     1      -0.557  52.463 -24.215  1.00  0.00    -0.007 A 
HETATM    9  C21 UNL     1      -0.016  53.648 -24.540  1.00  0.00     0.095 A 
HETATM   10  C22 UNL     1      -0.131  54.251 -25.877  1.00  0.00     0.289 A 
HETATM   11  O3  UNL     1       0.380  55.337 -26.119  1.00  0.00    -0.260 OA
HETATM   12  O4  UNL     1      -0.839  53.538 -26.830  1.00  0.00    -0.275 OA
ENDROOT
BRANCH   1  13
HETATM   13  O2  UNL     1      -3.396  49.715 -28.274  1.00  0.00    -0.342 OA
BRANCH  13  14
HETATM   14  C7  UNL     1      -4.229  48.663 -27.807  1.00  0.00     0.254 C 
BRANCH  14  15
HETATM   15  C6  UNL     1      -5.095  48.128 -28.943  1.00  0.00     0.155 C 
HETATM   16  O1  UNL     1      -4.853  48.449 -30.110  1.00  0.00    -0.295 OA
BRANCH  15  17
HETATM   17  C5  UNL     1      -6.318  47.283 -28.573  1.00  0.00     0.062 C 
HETATM   18  C4  UNL     1      -6.665  47.536 -27.099  1.00  0.00     0.049 C 
HETATM   19  C2  UNL     1      -8.125  47.193 -26.757  1.00  0.00     0.054 C 
HETATM   20  C1  UNL     1      -8.457  47.709 -25.352  1.00  0.00     0.045 C 
HETATM   21  C3  UNL     1      -8.363  45.678 -26.795  1.00  0.00     0.045 C 
HETATM   22  O5  UNL     1      -9.072  47.801 -27.648  1.00  0.00    -0.381 OA
HETATM   23  C24 UNL     1      -8.532  48.449 -28.798  1.00  0.00     0.169 C 
HETATM   24  C23 UNL     1      -7.512  47.568 -29.496  1.00  0.00     0.038 C 
ENDBRANCH  15  17
ENDBRANCH  14  15
ENDBRANCH  13  14
ENDBRANCH   1  13
BRANCH   8  25
HETATM   25  C15 UNL     1      -0.341  52.007 -22.829  1.00  0.00    -0.025 A 
HETATM   26  C16 UNL     1      -0.900  50.800 -22.390  1.00  0.00     0.012 A 
HETATM   27  C17 UNL     1      -0.699  50.371 -21.076  1.00  0.00     0.001 A 
HETATM   28  C18 UNL     1       0.061  51.144 -20.198  1.00  0.00     0.000 A 
HETATM   29  C19 UNL     1       0.621  52.346 -20.630  1.00  0.00     0.001 A 
HETATM   30  C20 UNL     1       0.421  52.778 -21.942  1.00  0.00     0.012 A 
ENDBRANCH   8  25
TORSDOF 5
ENDMDL
MODEL 3
REMARK minimizedAffinity -9.5811739
REMARK  5 active torsions:
REMARK  status: ('A' for Active; 'I' for Inactive)
REMARK    1  A    between atoms: C5_5  and  C6_6 
REMARK    2  A    between atoms: C6_6  and  C7_8 
REMARK    3  A    between atoms: C7_8  and  O2_9 
REMARK    4  A    between atoms: O2_9  and  C8_10 
REMARK    5  A    between atoms: C14_17  and  C15_18 
ROOT
HETATM    1  C8  UNL     1      -2.792  49.173 -25.057  1.00  0.00     0.093 A 
HETATM    2  C9  UNL     1      -2.152  50.105 -25.873  1.00  0.00     0.076 A 
HETATM    3  C10 UNL     1      -1.370  51.105 -25.288  1.00  0.00     0.093 A 
HETATM    4  C11 UNL     1      -1.195  51.205 -23.908  1.00  0.00     0.011 A 
HETATM    5  C12 UNL     1      -1.831  50.260 -23.095  1.00  0.00     0.042 A 
HETATM    6  C13 UNL     1      -2.617  49.252 -23.666  1.00  0.00     0.068 A 
HETATM    7 CL1  UNL     1      -3.390  48.124 -22.605  1.00  0.00    -0.081 Cl
HETATM    8  C14 UNL     1      -0.356  52.283 -23.367  1.00  0.00    -0.007 A 
HETATM    9  C21 UNL     1       0.213  53.136 -24.234  1.00  0.00     0.095 A 
HETATM   10  C22 UNL     1       0.040  53.045 -25.691  1.00  0.00     0.289 A 
HETATM   11  O3  UNL     1       0.580  53.852 -26.437  1.00  0.00    -0.260 OA
HETATM   12  O4  UNL     1      -0.755  52.016 -26.167  1.00  0.00    -0.275 OA
ENDROOT
BRANCH   1  13
HETATM   13  O2  UNL     1      -3.558  48.144 -25.536  1.00  0.00    -0.342 OA
BRANCH  13  14
HETATM   14  C7  UNL     1      -4.760  48.506 -26.201  1.00  0.00     0.254 C 
BRANCH  14  15
HETATM   15  C6  UNL     1      -4.654  48.198 -27.692  1.00  0.00     0.155 C 
HETATM   16  O1  UNL     1      -3.547  48.058 -28.218  1.00  0.00    -0.295 OA
BRANCH  15  17
HETATM   17  C5  UNL     1      -5.949  48.181 -28.512  1.00  0.00     0.062 C 
HETATM   18  C4  UNL     1      -5.600  47.901 -29.980  1.00  0.00     0.049 C 
HETATM   19  C2  UNL     1      -6.785  47.338 -30.783  1.00  0.00     0.054 C 
HETATM   20  C1  UNL     1      -6.292  46.852 -32.151  1.00  0.00     0.045 C 
HETATM   21  C3  UNL     1      -7.865  48.406 -31.000  1.00  0.00     0.045 C 
HETATM   22  O5  UNL     1      -7.412  46.213 -30.153  1.00  0.00    -0.381 OA
HETATM   23  C24 UNL     1      -6.987  45.914 -28.825  1.00  0.00     0.169 C 
HETATM   24  C23 UNL     1      -6.961  47.163 -27.963  1.00  0.00     0.038 C 
ENDBRANCH  15  17
ENDBRANCH  14  15
ENDBRANCH  13  14
ENDBRANCH   1  13
BRANCH   8  25
HETATM   25  C15 UNL     1      -0.074  52.520 -21.939  1.00  0.00    -0.025 A 
HETATM   26  C16 UNL     1       0.962  53.384 -21.560  1.00  0.00     0.012 A 
HETATM   27  C17 UNL     1       1.232  53.604 -20.207  1.00  0.00     0.001 A 
HETATM   28  C18 UNL     1       0.468  52.964 -19.230  1.00  0.00     0.000 A 
HETATM   29  C19 UNL     1      -0.564  52.104 -19.602  1.00  0.00     0.001 A 
HETATM   30  C20 UNL     1      -0.836  51.882 -20.953  1.00  0.00     0.012 A 
ENDBRANCH   8  25
TORSDOF 5
ENDMDL
MODEL 4
REMARK minimizedAffinity -9.55594254
REMARK  5 active torsions:
REMARK  status: ('A' for Active; 'I' for Inactive)
REMARK    1  A    between atoms: C5_5  and  C6_6 
REMARK    2  A    between atoms: C6_6  and  C7_8 
REMARK    3  A    between atoms: C7_8  and  O2_9 
REMARK    4  A    between atoms: O2_9  and  C8_10 
REMARK    5  A    between atoms: C14_17  and  C15_18 
ROOT
HETATM    1  C8  UNL     1      -2.911  49.067 -25.568  1.00  0.00     0.093 A 
HETATM    2  C9  UNL     1      -1.995  49.754 -26.364  1.00  0.00     0.076 A 
HETATM    3  C10 UNL     1      -1.117  50.662 -25.768  1.00  0.00     0.093 A 
HETATM    4  C11 UNL     1      -1.112  50.906 -24.396  1.00  0.00     0.011 A 
HETATM    5  C12 UNL     1      -2.025  50.206 -23.600  1.00  0.00     0.042 A 
HETATM    6  C13 UNL     1      -2.911  49.292 -24.182  1.00  0.00     0.068 A 
HETATM    7 CL1  UNL     1      -4.027  48.469 -23.146  1.00  0.00    -0.081 Cl
HETATM    8  C14 UNL     1      -0.156  51.876 -23.842  1.00  0.00    -0.007 A 
HETATM    9  C21 UNL     1       0.681  52.492 -24.691  1.00  0.00     0.095 A 
HETATM   10  C22 UNL     1       0.691  52.246 -26.141  1.00  0.00     0.289 A 
HETATM   11  O3  UNL     1       1.475  52.839 -26.871  1.00  0.00    -0.260 OA
HETATM   12  O4  UNL     1      -0.222  51.326 -26.628  1.00  0.00    -0.275 OA
ENDROOT
BRANCH   1  13
HETATM   13  O2  UNL     1      -3.794  48.140 -26.053  1.00  0.00    -0.342 OA
BRANCH  13  14
HETATM   14  C7  UNL     1      -4.309  48.378 -27.356  1.00  0.00     0.254 C 
BRANCH  14  15
HETATM   15  C6  UNL     1      -5.770  47.947 -27.436  1.00  0.00     0.155 C 
HETATM   16  O1  UNL     1      -6.392  47.675 -26.406  1.00  0.00    -0.295 OA
BRANCH  15  17
HETATM   17  C5  UNL     1      -6.386  47.763 -28.827  1.00  0.00     0.062 C 
HETATM   18  C4  UNL     1      -5.261  47.477 -29.831  1.00  0.00     0.049 C 
HETATM   19  C2  UNL     1      -5.754  46.763 -31.101  1.00  0.00     0.054 C 
HETATM   20  C1  UNL     1      -4.550  46.291 -31.925  1.00  0.00     0.045 C 
HETATM   21  C3  UNL     1      -6.607  47.699 -31.968  1.00  0.00     0.045 C 
HETATM   22  O5  UNL     1      -6.541  45.596 -30.824  1.00  0.00    -0.381 OA
HETATM   23  C24 UNL     1      -6.904  45.387 -29.461  1.00  0.00     0.169 C 
HETATM   24  C23 UNL     1      -7.453  46.658 -28.839  1.00  0.00     0.038 C 
ENDBRANCH  15  17
ENDBRANCH  14  15
ENDBRANCH  13  14
ENDBRANCH   1  13
BRANCH   8  25
HETATM   25  C15 UNL     1      -0.026  52.241 -22.419  1.00  0.00    -0.025 A 
HETATM   26  C16 UNL     1       0.846  53.266 -22.031  1.00  0.00     0.012 A 
HETATM   27  C17 UNL     1       0.972  53.608 -20.683  1.00  0.00     0.001 A 
HETATM   28  C18 UNL     1       0.228  52.928 -19.718  1.00  0.00     0.000 A 
HETATM   29  C19 UNL     1      -0.642  51.907 -20.098  1.00  0.00     0.001 A 
HETATM   30  C20 UNL     1      -0.770  51.563 -21.445  1.00  0.00     0.012 A 
ENDBRANCH   8  25
TORSDOF 5
ENDMDL
MODEL 5
REMARK minimizedAffinity -9.51699066
REMARK  5 active torsions:
REMARK  status: ('A' for Active; 'I' for Inactive)
REMARK    1  A    between atoms: C5_5  and  C6_6 
REMARK    2  A    between atoms: C6_6  and  C7_8 
REMARK    3  A    between atoms: C7_8  and  O2_9 
REMARK    4  A    between atoms: O2_9  and  C8_10 
REMARK    5  A    between atoms: C14_17  and  C15_18 
ROOT
HETATM    1  C8  UNL     1      -3.103  50.385 -27.475  1.00  0.00     0.093 A 
HETATM    2  C9  UNL     1      -2.402  51.577 -27.653  1.00  0.00     0.076 A 
HETATM    3  C10 UNL     1      -1.669  52.105 -26.587  1.00  0.00     0.093 A 
HETATM    4  C11 UNL     1      -1.602  51.479 -25.343  1.00  0.00     0.011 A 
HETATM    5  C12 UNL     1      -2.298  50.278 -25.174  1.00  0.00     0.042 A 
HETATM    6  C13 UNL     1      -3.037  49.734 -26.232  1.00  0.00     0.068 A 
HETATM    7 CL1  UNL     1      -3.889  48.254 -25.954  1.00  0.00    -0.081 Cl
HETATM    8  C14 UNL     1      -0.809  52.096 -24.270  1.00  0.00    -0.007 A 
HETATM    9  C21 UNL     1      -0.175  53.248 -24.537  1.00  0.00     0.095 A 
HETATM   10  C22 UNL     1      -0.233  53.922 -25.843  1.00  0.00     0.289 A 
HETATM   11  O3  UNL     1       0.363  54.975 -26.031  1.00  0.00    -0.260 OA
HETATM   12  O4  UNL     1      -0.989  53.313 -26.831  1.00  0.00    -0.275 OA
ENDROOT
BRANCH   1  13
HETATM   13  O2  UNL     1      -3.828  49.776 -28.464  1.00  0.00    -0.342 OA
BRANCH  13  14
HETATM   14  C7  UNL     1      -4.242  48.440 -28.215  1.00  0.00     0.254 C 
BRANCH  14  15
HETATM   15  C6  UNL     1      -5.089  47.922 -29.373  1.00  0.00     0.155 C 
HETATM   16  O1  UNL     1      -4.569  47.704 -30.471  1.00  0.00    -0.295 OA
BRANCH  15  17
HETATM   17  C5  UNL     1      -6.600  47.794 -29.152  1.00  0.00     0.062 C 
HETATM   18  C4  UNL     1      -7.316  48.031 -30.489  1.00  0.00     0.049 C 
HETATM   19  C2  UNL     1      -8.728  47.422 -30.531  1.00  0.00     0.054 C 
HETATM   20  C1  UNL     1      -9.268  47.478 -31.966  1.00  0.00     0.045 C 
HETATM   21  C3  UNL     1      -9.690  48.187 -29.613  1.00  0.00     0.045 C 
HETATM   22  O5  UNL     1      -8.762  46.043 -30.137  1.00  0.00    -0.381 OA
HETATM   23  C24 UNL     1      -7.555  45.511 -29.593  1.00  0.00     0.169 C 
HETATM   24  C23 UNL     1      -6.976  46.437 -28.538  1.00  0.00     0.038 C 
ENDBRANCH  15  17
ENDBRANCH  14  15
ENDBRANCH  13  14
ENDBRANCH   1  13
BRANCH   8  25
HETATM   25  C15 UNL     1      -0.638  51.558 -22.907  1.00  0.00    -0.025 A 
HETATM   26  C16 UNL     1       0.137  52.250 -21.969  1.00  0.00     0.012 A 
HETATM   27  C17 UNL     1       0.302  51.738 -20.680  1.00  0.00     0.001 A 
HETATM   28  C18 UNL     1      -0.307  50.535 -20.324  1.00  0.00     0.000 A 
HETATM   29  C19 UNL     1      -1.082  49.842 -21.254  1.00  0.00     0.001 A 
HETATM   30  C20 UNL     1      -1.248  50.351 -22.543  1.00  0.00     0.012 A 
ENDBRANCH   8  25
TORSDOF 5
ENDMDL
MODEL 6
REMARK minimizedAffinity -9.50080776
REMARK  5 active torsions:
REMARK  status: ('A' for Active; 'I' for Inactive)
REMARK    1  A    between atoms: C5_5  and  C6_6 
REMARK    2  A    between atoms: C6_6  and  C7_8 
REMARK    3  A    between atoms: C7_8  and  O2_9 
REMARK    4  A    between atoms: O2_9  and  C8_10 
REMARK    5  A    between atoms: C14_17  and  C15_18 
ROOT
HETATM    1  C8  UNL     1      -2.679  49.213 -25.227  1.00  0.00     0.093 A 
HETATM    2  C9  UNL     1      -2.037  50.160 -26.024  1.00  0.00     0.076 A 
HETATM    3  C10 UNL     1      -1.262  51.153 -25.419  1.00  0.00     0.093 A 
HETATM    4  C11 UNL     1      -1.096  51.231 -24.037  1.00  0.00     0.011 A 
HETATM    5  C12 UNL     1      -1.733  50.272 -23.243  1.00  0.00     0.042 A 
HETATM    6  C13 UNL     1      -2.513  49.270 -23.834  1.00  0.00     0.068 A 
HETATM    7 CL1  UNL     1      -3.288  48.124 -22.795  1.00  0.00    -0.081 Cl
HETATM    8  C14 UNL     1      -0.264  52.304 -23.474  1.00  0.00    -0.007 A 
HETATM    9  C21 UNL     1       0.307  53.172 -24.324  1.00  0.00     0.095 A 
HETATM   10  C22 UNL     1       0.144  53.103 -25.784  1.00  0.00     0.289 A 
HETATM   11  O3  UNL     1       0.686  53.924 -26.514  1.00  0.00    -0.260 OA
HETATM   12  O4  UNL     1      -0.646  52.079 -26.280  1.00  0.00    -0.275 OA
ENDROOT
BRANCH   1  13
HETATM   13  O2  UNL     1      -3.439  48.189 -25.726  1.00  0.00    -0.342 OA
BRANCH  13  14
HETATM   14  C7  UNL     1      -4.680  48.551 -26.315  1.00  0.00     0.254 C 
BRANCH  14  15
HETATM   15  C6  UNL     1      -4.635  48.330 -27.824  1.00  0.00     0.155 C 
HETATM   16  O1  UNL     1      -3.849  48.977 -28.521  1.00  0.00    -0.295 OA
BRANCH  15  17
HETATM   17  C5  UNL     1      -5.663  47.374 -28.438  1.00  0.00     0.062 C 
HETATM   18  C4  UNL     1      -7.038  47.663 -27.820  1.00  0.00     0.049 C 
HETATM   19  C2  UNL     1      -8.206  47.177 -28.695  1.00  0.00     0.054 C 
HETATM   20  C1  UNL     1      -9.526  47.725 -28.139  1.00  0.00     0.045 C 
HETATM   21  C3  UNL     1      -8.280  45.645 -28.719  1.00  0.00     0.045 C 
HETATM   22  O5  UNL     1      -8.119  47.626 -30.054  1.00  0.00    -0.381 OA
HETATM   23  C24 UNL     1      -6.903  48.270 -30.431  1.00  0.00     0.169 C 
HETATM   24  C23 UNL     1      -5.696  47.473 -29.970  1.00  0.00     0.038 C 
ENDBRANCH  15  17
ENDBRANCH  14  15
ENDBRANCH  13  14
ENDBRANCH   1  13
BRANCH   8  25
HETATM   25  C15 UNL     1       0.010  52.519 -22.040  1.00  0.00    -0.025 A 
HETATM   26  C16 UNL     1      -0.677  51.776 -21.073  1.00  0.00     0.012 A 
HETATM   27  C17 UNL     1      -0.421  51.984 -19.716  1.00  0.00     0.001 A 
HETATM   28  C18 UNL     1       0.522  52.933 -19.321  1.00  0.00     0.000 A 
HETATM   29  C19 UNL     1       1.211  53.675 -20.280  1.00  0.00     0.001 A 
HETATM   30  C20 UNL     1       0.956  53.470 -21.638  1.00  0.00     0.012 A 
ENDBRANCH   8  25
TORSDOF 5
ENDMDL
MODEL 7
REMARK minimizedAffinity -9.41033077
REMARK  5 active torsions:
REMARK  status: ('A' for Active; 'I' for Inactive)
REMARK    1  A    between atoms: C5_5  and  C6_6 
REMARK    2  A    between atoms: C6_6  and  C7_8 
REMARK    3  A    between atoms: C7_8  and  O2_9 
REMARK    4  A    between atoms: O2_9  and  C8_10 
REMARK    5  A    between atoms: C14_17  and  C15_18 
ROOT
HETATM    1  C8  UNL     1      -1.372  51.626 -20.470  1.00  0.00     0.093 A 
HETATM    2  C9  UNL     1      -2.227  51.261 -19.431  1.00  0.00     0.076 A 
HETATM    3  C10 UNL     1      -1.720  51.149 -18.134  1.00  0.00     0.093 A 
HETATM    4  C11 UNL     1      -0.383  51.397 -17.831  1.00  0.00     0.011 A 
HETATM    5  C12 UNL     1       0.469  51.774 -18.875  1.00  0.00     0.042 A 
HETATM    6  C13 UNL     1      -0.024  51.891 -20.180  1.00  0.00     0.068 A 
HETATM    7 CL1  UNL     1       1.084  52.345 -21.430  1.00  0.00    -0.081 Cl
HETATM    8  C14 UNL     1       0.076  51.260 -16.441  1.00  0.00    -0.007 A 
HETATM    9  C21 UNL     1      -0.822  50.897 -15.513  1.00  0.00     0.095 A 
HETATM   10  C22 UNL     1      -2.237  50.632 -15.814  1.00  0.00     0.289 A 
HETATM   11  O3  UNL     1      -3.015  50.301 -14.928  1.00  0.00    -0.260 OA
HETATM   12  O4  UNL     1      -2.636  50.772 -17.133  1.00  0.00    -0.275 OA
ENDROOT
BRANCH   1  13
HETATM   13  O2  UNL     1      -1.778  51.785 -21.767  1.00  0.00    -0.342 OA
BRANCH  13  14
HETATM   14  C7  UNL     1      -1.587  50.674 -22.632  1.00  0.00     0.254 C 
BRANCH  14  15
HETATM   15  C6  UNL     1      -1.516  51.138 -24.084  1.00  0.00     0.155 C 
HETATM   16  O1  UNL     1      -2.525  51.109 -24.793  1.00  0.00    -0.295 OA
BRANCH  15  17
HETATM   17  C5  UNL     1      -0.144  51.528 -24.644  1.00  0.00     0.062 C 
HETATM   18  C4  UNL     1      -0.073  51.104 -26.117  1.00  0.00     0.049 C 
HETATM   19  C2  UNL     1       0.984  51.884 -26.918  1.00  0.00     0.054 C 
HETATM   20  C1  UNL     1       0.816  51.587 -28.413  1.00  0.00     0.045 C 
HETATM   21  C3  UNL     1       2.404  51.489 -26.494  1.00  0.00     0.045 C 
HETATM   22  O5  UNL     1       0.869  53.306 -26.769  1.00  0.00    -0.381 OA
HETATM   23  C24 UNL     1      -0.049  53.767 -25.781  1.00  0.00     0.169 C 
HETATM   24  C23 UNL     1       0.141  53.027 -24.469  1.00  0.00     0.038 C 
ENDBRANCH  15  17
ENDBRANCH  14  15
ENDBRANCH  13  14
ENDBRANCH   1  13
BRANCH   8  25
HETATM   25  C15 UNL     1       1.453  51.489 -15.962  1.00  0.00    -0.025 A 
HETATM   26  C16 UNL     1       2.267  52.441 -16.588  1.00  0.00     0.012 A 
HETATM   27  C17 UNL     1       3.571  52.654 -16.137  1.00  0.00     0.001 A 
HETATM   28  C18 UNL     1       4.066  51.919 -15.059  1.00  0.00     0.000 A 
HETATM   29  C19 UNL     1       3.259  50.971 -14.431  1.00  0.00     0.001 A 
HETATM   30  C20 UNL     1       1.955  50.755 -14.880  1.00  0.00     0.012 A 
ENDBRANCH   8  25
TORSDOF 5
ENDMDL
MODEL 8
REMARK minimizedAffinity -9.38913918
REMARK  5 active torsions:
REMARK  status: ('A' for Active; 'I' for Inactive)
REMARK    1  A    between atoms: C5_5  and  C6_6 
REMARK    2  A    between atoms: C6_6  and  C7_8 
REMARK    3  A    between atoms: C7_8  and  O2_9 
REMARK    4  A    between atoms: O2_9  and  C8_10 
REMARK    5  A    between atoms: C14_17  and  C15_18 
ROOT
HETATM    1  C8  UNL     1      -1.898  50.492 -22.770  1.00  0.00     0.093 A 
HETATM    2  C9  UNL     1      -1.073  51.599 -22.967  1.00  0.00     0.076 A 
HETATM    3  C10 UNL     1      -0.328  52.097 -21.895  1.00  0.00     0.093 A 
HETATM    4  C11 UNL     1      -0.368  51.521 -20.626  1.00  0.00     0.011 A 
HETATM    5  C12 UNL     1      -1.189  50.404 -20.437  1.00  0.00     0.042 A 
HETATM    6  C13 UNL     1      -1.942  49.893 -21.501  1.00  0.00     0.068 A 
HETATM    7 CL1  UNL     1      -2.950  48.519 -21.198  1.00  0.00    -0.081 Cl
HETATM    8  C14 UNL     1       0.446  52.101 -19.548  1.00  0.00    -0.007 A 
HETATM    9  C21 UNL     1       1.203  53.171 -19.835  1.00  0.00     0.095 A 
HETATM   10  C22 UNL     1       1.259  53.790 -21.168  1.00  0.00     0.289 A 
HETATM   11  O3  UNL     1       1.966  54.769 -21.374  1.00  0.00    -0.260 OA
HETATM   12  O4  UNL     1       0.480  53.218 -22.160  1.00  0.00    -0.275 OA
ENDROOT
BRANCH   1  13
HETATM   13  O2  UNL     1      -2.647  49.917 -23.762  1.00  0.00    -0.342 OA
BRANCH  13  14
HETATM   14  C7  UNL     1      -2.942  50.734 -24.886  1.00  0.00     0.254 C 
BRANCH  14  15
HETATM   15  C6  UNL     1      -2.171  50.250 -26.111  1.00  0.00     0.155 C 
HETATM   16  O1  UNL     1      -2.216  49.062 -26.441  1.00  0.00    -0.295 OA
BRANCH  15  17
HETATM   17  C5  UNL     1      -1.268  51.257 -26.831  1.00  0.00     0.062 C 
HETATM   18  C4  UNL     1      -1.278  52.577 -26.048  1.00  0.00     0.049 C 
HETATM   19  C2  UNL     1      -0.049  53.457 -26.335  1.00  0.00     0.054 C 
HETATM   20  C1  UNL     1      -0.006  54.620 -25.337  1.00  0.00     0.045 C 
HETATM   21  C3  UNL     1      -0.098  54.030 -27.757  1.00  0.00     0.045 C 
HETATM   22  O5  UNL     1       1.194  52.755 -26.196  1.00  0.00    -0.381 OA
HETATM   23  C24 UNL     1       1.106  51.343 -26.011  1.00  0.00     0.169 C 
HETATM   24  C23 UNL     1       0.158  50.717 -27.018  1.00  0.00     0.038 C 
ENDBRANCH  15  17
ENDBRANCH  14  15
ENDBRANCH  13  14
ENDBRANCH   1  13
BRANCH   8  25
HETATM   25  C15 UNL     1       0.513  51.608 -18.159  1.00  0.00    -0.025 A 
HETATM   26  C16 UNL     1       1.113  52.388 -17.164  1.00  0.00     0.012 A 
HETATM   27  C17 UNL     1       1.180  51.919 -15.850  1.00  0.00     0.001 A 
HETATM   28  C18 UNL     1       0.647  50.671 -15.527  1.00  0.00     0.000 A 
HETATM   29  C19 UNL     1       0.047  49.890 -16.514  1.00  0.00     0.001 A 
HETATM   30  C20 UNL     1      -0.021  50.356 -17.828  1.00  0.00     0.012 A 
ENDBRANCH   8  25
TORSDOF 5
ENDMDL
MODEL 9
REMARK minimizedAffinity -9.36217499
REMARK  5 active torsions:
REMARK  status: ('A' for Active; 'I' for Inactive)
REMARK    1  A    between atoms: C5_5  and  C6_6 
REMARK    2  A    between atoms: C6_6  and  C7_8 
REMARK    3  A    between atoms: C7_8  and  O2_9 
REMARK    4  A    between atoms: O2_9  and  C8_10 
REMARK    5  A    between atoms: C14_17  and  C15_18 
ROOT
HETATM    1  C8  UNL     1      -0.442  52.525 -21.981  1.00  0.00     0.093 A 
HETATM    2  C9  UNL     1       0.618  52.683 -22.872  1.00  0.00     0.076 A 
HETATM    3  C10 UNL     1       0.503  52.177 -24.169  1.00  0.00     0.093 A 
HETATM    4  C11 UNL     1      -0.643  51.521 -24.617  1.00  0.00     0.011 A 
HETATM    5  C12 UNL     1      -1.708  51.376 -23.722  1.00  0.00     0.042 A 
HETATM    6  C13 UNL     1      -1.609  51.878 -22.418  1.00  0.00     0.068 A 
HETATM    7 CL1  UNL     1      -2.955  51.651 -21.355  1.00  0.00    -0.081 Cl
HETATM    8  C14 UNL     1      -0.689  51.017 -25.996  1.00  0.00    -0.007 A 
HETATM    9  C21 UNL     1       0.385  51.213 -26.776  1.00  0.00     0.095 A 
HETATM   10  C22 UNL     1       1.602  51.903 -26.322  1.00  0.00     0.289 A 
HETATM   11  O3  UNL     1       2.556  52.051 -27.075  1.00  0.00    -0.260 OA
HETATM   12  O4  UNL     1       1.611  52.366 -25.017  1.00  0.00    -0.275 OA
ENDROOT
BRANCH   1  13
HETATM   13  O2  UNL     1      -0.435  53.007 -20.699  1.00  0.00    -0.342 OA
BRANCH  13  14
HETATM   14  C7  UNL     1       0.831  53.086 -20.060  1.00  0.00     0.254 C 
BRANCH  14  15
HETATM   15  C6  UNL     1       0.756  52.491 -18.657  1.00  0.00     0.155 C 
HETATM   16  O1  UNL     1       1.689  52.650 -17.866  1.00  0.00    -0.295 OA
BRANCH  15  17
HETATM   17  C5  UNL     1      -0.453  51.613 -18.317  1.00  0.00     0.062 C 
HETATM   18  C4  UNL     1      -0.545  50.480 -19.348  1.00  0.00     0.049 C 
HETATM   19  C2  UNL     1      -1.343  49.266 -18.839  1.00  0.00     0.054 C 
HETATM   20  C1  UNL     1      -1.173  48.096 -19.814  1.00  0.00     0.045 C 
HETATM   21  C3  UNL     1      -2.837  49.595 -18.720  1.00  0.00     0.045 C 
HETATM   22  O5  UNL     1      -0.901  48.797 -17.557  1.00  0.00    -0.381 OA
HETATM   23  C24 UNL     1       0.048  49.615 -16.876  1.00  0.00     0.169 C 
HETATM   24  C23 UNL     1      -0.382  51.071 -16.881  1.00  0.00     0.038 C 
ENDBRANCH  15  17
ENDBRANCH  14  15
ENDBRANCH  13  14
ENDBRANCH   1  13
BRANCH   8  25
HETATM   25  C15 UNL     1      -1.825  50.308 -26.616  1.00  0.00    -0.025 A 
HETATM   26  C16 UNL     1      -2.247  49.074 -26.107  1.00  0.00     0.012 A 
HETATM   27  C17 UNL     1      -3.319  48.402 -26.698  1.00  0.00     0.001 A 
HETATM   28  C18 UNL     1      -3.973  48.959 -27.797  1.00  0.00     0.000 A 
HETATM   29  C19 UNL     1      -3.558  50.189 -28.307  1.00  0.00     0.001 A 
HETATM   30  C20 UNL     1      -2.486  50.863 -27.719  1.00  0.00     0.012 A 
ENDBRANCH   8  25
TORSDOF 5
ENDMDL
