MODEL 1
REMARK minimizedAffinity -7.64745569
REMARK  5 active torsions:
REMARK  status: ('A' for Active; 'I' for Inactive)
REMARK    1  A    between atoms: O1_2  and  C2_3 
REMARK    2  A    between atoms: C6_11  and  N3_12 
REMARK    3  A    between atoms: C9_15  and  O2_16 
REMARK    4  A    between atoms: O2_16  and  C10_17 
REMARK    5  A    between atoms: C23_30  and  O3_31 
ROOT
HETATM    1  C2  UNL     1      10.805  34.555  19.447  1.00  0.00     0.103 A 
HETATM    2  C3  UNL     1      12.021  34.237  20.065  1.00  0.00     0.070 A 
HETATM    3  C4  UNL     1      13.245  34.491  19.457  1.00  0.00     0.049 A 
HETATM    4  N1  UNL     1      14.364  34.159  20.108  1.00  0.00    -0.351 N 
ATOM      5  H1  UNL     1      14.338  33.725  21.031  1.00  0.00     0.166 HD
HETATM    6  C5  UNL     1      15.520  34.424  19.488  1.00  0.00     0.182 A 
HETATM    7  N2  UNL     1      15.663  34.993  18.288  1.00  0.00    -0.342 N 
ATOM      8  H2  UNL     1      16.583  35.173  17.887  1.00  0.00     0.167 HD
HETATM    9  C6  UNL     1      14.530  35.315  17.637  1.00  0.00     0.096 A 
HETATM   10  C21 UNL     1      13.257  35.085  18.191  1.00  0.00     0.032 A 
HETATM   11  C22 UNL     1      12.033  35.409  17.556  1.00  0.00     0.056 A 
HETATM   12  C23 UNL     1      10.811  35.146  18.174  1.00  0.00     0.102 A 
ENDROOT
BRANCH   9  13
HETATM   13  N3  UNL     1      14.627  35.954  16.377  1.00  0.00    -0.266 NA
HETATM   14  C7  UNL     1      15.008  37.370  16.552  1.00  0.00     0.099 C 
HETATM   15  C8  UNL     1      16.378  37.510  15.904  1.00  0.00     0.048 C 
HETATM   16  C9  UNL     1      16.324  36.488  14.776  1.00  0.00     0.143 C 
HETATM   17  C20 UNL     1      15.618  35.319  15.479  1.00  0.00     0.129 C 
BRANCH  16  18
HETATM   18  O2  UNL     1      17.653  36.193  14.365  1.00  0.00    -0.345 OA
BRANCH  18  19
HETATM   19  C10 UNL     1      17.840  35.265  13.379  1.00  0.00     0.070 A 
HETATM   20  C11 UNL     1      18.163  35.806  12.135  1.00  0.00     0.037 A 
HETATM   21  C12 UNL     1      18.386  34.978  11.032  1.00  0.00     0.015 A 
HETATM   22  C13 UNL     1      18.283  33.586  11.156  1.00  0.00    -0.026 A 
HETATM   23  C14 UNL     1      18.503  32.735  10.061  1.00  0.00     0.012 A 
HETATM   24  C18 UNL     1      17.947  33.029  12.411  1.00  0.00    -0.023 A 
HETATM   25  C15 UNL     1      18.396  31.351  10.201  1.00  0.00     0.001 A 
HETATM   26  C16 UNL     1      18.066  30.801  11.434  1.00  0.00     0.001 A 
HETATM   27  C17 UNL     1      17.842  31.634  12.533  1.00  0.00     0.012 A 
HETATM   28  C19 UNL     1      17.726  33.881  13.511  1.00  0.00     0.049 A 
ENDBRANCH  18  19
ENDBRANCH  16  18
ENDBRANCH   9  13
BRANCH  12  29
HETATM   29  O3  UNL     1       9.585  35.429  17.629  1.00  0.00    -0.353 OA
HETATM   30  C24 UNL     1       8.889  36.564  18.125  1.00  0.00     0.210 C 
ENDBRANCH  12  29
BRANCH   1  31
HETATM   31  O1  UNL     1       9.570  34.327  20.002  1.00  0.00    -0.353 OA
HETATM   32  C1  UNL     1       9.399  34.631  21.380  1.00  0.00     0.210 C 
ENDBRANCH   1  31
TORSDOF 5
ENDMDL
MODEL 2
REMARK minimizedAffinity -7.5676775
REMARK  5 active torsions:
REMARK  status: ('A' for Active; 'I' for Inactive)
REMARK    1  A    between atoms: O1_2  and  C2_3 
REMARK    2  A    between atoms: C6_11  and  N3_12 
REMARK    3  A    between atoms: C9_15  and  O2_16 
REMARK    4  A    between atoms: O2_16  and  C10_17 
REMARK    5  A    between atoms: C23_30  and  O3_31 
ROOT
HETATM    1  C2  UNL     1      16.918  35.482  15.087  1.00  0.00     0.103 A 
HETATM    2  C3  UNL     1      15.604  35.912  14.863  1.00  0.00     0.070 A 
HETATM    3  C4  UNL     1      14.631  35.851  15.853  1.00  0.00     0.049 A 
HETATM    4  N1  UNL     1      13.397  36.280  15.564  1.00  0.00    -0.351 N 
ATOM      5  H1  UNL     1      13.159  36.645  14.642  1.00  0.00     0.166 HD
HETATM    6  C5  UNL     1      12.492  36.206  16.546  1.00  0.00     0.182 A 
HETATM    7  N2  UNL     1      12.702  35.754  17.785  1.00  0.00    -0.342 N 
ATOM      8  H2  UNL     1      11.959  35.741  18.484  1.00  0.00     0.167 HD
HETATM    9  C6  UNL     1      13.943  35.316  18.062  1.00  0.00     0.096 A 
HETATM   10  C21 UNL     1      14.978  35.346  17.109  1.00  0.00     0.032 A 
HETATM   11  C22 UNL     1      16.304  34.906  17.346  1.00  0.00     0.056 A 
HETATM   12  C23 UNL     1      17.272  34.969  16.345  1.00  0.00     0.102 A 
ENDROOT
BRANCH   9  13
HETATM   13  N3  UNL     1      14.229  34.860  19.373  1.00  0.00    -0.266 NA
HETATM   14  C7  UNL     1      14.903  35.923  20.146  1.00  0.00     0.099 C 
HETATM   15  C8  UNL     1      13.945  36.283  21.272  1.00  0.00     0.048 C 
HETATM   16  C9  UNL     1      13.237  34.962  21.549  1.00  0.00     0.143 C 
HETATM   17  C20 UNL     1      13.018  34.446  20.119  1.00  0.00     0.129 C 
BRANCH  16  18
HETATM   18  O2  UNL     1      12.032  35.231  22.254  1.00  0.00    -0.345 OA
BRANCH  18  19
HETATM   19  C10 UNL     1      10.878  35.382  21.537  1.00  0.00     0.070 A 
HETATM   20  C11 UNL     1      10.865  36.497  20.698  1.00  0.00     0.037 A 
HETATM   21  C12 UNL     1       9.753  36.778  19.902  1.00  0.00     0.015 A 
HETATM   22  C13 UNL     1       8.626  35.947  19.935  1.00  0.00    -0.026 A 
HETATM   23  C14 UNL     1       7.497  36.211  19.141  1.00  0.00     0.012 A 
HETATM   24  C18 UNL     1       8.627  34.820  20.788  1.00  0.00    -0.023 A 
HETATM   25  C15 UNL     1       6.383  35.373  19.187  1.00  0.00     0.001 A 
HETATM   26  C16 UNL     1       6.381  34.264  20.025  1.00  0.00     0.001 A 
HETATM   27  C17 UNL     1       7.495  33.989  20.821  1.00  0.00     0.012 A 
HETATM   28  C19 UNL     1       9.758  34.553  21.584  1.00  0.00     0.049 A 
ENDBRANCH  18  19
ENDBRANCH  16  18
ENDBRANCH   9  13
BRANCH  12  29
HETATM   29  O3  UNL     1      18.574  34.565  16.494  1.00  0.00    -0.353 OA
HETATM   30  C24 UNL     1      19.409  35.333  17.350  1.00  0.00     0.210 C 
ENDBRANCH  12  29
BRANCH   1  31
HETATM   31  O1  UNL     1      17.918  35.520  14.148  1.00  0.00    -0.353 OA
HETATM   32  C1  UNL     1      17.635  36.155  12.908  1.00  0.00     0.210 C 
ENDBRANCH   1  31
TORSDOF 5
ENDMDL
MODEL 3
REMARK minimizedAffinity -7.54018688
REMARK  5 active torsions:
REMARK  status: ('A' for Active; 'I' for Inactive)
REMARK    1  A    between atoms: O1_2  and  C2_3 
REMARK    2  A    between atoms: C6_11  and  N3_12 
REMARK    3  A    between atoms: C9_15  and  O2_16 
REMARK    4  A    between atoms: O2_16  and  C10_17 
REMARK    5  A    between atoms: C23_30  and  O3_31 
ROOT
HETATM    1  C2  UNL     1       9.432  34.523  20.791  1.00  0.00     0.103 A 
HETATM    2  C3  UNL     1       9.476  34.958  19.460  1.00  0.00     0.070 A 
HETATM    3  C4  UNL     1      10.674  35.270  18.828  1.00  0.00     0.049 A 
HETATM    4  N1  UNL     1      10.638  35.681  17.556  1.00  0.00    -0.351 N 
ATOM      5  H1  UNL     1       9.758  35.771  17.047  1.00  0.00     0.166 HD
HETATM    6  C5  UNL     1      11.813  35.967  16.984  1.00  0.00     0.182 A 
HETATM    7  N2  UNL     1      13.016  35.876  17.557  1.00  0.00    -0.342 N 
ATOM      8  H2  UNL     1      13.870  36.102  17.049  1.00  0.00     0.167 HD
HETATM    9  C6  UNL     1      13.041  35.471  18.840  1.00  0.00     0.096 A 
HETATM   10  C21 UNL     1      11.868  35.141  19.544  1.00  0.00     0.032 A 
HETATM   11  C22 UNL     1      11.834  34.703  20.891  1.00  0.00     0.056 A 
HETATM   12  C23 UNL     1      10.626  34.396  21.517  1.00  0.00     0.102 A 
ENDROOT
BRANCH   9  13
HETATM   13  N3  UNL     1      14.294  35.323  19.484  1.00  0.00    -0.266 NA
HETATM   14  C7  UNL     1      14.817  33.957  19.271  1.00  0.00     0.099 C 
HETATM   15  C8  UNL     1      16.087  34.128  18.450  1.00  0.00     0.048 C 
HETATM   16  C9  UNL     1      16.615  35.477  18.920  1.00  0.00     0.143 C 
HETATM   17  C20 UNL     1      15.311  36.285  19.002  1.00  0.00     0.129 C 
BRANCH  16  18
HETATM   18  O2  UNL     1      17.535  35.968  17.953  1.00  0.00    -0.345 OA
BRANCH  18  19
HETATM   19  C10 UNL     1      17.355  35.614  16.645  1.00  0.00     0.070 A 
HETATM   20  C11 UNL     1      16.349  36.324  15.991  1.00  0.00     0.037 A 
HETATM   21  C12 UNL     1      16.054  36.072  14.649  1.00  0.00     0.015 A 
HETATM   22  C13 UNL     1      16.763  35.096  13.936  1.00  0.00    -0.026 A 
HETATM   23  C14 UNL     1      16.484  34.828  12.586  1.00  0.00     0.012 A 
HETATM   24  C18 UNL     1      17.780  34.366  14.594  1.00  0.00    -0.023 A 
HETATM   25  C15 UNL     1      17.199  33.852  11.891  1.00  0.00     0.001 A 
HETATM   26  C16 UNL     1      18.199  33.132  12.536  1.00  0.00     0.001 A 
HETATM   27  C17 UNL     1      18.488  33.387  13.878  1.00  0.00     0.012 A 
HETATM   28  C19 UNL     1      18.062  34.635  15.947  1.00  0.00     0.049 A 
ENDBRANCH  18  19
ENDBRANCH  16  18
ENDBRANCH   9  13
BRANCH  12  29
HETATM   29  O3  UNL     1      10.508  33.966  22.814  1.00  0.00    -0.353 OA
HETATM   30  C24 UNL     1       9.216  33.997  23.404  1.00  0.00     0.210 C 
ENDBRANCH  12  29
BRANCH   1  31
HETATM   31  O1  UNL     1       8.279  34.201  21.463  1.00  0.00    -0.353 OA
HETATM   32  C1  UNL     1       7.085  34.071  20.703  1.00  0.00     0.210 C 
ENDBRANCH   1  31
TORSDOF 5
ENDMDL
MODEL 4
REMARK minimizedAffinity -7.46857595
REMARK  5 active torsions:
REMARK  status: ('A' for Active; 'I' for Inactive)
REMARK    1  A    between atoms: O1_2  and  C2_3 
REMARK    2  A    between atoms: C6_11  and  N3_12 
REMARK    3  A    between atoms: C9_15  and  O2_16 
REMARK    4  A    between atoms: O2_16  and  C10_17 
REMARK    5  A    between atoms: C23_30  and  O3_31 
ROOT
HETATM    1  C2  UNL     1      17.892  35.645  12.221  1.00  0.00     0.103 A 
HETATM    2  C3  UNL     1      18.025  36.849  12.924  1.00  0.00     0.070 A 
HETATM    3  C4  UNL     1      17.319  37.099  14.094  1.00  0.00     0.049 A 
HETATM    4  N1  UNL     1      17.497  38.273  14.710  1.00  0.00    -0.351 N 
ATOM      5  H1  UNL     1      18.131  38.981  14.340  1.00  0.00     0.166 HD
HETATM    6  C5  UNL     1      16.801  38.471  15.836  1.00  0.00     0.182 A 
HETATM    7  N2  UNL     1      15.955  37.610  16.406  1.00  0.00    -0.342 N 
ATOM      8  H2  UNL     1      15.470  37.831  17.275  1.00  0.00     0.167 HD
HETATM    9  C6  UNL     1      15.776  36.436  15.774  1.00  0.00     0.096 A 
HETATM   10  C21 UNL     1      16.455  36.115  14.584  1.00  0.00     0.032 A 
HETATM   11  C22 UNL     1      16.311  34.894  13.880  1.00  0.00     0.056 A 
HETATM   12  C23 UNL     1      17.021  34.654  12.703  1.00  0.00     0.102 A 
ENDROOT
BRANCH   9  13
HETATM   13  N3  UNL     1      14.916  35.472  16.356  1.00  0.00    -0.266 NA
HETATM   14  C7  UNL     1      15.614  34.761  17.448  1.00  0.00     0.099 C 
HETATM   15  C8  UNL     1      14.862  35.124  18.720  1.00  0.00     0.048 C 
HETATM   16  C9  UNL     1      13.432  35.309  18.227  1.00  0.00     0.143 C 
HETATM   17  C20 UNL     1      13.676  36.061  16.911  1.00  0.00     0.129 C 
BRANCH  16  18
HETATM   18  O2  UNL     1      12.711  36.062  19.195  1.00  0.00    -0.345 OA
BRANCH  18  19
HETATM   19  C10 UNL     1      11.436  35.678  19.501  1.00  0.00     0.070 A 
HETATM   20  C11 UNL     1      11.350  34.735  20.525  1.00  0.00     0.037 A 
HETATM   21  C12 UNL     1      10.110  34.251  20.948  1.00  0.00     0.015 A 
HETATM   22  C13 UNL     1       8.928  34.702  20.346  1.00  0.00    -0.026 A 
HETATM   23  C14 UNL     1       7.671  34.229  20.757  1.00  0.00     0.012 A 
HETATM   24  C18 UNL     1       9.006  35.651  19.302  1.00  0.00    -0.023 A 
HETATM   25  C15 UNL     1       6.503  34.688  20.147  1.00  0.00     0.001 A 
HETATM   26  C16 UNL     1       6.577  35.622  19.119  1.00  0.00     0.001 A 
HETATM   27  C17 UNL     1       7.819  36.101  18.699  1.00  0.00     0.012 A 
HETATM   28  C19 UNL     1      10.266  36.127  18.890  1.00  0.00     0.049 A 
ENDBRANCH  18  19
ENDBRANCH  16  18
ENDBRANCH   9  13
BRANCH  12  29
HETATM   29  O3  UNL     1      16.940  33.502  11.965  1.00  0.00    -0.353 OA
HETATM   30  C24 UNL     1      17.662  32.370  12.429  1.00  0.00     0.210 C 
ENDBRANCH  12  29
BRANCH   1  31
HETATM   31  O1  UNL     1      18.563  35.345  11.062  1.00  0.00    -0.353 OA
HETATM   32  C1  UNL     1      19.974  35.193  11.137  1.00  0.00     0.210 C 
ENDBRANCH   1  31
TORSDOF 5
ENDMDL
MODEL 5
REMARK minimizedAffinity -7.32823944
REMARK  5 active torsions:
REMARK  status: ('A' for Active; 'I' for Inactive)
REMARK    1  A    between atoms: O1_2  and  C2_3 
REMARK    2  A    between atoms: C6_11  and  N3_12 
REMARK    3  A    between atoms: C9_15  and  O2_16 
REMARK    4  A    between atoms: O2_16  and  C10_17 
REMARK    5  A    between atoms: C23_30  and  O3_31 
ROOT
HETATM    1  C2  UNL     1      18.653  36.501  13.592  1.00  0.00     0.103 A 
HETATM    2  C3  UNL     1      17.920  37.694  13.595  1.00  0.00     0.070 A 
HETATM    3  C4  UNL     1      16.862  37.906  14.470  1.00  0.00     0.049 A 
HETATM    4  N1  UNL     1      16.207  39.071  14.413  1.00  0.00    -0.351 N 
ATOM      5  H1  UNL     1      16.465  39.798  13.746  1.00  0.00     0.166 HD
HETATM    6  C5  UNL     1      15.197  39.234  15.275  1.00  0.00     0.182 A 
HETATM    7  N2  UNL     1      14.786  38.352  16.189  1.00  0.00    -0.342 N 
ATOM      8  H2  UNL     1      14.012  38.557  16.821  1.00  0.00     0.167 HD
HETATM    9  C6  UNL     1      15.444  37.180  16.232  1.00  0.00     0.096 A 
HETATM   10  C21 UNL     1      16.524  36.895  15.375  1.00  0.00     0.032 A 
HETATM   11  C22 UNL     1      17.258  35.683  15.380  1.00  0.00     0.056 A 
HETATM   12  C23 UNL     1      18.316  35.480  14.495  1.00  0.00     0.102 A 
ENDROOT
BRANCH   9  13
HETATM   13  N3  UNL     1      15.071  36.223  17.208  1.00  0.00    -0.266 NA
HETATM   14  C7  UNL     1      14.515  36.900  18.398  1.00  0.00     0.099 C 
HETATM   15  C8  UNL     1      13.059  36.463  18.476  1.00  0.00     0.048 C 
HETATM   16  C9  UNL     1      13.097  35.056  17.894  1.00  0.00     0.143 C 
HETATM   17  C20 UNL     1      14.062  35.256  16.716  1.00  0.00     0.129 C 
BRANCH  16  18
HETATM   18  O2  UNL     1      11.780  34.691  17.500  1.00  0.00    -0.345 OA
BRANCH  18  19
HETATM   19  C10 UNL     1      10.744  34.978  18.345  1.00  0.00     0.070 A 
HETATM   20  C11 UNL     1       9.774  35.819  17.800  1.00  0.00     0.037 A 
HETATM   21  C12 UNL     1       8.656  36.196  18.546  1.00  0.00     0.015 A 
HETATM   22  C13 UNL     1       8.491  35.741  19.861  1.00  0.00    -0.026 A 
HETATM   23  C14 UNL     1       7.373  36.108  20.628  1.00  0.00     0.012 A 
HETATM   24  C18 UNL     1       9.473  34.896  20.424  1.00  0.00    -0.023 A 
HETATM   25  C15 UNL     1       7.224  35.645  21.936  1.00  0.00     0.001 A 
HETATM   26  C16 UNL     1       8.190  34.814  22.493  1.00  0.00     0.001 A 
HETATM   27  C17 UNL     1       9.307  34.441  21.743  1.00  0.00     0.012 A 
HETATM   28  C19 UNL     1      10.594  34.526  19.656  1.00  0.00     0.049 A 
ENDBRANCH  18  19
ENDBRANCH  16  18
ENDBRANCH   9  13
BRANCH  12  29
HETATM   29  O3  UNL     1      19.075  34.340  14.436  1.00  0.00    -0.353 OA
HETATM   30  C24 UNL     1      18.706  33.350  13.486  1.00  0.00     0.210 C 
ENDBRANCH  12  29
BRANCH   1  31
HETATM   31  O1  UNL     1      19.707  36.240  12.751  1.00  0.00    -0.353 OA
HETATM   32  C1  UNL     1      19.576  36.626  11.390  1.00  0.00     0.210 C 
ENDBRANCH   1  31
TORSDOF 5
ENDMDL
MODEL 6
REMARK minimizedAffinity -7.27210808
REMARK  5 active torsions:
REMARK  status: ('A' for Active; 'I' for Inactive)
REMARK    1  A    between atoms: O1_2  and  C2_3 
REMARK    2  A    between atoms: C6_11  and  N3_12 
REMARK    3  A    between atoms: C9_15  and  O2_16 
REMARK    4  A    between atoms: O2_16  and  C10_17 
REMARK    5  A    between atoms: C23_30  and  O3_31 
ROOT
HETATM    1  C2  UNL     1      16.704  39.418  15.961  1.00  0.00     0.103 A 
HETATM    2  C3  UNL     1      15.515  38.934  15.401  1.00  0.00     0.070 A 
HETATM    3  C4  UNL     1      14.791  37.902  15.988  1.00  0.00     0.049 A 
HETATM    4  N1  UNL     1      13.665  37.492  15.394  1.00  0.00    -0.351 N 
ATOM      5  H1  UNL     1      13.332  37.915  14.528  1.00  0.00     0.166 HD
HETATM    6  C5  UNL     1      12.998  36.500  15.994  1.00  0.00     0.182 A 
HETATM    7  N2  UNL     1      13.343  35.886  17.129  1.00  0.00    -0.342 N 
ATOM      8  H2  UNL     1      12.772  35.143  17.531  1.00  0.00     0.167 HD
HETATM    9  C6  UNL     1      14.482  36.300  17.713  1.00  0.00     0.096 A 
HETATM   10  C21 UNL     1      15.267  37.337  17.175  1.00  0.00     0.032 A 
HETATM   11  C22 UNL     1      16.469  37.817  17.749  1.00  0.00     0.056 A 
HETATM   12  C23 UNL     1      17.189  38.850  17.150  1.00  0.00     0.102 A 
ENDROOT
BRANCH   9  13
HETATM   13  N3  UNL     1      14.874  35.706  18.938  1.00  0.00    -0.266 NA
HETATM   14  C7  UNL     1      14.607  36.630  20.060  1.00  0.00     0.099 C 
HETATM   15  C8  UNL     1      13.550  35.946  20.914  1.00  0.00     0.048 C 
HETATM   16  C9  UNL     1      13.865  34.467  20.721  1.00  0.00     0.143 C 
HETATM   17  C20 UNL     1      14.173  34.432  19.217  1.00  0.00     0.129 C 
BRANCH  16  18
HETATM   18  O2  UNL     1      12.722  33.707  21.091  1.00  0.00    -0.345 OA
BRANCH  18  19
HETATM   19  C10 UNL     1      11.484  34.219  20.822  1.00  0.00     0.070 A 
HETATM   20  C11 UNL     1      10.573  34.101  21.872  1.00  0.00     0.037 A 
HETATM   21  C12 UNL     1       9.268  34.583  21.743  1.00  0.00     0.015 A 
HETATM   22  C13 UNL     1       8.849  35.190  20.551  1.00  0.00    -0.026 A 
HETATM   23  C14 UNL     1       7.542  35.682  20.401  1.00  0.00     0.012 A 
HETATM   24  C18 UNL     1       9.763  35.306  19.479  1.00  0.00    -0.023 A 
HETATM   25  C15 UNL     1       7.141  36.283  19.208  1.00  0.00     0.001 A 
HETATM   26  C16 UNL     1       8.038  36.399  18.151  1.00  0.00     0.001 A 
HETATM   27  C17 UNL     1       9.340  35.913  18.285  1.00  0.00     0.012 A 
HETATM   28  C19 UNL     1      11.074  34.814  19.629  1.00  0.00     0.049 A 
ENDBRANCH  18  19
ENDBRANCH  16  18
ENDBRANCH   9  13
BRANCH  12  29
HETATM   29  O3  UNL     1      18.358  39.372  17.641  1.00  0.00    -0.353 OA
HETATM   30  C24 UNL     1      19.568  38.701  17.316  1.00  0.00     0.210 C 
ENDBRANCH  12  29
BRANCH   1  31
HETATM   31  O1  UNL     1      17.457  40.433  15.425  1.00  0.00    -0.353 OA
HETATM   32  C1  UNL     1      17.101  40.908  14.134  1.00  0.00     0.210 C 
ENDBRANCH   1  31
TORSDOF 5
ENDMDL
MODEL 7
REMARK minimizedAffinity -7.24898386
REMARK  5 active torsions:
REMARK  status: ('A' for Active; 'I' for Inactive)
REMARK    1  A    between atoms: O1_2  and  C2_3 
REMARK    2  A    between atoms: C6_11  and  N3_12 
REMARK    3  A    between atoms: C9_15  and  O2_16 
REMARK    4  A    between atoms: O2_16  and  C10_17 
REMARK    5  A    between atoms: C23_30  and  O3_31 
ROOT
HETATM    1  C2  UNL     1      19.619  38.873  13.715  1.00  0.00     0.103 A 
HETATM    2  C3  UNL     1      19.139  37.808  12.943  1.00  0.00     0.070 A 
HETATM    3  C4  UNL     1      18.081  37.011  13.364  1.00  0.00     0.049 A 
HETATM    4  N1  UNL     1      17.679  36.010  12.572  1.00  0.00    -0.351 N 
ATOM      5  H1  UNL     1      18.130  35.821  11.678  1.00  0.00     0.166 HD
HETATM    6  C5  UNL     1      16.655  35.271  13.014  1.00  0.00     0.182 A 
HETATM    7  N2  UNL     1      15.993  35.439  14.162  1.00  0.00    -0.342 N 
ATOM      8  H2  UNL     1      15.212  34.839  14.423  1.00  0.00     0.167 HD
HETATM    9  C6  UNL     1      16.411  36.443  14.955  1.00  0.00     0.096 A 
HETATM   10  C21 UNL     1      17.478  37.288  14.594  1.00  0.00     0.032 A 
HETATM   11  C22 UNL     1      17.956  38.362  15.384  1.00  0.00     0.056 A 
HETATM   12  C23 UNL     1      19.021  39.153  14.954  1.00  0.00     0.102 A 
ENDROOT
BRANCH   9  13
HETATM   13  N3  UNL     1      15.720  36.687  16.167  1.00  0.00    -0.266 NA
HETATM   14  C7  UNL     1      14.567  37.579  15.924  1.00  0.00     0.099 C 
HETATM   15  C8  UNL     1      13.332  36.750  16.243  1.00  0.00     0.048 C 
HETATM   16  C9  UNL     1      13.825  35.817  17.343  1.00  0.00     0.143 C 
HETATM   17  C20 UNL     1      15.217  35.450  16.807  1.00  0.00     0.129 C 
BRANCH  16  18
HETATM   18  O2  UNL     1      12.935  34.712  17.435  1.00  0.00    -0.345 OA
BRANCH  18  19
HETATM   19  C10 UNL     1      11.776  34.866  18.143  1.00  0.00     0.070 A 
HETATM   20  C11 UNL     1      11.748  34.180  19.356  1.00  0.00     0.037 A 
HETATM   21  C12 UNL     1      10.629  34.247  20.189  1.00  0.00     0.015 A 
HETATM   22  C13 UNL     1       9.509  35.002  19.816  1.00  0.00    -0.026 A 
HETATM   23  C14 UNL     1       8.374  35.084  20.638  1.00  0.00     0.012 A 
HETATM   24  C18 UNL     1       9.526  35.695  18.584  1.00  0.00    -0.023 A 
HETATM   25  C15 UNL     1       7.267  35.841  20.252  1.00  0.00     0.001 A 
HETATM   26  C16 UNL     1       7.281  36.523  19.040  1.00  0.00     0.001 A 
HETATM   27  C17 UNL     1       8.402  36.451  18.211  1.00  0.00     0.012 A 
HETATM   28  C19 UNL     1      10.664  35.615  17.758  1.00  0.00     0.049 A 
ENDBRANCH  18  19
ENDBRANCH  16  18
ENDBRANCH   9  13
BRANCH  12  29
HETATM   29  O3  UNL     1      19.541  40.209  15.657  1.00  0.00    -0.353 OA
HETATM   30  C24 UNL     1      18.627  41.099  16.282  1.00  0.00     0.210 C 
ENDBRANCH  12  29
BRANCH   1  31
HETATM   31  O1  UNL     1      20.658  39.691  13.348  1.00  0.00    -0.353 OA
HETATM   32  C1  UNL     1      21.980  39.224  13.583  1.00  0.00     0.210 C 
ENDBRANCH   1  31
TORSDOF 5
ENDMDL
MODEL 8
REMARK minimizedAffinity -7.23410034
REMARK  5 active torsions:
REMARK  status: ('A' for Active; 'I' for Inactive)
REMARK    1  A    between atoms: O1_2  and  C2_3 
REMARK    2  A    between atoms: C6_11  and  N3_12 
REMARK    3  A    between atoms: C9_15  and  O2_16 
REMARK    4  A    between atoms: O2_16  and  C10_17 
REMARK    5  A    between atoms: C23_30  and  O3_31 
ROOT
HETATM    1  C2  UNL     1      10.330  34.570  20.675  1.00  0.00     0.103 A 
HETATM    2  C3  UNL     1      11.555  34.183  21.234  1.00  0.00     0.070 A 
HETATM    3  C4  UNL     1      12.743  34.240  20.515  1.00  0.00     0.049 A 
HETATM    4  N1  UNL     1      13.873  33.852  21.115  1.00  0.00    -0.351 N 
ATOM      5  H1  UNL     1      13.880  33.518  22.078  1.00  0.00     0.166 HD
HETATM    6  C5  UNL     1      14.994  33.926  20.388  1.00  0.00     0.182 A 
HETATM    7  N2  UNL     1      15.094  34.355  19.127  1.00  0.00    -0.342 N 
ATOM      8  H2  UNL     1      15.991  34.393  18.643  1.00  0.00     0.167 HD
HETATM    9  C6  UNL     1      13.950  34.733  18.529  1.00  0.00     0.096 A 
HETATM   10  C21 UNL     1      12.710  34.701  19.195  1.00  0.00     0.032 A 
HETATM   11  C22 UNL     1      11.476  35.093  18.619  1.00  0.00     0.056 A 
HETATM   12  C23 UNL     1      10.290  35.028  19.349  1.00  0.00     0.102 A 
ENDROOT
BRANCH   9  13
HETATM   13  N3  UNL     1      14.005  35.230  17.204  1.00  0.00    -0.266 NA
HETATM   14  C7  UNL     1      13.390  36.572  17.137  1.00  0.00     0.099 C 
HETATM   15  C8  UNL     1      14.517  37.522  16.758  1.00  0.00     0.048 C 
HETATM   16  C9  UNL     1      15.417  36.649  15.891  1.00  0.00     0.143 C 
HETATM   17  C20 UNL     1      15.386  35.332  16.679  1.00  0.00     0.129 C 
BRANCH  16  18
HETATM   18  O2  UNL     1      16.705  37.249  15.825  1.00  0.00    -0.345 OA
BRANCH  18  19
HETATM   19  C10 UNL     1      16.810  38.511  15.311  1.00  0.00     0.070 A 
HETATM   20  C11 UNL     1      16.563  38.596  13.942  1.00  0.00     0.037 A 
HETATM   21  C12 UNL     1      16.630  39.824  13.278  1.00  0.00     0.015 A 
HETATM   22  C13 UNL     1      16.954  40.993  13.979  1.00  0.00    -0.026 A 
HETATM   23  C14 UNL     1      17.027  42.238  13.332  1.00  0.00     0.012 A 
HETATM   24  C18 UNL     1      17.214  40.915  15.366  1.00  0.00    -0.023 A 
HETATM   25  C15 UNL     1      17.351  43.393  14.044  1.00  0.00     0.001 A 
HETATM   26  C16 UNL     1      17.608  43.319  15.409  1.00  0.00     0.001 A 
HETATM   27  C17 UNL     1      17.540  42.089  16.066  1.00  0.00     0.012 A 
HETATM   28  C19 UNL     1      17.141  39.668  16.016  1.00  0.00     0.049 A 
ENDBRANCH  18  19
ENDBRANCH  16  18
ENDBRANCH   9  13
BRANCH  12  29
HETATM   29  O3  UNL     1       9.058  35.389  18.866  1.00  0.00    -0.353 OA
HETATM   30  C24 UNL     1       9.017  36.152  17.668  1.00  0.00     0.210 C 
ENDBRANCH  12  29
BRANCH   1  31
HETATM   31  O1  UNL     1       9.129  34.535  21.339  1.00  0.00    -0.353 OA
HETATM   32  C1  UNL     1       7.981  34.130  20.606  1.00  0.00     0.210 C 
ENDBRANCH   1  31
TORSDOF 5
ENDMDL
MODEL 9
REMARK minimizedAffinity -7.14599323
REMARK  5 active torsions:
REMARK  status: ('A' for Active; 'I' for Inactive)
REMARK    1  A    between atoms: O1_2  and  C2_3 
REMARK    2  A    between atoms: C6_11  and  N3_12 
REMARK    3  A    between atoms: C9_15  and  O2_16 
REMARK    4  A    between atoms: O2_16  and  C10_17 
REMARK    5  A    between atoms: C23_30  and  O3_31 
ROOT
HETATM    1  C2  UNL     1       8.861  35.055  20.226  1.00  0.00     0.103 A 
HETATM    2  C3  UNL     1       8.958  35.287  21.604  1.00  0.00     0.070 A 
HETATM    3  C4  UNL     1      10.175  35.544  22.223  1.00  0.00     0.049 A 
HETATM    4  N1  UNL     1      10.189  35.754  23.544  1.00  0.00    -0.351 N 
ATOM      5  H1  UNL     1       9.335  35.727  24.100  1.00  0.00     0.166 HD
HETATM    6  C5  UNL     1      11.381  36.003  24.099  1.00  0.00     0.182 A 
HETATM    7  N2  UNL     1      12.553  36.068  23.462  1.00  0.00    -0.342 N 
ATOM      8  H2  UNL     1      13.421  36.275  23.957  1.00  0.00     0.167 HD
HETATM    9  C6  UNL     1      12.530  35.846  22.136  1.00  0.00     0.096 A 
HETATM   10  C21 UNL     1      11.335  35.577  21.442  1.00  0.00     0.032 A 
HETATM   11  C22 UNL     1      11.248  35.342  20.048  1.00  0.00     0.056 A 
HETATM   12  C23 UNL     1      10.022  35.081  19.437  1.00  0.00     0.102 A 
ENDROOT
BRANCH   9  13
HETATM   13  N3  UNL     1      13.741  35.940  21.407  1.00  0.00    -0.266 NA
HETATM   14  C7  UNL     1      14.334  34.598  21.232  1.00  0.00     0.099 C 
HETATM   15  C8  UNL     1      14.310  34.330  19.734  1.00  0.00     0.048 C 
HETATM   16  C9  UNL     1      14.476  35.723  19.139  1.00  0.00     0.143 C 
HETATM   17  C20 UNL     1      13.566  36.543  20.066  1.00  0.00     0.129 C 
BRANCH  16  18
HETATM   18  O2  UNL     1      14.041  35.695  17.785  1.00  0.00    -0.345 OA
BRANCH  18  19
HETATM   19  C10 UNL     1      14.741  36.418  16.861  1.00  0.00     0.070 A 
HETATM   20  C11 UNL     1      14.565  37.798  16.958  1.00  0.00     0.037 A 
HETATM   21  C12 UNL     1      15.220  38.666  16.081  1.00  0.00     0.015 A 
HETATM   22  C13 UNL     1      16.064  38.162  15.082  1.00  0.00    -0.026 A 
HETATM   23  C14 UNL     1      16.733  39.017  14.191  1.00  0.00     0.012 A 
HETATM   24  C18 UNL     1      16.242  36.765  14.971  1.00  0.00    -0.023 A 
HETATM   25  C15 UNL     1      17.570  38.500  13.201  1.00  0.00     0.001 A 
HETATM   26  C16 UNL     1      17.747  37.125  13.090  1.00  0.00     0.001 A 
HETATM   27  C17 UNL     1      17.088  36.263  13.968  1.00  0.00     0.012 A 
HETATM   28  C19 UNL     1      15.572  35.907  15.865  1.00  0.00     0.049 A 
ENDBRANCH  18  19
ENDBRANCH  16  18
ENDBRANCH   9  13
BRANCH  12  29
HETATM   29  O3  UNL     1       9.854  34.845  18.097  1.00  0.00    -0.353 OA
HETATM   30  C24 UNL     1       9.584  35.961  17.261  1.00  0.00     0.210 C 
ENDBRANCH  12  29
BRANCH   1  31
HETATM   31  O1  UNL     1       7.687  34.797  19.564  1.00  0.00    -0.353 OA
HETATM   32  C1  UNL     1       6.671  34.098  20.270  1.00  0.00     0.210 C 
ENDBRANCH   1  31
TORSDOF 5
ENDMDL
