MODEL 1
REMARK minimizedAffinity -9.60656643
REMARK CNNscore 0.549920321
REMARK CNNaffinity 7.5852294
REMARK  12 active torsions:
REMARK  status: ('A' for Active; 'I' for Inactive)
REMARK    1  A    between atoms: C2_2  and  C3_3 
REMARK    2  A    between atoms: C2_2  and  C9_10 
REMARK    3  A    between atoms: C3_3  and  C4_4 
REMARK    4  A    between atoms: C5_5  and  C6_6 
REMARK    5  A    between atoms: C6_6  and  O1_9 
REMARK    6  A    between atoms: C27_29  and  O3_30 
REMARK    7  A    between atoms: O3_30  and  C28_31 
REMARK    8  A    between atoms: C29_33  and  C30_34 
REMARK    9  A    between atoms: C30_34  and  O5_35 
REMARK   10  A    between atoms: C31_36  and  O6_37 
REMARK   11  A    between atoms: C32_38  and  O7_39 
REMARK   12  A    between atoms: C33_40  and  O8_41 
ROOT
HETATM    1  C9  UNL     1      -1.132  49.926 -21.075  1.00  0.00    -0.002 C 
HETATM    2  C10 UNL     1      -0.973  48.973 -19.856  1.00  0.00     0.006 C 
HETATM    3  C11 UNL     1      -2.380  48.400 -19.542  1.00  0.00     0.011 C 
HETATM    4  C12 UNL     1      -3.210  48.718 -20.798  1.00  0.00    -0.029 C 
HETATM    5  C13 UNL     1      -2.813  47.618 -21.840  1.00  0.00     0.016 C 
HETATM    6  C14 UNL     1      -4.760  48.775 -20.611  1.00  0.00     0.028 C 
HETATM    7  C15 UNL     1      -5.363  47.466 -20.145  1.00  0.00    -0.021 C 
HETATM    8  C16 UNL     1      -6.426  46.921 -20.766  1.00  0.00     0.008 C 
HETATM    9  C17 UNL     1      -7.019  47.537 -22.025  1.00  0.00     0.092 C 
HETATM   10  O2  UNL     1      -7.804  48.656 -21.548  1.00  0.00    -0.374 OA
HETATM   11  C18 UNL     1      -6.942  49.804 -21.471  1.00  0.00     0.179 C 
HETATM   12  C19 UNL     1      -5.512  49.370 -21.890  1.00  0.00    -0.004 C 
HETATM   13  C20 UNL     1      -4.780  50.607 -22.475  1.00  0.00     0.014 C 
HETATM   14  C21 UNL     1      -3.241  50.570 -22.506  1.00  0.00     0.011 C 
HETATM   15  C22 UNL     1      -2.668  50.159 -21.139  1.00  0.00    -0.032 C 
HETATM   16  C23 UNL     1      -3.063  51.249 -20.100  1.00  0.00     0.016 C 
HETATM   17  C24 UNL     1      -5.874  48.193 -22.843  1.00  0.00     0.036 C 
HETATM   18  C25 UNL     1      -6.261  48.510 -24.295  1.00  0.00     0.011 C 
HETATM   19  C26 UNL     1      -7.754  48.596 -24.527  1.00  0.00     0.033 C 
HETATM   20  C27 UNL     1      -8.500  47.310 -24.135  1.00  0.00     0.136 C 
HETATM   21  C34 UNL     1      -7.931  46.578 -22.858  1.00  0.00     0.014 C 
HETATM   22  C35 UNL     1      -9.106  46.033 -22.000  1.00  0.00     0.021 C 
HETATM   23  C36 UNL     1      -7.116  45.346 -23.331  1.00  0.00     0.021 C 
ENDROOT
BRANCH  20  24
HETATM   24  O3  UNL     1      -9.902  47.585 -23.968  1.00  0.00    -0.352 OA
BRANCH  24  25
HETATM   25  C28 UNL     1     -10.609  47.824 -25.188  1.00  0.00     0.292 C 
HETATM   26  O4  UNL     1     -11.248  46.624 -25.623  1.00  0.00    -0.348 OA
HETATM   27  C29 UNL     1     -10.453  45.747 -26.433  1.00  0.00     0.179 C 
HETATM   28  C31 UNL     1     -10.042  46.445 -27.750  1.00  0.00     0.180 C 
HETATM   29  C32 UNL     1     -10.021  47.980 -27.632  1.00  0.00     0.183 C 
HETATM   30  C33 UNL     1      -9.627  48.423 -26.228  1.00  0.00     0.204 C 
BRANCH  27  31
HETATM   31  C30 UNL     1      -9.236  45.165 -25.687  1.00  0.00     0.198 C 
BRANCH  31  32
HETATM   32  O5  UNL     1      -9.175  43.748 -25.820  1.00  0.00    -0.398 OA
HETATM   33  H46 UNL     1      -9.675  43.376 -25.064  1.00  0.00     0.209 HD
ENDBRANCH  31  32
ENDBRANCH  27  31
BRANCH  28  34
HETATM   34  O6  UNL     1     -10.987  46.112 -28.788  1.00  0.00    -0.390 OA
HETATM   35  H48 UNL     1     -10.628  46.445 -29.631  1.00  0.00     0.210 HD
ENDBRANCH  28  34
BRANCH  29  36
HETATM   36  O7  UNL     1     -11.312  48.549 -27.946  1.00  0.00    -0.390 OA
HETATM   37  H50 UNL     1     -11.892  47.785 -28.166  1.00  0.00     0.210 HD
ENDBRANCH  29  36
BRANCH  30  38
HETATM   38  O8  UNL     1      -9.640  49.864 -26.178  1.00  0.00    -0.388 OA
HETATM   39  H52 UNL     1     -10.512  50.115 -26.542  1.00  0.00     0.210 HD
ENDBRANCH  30  38
ENDBRANCH  24  25
ENDBRANCH  20  24
BRANCH   1  40
HETATM   40  C2  UNL     1      -0.137  51.117 -21.212  1.00  0.00    -0.010 C 
HETATM   41  C1  UNL     1       0.029  51.788 -19.832  1.00  0.00     0.010 C 
BRANCH  40  42
HETATM   42  C3  UNL     1      -0.336  52.218 -22.287  1.00  0.00     0.031 C 
BRANCH  42  43
HETATM   43  C4  UNL     1      -0.172  51.833 -23.732  1.00  0.00    -0.027 C 
HETATM   44  C5  UNL     1       0.775  52.325 -24.546  1.00  0.00     0.006 C 
BRANCH  44  45
HETATM   45  C6  UNL     1       0.987  52.000 -26.007  1.00  0.00     0.068 C 
HETATM   46  C7  UNL     1       2.382  51.480 -26.371  1.00  0.00     0.050 C 
HETATM   47  C8  UNL     1      -0.064  50.987 -26.469  1.00  0.00     0.050 C 
BRANCH  45  48
HETATM   48  O1  UNL     1       0.795  53.204 -26.748  1.00  0.00    -0.387 OA
HETATM   49  H15 UNL     1       0.001  53.645 -26.405  1.00  0.00     0.211 HD
ENDBRANCH  45  48
ENDBRANCH  44  45
ENDBRANCH  42  43
ENDBRANCH  40  42
ENDBRANCH   1  40
TORSDOF 12
ENDMDL
MODEL 2
REMARK minimizedAffinity -9.55752563
REMARK CNNscore 0.359438539
REMARK CNNaffinity 7.2496047
REMARK  12 active torsions:
REMARK  status: ('A' for Active; 'I' for Inactive)
REMARK    1  A    between atoms: C2_2  and  C3_3 
REMARK    2  A    between atoms: C2_2  and  C9_10 
REMARK    3  A    between atoms: C3_3  and  C4_4 
REMARK    4  A    between atoms: C5_5  and  C6_6 
REMARK    5  A    between atoms: C6_6  and  O1_9 
REMARK    6  A    between atoms: C27_29  and  O3_30 
REMARK    7  A    between atoms: O3_30  and  C28_31 
REMARK    8  A    between atoms: C29_33  and  C30_34 
REMARK    9  A    between atoms: C30_34  and  O5_35 
REMARK   10  A    between atoms: C31_36  and  O6_37 
REMARK   11  A    between atoms: C32_38  and  O7_39 
REMARK   12  A    between atoms: C33_40  and  O8_41 
ROOT
HETATM    1  C9  UNL     1      -1.312  50.023 -20.897  1.00  0.00    -0.002 C 
HETATM    2  C10 UNL     1      -1.546  49.496 -19.453  1.00  0.00     0.006 C 
HETATM    3  C11 UNL     1      -3.039  49.088 -19.355  1.00  0.00     0.011 C 
HETATM    4  C12 UNL     1      -3.512  49.019 -20.818  1.00  0.00    -0.029 C 
HETATM    5  C13 UNL     1      -2.998  47.637 -21.349  1.00  0.00     0.016 C 
HETATM    6  C14 UNL     1      -5.047  49.173 -21.062  1.00  0.00     0.028 C 
HETATM    7  C15 UNL     1      -5.877  48.092 -20.400  1.00  0.00    -0.021 C 
HETATM    8  C16 UNL     1      -6.815  47.409 -21.083  1.00  0.00     0.008 C 
HETATM    9  C17 UNL     1      -7.026  47.615 -22.576  1.00  0.00     0.092 C 
HETATM   10  O2  UNL     1      -7.779  48.848 -22.671  1.00  0.00    -0.374 OA
HETATM   11  C18 UNL     1      -6.843  49.938 -22.719  1.00  0.00     0.179 C 
HETATM   12  C19 UNL     1      -5.409  49.356 -22.608  1.00  0.00    -0.004 C 
HETATM   13  C20 UNL     1      -4.433  50.327 -23.325  1.00  0.00     0.014 C 
HETATM   14  C21 UNL     1      -2.943  50.242 -22.946  1.00  0.00     0.011 C 
HETATM   15  C22 UNL     1      -2.756  50.265 -21.420  1.00  0.00    -0.032 C 
HETATM   16  C23 UNL     1      -3.268  51.636 -20.889  1.00  0.00     0.016 C 
HETATM   17  C24 UNL     1      -5.658  47.950 -23.228  1.00  0.00     0.036 C 
HETATM   18  C25 UNL     1      -5.655  47.806 -24.757  1.00  0.00     0.011 C 
HETATM   19  C26 UNL     1      -7.034  47.855 -25.380  1.00  0.00     0.033 C 
HETATM   20  C27 UNL     1      -7.982  46.777 -24.830  1.00  0.00     0.136 C 
HETATM   21  C34 UNL     1      -7.811  46.468 -23.292  1.00  0.00     0.014 C 
HETATM   22  C35 UNL     1      -9.206  46.250 -22.643  1.00  0.00     0.021 C 
HETATM   23  C36 UNL     1      -7.041  45.128 -23.152  1.00  0.00     0.021 C 
ENDROOT
BRANCH  20  24
HETATM   24  O3  UNL     1      -9.346  47.128 -25.118  1.00  0.00    -0.352 OA
BRANCH  24  25
HETATM   25  C28 UNL     1      -9.531  47.833 -26.349  1.00  0.00     0.292 C 
HETATM   26  O4  UNL     1     -10.696  48.655 -26.269  1.00  0.00    -0.348 OA
HETATM   27  C29 UNL     1     -11.935  48.023 -26.621  1.00  0.00     0.179 C 
HETATM   28  C31 UNL     1     -11.911  47.558 -28.095  1.00  0.00     0.180 C 
HETATM   29  C32 UNL     1     -10.485  47.309 -28.620  1.00  0.00     0.183 C 
HETATM   30  C33 UNL     1      -9.566  46.809 -27.513  1.00  0.00     0.204 C 
BRANCH  27  31
HETATM   31  C30 UNL     1     -12.329  46.880 -25.665  1.00  0.00     0.198 C 
BRANCH  31  32
HETATM   32  O5  UNL     1     -13.060  47.369 -24.543  1.00  0.00    -0.398 OA
HETATM   33  H46 UNL     1     -12.399  47.573 -23.848  1.00  0.00     0.209 HD
ENDBRANCH  31  32
ENDBRANCH  27  31
BRANCH  28  34
HETATM   34  O6  UNL     1     -12.500  48.575 -28.932  1.00  0.00    -0.390 OA
HETATM   35  H48 UNL     1     -12.601  48.199 -29.825  1.00  0.00     0.210 HD
ENDBRANCH  28  34
BRANCH  29  36
HETATM   36  O7  UNL     1      -9.914  48.513 -29.180  1.00  0.00    -0.390 OA
HETATM   37  H50 UNL     1     -10.607  49.205 -29.083  1.00  0.00     0.210 HD
ENDBRANCH  29  36
BRANCH  30  38
HETATM   38  O8  UNL     1      -8.247  46.610 -28.063  1.00  0.00    -0.388 OA
HETATM   39  H52 UNL     1      -8.044  47.448 -28.524  1.00  0.00     0.210 HD
ENDBRANCH  30  38
ENDBRANCH  24  25
ENDBRANCH  20  24
BRANCH   1  40
HETATM   40  C2  UNL     1      -0.193  51.083 -21.120  1.00  0.00    -0.010 C 
HETATM   41  C1  UNL     1       0.063  51.824 -19.791  1.00  0.00     0.010 C 
BRANCH  40  42
HETATM   42  C3  UNL     1      -0.282  52.124 -22.269  1.00  0.00     0.031 C 
BRANCH  42  43
HETATM   43  C4  UNL     1       0.041  51.667 -23.664  1.00  0.00    -0.027 C 
HETATM   44  C5  UNL     1       0.577  52.448 -24.614  1.00  0.00     0.006 C 
BRANCH  44  45
HETATM   45  C6  UNL     1       0.910  52.064 -26.039  1.00  0.00     0.068 C 
HETATM   46  C7  UNL     1       2.319  51.506 -26.258  1.00  0.00     0.050 C 
HETATM   47  C8  UNL     1      -0.119  51.054 -26.554  1.00  0.00     0.050 C 
BRANCH  45  48
HETATM   48  O1  UNL     1       0.808  53.242 -26.837  1.00  0.00    -0.387 OA
HETATM   49  H15 UNL     1      -0.003  53.710 -26.581  1.00  0.00     0.211 HD
ENDBRANCH  45  48
ENDBRANCH  44  45
ENDBRANCH  42  43
ENDBRANCH  40  42
ENDBRANCH   1  40
TORSDOF 12
ENDMDL
MODEL 3
REMARK minimizedAffinity -9.86870575
REMARK CNNscore 0.334751844
REMARK CNNaffinity 7.33555031
REMARK  12 active torsions:
REMARK  status: ('A' for Active; 'I' for Inactive)
REMARK    1  A    between atoms: C2_2  and  C3_3 
REMARK    2  A    between atoms: C2_2  and  C9_10 
REMARK    3  A    between atoms: C3_3  and  C4_4 
REMARK    4  A    between atoms: C5_5  and  C6_6 
REMARK    5  A    between atoms: C6_6  and  O1_9 
REMARK    6  A    between atoms: C27_29  and  O3_30 
REMARK    7  A    between atoms: O3_30  and  C28_31 
REMARK    8  A    between atoms: C29_33  and  C30_34 
REMARK    9  A    between atoms: C30_34  and  O5_35 
REMARK   10  A    between atoms: C31_36  and  O6_37 
REMARK   11  A    between atoms: C32_38  and  O7_39 
REMARK   12  A    between atoms: C33_40  and  O8_41 
ROOT
HETATM    1  C9  UNL     1      -1.793  50.158 -23.466  1.00  0.00    -0.002 C 
HETATM    2  C10 UNL     1      -0.677  51.240 -23.532  1.00  0.00     0.006 C 
HETATM    3  C11 UNL     1      -0.509  51.805 -22.096  1.00  0.00     0.011 C 
HETATM    4  C12 UNL     1      -1.229  50.784 -21.197  1.00  0.00    -0.029 C 
HETATM    5  C13 UNL     1      -0.216  49.601 -21.029  1.00  0.00     0.016 C 
HETATM    6  C14 UNL     1      -1.717  51.302 -19.807  1.00  0.00     0.028 C 
HETATM    7  C15 UNL     1      -0.594  51.787 -18.914  1.00  0.00    -0.021 C 
HETATM    8  C16 UNL     1      -0.480  51.369 -17.639  1.00  0.00     0.008 C 
HETATM    9  C17 UNL     1      -1.412  50.316 -17.056  1.00  0.00     0.092 C 
HETATM   10  O2  UNL     1      -2.636  51.034 -16.767  1.00  0.00    -0.374 OA
HETATM   11  C18 UNL     1      -3.455  51.009 -17.949  1.00  0.00     0.179 C 
HETATM   12  C19 UNL     1      -2.678  50.262 -19.066  1.00  0.00    -0.004 C 
HETATM   13  C20 UNL     1      -3.711  49.628 -20.035  1.00  0.00     0.014 C 
HETATM   14  C21 UNL     1      -3.224  49.265 -21.451  1.00  0.00     0.011 C 
HETATM   15  C22 UNL     1      -2.477  50.443 -22.100  1.00  0.00    -0.032 C 
HETATM   16  C23 UNL     1      -3.482  51.621 -22.266  1.00  0.00     0.016 C 
HETATM   17  C24 UNL     1      -1.805  49.324 -18.182  1.00  0.00     0.036 C 
HETATM   18  C25 UNL     1      -2.419  48.016 -17.662  1.00  0.00     0.011 C 
HETATM   19  C26 UNL     1      -2.976  48.117 -16.257  1.00  0.00     0.033 C 
HETATM   20  C27 UNL     1      -1.927  48.562 -15.225  1.00  0.00     0.136 C 
HETATM   21  C34 UNL     1      -0.891  49.629 -15.751  1.00  0.00     0.014 C 
HETATM   22  C35 UNL     1      -0.605  50.676 -14.639  1.00  0.00     0.021 C 
HETATM   23  C36 UNL     1       0.450  48.902 -16.033  1.00  0.00     0.021 C 
ENDROOT
BRANCH  20  24
HETATM   24  O3  UNL     1      -2.580  49.046 -14.038  1.00  0.00    -0.352 OA
BRANCH  24  25
HETATM   25  C28 UNL     1      -2.033  50.259 -13.513  1.00  0.00     0.292 C 
HETATM   26  O4  UNL     1      -1.235  49.975 -12.363  1.00  0.00    -0.348 OA
HETATM   27  C29 UNL     1      -1.932  49.926 -11.111  1.00  0.00     0.179 C 
HETATM   28  C31 UNL     1      -2.572  51.295 -10.788  1.00  0.00     0.180 C 
HETATM   29  C32 UNL     1      -2.849  52.138 -12.047  1.00  0.00     0.183 C 
HETATM   30  C33 UNL     1      -3.191  51.254 -13.240  1.00  0.00     0.204 C 
BRANCH  27  31
HETATM   31  C30 UNL     1      -2.961  48.780 -11.031  1.00  0.00     0.198 C 
BRANCH  31  32
HETATM   32  O5  UNL     1      -4.058  49.125 -10.190  1.00  0.00    -0.398 OA
HETATM   33  H46 UNL     1      -3.822  48.825  -9.287  1.00  0.00     0.209 HD
ENDBRANCH  31  32
ENDBRANCH  27  31
BRANCH  28  34
HETATM   34  O6  UNL     1      -1.677  52.061  -9.954  1.00  0.00    -0.390 OA
HETATM   35  H48 UNL     1      -2.161  52.852  -9.652  1.00  0.00     0.210 HD
ENDBRANCH  28  34
BRANCH  29  36
HETATM   36  O7  UNL     1      -1.709  52.955 -12.394  1.00  0.00    -0.390 OA
HETATM   37  H50 UNL     1      -1.026  52.761 -11.713  1.00  0.00     0.210 HD
ENDBRANCH  29  36
BRANCH  30  38
HETATM   38  O8  UNL     1      -3.425  52.097 -14.387  1.00  0.00    -0.388 OA
HETATM   39  H52 UNL     1      -2.645  52.686 -14.423  1.00  0.00     0.210 HD
ENDBRANCH  30  38
ENDBRANCH  24  25
ENDBRANCH  20  24
BRANCH   1  40
HETATM   40  C2  UNL     1      -2.642  49.901 -24.747  1.00  0.00    -0.010 C 
HETATM   41  C1  UNL     1      -3.622  48.742 -24.470  1.00  0.00     0.010 C 
BRANCH  40  42
HETATM   42  C3  UNL     1      -1.973  49.677 -26.129  1.00  0.00     0.031 C 
BRANCH  42  43
HETATM   43  C4  UNL     1      -1.129  50.786 -26.695  1.00  0.00    -0.027 C 
HETATM   44  C5  UNL     1       0.205  50.862 -26.573  1.00  0.00     0.006 C 
BRANCH  44  45
HETATM   45  C6  UNL     1       1.113  51.952 -27.097  1.00  0.00     0.068 C 
HETATM   46  C7  UNL     1       2.606  51.609 -27.123  1.00  0.00     0.050 C 
HETATM   47  C8  UNL     1       0.666  52.366 -28.502  1.00  0.00     0.050 C 
BRANCH  45  48
HETATM   48  O1  UNL     1       0.969  53.082 -26.238  1.00  0.00    -0.387 OA
HETATM   49  H15 UNL     1       0.023  53.208 -26.062  1.00  0.00     0.211 HD
ENDBRANCH  45  48
ENDBRANCH  44  45
ENDBRANCH  42  43
ENDBRANCH  40  42
ENDBRANCH   1  40
TORSDOF 12
ENDMDL
MODEL 4
REMARK minimizedAffinity -8.16791534
REMARK CNNscore 0.322798193
REMARK CNNaffinity 6.27497339
REMARK  12 active torsions:
REMARK  status: ('A' for Active; 'I' for Inactive)
REMARK    1  A    between atoms: C2_2  and  C3_3 
REMARK    2  A    between atoms: C2_2  and  C9_10 
REMARK    3  A    between atoms: C3_3  and  C4_4 
REMARK    4  A    between atoms: C5_5  and  C6_6 
REMARK    5  A    between atoms: C6_6  and  O1_9 
REMARK    6  A    between atoms: C27_29  and  O3_30 
REMARK    7  A    between atoms: O3_30  and  C28_31 
REMARK    8  A    between atoms: C29_33  and  C30_34 
REMARK    9  A    between atoms: C30_34  and  O5_35 
REMARK   10  A    between atoms: C31_36  and  O6_37 
REMARK   11  A    between atoms: C32_38  and  O7_39 
REMARK   12  A    between atoms: C33_40  and  O8_41 
ROOT
HETATM    1  C9  UNL     1      -7.644  46.265 -29.322  1.00  0.00    -0.002 C 
HETATM    2  C10 UNL     1      -6.872  45.762 -28.069  1.00  0.00     0.006 C 
HETATM    3  C11 UNL     1      -7.889  45.714 -26.898  1.00  0.00     0.011 C 
HETATM    4  C12 UNL     1      -9.264  45.805 -27.584  1.00  0.00    -0.029 C 
HETATM    5  C13 UNL     1      -9.554  44.360 -28.114  1.00  0.00     0.016 C 
HETATM    6  C14 UNL     1     -10.447  46.325 -26.706  1.00  0.00     0.028 C 
HETATM    7  C15 UNL     1     -10.740  45.449 -25.505  1.00  0.00    -0.021 C 
HETATM    8  C16 UNL     1     -11.989  45.028 -25.230  1.00  0.00     0.008 C 
HETATM    9  C17 UNL     1     -13.157  45.327 -26.161  1.00  0.00     0.092 C 
HETATM   10  O2  UNL     1     -13.502  46.705 -25.880  1.00  0.00    -0.374 OA
HETATM   11  C18 UNL     1     -12.698  47.545 -26.726  1.00  0.00     0.179 C 
HETATM   12  C19 UNL     1     -11.758  46.638 -27.565  1.00  0.00    -0.004 C 
HETATM   13  C20 UNL     1     -11.427  47.375 -28.890  1.00  0.00     0.014 C 
HETATM   14  C21 UNL     1     -10.165  46.929 -29.652  1.00  0.00     0.011 C 
HETATM   15  C22 UNL     1      -8.947  46.857 -28.716  1.00  0.00    -0.032 C 
HETATM   16  C23 UNL     1      -8.658  48.293 -28.186  1.00  0.00     0.016 C 
HETATM   17  C24 UNL     1     -12.633  45.351 -27.621  1.00  0.00     0.036 C 
HETATM   18  C25 UNL     1     -13.747  45.261 -28.674  1.00  0.00     0.011 C 
HETATM   19  C26 UNL     1     -15.114  45.653 -28.156  1.00  0.00     0.033 C 
HETATM   20  C27 UNL     1     -15.566  44.812 -26.952  1.00  0.00     0.136 C 
HETATM   21  C34 UNL     1     -14.413  44.421 -25.947  1.00  0.00     0.014 C 
HETATM   22  C35 UNL     1     -14.935  44.517 -24.487  1.00  0.00     0.021 C 
HETATM   23  C36 UNL     1     -14.044  42.934 -26.191  1.00  0.00     0.021 C 
ENDROOT
BRANCH  20  24
HETATM   24  O3  UNL     1     -16.628  45.483 -26.252  1.00  0.00    -0.352 OA
BRANCH  24  25
HETATM   25  C28 UNL     1     -16.670  45.224 -24.847  1.00  0.00     0.292 C 
HETATM   26  O4  UNL     1     -17.609  44.184 -24.572  1.00  0.00    -0.348 OA
HETATM   27  C29 UNL     1     -18.969  44.599 -24.383  1.00  0.00     0.179 C 
HETATM   28  C31 UNL     1     -19.088  45.536 -23.159  1.00  0.00     0.180 C 
HETATM   29  C32 UNL     1     -17.772  46.267 -22.836  1.00  0.00     0.183 C 
HETATM   30  C33 UNL     1     -16.970  46.550 -24.101  1.00  0.00     0.204 C 
BRANCH  27  31
HETATM   31  C30 UNL     1     -19.598  45.221 -25.646  1.00  0.00     0.198 C 
BRANCH  31  32
HETATM   32  O5  UNL     1     -20.263  46.445 -25.345  1.00  0.00    -0.398 OA
HETATM   33  H46 UNL     1     -21.192  46.212 -25.133  1.00  0.00     0.209 HD
ENDBRANCH  31  32
ENDBRANCH  27  31
BRANCH  28  34
HETATM   34  O6  UNL     1     -19.442  44.765 -21.993  1.00  0.00    -0.390 OA
HETATM   35  H48 UNL     1     -19.648  45.392 -21.276  1.00  0.00     0.210 HD
ENDBRANCH  28  34
BRANCH  29  36
HETATM   36  O7  UNL     1     -16.948  45.494 -21.935  1.00  0.00    -0.390 OA
HETATM   37  H50 UNL     1     -17.458  44.673 -21.750  1.00  0.00     0.210 HD
ENDBRANCH  29  36
BRANCH  30  38
HETATM   38  O8  UNL     1     -15.747  47.221 -23.732  1.00  0.00    -0.388 OA
HETATM   39  H52 UNL     1     -15.364  46.663 -23.026  1.00  0.00     0.210 HD
ENDBRANCH  30  38
ENDBRANCH  24  25
ENDBRANCH  20  24
BRANCH   1  40
HETATM   40  C2  UNL     1      -6.846  47.039 -30.413  1.00  0.00    -0.010 C 
HETATM   41  C1  UNL     1      -6.583  46.092 -31.603  1.00  0.00     0.010 C 
BRANCH  40  42
HETATM   42  C3  UNL     1      -5.535  47.797 -30.072  1.00  0.00     0.031 C 
BRANCH  42  43
HETATM   43  C4  UNL     1      -5.145  47.919 -28.626  1.00  0.00    -0.027 C 
HETATM   44  C5  UNL     1      -4.340  48.874 -28.134  1.00  0.00     0.006 C 
BRANCH  44  45
HETATM   45  C6  UNL     1      -3.890  49.047 -26.701  1.00  0.00     0.068 C 
HETATM   46  C7  UNL     1      -4.780  48.381 -25.646  1.00  0.00     0.050 C 
HETATM   47  C8  UNL     1      -2.455  48.535 -26.545  1.00  0.00     0.050 C 
BRANCH  45  48
HETATM   48  O1  UNL     1      -3.893  50.444 -26.414  1.00  0.00    -0.387 OA
HETATM   49  H15 UNL     1      -3.487  50.907 -27.165  1.00  0.00     0.211 HD
ENDBRANCH  45  48
ENDBRANCH  44  45
ENDBRANCH  42  43
ENDBRANCH  40  42
ENDBRANCH   1  40
TORSDOF 12
ENDMDL
MODEL 5
REMARK minimizedAffinity -8.291152
REMARK CNNscore 0.317299992
REMARK CNNaffinity 6.52641678
REMARK  12 active torsions:
REMARK  status: ('A' for Active; 'I' for Inactive)
REMARK    1  A    between atoms: C2_2  and  C3_3 
REMARK    2  A    between atoms: C2_2  and  C9_10 
REMARK    3  A    between atoms: C3_3  and  C4_4 
REMARK    4  A    between atoms: C5_5  and  C6_6 
REMARK    5  A    between atoms: C6_6  and  O1_9 
REMARK    6  A    between atoms: C27_29  and  O3_30 
REMARK    7  A    between atoms: O3_30  and  C28_31 
REMARK    8  A    between atoms: C29_33  and  C30_34 
REMARK    9  A    between atoms: C30_34  and  O5_35 
REMARK   10  A    between atoms: C31_36  and  O6_37 
REMARK   11  A    between atoms: C32_38  and  O7_39 
REMARK   12  A    between atoms: C33_40  and  O8_41 
ROOT
HETATM    1  C9  UNL     1      -5.364  48.391 -24.361  1.00  0.00    -0.002 C 
HETATM    2  C10 UNL     1      -4.041  48.436 -25.177  1.00  0.00     0.006 C 
HETATM    3  C11 UNL     1      -2.992  49.169 -24.300  1.00  0.00     0.011 C 
HETATM    4  C12 UNL     1      -3.609  49.171 -22.889  1.00  0.00    -0.029 C 
HETATM    5  C13 UNL     1      -3.329  47.739 -22.319  1.00  0.00     0.016 C 
HETATM    6  C14 UNL     1      -3.097  50.273 -21.907  1.00  0.00     0.028 C 
HETATM    7  C15 UNL     1      -1.613  50.180 -21.614  1.00  0.00    -0.021 C 
HETATM    8  C16 UNL     1      -1.144  50.199 -20.352  1.00  0.00     0.008 C 
HETATM    9  C17 UNL     1      -2.080  50.217 -19.151  1.00  0.00     0.092 C 
HETATM   10  O2  UNL     1      -2.531  51.589 -19.061  1.00  0.00    -0.374 OA
HETATM   11  C18 UNL     1      -3.698  51.730 -19.889  1.00  0.00     0.179 C 
HETATM   12  C19 UNL     1      -3.976  50.366 -20.576  1.00  0.00    -0.004 C 
HETATM   13  C20 UNL     1      -5.497  50.271 -20.872  1.00  0.00     0.014 C 
HETATM   14  C21 UNL     1      -5.947  49.274 -21.955  1.00  0.00     0.011 C 
HETATM   15  C22 UNL     1      -5.122  49.442 -23.242  1.00  0.00    -0.032 C 
HETATM   16  C23 UNL     1      -5.396  50.866 -23.811  1.00  0.00     0.016 C 
HETATM   17  C24 UNL     1      -3.360  49.415 -19.508  1.00  0.00     0.036 C 
HETATM   18  C25 UNL     1      -4.205  49.031 -18.285  1.00  0.00     0.011 C 
HETATM   19  C26 UNL     1      -3.936  49.882 -17.062  1.00  0.00     0.033 C 
HETATM   20  C27 UNL     1      -2.464  49.851 -16.619  1.00  0.00     0.136 C 
HETATM   21  C34 UNL     1      -1.418  49.796 -17.798  1.00  0.00     0.014 C 
HETATM   22  C35 UNL     1      -0.200  50.700 -17.462  1.00  0.00     0.021 C 
HETATM   23  C36 UNL     1      -0.880  48.343 -17.899  1.00  0.00     0.021 C 
ENDROOT
BRANCH  20  24
HETATM   24  O3  UNL     1      -2.186  50.970 -15.759  1.00  0.00    -0.352 OA
BRANCH  24  25
HETATM   25  C28 UNL     1      -2.918  50.972 -14.531  1.00  0.00     0.292 C 
HETATM   26  O4  UNL     1      -2.712  52.207 -13.844  1.00  0.00    -0.348 OA
HETATM   27  C29 UNL     1      -1.565  52.263 -12.984  1.00  0.00     0.179 C 
HETATM   28  C31 UNL     1      -1.685  51.223 -11.846  1.00  0.00     0.180 C 
HETATM   29  C32 UNL     1      -2.592  50.035 -12.216  1.00  0.00     0.183 C 
HETATM   30  C33 UNL     1      -2.517  49.723 -13.705  1.00  0.00     0.204 C 
BRANCH  27  31
HETATM   31  C30 UNL     1      -0.229  52.134 -13.741  1.00  0.00     0.198 C 
BRANCH  31  32
HETATM   32  O5  UNL     1       0.772  52.976 -13.175  1.00  0.00    -0.398 OA
HETATM   33  H46 UNL     1       0.715  53.833 -13.648  1.00  0.00     0.209 HD
ENDBRANCH  31  32
ENDBRANCH  27  31
BRANCH  28  34
HETATM   34  O6  UNL     1      -2.258  51.847 -10.679  1.00  0.00    -0.390 OA
HETATM   35  H48 UNL     1      -2.189  51.213  -9.942  1.00  0.00     0.210 HD
ENDBRANCH  28  34
BRANCH  29  36
HETATM   36  O7  UNL     1      -3.971  50.300 -11.873  1.00  0.00    -0.390 OA
HETATM   37  H50 UNL     1      -3.977  51.200 -11.474  1.00  0.00     0.210 HD
ENDBRANCH  29  36
BRANCH  30  38
HETATM   38  O8  UNL     1      -3.397  48.615 -13.990  1.00  0.00    -0.388 OA
HETATM   39  H52 UNL     1      -4.251  48.869 -13.587  1.00  0.00     0.210 HD
ENDBRANCH  30  38
ENDBRANCH  24  25
ENDBRANCH  20  24
BRANCH   1  40
HETATM   40  C2  UNL     1      -6.709  48.354 -25.146  1.00  0.00    -0.010 C 
HETATM   41  C1  UNL     1      -7.873  48.537 -24.148  1.00  0.00     0.010 C 
BRANCH  40  42
HETATM   42  C3  UNL     1      -7.051  47.188 -26.111  1.00  0.00     0.031 C 
BRANCH  42  43
HETATM   43  C4  UNL     1      -7.107  47.482 -27.584  1.00  0.00    -0.027 C 
HETATM   44  C5  UNL     1      -8.233  47.749 -28.264  1.00  0.00     0.006 C 
BRANCH  44  45
HETATM   45  C6  UNL     1      -8.367  48.034 -29.743  1.00  0.00     0.068 C 
HETATM   46  C7  UNL     1      -7.682  47.027 -30.672  1.00  0.00     0.050 C 
HETATM   47  C8  UNL     1      -9.849  48.138 -30.116  1.00  0.00     0.050 C 
BRANCH  45  48
HETATM   48  O1  UNL     1      -7.760  49.300 -29.994  1.00  0.00    -0.387 OA
HETATM   49  H15 UNL     1      -8.046  49.915 -29.299  1.00  0.00     0.211 HD
ENDBRANCH  45  48
ENDBRANCH  44  45
ENDBRANCH  42  43
ENDBRANCH  40  42
ENDBRANCH   1  40
TORSDOF 12
ENDMDL
MODEL 6
REMARK minimizedAffinity -8.36137199
REMARK CNNscore 0.301217467
REMARK CNNaffinity 6.77796698
REMARK  12 active torsions:
REMARK  status: ('A' for Active; 'I' for Inactive)
REMARK    1  A    between atoms: C2_2  and  C3_3 
REMARK    2  A    between atoms: C2_2  and  C9_10 
REMARK    3  A    between atoms: C3_3  and  C4_4 
REMARK    4  A    between atoms: C5_5  and  C6_6 
REMARK    5  A    between atoms: C6_6  and  O1_9 
REMARK    6  A    between atoms: C27_29  and  O3_30 
REMARK    7  A    between atoms: O3_30  and  C28_31 
REMARK    8  A    between atoms: C29_33  and  C30_34 
REMARK    9  A    between atoms: C30_34  and  O5_35 
REMARK   10  A    between atoms: C31_36  and  O6_37 
REMARK   11  A    between atoms: C32_38  and  O7_39 
REMARK   12  A    between atoms: C33_40  and  O8_41 
ROOT
HETATM    1  C9  UNL     1      -8.248  46.045 -19.851  1.00  0.00    -0.002 C 
HETATM    2  C10 UNL     1      -8.673  47.136 -18.827  1.00  0.00     0.006 C 
HETATM    3  C11 UNL     1      -7.631  48.281 -18.925  1.00  0.00     0.011 C 
HETATM    4  C12 UNL     1      -6.885  48.006 -20.243  1.00  0.00    -0.029 C 
HETATM    5  C13 UNL     1      -7.831  48.548 -21.368  1.00  0.00     0.016 C 
HETATM    6  C14 UNL     1      -5.454  48.619 -20.374  1.00  0.00     0.028 C 
HETATM    7  C15 UNL     1      -5.434  50.132 -20.298  1.00  0.00    -0.021 C 
HETATM    8  C16 UNL     1      -4.788  50.873 -21.217  1.00  0.00     0.008 C 
HETATM    9  C17 UNL     1      -4.125  50.240 -22.434  1.00  0.00     0.092 C 
HETATM   10  O2  UNL     1      -2.886  49.690 -21.927  1.00  0.00    -0.374 OA
HETATM   11  C18 UNL     1      -3.149  48.356 -21.459  1.00  0.00     0.179 C 
HETATM   12  C19 UNL     1      -4.662  48.063 -21.646  1.00  0.00    -0.004 C 
HETATM   13  C20 UNL     1      -4.842  46.532 -21.824  1.00  0.00     0.014 C 
HETATM   14  C21 UNL     1      -6.237  45.945 -21.540  1.00  0.00     0.011 C 
HETATM   15  C22 UNL     1      -6.781  46.434 -20.187  1.00  0.00    -0.032 C 
HETATM   16  C23 UNL     1      -5.841  45.899 -19.066  1.00  0.00     0.016 C 
HETATM   17  C24 UNL     1      -4.952  48.997 -22.858  1.00  0.00     0.036 C 
HETATM   18  C25 UNL     1      -4.626  48.496 -24.272  1.00  0.00     0.011 C 
HETATM   19  C26 UNL     1      -3.278  48.953 -24.788  1.00  0.00     0.033 C 
HETATM   20  C27 UNL     1      -3.128  50.483 -24.809  1.00  0.00     0.136 C 
HETATM   21  C34 UNL     1      -3.816  51.232 -23.603  1.00  0.00     0.014 C 
HETATM   22  C35 UNL     1      -2.910  52.401 -23.125  1.00  0.00     0.021 C 
HETATM   23  C36 UNL     1      -5.132  51.871 -24.119  1.00  0.00     0.021 C 
ENDROOT
BRANCH  20  24
HETATM   24  O3  UNL     1      -1.737  50.840 -24.887  1.00  0.00    -0.352 OA
BRANCH  24  25
HETATM   25  C28 UNL     1      -1.182  50.777 -26.204  1.00  0.00     0.292 C 
HETATM   26  O4  UNL     1       0.205  50.445 -26.131  1.00  0.00    -0.348 OA
HETATM   27  C29 UNL     1       1.108  51.549 -25.967  1.00  0.00     0.179 C 
HETATM   28  C31 UNL     1       1.020  52.509 -27.175  1.00  0.00     0.180 C 
HETATM   29  C32 UNL     1      -0.335  52.433 -27.903  1.00  0.00     0.183 C 
HETATM   30  C33 UNL     1      -1.467  52.115 -26.933  1.00  0.00     0.204 C 
BRANCH  27  31
HETATM   31  C30 UNL     1       0.924  52.293 -24.629  1.00  0.00     0.198 C 
BRANCH  31  32
HETATM   32  O5  UNL     1       0.982  53.705 -24.809  1.00  0.00    -0.398 OA
HETATM   33  H46 UNL     1       1.921  53.962 -24.694  1.00  0.00     0.209 HD
ENDBRANCH  31  32
ENDBRANCH  27  31
BRANCH  28  34
HETATM   34  O6  UNL     1       2.038  52.166 -28.139  1.00  0.00    -0.390 OA
HETATM   35  H48 UNL     1       2.052  52.868 -28.815  1.00  0.00     0.210 HD
ENDBRANCH  28  34
BRANCH  29  36
HETATM   36  O7  UNL     1      -0.321  51.423 -28.937  1.00  0.00    -0.390 OA
HETATM   37  H50 UNL     1       0.582  51.032 -28.913  1.00  0.00     0.210 HD
ENDBRANCH  29  36
BRANCH  30  38
HETATM   38  O8  UNL     1      -2.703  52.044 -27.674  1.00  0.00    -0.388 OA
HETATM   39  H52 UNL     1      -2.510  51.436 -28.415  1.00  0.00     0.210 HD
ENDBRANCH  30  38
ENDBRANCH  24  25
ENDBRANCH  20  24
BRANCH   1  40
HETATM   40  C2  UNL     1      -8.635  44.567 -19.551  1.00  0.00    -0.010 C 
HETATM   41  C1  UNL     1      -8.764  44.385 -18.024  1.00  0.00     0.010 C 
BRANCH  40  42
HETATM   42  C3  UNL     1      -7.817  43.383 -20.133  1.00  0.00     0.031 C 
BRANCH  42  43
HETATM   43  C4  UNL     1      -8.405  42.614 -21.284  1.00  0.00    -0.027 C 
HETATM   44  C5  UNL     1      -8.101  42.825 -22.574  1.00  0.00     0.006 C 
BRANCH  44  45
HETATM   45  C6  UNL     1      -8.664  42.107 -23.779  1.00  0.00     0.068 C 
HETATM   46  C7  UNL     1      -9.867  41.200 -23.503  1.00  0.00     0.050 C 
HETATM   47  C8  UNL     1      -9.041  43.127 -24.858  1.00  0.00     0.050 C 
BRANCH  45  48
HETATM   48  O1  UNL     1      -7.634  41.272 -24.304  1.00  0.00    -0.387 OA
HETATM   49  H15 UNL     1      -6.809  41.784 -24.319  1.00  0.00     0.211 HD
ENDBRANCH  45  48
ENDBRANCH  44  45
ENDBRANCH  42  43
ENDBRANCH  40  42
ENDBRANCH   1  40
TORSDOF 12
ENDMDL
MODEL 7
REMARK minimizedAffinity -8.04415894
REMARK CNNscore 0.296688765
REMARK CNNaffinity 6.85182142
REMARK  12 active torsions:
REMARK  status: ('A' for Active; 'I' for Inactive)
REMARK    1  A    between atoms: C2_2  and  C3_3 
REMARK    2  A    between atoms: C2_2  and  C9_10 
REMARK    3  A    between atoms: C3_3  and  C4_4 
REMARK    4  A    between atoms: C5_5  and  C6_6 
REMARK    5  A    between atoms: C6_6  and  O1_9 
REMARK    6  A    between atoms: C27_29  and  O3_30 
REMARK    7  A    between atoms: O3_30  and  C28_31 
REMARK    8  A    between atoms: C29_33  and  C30_34 
REMARK    9  A    between atoms: C30_34  and  O5_35 
REMARK   10  A    between atoms: C31_36  and  O6_37 
REMARK   11  A    between atoms: C32_38  and  O7_39 
REMARK   12  A    between atoms: C33_40  and  O8_41 
ROOT
HETATM    1  C9  UNL     1      -1.004  52.025 -21.756  1.00  0.00    -0.002 C 
HETATM    2  C10 UNL     1      -1.035  51.672 -23.271  1.00  0.00     0.006 C 
HETATM    3  C11 UNL     1      -1.781  50.318 -23.406  1.00  0.00     0.011 C 
HETATM    4  C12 UNL     1      -2.485  50.133 -22.049  1.00  0.00    -0.029 C 
HETATM    5  C13 UNL     1      -3.764  51.034 -22.127  1.00  0.00     0.016 C 
HETATM    6  C14 UNL     1      -2.857  48.669 -21.652  1.00  0.00     0.028 C 
HETATM    7  C15 UNL     1      -3.823  48.008 -22.613  1.00  0.00    -0.021 C 
HETATM    8  C16 UNL     1      -4.933  47.384 -22.175  1.00  0.00     0.008 C 
HETATM    9  C17 UNL     1      -5.328  47.392 -20.705  1.00  0.00     0.092 C 
HETATM   10  O2  UNL     1      -4.466  46.404 -20.091  1.00  0.00    -0.374 OA
HETATM   11  C18 UNL     1      -3.247  47.059 -19.699  1.00  0.00     0.179 C 
HETATM   12  C19 UNL     1      -3.333  48.547 -20.131  1.00  0.00    -0.004 C 
HETATM   13  C20 UNL     1      -2.443  49.383 -19.172  1.00  0.00     0.014 C 
HETATM   14  C21 UNL     1      -1.975  50.765 -19.664  1.00  0.00     0.011 C 
HETATM   15  C22 UNL     1      -1.370  50.676 -21.075  1.00  0.00    -0.032 C 
HETATM   16  C23 UNL     1      -0.099  49.779 -21.001  1.00  0.00     0.016 C 
HETATM   17  C24 UNL     1      -4.877  48.738 -20.078  1.00  0.00     0.036 C 
HETATM   18  C25 UNL     1      -5.538  49.038 -18.725  1.00  0.00     0.011 C 
HETATM   19  C26 UNL     1      -6.094  47.813 -18.030  1.00  0.00     0.033 C 
HETATM   20  C27 UNL     1      -7.130  47.057 -18.878  1.00  0.00     0.136 C 
HETATM   21  C34 UNL     1      -6.822  47.026 -20.426  1.00  0.00     0.014 C 
HETATM   22  C35 UNL     1      -7.177  45.627 -21.003  1.00  0.00     0.021 C 
HETATM   23  C36 UNL     1      -7.760  48.046 -21.124  1.00  0.00     0.021 C 
ENDROOT
BRANCH  20  24
HETATM   24  O3  UNL     1      -7.294  45.719 -18.377  1.00  0.00    -0.352 OA
BRANCH  24  25
HETATM   25  C28 UNL     1      -8.281  45.586 -17.351  1.00  0.00     0.292 C 
HETATM   26  O4  UNL     1      -9.016  44.376 -17.537  1.00  0.00    -0.348 OA
HETATM   27  C29 UNL     1     -10.152  44.458 -18.409  1.00  0.00     0.179 C 
HETATM   28  C31 UNL     1     -11.201  45.444 -17.847  1.00  0.00     0.180 C 
HETATM   29  C32 UNL     1     -10.586  46.504 -16.914  1.00  0.00     0.183 C 
HETATM   30  C33 UNL     1      -9.167  46.859 -17.339  1.00  0.00     0.204 C 
BRANCH  27  31
HETATM   31  C30 UNL     1      -9.777  44.788 -19.868  1.00  0.00     0.198 C 
BRANCH  31  32
HETATM   32  O5  UNL     1     -10.732  45.662 -20.464  1.00  0.00    -0.398 OA
HETATM   33  H46 UNL     1     -11.408  45.090 -20.884  1.00  0.00     0.209 HD
ENDBRANCH  31  32
ENDBRANCH  27  31
BRANCH  28  34
HETATM   34  O6  UNL     1     -12.182  44.719 -17.076  1.00  0.00    -0.390 OA
HETATM   35  H48 UNL     1     -12.901  45.339 -16.857  1.00  0.00     0.210 HD
ENDBRANCH  28  34
BRANCH  29  36
HETATM   36  O7  UNL     1     -10.552  46.043 -15.545  1.00  0.00    -0.390 OA
HETATM   37  H50 UNL     1     -10.947  45.142 -15.559  1.00  0.00     0.210 HD
ENDBRANCH  29  36
BRANCH  30  38
HETATM   38  O8  UNL     1      -8.642  47.842 -16.422  1.00  0.00    -0.388 OA
HETATM   39  H52 UNL     1      -8.806  47.462 -15.536  1.00  0.00     0.210 HD
ENDBRANCH  30  38
ENDBRANCH  24  25
ENDBRANCH  20  24
BRANCH   1  40
HETATM   40  C2  UNL     1       0.178  52.892 -21.229  1.00  0.00    -0.010 C 
HETATM   41  C1  UNL     1       1.495  52.113 -21.428  1.00  0.00     0.010 C 
BRANCH  40  42
HETATM   42  C3  UNL     1       0.161  53.498 -19.800  1.00  0.00     0.031 C 
BRANCH  42  43
HETATM   43  C4  UNL     1       0.966  52.812 -18.731  1.00  0.00    -0.027 C 
HETATM   44  C5  UNL     1       0.573  52.674 -17.455  1.00  0.00     0.006 C 
BRANCH  44  45
HETATM   45  C6  UNL     1       1.335  52.016 -16.327  1.00  0.00     0.068 C 
HETATM   46  C7  UNL     1       1.066  50.520 -16.135  1.00  0.00     0.050 C 
HETATM   47  C8  UNL     1       2.838  52.237 -16.520  1.00  0.00     0.050 C 
BRANCH  45  48
HETATM   48  O1  UNL     1       0.948  52.659 -15.113  1.00  0.00    -0.387 OA
HETATM   49  H15 UNL     1       0.938  53.617 -15.270  1.00  0.00     0.211 HD
ENDBRANCH  45  48
ENDBRANCH  44  45
ENDBRANCH  42  43
ENDBRANCH  40  42
ENDBRANCH   1  40
TORSDOF 12
ENDMDL
MODEL 8
REMARK minimizedAffinity -8.1853466
REMARK CNNscore 0.294708222
REMARK CNNaffinity 6.58067703
REMARK  12 active torsions:
REMARK  status: ('A' for Active; 'I' for Inactive)
REMARK    1  A    between atoms: C2_2  and  C3_3 
REMARK    2  A    between atoms: C2_2  and  C9_10 
REMARK    3  A    between atoms: C3_3  and  C4_4 
REMARK    4  A    between atoms: C5_5  and  C6_6 
REMARK    5  A    between atoms: C6_6  and  O1_9 
REMARK    6  A    between atoms: C27_29  and  O3_30 
REMARK    7  A    between atoms: O3_30  and  C28_31 
REMARK    8  A    between atoms: C29_33  and  C30_34 
REMARK    9  A    between atoms: C30_34  and  O5_35 
REMARK   10  A    between atoms: C31_36  and  O6_37 
REMARK   11  A    between atoms: C32_38  and  O7_39 
REMARK   12  A    between atoms: C33_40  and  O8_41 
ROOT
HETATM    1  C9  UNL     1      -8.781  47.495 -19.678  1.00  0.00    -0.002 C 
HETATM    2  C10 UNL     1      -8.028  46.608 -18.645  1.00  0.00     0.006 C 
HETATM    3  C11 UNL     1      -6.532  46.604 -19.057  1.00  0.00     0.011 C 
HETATM    4  C12 UNL     1      -6.406  47.774 -20.049  1.00  0.00    -0.029 C 
HETATM    5  C13 UNL     1      -6.328  49.060 -19.156  1.00  0.00     0.016 C 
HETATM    6  C14 UNL     1      -5.206  47.715 -21.047  1.00  0.00     0.028 C 
HETATM    7  C15 UNL     1      -3.852  47.717 -20.367  1.00  0.00    -0.021 C 
HETATM    8  C16 UNL     1      -2.877  48.563 -20.747  1.00  0.00     0.008 C 
HETATM    9  C17 UNL     1      -3.109  49.627 -21.811  1.00  0.00     0.092 C 
HETATM   10  O2  UNL     1      -3.047  48.906 -23.066  1.00  0.00    -0.374 OA
HETATM   11  C18 UNL     1      -4.365  48.414 -23.362  1.00  0.00     0.179 C 
HETATM   12  C19 UNL     1      -5.310  48.818 -22.199  1.00  0.00    -0.004 C 
HETATM   13  C20 UNL     1      -6.751  48.939 -22.764  1.00  0.00     0.014 C 
HETATM   14  C21 UNL     1      -7.915  48.845 -21.760  1.00  0.00     0.011 C 
HETATM   15  C22 UNL     1      -7.760  47.619 -20.843  1.00  0.00    -0.032 C 
HETATM   16  C23 UNL     1      -7.834  46.340 -21.728  1.00  0.00     0.016 C 
HETATM   17  C24 UNL     1      -4.582  50.107 -21.718  1.00  0.00     0.036 C 
HETATM   18  C25 UNL     1      -4.846  51.425 -22.460  1.00  0.00     0.011 C 
HETATM   19  C26 UNL     1      -3.814  51.750 -23.519  1.00  0.00     0.033 C 
HETATM   20  C27 UNL     1      -2.383  51.828 -22.961  1.00  0.00     0.136 C 
HETATM   21  C34 UNL     1      -2.059  50.785 -21.823  1.00  0.00     0.014 C 
HETATM   22  C35 UNL     1      -0.617  50.235 -22.010  1.00  0.00     0.021 C 
HETATM   23  C36 UNL     1      -2.076  51.532 -20.463  1.00  0.00     0.021 C 
ENDROOT
BRANCH  20  24
HETATM   24  O3  UNL     1      -1.430  51.709 -24.031  1.00  0.00    -0.352 OA
BRANCH  24  25
HETATM   25  C28 UNL     1      -1.237  52.906 -24.789  1.00  0.00     0.292 C 
HETATM   26  O4  UNL     1      -2.193  52.971 -25.848  1.00  0.00    -0.348 OA
HETATM   27  C29 UNL     1      -1.823  52.317 -27.070  1.00  0.00     0.179 C 
HETATM   28  C31 UNL     1      -0.558  52.968 -27.675  1.00  0.00     0.180 C 
HETATM   29  C32 UNL     1       0.316  53.670 -26.619  1.00  0.00     0.183 C 
HETATM   30  C33 UNL     1       0.235  52.962 -25.273  1.00  0.00     0.204 C 
BRANCH  27  31
HETATM   31  C30 UNL     1      -1.669  50.791 -26.922  1.00  0.00     0.198 C 
BRANCH  31  32
HETATM   32  O5  UNL     1      -2.885  50.114 -27.225  1.00  0.00    -0.398 OA
HETATM   33  H46 UNL     1      -3.377  50.034 -26.381  1.00  0.00     0.209 HD
ENDBRANCH  31  32
ENDBRANCH  27  31
BRANCH  28  34
HETATM   34  O6  UNL     1      -0.944  53.969 -28.640  1.00  0.00    -0.390 OA
HETATM   35  H48 UNL     1      -0.137  54.258 -29.103  1.00  0.00     0.210 HD
ENDBRANCH  28  34
BRANCH  29  36
HETATM   36  O7  UNL     1      -0.084  55.047 -26.437  1.00  0.00    -0.390 OA
HETATM   37  H50 UNL     1      -0.835  55.189 -27.057  1.00  0.00     0.210 HD
ENDBRANCH  29  36
BRANCH  30  38
HETATM   38  O8  UNL     1       1.061  53.672 -24.327  1.00  0.00    -0.388 OA
HETATM   39  H52 UNL     1       0.777  54.605 -24.405  1.00  0.00     0.210 HD
ENDBRANCH  30  38
ENDBRANCH  24  25
ENDBRANCH  20  24
BRANCH   1  40
HETATM   40  C2  UNL     1     -10.281  47.181 -19.960  1.00  0.00    -0.010 C 
HETATM   41  C1  UNL     1     -11.150  48.278 -19.310  1.00  0.00     0.010 C 
BRANCH  40  42
HETATM   42  C3  UNL     1     -10.892  45.792 -19.631  1.00  0.00     0.031 C 
BRANCH  42  43
HETATM   43  C4  UNL     1     -11.394  44.952 -20.773  1.00  0.00    -0.027 C 
HETATM   44  C5  UNL     1     -12.676  44.893 -21.166  1.00  0.00     0.006 C 
BRANCH  44  45
HETATM   45  C6  UNL     1     -13.255  44.060 -22.288  1.00  0.00     0.068 C 
HETATM   46  C7  UNL     1     -13.966  42.775 -21.854  1.00  0.00     0.050 C 
HETATM   47  C8  UNL     1     -14.217  44.913 -23.120  1.00  0.00     0.050 C 
BRANCH  45  48
HETATM   48  O1  UNL     1     -12.175  43.665 -23.132  1.00  0.00    -0.387 OA
HETATM   49  H15 UNL     1     -11.605  44.438 -23.274  1.00  0.00     0.211 HD
ENDBRANCH  45  48
ENDBRANCH  44  45
ENDBRANCH  42  43
ENDBRANCH  40  42
ENDBRANCH   1  40
TORSDOF 12
ENDMDL
MODEL 9
REMARK minimizedAffinity -8.35464478
REMARK CNNscore 0.291048497
REMARK CNNaffinity 6.88296175
REMARK  12 active torsions:
REMARK  status: ('A' for Active; 'I' for Inactive)
REMARK    1  A    between atoms: C2_2  and  C3_3 
REMARK    2  A    between atoms: C2_2  and  C9_10 
REMARK    3  A    between atoms: C3_3  and  C4_4 
REMARK    4  A    between atoms: C5_5  and  C6_6 
REMARK    5  A    between atoms: C6_6  and  O1_9 
REMARK    6  A    between atoms: C27_29  and  O3_30 
REMARK    7  A    between atoms: O3_30  and  C28_31 
REMARK    8  A    between atoms: C29_33  and  C30_34 
REMARK    9  A    between atoms: C30_34  and  O5_35 
REMARK   10  A    between atoms: C31_36  and  O6_37 
REMARK   11  A    between atoms: C32_38  and  O7_39 
REMARK   12  A    between atoms: C33_40  and  O8_41 
ROOT
HETATM    1  C9  UNL     1      -9.119  46.292 -19.813  1.00  0.00    -0.002 C 
HETATM    2  C10 UNL     1      -8.827  46.760 -18.359  1.00  0.00     0.006 C 
HETATM    3  C11 UNL     1      -7.432  47.439 -18.372  1.00  0.00     0.011 C 
HETATM    4  C12 UNL     1      -7.144  47.690 -19.863  1.00  0.00    -0.029 C 
HETATM    5  C13 UNL     1      -7.957  48.979 -20.225  1.00  0.00     0.016 C 
HETATM    6  C14 UNL     1      -5.643  47.847 -20.265  1.00  0.00     0.028 C 
HETATM    7  C15 UNL     1      -4.957  49.022 -19.598  1.00  0.00    -0.021 C 
HETATM    8  C16 UNL     1      -4.241  49.914 -20.309  1.00  0.00     0.008 C 
HETATM    9  C17 UNL     1      -4.162  49.847 -21.828  1.00  0.00     0.092 C 
HETATM   10  O2  UNL     1      -3.211  48.789 -22.097  1.00  0.00    -0.374 OA
HETATM   11  C18 UNL     1      -3.930  47.546 -22.145  1.00  0.00     0.179 C 
HETATM   12  C19 UNL     1      -5.426  47.835 -21.849  1.00  0.00    -0.004 C 
HETATM   13  C20 UNL     1      -6.280  46.744 -22.547  1.00  0.00     0.014 C 
HETATM   14  C21 UNL     1      -7.710  46.519 -22.021  1.00  0.00     0.011 C 
HETATM   15  C22 UNL     1      -7.721  46.364 -20.491  1.00  0.00    -0.032 C 
HETATM   16  C23 UNL     1      -6.911  45.084 -20.128  1.00  0.00     0.016 C 
HETATM   17  C24 UNL     1      -5.509  49.300 -22.371  1.00  0.00     0.036 C 
HETATM   18  C25 UNL     1      -5.706  49.537 -23.875  1.00  0.00     0.011 C 
HETATM   19  C26 UNL     1      -4.419  49.792 -24.630  1.00  0.00     0.033 C 
HETATM   20  C27 UNL     1      -3.629  50.994 -24.086  1.00  0.00     0.136 C 
HETATM   21  C34 UNL     1      -3.683  51.166 -22.518  1.00  0.00     0.014 C 
HETATM   22  C35 UNL     1      -2.289  51.604 -21.990  1.00  0.00     0.021 C 
HETATM   23  C36 UNL     1      -4.665  52.323 -22.193  1.00  0.00     0.021 C 
ENDROOT
BRANCH  20  24
HETATM   24  O3  UNL     1      -2.264  50.928 -24.532  1.00  0.00    -0.352 OA
BRANCH  24  25
HETATM   25  C28 UNL     1      -1.719  52.179 -24.960  1.00  0.00     0.292 C 
HETATM   26  O4  UNL     1      -2.533  52.737 -25.993  1.00  0.00    -0.348 OA
HETATM   27  C29 UNL     1      -2.225  52.318 -27.330  1.00  0.00     0.179 C 
HETATM   28  C31 UNL     1      -0.791  52.745 -27.719  1.00  0.00     0.180 C 
HETATM   29  C32 UNL     1       0.130  52.928 -26.498  1.00  0.00     0.183 C 
HETATM   30  C33 UNL     1      -0.240  51.967 -25.376  1.00  0.00     0.204 C 
BRANCH  27  31
HETATM   31  C30 UNL     1      -2.459  50.813 -27.566  1.00  0.00     0.198 C 
BRANCH  31  32
HETATM   32  O5  UNL     1      -3.340  50.591 -28.664  1.00  0.00    -0.398 OA
HETATM   33  H46 UNL     1      -4.247  50.560 -28.292  1.00  0.00     0.209 HD
ENDBRANCH  31  32
ENDBRANCH  27  31
BRANCH  28  34
HETATM   34  O6  UNL     1      -0.835  54.010 -28.411  1.00  0.00    -0.390 OA
HETATM   35  H48 UNL     1       0.057  54.183 -28.766  1.00  0.00     0.210 HD
ENDBRANCH  28  34
BRANCH  29  36
HETATM   36  O7  UNL     1       0.062  54.278 -25.986  1.00  0.00    -0.390 OA
HETATM   37  H50 UNL     1      -0.573  54.751 -26.570  1.00  0.00     0.210 HD
ENDBRANCH  29  36
BRANCH  30  38
HETATM   38  O8  UNL     1       0.646  52.196 -24.260  1.00  0.00    -0.388 OA
HETATM   39  H52 UNL     1       0.606  53.162 -24.109  1.00  0.00     0.210 HD
ENDBRANCH  30  38
ENDBRANCH  24  25
ENDBRANCH  20  24
BRANCH   1  40
HETATM   40  C2  UNL     1     -10.042  45.054 -20.015  1.00  0.00    -0.010 C 
HETATM   41  C1  UNL     1     -11.169  45.429 -21.000  1.00  0.00     0.010 C 
BRANCH  40  42
HETATM   42  C3  UNL     1     -10.658  44.299 -18.807  1.00  0.00     0.031 C 
BRANCH  42  43
HETATM   43  C4  UNL     1     -11.884  44.880 -18.160  1.00  0.00    -0.027 C 
HETATM   44  C5  UNL     1     -12.173  44.783 -16.853  1.00  0.00     0.006 C 
BRANCH  44  45
HETATM   45  C6  UNL     1     -13.391  45.323 -16.139  1.00  0.00     0.068 C 
HETATM   46  C7  UNL     1     -14.216  46.347 -16.926  1.00  0.00     0.050 C 
HETATM   47  C8  UNL     1     -14.298  44.164 -15.717  1.00  0.00     0.050 C 
BRANCH  45  48
HETATM   48  O1  UNL     1     -12.941  45.983 -14.958  1.00  0.00    -0.387 OA
HETATM   49  H15 UNL     1     -12.275  45.419 -14.533  1.00  0.00     0.211 HD
ENDBRANCH  45  48
ENDBRANCH  44  45
ENDBRANCH  42  43
ENDBRANCH  40  42
ENDBRANCH   1  40
TORSDOF 12
ENDMDL
