MODEL 1
REMARK minimizedAffinity -7.16466761
REMARK CNNscore 0.71919775
REMARK CNNaffinity 6.87185144
REMARK  4 active torsions:
REMARK  status: ('A' for Active; 'I' for Inactive)
REMARK    1  A    between atoms: C4_4  and  C5_5 
REMARK    2  A    between atoms: C5_5  and  C6_6 
REMARK    3  A    between atoms: C6_6  and  C7_7 
REMARK    4  A    between atoms: C7_7  and  C9_9 
ROOT
HETATM    1  C9  UNL     1      -2.444  52.116 -10.420  1.00  0.00    -0.002 C 
HETATM    2  C10 UNL     1      -1.834  52.372 -11.832  1.00  0.00     0.007 C 
HETATM    3  C11 UNL     1      -0.642  53.330 -11.659  1.00  0.00     0.015 C 
HETATM    4  C12 UNL     1      -0.776  53.871 -10.223  1.00  0.00    -0.013 C 
HETATM    5  C13 UNL     1      -1.798  55.052 -10.297  1.00  0.00     0.021 C 
HETATM    6  C14 UNL     1       0.473  54.440  -9.554  1.00  0.00    -0.070 C 
HETATM    7  C15 UNL     1       1.431  55.072 -10.252  1.00  0.00    -0.022 C 
HETATM    8  C16 UNL     1       2.619  55.749  -9.643  1.00  0.00     0.034 C 
HETATM    9  C17 UNL     1       2.830  55.461  -8.139  1.00  0.00     0.013 C 
HETATM   10  C18 UNL     1       3.954  56.359  -7.502  1.00  0.00     0.018 C 
HETATM   11  C19 UNL     1       3.997  57.810  -8.019  1.00  0.00     0.023 C 
HETATM   12  C20 UNL     1       5.336  55.733  -7.794  1.00  0.00     0.023 C 
HETATM   13  C21 UNL     1       3.795  56.375  -5.978  1.00  0.00     0.135 C 
HETATM   14  O1  UNL     1       4.240  57.280  -5.271  1.00  0.00    -0.297 OA
HETATM   15  C22 UNL     1       3.138  55.173  -5.362  1.00  0.00     0.080 C 
HETATM   16  C23 UNL     1       1.710  55.010  -5.858  1.00  0.00     0.017 C 
HETATM   17  C24 UNL     1       1.465  55.410  -7.350  1.00  0.00    -0.031 C 
HETATM   18  C25 UNL     1       0.751  56.783  -7.367  1.00  0.00     0.016 C 
HETATM   19  C26 UNL     1       0.566  54.297  -8.033  1.00  0.00     0.024 C 
HETATM   20  C27 UNL     1      -0.819  54.081  -7.376  1.00  0.00     0.010 C 
HETATM   21  C28 UNL     1      -1.716  53.004  -8.038  1.00  0.00     0.011 C 
HETATM   22  C29 UNL     1      -1.295  52.596  -9.466  1.00  0.00    -0.029 C 
HETATM   23  C30 UNL     1      -0.238  51.450  -9.373  1.00  0.00     0.016 C 
ENDROOT
BRANCH   1  24
HETATM   24  C7  UNL     1      -3.010  50.671 -10.289  1.00  0.00    -0.014 C 
HETATM   25  C8  UNL     1      -2.700  49.837 -11.546  1.00  0.00     0.010 C 
BRANCH  24  26
HETATM   26  C6  UNL     1      -4.521  50.587  -9.963  1.00  0.00     0.008 C 
BRANCH  26  27
HETATM   27  C5  UNL     1      -5.147  49.197 -10.101  1.00  0.00     0.028 C 
BRANCH  27  28
HETATM   28  C4  UNL     1      -6.492  49.049 -10.773  1.00  0.00    -0.025 C 
HETATM   29  C2  UNL     1      -7.759  49.236 -10.352  1.00  0.00    -0.091 C 
HETATM   30  C1  UNL     1      -8.911  48.962 -11.288  1.00  0.00     0.042 C 
HETATM   31  C3  UNL     1      -8.173  49.719  -8.993  1.00  0.00     0.042 C 
ENDBRANCH  27  28
ENDBRANCH  26  27
ENDBRANCH  24  26
ENDBRANCH   1  24
TORSDOF 4
ENDMDL
MODEL 2
REMARK minimizedAffinity -7.20715904
REMARK CNNscore 0.565628827
REMARK CNNaffinity 6.77520418
REMARK  4 active torsions:
REMARK  status: ('A' for Active; 'I' for Inactive)
REMARK    1  A    between atoms: C4_4  and  C5_5 
REMARK    2  A    between atoms: C5_5  and  C6_6 
REMARK    3  A    between atoms: C6_6  and  C7_7 
REMARK    4  A    between atoms: C7_7  and  C9_9 
ROOT
HETATM    1  C9  UNL     1       1.026  54.741 -10.551  1.00  0.00    -0.002 C 
HETATM    2  C10 UNL     1       1.993  53.884 -11.425  1.00  0.00     0.007 C 
HETATM    3  C11 UNL     1       3.384  53.934 -10.766  1.00  0.00     0.015 C 
HETATM    4  C12 UNL     1       3.287  55.065  -9.725  1.00  0.00    -0.013 C 
HETATM    5  C13 UNL     1       3.536  56.397 -10.505  1.00  0.00     0.021 C 
HETATM    6  C14 UNL     1       4.287  55.061  -8.572  1.00  0.00    -0.070 C 
HETATM    7  C15 UNL     1       5.543  54.605  -8.717  1.00  0.00    -0.022 C 
HETATM    8  C16 UNL     1       6.601  54.679  -7.661  1.00  0.00     0.034 C 
HETATM    9  C17 UNL     1       6.094  55.093  -6.262  1.00  0.00     0.013 C 
HETATM   10  C18 UNL     1       7.266  55.365  -5.248  1.00  0.00     0.018 C 
HETATM   11  C19 UNL     1       8.500  56.061  -5.855  1.00  0.00     0.023 C 
HETATM   12  C20 UNL     1       7.750  54.023  -4.653  1.00  0.00     0.023 C 
HETATM   13  C21 UNL     1       6.746  56.201  -4.074  1.00  0.00     0.135 C 
HETATM   14  O1  UNL     1       7.482  56.896  -3.372  1.00  0.00    -0.297 OA
HETATM   15  C22 UNL     1       5.284  56.067  -3.754  1.00  0.00     0.080 C 
HETATM   16  C23 UNL     1       4.421  56.526  -4.918  1.00  0.00     0.017 C 
HETATM   17  C24 UNL     1       4.985  56.213  -6.342  1.00  0.00    -0.031 C 
HETATM   18  C25 UNL     1       5.550  57.526  -6.934  1.00  0.00     0.016 C 
HETATM   19  C26 UNL     1       3.808  55.647  -7.242  1.00  0.00     0.024 C 
HETATM   20  C27 UNL     1       2.604  56.604  -7.420  1.00  0.00     0.010 C 
HETATM   21  C28 UNL     1       1.449  56.072  -8.305  1.00  0.00     0.011 C 
HETATM   22  C29 UNL     1       1.818  54.872  -9.203  1.00  0.00    -0.029 C 
HETATM   23  C30 UNL     1       1.610  53.552  -8.394  1.00  0.00     0.016 C 
ENDROOT
BRANCH   1  24
HETATM   24  C7  UNL     1      -0.419  54.158 -10.549  1.00  0.00    -0.014 C 
HETATM   25  C8  UNL     1      -1.444  55.214 -10.097  1.00  0.00     0.010 C 
BRANCH  24  26
HETATM   26  C6  UNL     1      -0.600  52.862  -9.720  1.00  0.00     0.008 C 
BRANCH  26  27
HETATM   27  C5  UNL     1      -1.918  52.755  -8.949  1.00  0.00     0.028 C 
BRANCH  27  28
HETATM   28  C4  UNL     1      -2.977  51.784  -9.416  1.00  0.00    -0.025 C 
HETATM   29  C2  UNL     1      -3.907  51.832 -10.392  1.00  0.00    -0.091 C 
HETATM   30  C1  UNL     1      -4.859  50.676 -10.581  1.00  0.00     0.042 C 
HETATM   31  C3  UNL     1      -4.105  52.958 -11.364  1.00  0.00     0.042 C 
ENDBRANCH  27  28
ENDBRANCH  26  27
ENDBRANCH  24  26
ENDBRANCH   1  24
TORSDOF 4
ENDMDL
MODEL 3
REMARK minimizedAffinity -6.47703171
REMARK CNNscore 0.471602321
REMARK CNNaffinity 5.77057076
REMARK  4 active torsions:
REMARK  status: ('A' for Active; 'I' for Inactive)
REMARK    1  A    between atoms: C4_4  and  C5_5 
REMARK    2  A    between atoms: C5_5  and  C6_6 
REMARK    3  A    between atoms: C6_6  and  C7_7 
REMARK    4  A    between atoms: C7_7  and  C9_9 
ROOT
HETATM    1  C9  UNL     1     -10.855  46.395 -28.740  1.00  0.00    -0.002 C 
HETATM    2  C10 UNL     1     -11.116  45.227 -29.741  1.00  0.00     0.007 C 
HETATM    3  C11 UNL     1     -12.421  44.530 -29.313  1.00  0.00     0.015 C 
HETATM    4  C12 UNL     1     -12.718  45.078 -27.905  1.00  0.00    -0.013 C 
HETATM    5  C13 UNL     1     -11.860  44.224 -26.916  1.00  0.00     0.021 C 
HETATM    6  C14 UNL     1     -14.154  44.993 -27.395  1.00  0.00    -0.070 C 
HETATM    7  C15 UNL     1     -14.975  43.986 -27.736  1.00  0.00    -0.022 C 
HETATM    8  C16 UNL     1     -16.351  43.786 -27.181  1.00  0.00     0.034 C 
HETATM    9  C17 UNL     1     -16.897  44.974 -26.356  1.00  0.00     0.013 C 
HETATM   10  C18 UNL     1     -18.245  44.631 -25.620  1.00  0.00     0.018 C 
HETATM   11  C19 UNL     1     -18.330  43.200 -25.055  1.00  0.00     0.023 C 
HETATM   12  C20 UNL     1     -19.423  44.801 -26.606  1.00  0.00     0.023 C 
HETATM   13  C21 UNL     1     -18.478  45.632 -24.484  1.00  0.00     0.135 C 
HETATM   14  O1  UNL     1     -19.192  45.384 -23.512  1.00  0.00    -0.297 OA
HETATM   15  C22 UNL     1     -17.857  46.990 -24.653  1.00  0.00     0.080 C 
HETATM   16  C23 UNL     1     -16.341  46.897 -24.729  1.00  0.00     0.017 C 
HETATM   17  C24 UNL     1     -15.779  45.637 -25.463  1.00  0.00    -0.031 C 
HETATM   18  C25 UNL     1     -15.254  44.652 -24.390  1.00  0.00     0.016 C 
HETATM   19  C26 UNL     1     -14.609  46.092 -26.432  1.00  0.00     0.024 C 
HETATM   20  C27 UNL     1     -13.418  46.794 -25.734  1.00  0.00     0.010 C 
HETATM   21  C28 UNL     1     -12.261  47.237 -26.665  1.00  0.00     0.011 C 
HETATM   22  C29 UNL     1     -12.257  46.572 -28.058  1.00  0.00    -0.029 C 
HETATM   23  C30 UNL     1     -13.157  47.410 -29.021  1.00  0.00     0.016 C 
ENDROOT
BRANCH   1  24
HETATM   24  C7  UNL     1     -10.171  47.609 -29.436  1.00  0.00    -0.014 C 
HETATM   25  C8  UNL     1     -10.148  47.432 -30.966  1.00  0.00     0.010 C 
BRANCH  24  26
HETATM   26  C6  UNL     1      -8.747  47.938 -28.925  1.00  0.00     0.008 C 
BRANCH  26  27
HETATM   27  C5  UNL     1      -7.797  48.538 -29.965  1.00  0.00     0.028 C 
BRANCH  27  28
HETATM   28  C4  UNL     1      -6.566  47.768 -30.383  1.00  0.00    -0.025 C 
HETATM   29  C2  UNL     1      -6.143  47.276 -31.565  1.00  0.00    -0.091 C 
HETATM   30  C1  UNL     1      -4.846  46.506 -31.637  1.00  0.00     0.042 C 
HETATM   31  C3  UNL     1      -6.845  47.424 -32.882  1.00  0.00     0.042 C 
ENDBRANCH  27  28
ENDBRANCH  26  27
ENDBRANCH  24  26
ENDBRANCH   1  24
TORSDOF 4
ENDMDL
MODEL 4
REMARK minimizedAffinity -7.35898304
REMARK CNNscore 0.436222166
REMARK CNNaffinity 6.47334909
REMARK  4 active torsions:
REMARK  status: ('A' for Active; 'I' for Inactive)
REMARK    1  A    between atoms: C4_4  and  C5_5 
REMARK    2  A    between atoms: C5_5  and  C6_6 
REMARK    3  A    between atoms: C6_6  and  C7_7 
REMARK    4  A    between atoms: C7_7  and  C9_9 
ROOT
HETATM    1  C9  UNL     1       1.332  55.660  -8.982  1.00  0.00    -0.002 C 
HETATM    2  C10 UNL     1       0.481  55.702  -7.675  1.00  0.00     0.007 C 
HETATM    3  C11 UNL     1      -0.647  54.664  -7.820  1.00  0.00     0.015 C 
HETATM    4  C12 UNL     1      -0.638  54.278  -9.311  1.00  0.00    -0.013 C 
HETATM    5  C13 UNL     1      -1.466  55.378 -10.050  1.00  0.00     0.021 C 
HETATM    6  C14 UNL     1      -1.267  52.944  -9.706  1.00  0.00    -0.070 C 
HETATM    7  C15 UNL     1      -2.320  52.428  -9.049  1.00  0.00    -0.022 C 
HETATM    8  C16 UNL     1      -3.050  51.186  -9.456  1.00  0.00     0.034 C 
HETATM    9  C17 UNL     1      -2.357  50.359 -10.562  1.00  0.00     0.013 C 
HETATM   10  C18 UNL     1      -3.262  49.190 -11.102  1.00  0.00     0.018 C 
HETATM   11  C19 UNL     1      -4.760  49.534 -11.224  1.00  0.00     0.023 C 
HETATM   12  C20 UNL     1      -3.152  47.976 -10.153  1.00  0.00     0.023 C 
HETATM   13  C21 UNL     1      -2.742  48.727 -12.466  1.00  0.00     0.135 C 
HETATM   14  O1  UNL     1      -3.452  48.149 -13.290  1.00  0.00    -0.297 OA
HETATM   15  C22 UNL     1      -1.277  48.933 -12.728  1.00  0.00     0.080 C 
HETATM   16  C23 UNL     1      -0.915  50.409 -12.701  1.00  0.00     0.017 C 
HETATM   17  C24 UNL     1      -1.696  51.277 -11.661  1.00  0.00    -0.031 C 
HETATM   18  C25 UNL     1      -2.762  52.098 -12.427  1.00  0.00     0.016 C 
HETATM   19  C26 UNL     1      -0.670  52.233 -10.922  1.00  0.00     0.024 C 
HETATM   20  C27 UNL     1       0.104  53.203 -11.849  1.00  0.00     0.010 C 
HETATM   21  C28 UNL     1       1.105  54.152 -11.143  1.00  0.00     0.011 C 
HETATM   22  C29 UNL     1       0.902  54.292  -9.619  1.00  0.00    -0.029 C 
HETATM   23  C30 UNL     1       1.696  53.157  -8.897  1.00  0.00     0.016 C 
ENDROOT
BRANCH   1  24
HETATM   24  C7  UNL     1       2.836  55.948  -8.700  1.00  0.00    -0.014 C 
HETATM   25  C8  UNL     1       3.012  56.784  -7.419  1.00  0.00     0.010 C 
BRANCH  24  26
HETATM   26  C6  UNL     1       3.605  56.611  -9.870  1.00  0.00     0.008 C 
BRANCH  26  27
HETATM   27  C5  UNL     1       4.408  55.654 -10.754  1.00  0.00     0.028 C 
BRANCH  27  28
HETATM   28  C4  UNL     1       5.040  54.425 -10.141  1.00  0.00    -0.025 C 
HETATM   29  C2  UNL     1       6.030  54.248  -9.244  1.00  0.00    -0.091 C 
HETATM   30  C1  UNL     1       6.453  52.851  -8.857  1.00  0.00     0.042 C 
HETATM   31  C3  UNL     1       6.791  55.336  -8.545  1.00  0.00     0.042 C 
ENDBRANCH  27  28
ENDBRANCH  26  27
ENDBRANCH  24  26
ENDBRANCH   1  24
TORSDOF 4
ENDMDL
MODEL 5
REMARK minimizedAffinity -7.26245594
REMARK CNNscore 0.433118314
REMARK CNNaffinity 5.71549797
REMARK  4 active torsions:
REMARK  status: ('A' for Active; 'I' for Inactive)
REMARK    1  A    between atoms: C4_4  and  C5_5 
REMARK    2  A    between atoms: C5_5  and  C6_6 
REMARK    3  A    between atoms: C6_6  and  C7_7 
REMARK    4  A    between atoms: C7_7  and  C9_9 
ROOT
HETATM    1  C9  UNL     1     -13.194  46.554 -26.953  1.00  0.00    -0.002 C 
HETATM    2  C10 UNL     1     -13.863  45.744 -28.106  1.00  0.00     0.007 C 
HETATM    3  C11 UNL     1     -12.894  45.749 -29.302  1.00  0.00     0.015 C 
HETATM    4  C12 UNL     1     -11.842  46.819 -28.954  1.00  0.00    -0.013 C 
HETATM    5  C13 UNL     1     -12.464  48.191 -29.368  1.00  0.00     0.021 C 
HETATM    6  C14 UNL     1     -10.488  46.743 -29.654  1.00  0.00    -0.070 C 
HETATM    7  C15 UNL     1     -10.359  46.289 -30.913  1.00  0.00    -0.022 C 
HETATM    8  C16 UNL     1      -9.081  46.297 -31.692  1.00  0.00     0.034 C 
HETATM    9  C17 UNL     1      -7.819  46.632 -30.866  1.00  0.00     0.013 C 
HETATM   10  C18 UNL     1      -6.544  46.839 -31.764  1.00  0.00     0.018 C 
HETATM   11  C19 UNL     1      -6.802  47.563 -33.101  1.00  0.00     0.023 C 
HETATM   12  C20 UNL     1      -5.929  45.463 -32.105  1.00  0.00     0.023 C 
HETATM   13  C21 UNL     1      -5.480  47.610 -30.976  1.00  0.00     0.135 C 
HETATM   14  O1  UNL     1      -4.586  48.259 -31.520  1.00  0.00    -0.297 OA
HETATM   15  C22 UNL     1      -5.521  47.465 -29.481  1.00  0.00     0.080 C 
HETATM   16  C23 UNL     1      -6.828  47.995 -28.912  1.00  0.00     0.017 C 
HETATM   17  C24 UNL     1      -8.094  47.761 -29.798  1.00  0.00    -0.031 C 
HETATM   18  C25 UNL     1      -8.461  49.103 -30.476  1.00  0.00     0.016 C 
HETATM   19  C26 UNL     1      -9.277  47.254 -28.871  1.00  0.00     0.024 C 
HETATM   20  C27 UNL     1      -9.678  48.226 -27.734  1.00  0.00     0.010 C 
HETATM   21  C28 UNL     1     -10.840  47.752 -26.824  1.00  0.00     0.011 C 
HETATM   22  C29 UNL     1     -11.692  46.603 -27.405  1.00  0.00    -0.029 C 
HETATM   23  C30 UNL     1     -11.031  45.240 -27.023  1.00  0.00     0.016 C 
ENDROOT
BRANCH   1  24
HETATM   24  C7  UNL     1     -13.566  45.979 -25.554  1.00  0.00    -0.014 C 
HETATM   25  C8  UNL     1     -13.754  44.452 -25.612  1.00  0.00     0.010 C 
BRANCH  24  26
HETATM   26  C6  UNL     1     -14.799  46.635 -24.885  1.00  0.00     0.008 C 
BRANCH  26  27
HETATM   27  C5  UNL     1     -16.004  45.713 -24.683  1.00  0.00     0.028 C 
BRANCH  27  28
HETATM   28  C4  UNL     1     -16.859  45.864 -23.446  1.00  0.00    -0.025 C 
HETATM   29  C2  UNL     1     -18.117  46.304 -23.242  1.00  0.00    -0.091 C 
HETATM   30  C1  UNL     1     -18.676  46.360 -21.841  1.00  0.00     0.042 C 
HETATM   31  C3  UNL     1     -19.073  46.759 -24.305  1.00  0.00     0.042 C 
ENDBRANCH  27  28
ENDBRANCH  26  27
ENDBRANCH  24  26
ENDBRANCH   1  24
TORSDOF 4
ENDMDL
MODEL 6
REMARK minimizedAffinity -6.80624199
REMARK CNNscore 0.420636296
REMARK CNNaffinity 5.98545408
REMARK  4 active torsions:
REMARK  status: ('A' for Active; 'I' for Inactive)
REMARK    1  A    between atoms: C4_4  and  C5_5 
REMARK    2  A    between atoms: C5_5  and  C6_6 
REMARK    3  A    between atoms: C6_6  and  C7_7 
REMARK    4  A    between atoms: C7_7  and  C9_9 
ROOT
HETATM    1  C9  UNL     1       7.044  56.038  -6.087  1.00  0.00    -0.002 C 
HETATM    2  C10 UNL     1       6.068  56.435  -4.937  1.00  0.00     0.007 C 
HETATM    3  C11 UNL     1       4.632  56.259  -5.462  1.00  0.00     0.015 C 
HETATM    4  C12 UNL     1       4.788  56.086  -6.985  1.00  0.00    -0.013 C 
HETATM    5  C13 UNL     1       4.898  57.527  -7.578  1.00  0.00     0.021 C 
HETATM    6  C14 UNL     1       3.652  55.405  -7.745  1.00  0.00    -0.070 C 
HETATM    7  C15 UNL     1       2.367  55.531  -7.373  1.00  0.00    -0.022 C 
HETATM    8  C16 UNL     1       1.204  54.984  -8.139  1.00  0.00     0.034 C 
HETATM    9  C17 UNL     1       1.577  54.021  -9.288  1.00  0.00     0.013 C 
HETATM   10  C18 UNL     1       0.344  53.649 -10.192  1.00  0.00     0.018 C 
HETATM   11  C19 UNL     1      -0.644  54.803 -10.449  1.00  0.00     0.023 C 
HETATM   12  C20 UNL     1      -0.455  52.508  -9.524  1.00  0.00     0.023 C 
HETATM   13  C21 UNL     1       0.839  53.106 -11.537  1.00  0.00     0.135 C 
HETATM   14  O1  UNL     1       0.153  53.126 -12.558  1.00  0.00    -0.297 OA
HETATM   15  C22 UNL     1       2.192  52.452 -11.536  1.00  0.00     0.080 C 
HETATM   16  C23 UNL     1       3.280  53.438 -11.137  1.00  0.00     0.017 C 
HETATM   17  C24 UNL     1       2.872  54.491 -10.057  1.00  0.00    -0.031 C 
HETATM   18  C25 UNL     1       2.646  55.846 -10.769  1.00  0.00     0.016 C 
HETATM   19  C26 UNL     1       4.040  54.602  -8.989  1.00  0.00     0.024 C 
HETATM   20  C27 UNL     1       5.412  55.033  -9.564  1.00  0.00     0.010 C 
HETATM   21  C28 UNL     1       6.562  55.156  -8.533  1.00  0.00     0.011 C 
HETATM   22  C29 UNL     1       6.109  55.239  -7.059  1.00  0.00    -0.029 C 
HETATM   23  C30 UNL     1       5.956  53.790  -6.496  1.00  0.00     0.016 C 
ENDROOT
BRANCH   1  24
HETATM   24  C7  UNL     1       8.343  55.376  -5.538  1.00  0.00    -0.014 C 
HETATM   25  C8  UNL     1       8.123  54.812  -4.122  1.00  0.00     0.010 C 
BRANCH  24  26
HETATM   26  C6  UNL     1       9.597  56.284  -5.553  1.00  0.00     0.008 C 
BRANCH  26  27
HETATM   27  C5  UNL     1       9.618  57.391  -4.495  1.00  0.00     0.028 C 
BRANCH  27  28
HETATM   28  C4  UNL     1       9.572  58.837  -4.929  1.00  0.00    -0.025 C 
HETATM   29  C2  UNL     1      10.468  59.844  -4.880  1.00  0.00    -0.091 C 
HETATM   30  C1  UNL     1      10.086  61.215  -5.382  1.00  0.00     0.042 C 
HETATM   31  C3  UNL     1      11.874  59.746  -4.366  1.00  0.00     0.042 C 
ENDBRANCH  27  28
ENDBRANCH  26  27
ENDBRANCH  24  26
ENDBRANCH   1  24
TORSDOF 4
ENDMDL
MODEL 7
REMARK minimizedAffinity -7.11497831
REMARK CNNscore 0.397663444
REMARK CNNaffinity 5.60241508
REMARK  4 active torsions:
REMARK  status: ('A' for Active; 'I' for Inactive)
REMARK    1  A    between atoms: C4_4  and  C5_5 
REMARK    2  A    between atoms: C5_5  and  C6_6 
REMARK    3  A    between atoms: C6_6  and  C7_7 
REMARK    4  A    between atoms: C7_7  and  C9_9 
ROOT
HETATM    1  C9  UNL     1      -7.198  46.769 -30.763  1.00  0.00    -0.002 C 
HETATM    2  C10 UNL     1      -6.322  46.553 -29.490  1.00  0.00     0.007 C 
HETATM    3  C11 UNL     1      -7.271  46.464 -28.281  1.00  0.00     0.015 C 
HETATM    4  C12 UNL     1      -8.632  46.951 -28.811  1.00  0.00    -0.013 C 
HETATM    5  C13 UNL     1      -8.591  48.512 -28.746  1.00  0.00     0.021 C 
HETATM    6  C14 UNL     1      -9.886  46.533 -28.047  1.00  0.00    -0.070 C 
HETATM    7  C15 UNL     1      -9.888  46.362 -26.714  1.00  0.00    -0.022 C 
HETATM    8  C16 UNL     1     -11.106  46.065 -25.897  1.00  0.00     0.034 C 
HETATM    9  C17 UNL     1     -12.366  45.705 -26.717  1.00  0.00     0.013 C 
HETATM   10  C18 UNL     1     -13.661  45.615 -25.828  1.00  0.00     0.018 C 
HETATM   11  C19 UNL     1     -13.750  46.665 -24.703  1.00  0.00     0.023 C 
HETATM   12  C20 UNL     1     -13.727  44.225 -25.157  1.00  0.00     0.023 C 
HETATM   13  C21 UNL     1     -14.903  45.730 -26.718  1.00  0.00     0.135 C 
HETATM   14  O1  UNL     1     -15.997  46.100 -26.293  1.00  0.00    -0.297 OA
HETATM   15  C22 UNL     1     -14.748  45.277 -28.142  1.00  0.00     0.080 C 
HETATM   16  C23 UNL     1     -13.714  46.115 -28.878  1.00  0.00     0.017 C 
HETATM   17  C24 UNL     1     -12.491  46.581 -28.023  1.00  0.00    -0.031 C 
HETATM   18  C25 UNL     1     -12.686  48.078 -27.683  1.00  0.00     0.016 C 
HETATM   19  C26 UNL     1     -11.167  46.360 -28.867  1.00  0.00     0.024 C 
HETATM   20  C27 UNL     1     -11.114  47.128 -30.211  1.00  0.00     0.010 C 
HETATM   21  C28 UNL     1      -9.822  46.931 -31.045  1.00  0.00     0.011 C 
HETATM   22  C29 UNL     1      -8.625  46.351 -30.262  1.00  0.00    -0.029 C 
HETATM   23  C30 UNL     1      -8.708  44.791 -30.296  1.00  0.00     0.016 C 
ENDROOT
BRANCH   1  24
HETATM   24  C7  UNL     1      -6.579  46.075 -32.013  1.00  0.00    -0.014 C 
HETATM   25  C8  UNL     1      -7.628  45.899 -33.126  1.00  0.00     0.010 C 
BRANCH  24  26
HETATM   26  C6  UNL     1      -5.880  44.723 -31.730  1.00  0.00     0.008 C 
BRANCH  26  27
HETATM   27  C5  UNL     1      -4.763  44.345 -32.708  1.00  0.00     0.028 C 
BRANCH  27  28
HETATM   28  C4  UNL     1      -4.095  42.995 -32.588  1.00  0.00    -0.025 C 
HETATM   29  C2  UNL     1      -3.665  42.095 -33.496  1.00  0.00    -0.091 C 
HETATM   30  C1  UNL     1      -3.053  40.795 -33.035  1.00  0.00     0.042 C 
HETATM   31  C3  UNL     1      -3.722  42.253 -34.987  1.00  0.00     0.042 C 
ENDBRANCH  27  28
ENDBRANCH  26  27
ENDBRANCH  24  26
ENDBRANCH   1  24
TORSDOF 4
ENDMDL
MODEL 8
REMARK minimizedAffinity -7.36990356
REMARK CNNscore 0.386450917
REMARK CNNaffinity 5.86802053
REMARK  4 active torsions:
REMARK  status: ('A' for Active; 'I' for Inactive)
REMARK    1  A    between atoms: C4_4  and  C5_5 
REMARK    2  A    between atoms: C5_5  and  C6_6 
REMARK    3  A    between atoms: C6_6  and  C7_7 
REMARK    4  A    between atoms: C7_7  and  C9_9 
ROOT
HETATM    1  C9  UNL     1     -12.985  45.893 -26.991  1.00  0.00    -0.002 C 
HETATM    2  C10 UNL     1     -13.444  47.325 -27.404  1.00  0.00     0.007 C 
HETATM    3  C11 UNL     1     -12.300  47.967 -28.211  1.00  0.00     0.015 C 
HETATM    4  C12 UNL     1     -11.088  47.045 -27.978  1.00  0.00    -0.013 C 
HETATM    5  C13 UNL     1     -10.462  47.487 -26.616  1.00  0.00     0.021 C 
HETATM    6  C14 UNL     1      -9.952  47.090 -28.997  1.00  0.00    -0.070 C 
HETATM    7  C15 UNL     1      -9.620  48.218 -29.648  1.00  0.00    -0.022 C 
HETATM    8  C16 UNL     1      -8.448  48.353 -30.569  1.00  0.00     0.034 C 
HETATM    9  C17 UNL     1      -7.759  47.022 -30.944  1.00  0.00     0.013 C 
HETATM   10  C18 UNL     1      -6.414  47.236 -31.732  1.00  0.00     0.018 C 
HETATM   11  C19 UNL     1      -5.566  48.432 -31.255  1.00  0.00     0.023 C 
HETATM   12  C20 UNL     1      -6.728  47.470 -33.227  1.00  0.00     0.023 C 
HETATM   13  C21 UNL     1      -5.567  45.962 -31.658  1.00  0.00     0.135 C 
HETATM   14  O1  UNL     1      -4.345  45.963 -31.809  1.00  0.00    -0.297 OA
HETATM   15  C22 UNL     1      -6.316  44.672 -31.478  1.00  0.00     0.080 C 
HETATM   16  C23 UNL     1      -7.081  44.658 -30.164  1.00  0.00     0.017 C 
HETATM   17  C24 UNL     1      -7.684  46.030 -29.719  1.00  0.00    -0.031 C 
HETATM   18  C25 UNL     1      -6.798  46.598 -28.585  1.00  0.00     0.016 C 
HETATM   19  C26 UNL     1      -9.168  45.793 -29.213  1.00  0.00     0.024 C 
HETATM   20  C27 UNL     1      -9.303  44.818 -28.018  1.00  0.00     0.010 C 
HETATM   21  C28 UNL     1     -10.746  44.582 -27.503  1.00  0.00     0.011 C 
HETATM   22  C29 UNL     1     -11.779  45.635 -27.961  1.00  0.00    -0.029 C 
HETATM   23  C30 UNL     1     -12.360  45.204 -29.346  1.00  0.00     0.016 C 
ENDROOT
BRANCH   1  24
HETATM   24  C7  UNL     1     -14.179  44.894 -26.954  1.00  0.00    -0.014 C 
HETATM   25  C8  UNL     1     -14.051  43.832 -28.062  1.00  0.00     0.010 C 
BRANCH  24  26
HETATM   26  C6  UNL     1     -15.581  45.549 -27.013  1.00  0.00     0.008 C 
BRANCH  26  27
HETATM   27  C5  UNL     1     -16.756  44.575 -27.141  1.00  0.00     0.028 C 
BRANCH  27  28
HETATM   28  C4  UNL     1     -18.094  44.938 -26.540  1.00  0.00    -0.025 C 
HETATM   29  C2  UNL     1     -18.459  45.746 -25.523  1.00  0.00    -0.091 C 
HETATM   30  C1  UNL     1     -19.916  45.866 -25.146  1.00  0.00     0.042 C 
HETATM   31  C3  UNL     1     -17.536  46.585 -24.691  1.00  0.00     0.042 C 
ENDBRANCH  27  28
ENDBRANCH  26  27
ENDBRANCH  24  26
ENDBRANCH   1  24
TORSDOF 4
ENDMDL
MODEL 9
REMARK minimizedAffinity -7.03365755
REMARK CNNscore 0.358451456
REMARK CNNaffinity 6.23081017
REMARK  4 active torsions:
REMARK  status: ('A' for Active; 'I' for Inactive)
REMARK    1  A    between atoms: C4_4  and  C5_5 
REMARK    2  A    between atoms: C5_5  and  C6_6 
REMARK    3  A    between atoms: C6_6  and  C7_7 
REMARK    4  A    between atoms: C7_7  and  C9_9 
ROOT
HETATM    1  C9  UNL     1       3.186  56.174  -5.993  1.00  0.00    -0.002 C 
HETATM    2  C10 UNL     1       2.331  55.720  -4.770  1.00  0.00     0.007 C 
HETATM    3  C11 UNL     1       1.061  55.042  -5.313  1.00  0.00     0.015 C 
HETATM    4  C12 UNL     1       1.033  55.399  -6.811  1.00  0.00    -0.013 C 
HETATM    5  C13 UNL     1       0.394  56.823  -6.908  1.00  0.00     0.021 C 
HETATM    6  C14 UNL     1       0.215  54.509  -7.743  1.00  0.00    -0.070 C 
HETATM    7  C15 UNL     1      -0.914  53.901  -7.340  1.00  0.00    -0.022 C 
HETATM    8  C16 UNL     1      -1.818  53.111  -8.234  1.00  0.00     0.034 C 
HETATM    9  C17 UNL     1      -1.242  52.806  -9.635  1.00  0.00     0.013 C 
HETATM   10  C18 UNL     1      -2.306  52.167 -10.602  1.00  0.00     0.018 C 
HETATM   11  C19 UNL     1      -3.732  52.736 -10.465  1.00  0.00     0.023 C 
HETATM   12  C20 UNL     1      -2.396  50.648 -10.332  1.00  0.00     0.023 C 
HETATM   13  C21 UNL     1      -1.842  52.326 -12.053  1.00  0.00     0.135 C 
HETATM   14  O1  UNL     1      -2.618  52.307 -13.008  1.00  0.00    -0.297 OA
HETATM   15  C22 UNL     1      -0.358  52.420 -12.274  1.00  0.00     0.080 C 
HETATM   16  C23 UNL     1       0.224  53.645 -11.586  1.00  0.00     0.017 C 
HETATM   17  C24 UNL     1      -0.433  54.028 -10.220  1.00  0.00    -0.031 C 
HETATM   18  C25 UNL     1      -1.349  55.253 -10.454  1.00  0.00     0.016 C 
HETATM   19  C26 UNL     1       0.716  54.372  -9.182  1.00  0.00     0.024 C 
HETATM   20  C27 UNL     1       1.642  55.542  -9.597  1.00  0.00     0.010 C 
HETATM   21  C28 UNL     1       2.765  55.899  -8.590  1.00  0.00     0.011 C 
HETATM   22  C29 UNL     1       2.563  55.338  -7.165  1.00  0.00    -0.029 C 
HETATM   23  C30 UNL     1       3.163  53.897  -7.100  1.00  0.00     0.016 C 
ENDROOT
BRANCH   1  24
HETATM   24  C7  UNL     1       4.712  56.080  -5.698  1.00  0.00    -0.014 C 
HETATM   25  C8  UNL     1       5.004  56.309  -4.203  1.00  0.00     0.010 C 
BRANCH  24  26
HETATM   26  C6  UNL     1       5.602  57.013  -6.555  1.00  0.00     0.008 C 
BRANCH  26  27
HETATM   27  C5  UNL     1       6.895  56.385  -7.082  1.00  0.00     0.028 C 
BRANCH  27  28
HETATM   28  C4  UNL     1       6.871  54.975  -7.625  1.00  0.00    -0.025 C 
HETATM   29  C2  UNL     1       6.462  54.445  -8.795  1.00  0.00    -0.091 C 
HETATM   30  C1  UNL     1       6.547  52.954  -9.016  1.00  0.00     0.042 C 
HETATM   31  C3  UNL     1       5.912  55.209  -9.964  1.00  0.00     0.042 C 
ENDBRANCH  27  28
ENDBRANCH  26  27
ENDBRANCH  24  26
ENDBRANCH   1  24
TORSDOF 4
ENDMDL
