MODEL 1
REMARK minimizedAffinity -7.08428669
REMARK CNNscore 0.686034918
REMARK CNNaffinity 6.55768442
REMARK  5 active torsions:
REMARK  status: ('A' for Active; 'I' for Inactive)
REMARK    1  A    between atoms: C2_2  and  C4_4 
REMARK    2  A    between atoms: C10_10  and  C11_11 
REMARK    3  A    between atoms: C11_11  and  O2_13 
REMARK    4  A    between atoms: C20_22  and  C22_24 
REMARK    5  A    between atoms: C22_24  and  O3_25 
ROOT
HETATM    1  C4  UNL     1       4.084  56.440  -8.560  1.00  0.00     0.025 C 
HETATM    2  C5  UNL     1       4.311  57.733  -7.745  1.00  0.00     0.037 C 
HETATM    3  C6  UNL     1       2.976  57.990  -7.131  1.00  0.00    -0.023 C 
HETATM    4  C7  UNL     1       2.171  56.926  -7.221  1.00  0.00    -0.078 C 
HETATM    5  C8  UNL     1       0.781  56.799  -6.704  1.00  0.00     0.036 C 
HETATM    6  C9  UNL     1      -0.131  56.141  -7.749  1.00  0.00     0.026 C 
HETATM    7  C10 UNL     1       0.443  54.800  -8.333  1.00  0.00     0.057 C 
HETATM    8  C12 UNL     1       1.847  55.149  -8.972  1.00  0.00     0.014 C 
HETATM    9  C13 UNL     1       2.494  53.995  -9.758  1.00  0.00     0.007 C 
HETATM   10  C14 UNL     1       1.546  53.304 -10.736  1.00  0.00     0.007 C 
HETATM   11  C15 UNL     1       0.220  52.896 -10.077  1.00  0.00     0.007 C 
HETATM   12  C16 UNL     1      -0.683  51.982 -10.967  1.00  0.00    -0.018 C 
HETATM   13  C17 UNL     1      -1.047  52.592 -12.341  1.00  0.00     0.020 C 
HETATM   14  C18 UNL     1      -0.176  50.582 -11.266  1.00  0.00    -0.020 C 
HETATM   15  C19 UNL     1      -1.158  49.667 -11.161  1.00  0.00    -0.018 C 
HETATM   16  C20 UNL     1      -2.461  50.256 -10.641  1.00  0.00    -0.001 C 
HETATM   17  C21 UNL     1      -3.022  49.374  -9.511  1.00  0.00     0.022 C 
HETATM   18  C23 UNL     1      -1.876  51.565 -10.062  1.00  0.00     0.012 C 
HETATM   19  C24 UNL     1      -2.758  52.742  -9.684  1.00  0.00     0.007 C 
HETATM   20  C25 UNL     1      -1.917  53.713  -8.826  1.00  0.00     0.011 C 
HETATM   21  C26 UNL     1      -0.533  54.146  -9.442  1.00  0.00    -0.021 C 
HETATM   22  C27 UNL     1      -0.882  55.214 -10.522  1.00  0.00     0.017 C 
HETATM   23  C28 UNL     1       2.822  55.771  -7.935  1.00  0.00     0.028 C 
ENDROOT
BRANCH   7  24
HETATM   24  C11 UNL     1       0.561  53.852  -7.113  1.00  0.00     0.149 C 
HETATM   25  O1  UNL     1       1.403  52.979  -6.959  1.00  0.00    -0.649 OA
BRANCH  24  26
HETATM   26  O2  UNL     1      -0.341  54.044  -6.138  1.00  0.00    -0.776 OA
HETATM   27  H14 UNL     1      -0.101  53.377  -5.461  1.00  0.00     0.167 HD
ENDBRANCH  24  26
ENDBRANCH   7  24
BRANCH   1  28
HETATM   28  C2  UNL     1       5.337  55.578  -8.640  1.00  0.00    -0.088 C 
HETATM   29  C1  UNL     1       5.654  54.923  -9.771  1.00  0.00     0.014 C 
HETATM   30  C3  UNL     1       6.228  55.484  -7.430  1.00  0.00     0.043 C 
ENDBRANCH   1  28
BRANCH  16  31
HETATM   31  C22 UNL     1      -3.523  50.457 -11.742  1.00  0.00     0.177 C 
BRANCH  31  32
HETATM   32  O3  UNL     1      -4.454  49.377 -11.802  1.00  0.00    -0.400 OA
HETATM   33  H31 UNL     1      -5.042  49.449 -11.032  1.00  0.00     0.209 HD
ENDBRANCH  31  32
ENDBRANCH  16  31
TORSDOF 5
ENDMDL
MODEL 2
REMARK minimizedAffinity -6.66121721
REMARK CNNscore 0.639139533
REMARK CNNaffinity 6.60621023
REMARK  5 active torsions:
REMARK  status: ('A' for Active; 'I' for Inactive)
REMARK    1  A    between atoms: C2_2  and  C4_4 
REMARK    2  A    between atoms: C10_10  and  C11_11 
REMARK    3  A    between atoms: C11_11  and  O2_13 
REMARK    4  A    between atoms: C20_22  and  C22_24 
REMARK    5  A    between atoms: C22_24  and  O3_25 
ROOT
HETATM    1  C4  UNL     1       6.133  54.298  -8.072  1.00  0.00     0.025 C 
HETATM    2  C5  UNL     1       6.929  55.432  -7.388  1.00  0.00     0.037 C 
HETATM    3  C6  UNL     1       5.892  56.476  -7.138  1.00  0.00    -0.023 C 
HETATM    4  C7  UNL     1       4.654  55.994  -7.286  1.00  0.00    -0.078 C 
HETATM    5  C8  UNL     1       3.371  56.728  -7.096  1.00  0.00     0.036 C 
HETATM    6  C9  UNL     1       2.394  56.419  -8.239  1.00  0.00     0.026 C 
HETATM    7  C10 UNL     1       2.201  54.883  -8.506  1.00  0.00     0.057 C 
HETATM    8  C12 UNL     1       3.631  54.298  -8.837  1.00  0.00     0.014 C 
HETATM    9  C13 UNL     1       3.629  52.831  -9.305  1.00  0.00     0.007 C 
HETATM   10  C14 UNL     1       2.594  52.529 -10.387  1.00  0.00     0.007 C 
HETATM   11  C15 UNL     1       1.192  53.030 -10.012  1.00  0.00     0.007 C 
HETATM   12  C16 UNL     1       0.058  52.541 -10.972  1.00  0.00    -0.018 C 
HETATM   13  C17 UNL     1       0.276  52.919 -12.456  1.00  0.00     0.020 C 
HETATM   14  C18 UNL     1      -0.259  51.057 -10.973  1.00  0.00    -0.020 C 
HETATM   15  C19 UNL     1      -1.587  50.834 -10.991  1.00  0.00    -0.018 C 
HETATM   16  C20 UNL     1      -2.401  52.113 -10.866  1.00  0.00    -0.001 C 
HETATM   17  C21 UNL     1      -3.498  51.935  -9.800  1.00  0.00     0.022 C 
HETATM   18  C23 UNL     1      -1.271  53.022 -10.327  1.00  0.00     0.012 C 
HETATM   19  C24 UNL     1      -1.395  54.536 -10.311  1.00  0.00     0.007 C 
HETATM   20  C25 UNL     1      -0.278  55.096  -9.403  1.00  0.00     0.011 C 
HETATM   21  C26 UNL     1       1.180  54.596  -9.726  1.00  0.00    -0.021 C 
HETATM   22  C27 UNL     1       1.625  55.411 -10.978  1.00  0.00     0.017 C 
HETATM   23  C28 UNL     1       4.643  54.542  -7.683  1.00  0.00     0.028 C 
ENDROOT
BRANCH   7  24
HETATM   24  C11 UNL     1       1.615  54.319  -7.188  1.00  0.00     0.149 C 
HETATM   25  O1  UNL     1       1.809  53.200  -6.735  1.00  0.00    -0.649 OA
BRANCH  24  26
HETATM   26  O2  UNL     1       0.846  55.164  -6.485  1.00  0.00    -0.776 OA
HETATM   27  H14 UNL     1       0.587  54.645  -5.694  1.00  0.00     0.167 HD
ENDBRANCH  24  26
ENDBRANCH   7  24
BRANCH   1  28
HETATM   28  C2  UNL     1       6.698  52.919  -7.752  1.00  0.00    -0.088 C 
HETATM   29  C1  UNL     1       7.034  52.065  -8.735  1.00  0.00     0.014 C 
HETATM   30  C3  UNL     1       6.889  52.535  -6.310  1.00  0.00     0.043 C 
ENDBRANCH   1  28
BRANCH  16  31
HETATM   31  C22 UNL     1      -3.020  52.577 -12.200  1.00  0.00     0.177 C 
BRANCH  31  32
HETATM   32  O3  UNL     1      -4.222  53.323 -12.010  1.00  0.00    -0.400 OA
HETATM   33  H31 UNL     1      -3.979  54.197 -11.664  1.00  0.00     0.209 HD
ENDBRANCH  31  32
ENDBRANCH  16  31
TORSDOF 5
ENDMDL
MODEL 3
REMARK minimizedAffinity -7.21012878
REMARK CNNscore 0.586909175
REMARK CNNaffinity 5.72893524
REMARK  5 active torsions:
REMARK  status: ('A' for Active; 'I' for Inactive)
REMARK    1  A    between atoms: C2_2  and  C4_4 
REMARK    2  A    between atoms: C10_10  and  C11_11 
REMARK    3  A    between atoms: C11_11  and  O2_13 
REMARK    4  A    between atoms: C20_22  and  C22_24 
REMARK    5  A    between atoms: C22_24  and  O3_25 
ROOT
HETATM    1  C4  UNL     1     -13.422  45.899 -27.639  1.00  0.00     0.025 C 
HETATM    2  C5  UNL     1     -14.057  45.198 -28.861  1.00  0.00     0.037 C 
HETATM    3  C6  UNL     1     -15.343  44.668 -28.322  1.00  0.00    -0.023 C 
HETATM    4  C7  UNL     1     -15.648  45.208 -27.138  1.00  0.00    -0.078 C 
HETATM    5  C8  UNL     1     -16.858  44.945 -26.310  1.00  0.00     0.036 C 
HETATM    6  C9  UNL     1     -16.478  44.754 -24.835  1.00  0.00     0.026 C 
HETATM    7  C10 UNL     1     -15.569  45.902 -24.265  1.00  0.00     0.057 C 
HETATM    8  C12 UNL     1     -14.270  45.940 -25.165  1.00  0.00     0.014 C 
HETATM    9  C13 UNL     1     -13.168  46.886 -24.655  1.00  0.00     0.007 C 
HETATM   10  C14 UNL     1     -12.860  46.733 -23.167  1.00  0.00     0.007 C 
HETATM   11  C15 UNL     1     -14.127  46.782 -22.299  1.00  0.00     0.007 C 
HETATM   12  C16 UNL     1     -13.848  46.867 -20.763  1.00  0.00    -0.018 C 
HETATM   13  C17 UNL     1     -12.984  45.710 -20.210  1.00  0.00     0.020 C 
HETATM   14  C18 UNL     1     -13.205  48.140 -20.242  1.00  0.00    -0.020 C 
HETATM   15  C19 UNL     1     -13.783  48.555 -19.099  1.00  0.00    -0.018 C 
HETATM   16  C20 UNL     1     -15.000  47.724 -18.718  1.00  0.00    -0.001 C 
HETATM   17  C21 UNL     1     -16.175  48.651 -18.356  1.00  0.00     0.022 C 
HETATM   18  C23 UNL     1     -15.238  47.067 -20.097  1.00  0.00     0.012 C 
HETATM   19  C24 UNL     1     -16.143  45.859 -20.267  1.00  0.00     0.007 C 
HETATM   20  C25 UNL     1     -16.435  45.691 -21.775  1.00  0.00     0.011 C 
HETATM   21  C26 UNL     1     -15.173  45.658 -22.717  1.00  0.00    -0.021 C 
HETATM   22  C27 UNL     1     -14.575  44.229 -22.551  1.00  0.00     0.017 C 
HETATM   23  C28 UNL     1     -14.604  46.183 -26.662  1.00  0.00     0.028 C 
ENDROOT
BRANCH   7  24
HETATM   24  C11 UNL     1     -16.422  47.188 -24.393  1.00  0.00     0.149 C 
HETATM   25  O1  UNL     1     -17.631  47.234 -24.569  1.00  0.00    -0.649 OA
BRANCH  24  26
HETATM   26  O2  UNL     1     -15.753  48.344 -24.271  1.00  0.00    -0.776 OA
HETATM   27  H14 UNL     1     -16.449  49.029 -24.363  1.00  0.00     0.167 HD
ENDBRANCH  24  26
ENDBRANCH   7  24
BRANCH   1  28
HETATM   28  C2  UNL     1     -12.572  47.099 -28.037  1.00  0.00    -0.088 C 
HETATM   29  C1  UNL     1     -11.909  47.814 -27.110  1.00  0.00     0.014 C 
HETATM   30  C3  UNL     1     -12.471  47.461 -29.494  1.00  0.00     0.043 C 
ENDBRANCH   1  28
BRANCH  16  31
HETATM   31  C22 UNL     1     -14.726  46.731 -17.570  1.00  0.00     0.177 C 
BRANCH  31  32
HETATM   32  O3  UNL     1     -13.836  47.265 -16.591  1.00  0.00    -0.400 OA
HETATM   33  H31 UNL     1     -14.322  47.932 -16.079  1.00  0.00     0.209 HD
ENDBRANCH  31  32
ENDBRANCH  16  31
TORSDOF 5
ENDMDL
MODEL 4
REMARK minimizedAffinity -6.67867517
REMARK CNNscore 0.516998708
REMARK CNNaffinity 6.40135384
REMARK  5 active torsions:
REMARK  status: ('A' for Active; 'I' for Inactive)
REMARK    1  A    between atoms: C2_2  and  C4_4 
REMARK    2  A    between atoms: C10_10  and  C11_11 
REMARK    3  A    between atoms: C11_11  and  O2_13 
REMARK    4  A    between atoms: C20_22  and  C22_24 
REMARK    5  A    between atoms: C22_24  and  O3_25 
ROOT
HETATM    1  C4  UNL     1      -2.864  51.947 -10.606  1.00  0.00     0.025 C 
HETATM    2  C5  UNL     1      -3.768  50.739 -10.274  1.00  0.00     0.037 C 
HETATM    3  C6  UNL     1      -3.134  50.161  -9.053  1.00  0.00    -0.023 C 
HETATM    4  C7  UNL     1      -2.250  51.001  -8.505  1.00  0.00    -0.078 C 
HETATM    5  C8  UNL     1      -1.443  50.785  -7.273  1.00  0.00     0.036 C 
HETATM    6  C9  UNL     1       0.015  51.213  -7.494  1.00  0.00     0.026 C 
HETATM    7  C10 UNL     1       0.163  52.659  -8.091  1.00  0.00     0.057 C 
HETATM    8  C12 UNL     1      -0.624  52.665  -9.462  1.00  0.00     0.014 C 
HETATM    9  C13 UNL     1      -0.449  53.949 -10.293  1.00  0.00     0.007 C 
HETATM   10  C14 UNL     1       1.003  54.401 -10.434  1.00  0.00     0.007 C 
HETATM   11  C15 UNL     1       1.729  54.470  -9.083  1.00  0.00     0.007 C 
HETATM   12  C16 UNL     1       3.137  55.149  -9.145  1.00  0.00    -0.018 C 
HETATM   13  C17 UNL     1       4.120  54.482 -10.136  1.00  0.00     0.020 C 
HETATM   14  C18 UNL     1       3.180  56.632  -9.466  1.00  0.00    -0.020 C 
HETATM   15  C19 UNL     1       4.060  57.283  -8.681  1.00  0.00    -0.018 C 
HETATM   16  C20 UNL     1       4.662  56.392  -7.605  1.00  0.00    -0.001 C 
HETATM   17  C21 UNL     1       4.599  57.101  -6.241  1.00  0.00     0.022 C 
HETATM   18  C23 UNL     1       3.614  55.257  -7.670  1.00  0.00     0.012 C 
HETATM   19  C24 UNL     1       3.860  53.898  -7.038  1.00  0.00     0.007 C 
HETATM   20  C25 UNL     1       2.509  53.150  -6.974  1.00  0.00     0.011 C 
HETATM   21  C26 UNL     1       1.708  53.069  -8.328  1.00  0.00    -0.021 C 
HETATM   22  C27 UNL     1       2.420  51.959  -9.159  1.00  0.00     0.017 C 
HETATM   23  C28 UNL     1      -2.119  52.286  -9.279  1.00  0.00     0.028 C 
ENDROOT
BRANCH   7  24
HETATM   24  C11 UNL     1      -0.473  53.595  -7.033  1.00  0.00     0.149 C 
HETATM   25  O1  UNL     1      -0.827  54.751  -7.216  1.00  0.00    -0.649 OA
BRANCH  24  26
HETATM   26  O2  UNL     1      -0.664  53.056  -5.820  1.00  0.00    -0.776 OA
HETATM   27  H14 UNL     1      -1.081  53.778  -5.304  1.00  0.00     0.167 HD
ENDBRANCH  24  26
ENDBRANCH   7  24
BRANCH   1  28
HETATM   28  C2  UNL     1      -3.636  53.087 -11.258  1.00  0.00    -0.088 C 
HETATM   29  C1  UNL     1      -4.137  54.094 -10.521  1.00  0.00     0.014 C 
HETATM   30  C3  UNL     1      -3.815  53.075 -12.753  1.00  0.00     0.043 C 
ENDBRANCH   1  28
BRANCH  16  31
HETATM   31  C22 UNL     1       6.108  55.952  -7.914  1.00  0.00     0.177 C 
BRANCH  31  32
HETATM   32  O3  UNL     1       6.947  55.998  -6.761  1.00  0.00    -0.400 OA
HETATM   33  H31 UNL     1       6.701  55.256  -6.185  1.00  0.00     0.209 HD
ENDBRANCH  31  32
ENDBRANCH  16  31
TORSDOF 5
ENDMDL
MODEL 5
REMARK minimizedAffinity -6.7104063
REMARK CNNscore 0.438755244
REMARK CNNaffinity 5.88380766
REMARK  5 active torsions:
REMARK  status: ('A' for Active; 'I' for Inactive)
REMARK    1  A    between atoms: C2_2  and  C4_4 
REMARK    2  A    between atoms: C10_10  and  C11_11 
REMARK    3  A    between atoms: C11_11  and  O2_13 
REMARK    4  A    between atoms: C20_22  and  C22_24 
REMARK    5  A    between atoms: C22_24  and  O3_25 
ROOT
HETATM    1  C4  UNL     1      -5.159  46.346 -32.596  1.00  0.00     0.025 C 
HETATM    2  C5  UNL     1      -4.008  45.417 -33.041  1.00  0.00     0.037 C 
HETATM    3  C6  UNL     1      -4.418  44.084 -32.511  1.00  0.00    -0.023 C 
HETATM    4  C7  UNL     1      -5.701  44.071 -32.134  1.00  0.00    -0.078 C 
HETATM    5  C8  UNL     1      -6.468  42.919 -31.582  1.00  0.00     0.036 C 
HETATM    6  C9  UNL     1      -7.307  43.354 -30.372  1.00  0.00     0.026 C 
HETATM    7  C10 UNL     1      -8.194  44.622 -30.644  1.00  0.00     0.057 C 
HETATM    8  C12 UNL     1      -7.208  45.781 -31.071  1.00  0.00     0.014 C 
HETATM    9  C13 UNL     1      -7.870  47.164 -31.209  1.00  0.00     0.007 C 
HETATM   10  C14 UNL     1      -8.764  47.543 -30.030  1.00  0.00     0.007 C 
HETATM   11  C15 UNL     1      -9.773  46.439 -29.681  1.00  0.00     0.007 C 
HETATM   12  C16 UNL     1     -10.860  46.868 -28.643  1.00  0.00    -0.018 C 
HETATM   13  C17 UNL     1     -10.288  47.377 -27.299  1.00  0.00     0.020 C 
HETATM   14  C18 UNL     1     -11.864  47.918 -29.081  1.00  0.00    -0.020 C 
HETATM   15  C19 UNL     1     -13.113  47.604 -28.688  1.00  0.00    -0.018 C 
HETATM   16  C20 UNL     1     -13.200  46.230 -28.041  1.00  0.00    -0.001 C 
HETATM   17  C21 UNL     1     -14.373  45.438 -28.646  1.00  0.00     0.022 C 
HETATM   18  C23 UNL     1     -11.853  45.675 -28.560  1.00  0.00     0.012 C 
HETATM   19  C24 UNL     1     -11.216  44.428 -27.971  1.00  0.00     0.007 C 
HETATM   20  C25 UNL     1     -10.101  43.963 -28.933  1.00  0.00     0.011 C 
HETATM   21  C26 UNL     1      -9.050  45.061 -29.345  1.00  0.00    -0.021 C 
HETATM   22  C27 UNL     1      -8.099  45.198 -28.118  1.00  0.00     0.017 C 
HETATM   23  C28 UNL     1      -6.372  45.405 -32.325  1.00  0.00     0.028 C 
ENDROOT
BRANCH   7  24
HETATM   24  C11 UNL     1      -9.152  44.202 -31.786  1.00  0.00     0.149 C 
HETATM   25  O1  UNL     1      -9.601  44.936 -32.655  1.00  0.00    -0.649 OA
BRANCH  24  26
HETATM   26  O2  UNL     1      -9.486  42.903 -31.816  1.00  0.00    -0.776 OA
HETATM   27  H14 UNL     1     -10.071  42.828 -32.600  1.00  0.00     0.167 HD
ENDBRANCH  24  26
ENDBRANCH   7  24
BRANCH   1  28
HETATM   28  C2  UNL     1      -5.396  47.487 -33.577  1.00  0.00    -0.088 C 
HETATM   29  C1  UNL     1      -6.591  47.652 -34.171  1.00  0.00     0.014 C 
HETATM   30  C3  UNL     1      -4.267  48.443 -33.859  1.00  0.00     0.043 C 
ENDBRANCH   1  28
BRANCH  16  31
HETATM   31  C22 UNL     1     -13.325  46.284 -26.505  1.00  0.00     0.177 C 
BRANCH  31  32
HETATM   32  O3  UNL     1     -13.631  47.595 -26.031  1.00  0.00    -0.400 OA
HETATM   33  H31 UNL     1     -14.559  47.781 -26.249  1.00  0.00     0.209 HD
ENDBRANCH  31  32
ENDBRANCH  16  31
TORSDOF 5
ENDMDL
MODEL 6
REMARK minimizedAffinity -7.22256708
REMARK CNNscore 0.418476343
REMARK CNNaffinity 5.99130821
REMARK  5 active torsions:
REMARK  status: ('A' for Active; 'I' for Inactive)
REMARK    1  A    between atoms: C2_2  and  C4_4 
REMARK    2  A    between atoms: C10_10  and  C11_11 
REMARK    3  A    between atoms: C11_11  and  O2_13 
REMARK    4  A    between atoms: C20_22  and  C22_24 
REMARK    5  A    between atoms: C22_24  and  O3_25 
ROOT
HETATM    1  C4  UNL     1      -4.162  48.359 -25.484  1.00  0.00     0.025 C 
HETATM    2  C5  UNL     1      -3.347  48.507 -26.788  1.00  0.00     0.037 C 
HETATM    3  C6  UNL     1      -4.322  48.118 -27.848  1.00  0.00    -0.023 C 
HETATM    4  C7  UNL     1      -5.575  48.081 -27.384  1.00  0.00    -0.078 C 
HETATM    5  C8  UNL     1      -6.812  47.760 -28.149  1.00  0.00     0.036 C 
HETATM    6  C9  UNL     1      -7.709  46.800 -27.355  1.00  0.00     0.026 C 
HETATM    7  C10 UNL     1      -7.990  47.272 -25.883  1.00  0.00     0.057 C 
HETATM    8  C12 UNL     1      -6.583  47.417 -25.177  1.00  0.00     0.014 C 
HETATM    9  C13 UNL     1      -6.653  47.700 -23.666  1.00  0.00     0.007 C 
HETATM   10  C14 UNL     1      -7.611  46.785 -22.908  1.00  0.00     0.007 C 
HETATM   11  C15 UNL     1      -9.000  46.721 -23.560  1.00  0.00     0.007 C 
HETATM   12  C16 UNL     1     -10.081  45.990 -22.698  1.00  0.00    -0.018 C 
HETATM   13  C17 UNL     1      -9.711  44.538 -22.316  1.00  0.00     0.020 C 
HETATM   14  C18 UNL     1     -10.504  46.656 -21.402  1.00  0.00    -0.020 C 
HETATM   15  C19 UNL     1     -11.839  46.600 -21.229  1.00  0.00    -0.018 C 
HETATM   16  C20 UNL     1     -12.565  46.016 -22.432  1.00  0.00    -0.001 C 
HETATM   17  C21 UNL     1     -13.758  46.912 -22.810  1.00  0.00     0.022 C 
HETATM   18  C23 UNL     1     -11.422  46.181 -23.460  1.00  0.00     0.012 C 
HETATM   19  C24 UNL     1     -11.436  45.465 -24.800  1.00  0.00     0.007 C 
HETATM   20  C25 UNL     1     -10.362  46.116 -25.699  1.00  0.00     0.011 C 
HETATM   21  C26 UNL     1      -8.922  46.230 -25.072  1.00  0.00    -0.021 C 
HETATM   22  C27 UNL     1      -8.315  44.798 -25.178  1.00  0.00     0.017 C 
HETATM   23  C28 UNL     1      -5.658  48.420 -25.919  1.00  0.00     0.028 C 
ENDROOT
BRANCH   7  24
HETATM   24  C11 UNL     1      -8.726  48.627 -26.032  1.00  0.00     0.149 C 
HETATM   25  O1  UNL     1      -8.982  49.409 -25.127  1.00  0.00    -0.649 OA
BRANCH  24  26
HETATM   26  O2  UNL     1      -9.081  48.962 -27.281  1.00  0.00    -0.776 OA
HETATM   27  H14 UNL     1      -9.509  49.838 -27.178  1.00  0.00     0.167 HD
ENDBRANCH  24  26
ENDBRANCH   7  24
BRANCH   1  28
HETATM   28  C2  UNL     1      -3.729  49.352 -24.413  1.00  0.00    -0.088 C 
HETATM   29  C1  UNL     1      -2.747  49.048 -23.545  1.00  0.00     0.014 C 
HETATM   30  C3  UNL     1      -4.411  50.692 -24.354  1.00  0.00     0.043 C 
ENDBRANCH   1  28
BRANCH  16  31
HETATM   31  C22 UNL     1     -13.033  44.562 -22.216  1.00  0.00     0.177 C 
BRANCH  31  32
HETATM   32  O3  UNL     1     -14.316  44.315 -22.789  1.00  0.00    -0.400 OA
HETATM   33  H31 UNL     1     -14.209  44.280 -23.754  1.00  0.00     0.209 HD
ENDBRANCH  31  32
ENDBRANCH  16  31
TORSDOF 5
ENDMDL
MODEL 7
REMARK minimizedAffinity -6.07403946
REMARK CNNscore 0.409983367
REMARK CNNaffinity 6.0238533
REMARK  5 active torsions:
REMARK  status: ('A' for Active; 'I' for Inactive)
REMARK    1  A    between atoms: C2_2  and  C4_4 
REMARK    2  A    between atoms: C10_10  and  C11_11 
REMARK    3  A    between atoms: C11_11  and  O2_13 
REMARK    4  A    between atoms: C20_22  and  C22_24 
REMARK    5  A    between atoms: C22_24  and  O3_25 
ROOT
HETATM    1  C4  UNL     1       5.523  53.222  -9.476  1.00  0.00     0.025 C 
HETATM    2  C5  UNL     1       6.367  54.513  -9.396  1.00  0.00     0.037 C 
HETATM    3  C6  UNL     1       5.364  55.593  -9.629  1.00  0.00    -0.023 C 
HETATM    4  C7  UNL     1       4.110  55.142  -9.520  1.00  0.00    -0.078 C 
HETATM    5  C8  UNL     1       2.852  55.927  -9.660  1.00  0.00     0.036 C 
HETATM    6  C9  UNL     1       1.831  55.169 -10.521  1.00  0.00     0.026 C 
HETATM    7  C10 UNL     1       1.594  53.686 -10.058  1.00  0.00     0.057 C 
HETATM    8  C12 UNL     1       2.999  52.964 -10.113  1.00  0.00     0.014 C 
HETATM    9  C13 UNL     1       2.946  51.446  -9.864  1.00  0.00     0.007 C 
HETATM   10  C14 UNL     1       1.871  50.724 -10.672  1.00  0.00     0.007 C 
HETATM   11  C15 UNL     1       0.493  51.390 -10.541  1.00  0.00     0.007 C 
HETATM   12  C16 UNL     1      -0.682  50.560 -11.154  1.00  0.00    -0.018 C 
HETATM   13  C17 UNL     1      -0.503  50.217 -12.651  1.00  0.00     0.020 C 
HETATM   14  C18 UNL     1      -1.034  49.248 -10.476  1.00  0.00    -0.020 C 
HETATM   15  C19 UNL     1      -2.367  49.090 -10.367  1.00  0.00    -0.018 C 
HETATM   16  C20 UNL     1      -3.146  50.315 -10.821  1.00  0.00    -0.001 C 
HETATM   17  C21 UNL     1      -4.212  50.678  -9.771  1.00  0.00     0.022 C 
HETATM   18  C23 UNL     1      -1.978  51.328 -10.774  1.00  0.00     0.012 C 
HETATM   19  C24 UNL     1      -2.066  52.688 -11.444  1.00  0.00     0.007 C 
HETATM   20  C25 UNL     1      -0.907  53.558 -10.910  1.00  0.00     0.011 C 
HETATM   21  C26 UNL     1       0.528  52.915 -10.997  1.00  0.00    -0.021 C 
HETATM   22  C27 UNL     1       0.951  53.057 -12.490  1.00  0.00     0.017 C 
HETATM   23  C28 UNL     1       4.052  53.669  -9.214  1.00  0.00     0.028 C 
ENDROOT
BRANCH   7  24
HETATM   24  C11 UNL     1       1.037  53.802  -8.617  1.00  0.00     0.149 C 
HETATM   25  O1  UNL     1       0.361  54.723  -8.179  1.00  0.00    -0.649 OA
BRANCH  24  26
HETATM   26  O2  UNL     1       1.315  52.774  -7.802  1.00  0.00    -0.776 OA
HETATM   27  H14 UNL     1       0.876  53.016  -6.959  1.00  0.00     0.167 HD
ENDBRANCH  24  26
ENDBRANCH   7  24
BRANCH   1  28
HETATM   28  C2  UNL     1       6.065  52.119  -8.576  1.00  0.00    -0.088 C 
HETATM   29  C1  UNL     1       5.653  52.002  -7.301  1.00  0.00     0.014 C 
HETATM   30  C3  UNL     1       7.061  51.145  -9.147  1.00  0.00     0.043 C 
ENDBRANCH   1  28
BRANCH  16  31
HETATM   31  C22 UNL     1      -3.797  50.146 -12.209  1.00  0.00     0.177 C 
BRANCH  31  32
HETATM   32  O3  UNL     1      -4.350  48.843 -12.394  1.00  0.00    -0.400 OA
HETATM   33  H31 UNL     1      -5.158  48.785 -11.859  1.00  0.00     0.209 HD
ENDBRANCH  31  32
ENDBRANCH  16  31
TORSDOF 5
ENDMDL
MODEL 8
REMARK minimizedAffinity -7.17106628
REMARK CNNscore 0.395712852
REMARK CNNaffinity 5.53641462
REMARK  5 active torsions:
REMARK  status: ('A' for Active; 'I' for Inactive)
REMARK    1  A    between atoms: C2_2  and  C4_4 
REMARK    2  A    between atoms: C10_10  and  C11_11 
REMARK    3  A    between atoms: C11_11  and  O2_13 
REMARK    4  A    between atoms: C20_22  and  C22_24 
REMARK    5  A    between atoms: C22_24  and  O3_25 
ROOT
HETATM    1  C4  UNL     1       5.421  63.961 -34.764  1.00  0.00     0.025 C 
HETATM    2  C5  UNL     1       6.882  63.469 -34.688  1.00  0.00     0.037 C 
HETATM    3  C6  UNL     1       7.633  64.500 -35.464  1.00  0.00    -0.023 C 
HETATM    4  C7  UNL     1       6.897  65.595 -35.680  1.00  0.00    -0.078 C 
HETATM    5  C8  UNL     1       7.311  66.835 -36.392  1.00  0.00     0.036 C 
HETATM    6  C9  UNL     1       6.213  67.301 -37.358  1.00  0.00     0.026 C 
HETATM    7  C10 UNL     1       4.793  67.407 -36.695  1.00  0.00     0.057 C 
HETATM    8  C12 UNL     1       4.450  65.973 -36.127  1.00  0.00     0.014 C 
HETATM    9  C13 UNL     1       3.014  65.824 -35.592  1.00  0.00     0.007 C 
HETATM   10  C14 UNL     1       1.943  66.366 -36.536  1.00  0.00     0.007 C 
HETATM   11  C15 UNL     1       2.250  67.794 -37.012  1.00  0.00     0.007 C 
HETATM   12  C16 UNL     1       1.076  68.478 -37.786  1.00  0.00    -0.018 C 
HETATM   13  C17 UNL     1       0.595  67.696 -39.030  1.00  0.00     0.020 C 
HETATM   14  C18 UNL     1      -0.181  68.801 -36.998  1.00  0.00    -0.020 C 
HETATM   15  C19 UNL     1      -0.657  70.023 -37.304  1.00  0.00    -0.018 C 
HETATM   16  C20 UNL     1       0.260  70.796 -38.240  1.00  0.00    -0.001 C 
HETATM   17  C21 UNL     1       0.476  72.222 -37.703  1.00  0.00     0.022 C 
HETATM   18  C23 UNL     1       1.533  69.943 -38.027  1.00  0.00     0.012 C 
HETATM   19  C24 UNL     1       2.726  70.033 -38.963  1.00  0.00     0.007 C 
HETATM   20  C25 UNL     1       3.924  69.342 -38.275  1.00  0.00     0.011 C 
HETATM   21  C26 UNL     1       3.660  67.883 -37.745  1.00  0.00    -0.021 C 
HETATM   22  C27 UNL     1       3.707  66.972 -39.009  1.00  0.00     0.017 C 
HETATM   23  C28 UNL     1       5.510  65.481 -35.104  1.00  0.00     0.028 C 
ENDROOT
BRANCH   7  24
HETATM   24  C11 UNL     1       4.953  68.469 -35.578  1.00  0.00     0.149 C 
HETATM   25  O1  UNL     1       6.010  68.878 -35.121  1.00  0.00    -0.649 OA
BRANCH  24  26
HETATM   26  O2  UNL     1       3.811  68.989 -35.103  1.00  0.00    -0.776 OA
HETATM   27  H14 UNL     1       4.110  69.639 -34.432  1.00  0.00     0.167 HD
ENDBRANCH  24  26
ENDBRANCH   7  24
BRANCH   1  28
HETATM   28  C2  UNL     1       4.619  63.593 -33.522  1.00  0.00    -0.088 C 
HETATM   29  C1  UNL     1       4.057  62.377 -33.398  1.00  0.00     0.014 C 
HETATM   30  C3  UNL     1       4.480  64.613 -32.424  1.00  0.00     0.043 C 
ENDBRANCH   1  28
BRANCH  16  31
HETATM   31  C22 UNL     1      -0.250  70.841 -39.695  1.00  0.00     0.177 C 
BRANCH  31  32
HETATM   32  O3  UNL     1       0.224  69.740 -40.470  1.00  0.00    -0.400 OA
HETATM   33  H31 UNL     1      -0.257  68.947 -40.184  1.00  0.00     0.209 HD
ENDBRANCH  31  32
ENDBRANCH  16  31
TORSDOF 5
ENDMDL
MODEL 9
REMARK minimizedAffinity -6.58226681
REMARK CNNscore 0.376787513
REMARK CNNaffinity 5.62725782
REMARK  5 active torsions:
REMARK  status: ('A' for Active; 'I' for Inactive)
REMARK    1  A    between atoms: C2_2  and  C4_4 
REMARK    2  A    between atoms: C10_10  and  C11_11 
REMARK    3  A    between atoms: C11_11  and  O2_13 
REMARK    4  A    between atoms: C20_22  and  C22_24 
REMARK    5  A    between atoms: C22_24  and  O3_25 
ROOT
HETATM    1  C4  UNL     1       6.500  68.529 -33.747  1.00  0.00     0.025 C 
HETATM    2  C5  UNL     1       7.076  67.584 -32.669  1.00  0.00     0.037 C 
HETATM    3  C6  UNL     1       6.411  66.281 -32.964  1.00  0.00    -0.023 C 
HETATM    4  C7  UNL     1       5.826  66.281 -34.167  1.00  0.00    -0.078 C 
HETATM    5  C8  UNL     1       5.090  65.158 -34.813  1.00  0.00     0.036 C 
HETATM    6  C9  UNL     1       3.786  65.657 -35.449  1.00  0.00     0.026 C 
HETATM    7  C10 UNL     1       3.978  66.901 -36.390  1.00  0.00     0.057 C 
HETATM    8  C12 UNL     1       4.628  68.040 -35.507  1.00  0.00     0.014 C 
HETATM    9  C13 UNL     1       4.733  69.408 -36.205  1.00  0.00     0.007 C 
HETATM   10  C14 UNL     1       3.446  69.849 -36.899  1.00  0.00     0.007 C 
HETATM   11  C15 UNL     1       2.873  68.760 -37.819  1.00  0.00     0.007 C 
HETATM   12  C16 UNL     1       1.695  69.242 -38.727  1.00  0.00    -0.018 C 
HETATM   13  C17 UNL     1       0.496  69.833 -37.950  1.00  0.00     0.020 C 
HETATM   14  C18 UNL     1       2.020  70.258 -39.807  1.00  0.00    -0.020 C 
HETATM   15  C19 UNL     1       1.409  69.958 -40.969  1.00  0.00    -0.018 C 
HETATM   16  C20 UNL     1       0.680  68.624 -40.925  1.00  0.00    -0.001 C 
HETATM   17  C21 UNL     1       1.037  67.790 -42.168  1.00  0.00     0.022 C 
HETATM   18  C23 UNL     1       1.382  68.049 -39.673  1.00  0.00     0.012 C 
HETATM   19  C24 UNL     1       0.836  66.843 -38.927  1.00  0.00     0.007 C 
HETATM   20  C25 UNL     1       1.942  66.330 -37.978  1.00  0.00     0.011 C 
HETATM   21  C26 UNL     1       2.583  67.410 -37.027  1.00  0.00    -0.021 C 
HETATM   22  C27 UNL     1       1.540  67.625 -35.889  1.00  0.00     0.017 C 
HETATM   23  C28 UNL     1       5.979  67.596 -34.883  1.00  0.00     0.028 C 
ENDROOT
BRANCH   7  24
HETATM   24  C11 UNL     1       4.921  66.408 -37.516  1.00  0.00     0.149 C 
HETATM   25  O1  UNL     1       5.449  67.106 -38.369  1.00  0.00    -0.649 OA
BRANCH  24  26
HETATM   26  O2  UNL     1       5.185  65.093 -37.518  1.00  0.00    -0.776 OA
HETATM   27  H14 UNL     1       5.797  64.977 -38.275  1.00  0.00     0.167 HD
ENDBRANCH  24  26
ENDBRANCH   7  24
BRANCH   1  28
HETATM   28  C2  UNL     1       7.492  69.609 -34.160  1.00  0.00    -0.088 C 
HETATM   29  C1  UNL     1       7.709  70.683 -33.381  1.00  0.00     0.014 C 
HETATM   30  C3  UNL     1       8.241  69.443 -35.455  1.00  0.00     0.043 C 
ENDBRANCH   1  28
BRANCH  16  31
HETATM   31  C22 UNL     1      -0.851  68.767 -40.796  1.00  0.00     0.177 C 
BRANCH  31  32
HETATM   32  O3  UNL     1      -1.554  67.863 -41.647  1.00  0.00    -0.400 OA
HETATM   33  H31 UNL     1      -1.470  66.972 -41.268  1.00  0.00     0.209 HD
ENDBRANCH  31  32
ENDBRANCH  16  31
TORSDOF 5
ENDMDL
