MODEL 1
REMARK minimizedAffinity -6.32829285
REMARK CNNscore 0.638577938
REMARK CNNaffinity 5.98564672
REMARK  5 active torsions:
REMARK  status: ('A' for Active; 'I' for Inactive)
REMARK    1  A    between atoms: C2_2  and  C3_3 
REMARK    2  A    between atoms: C6_6  and  C7_7 
REMARK    3  A    between atoms: C7_7  and  O1_9 
REMARK    4  A    between atoms: C23_29  and  O6_30 
REMARK    5  A    between atoms: C28_36  and  O8_37 
ROOT
HETATM    1  C3  UNL     1       4.347  53.886  -9.795  1.00  0.00     0.008 C 
HETATM    2  C4  UNL     1       5.758  54.433  -9.676  1.00  0.00    -0.023 C 
HETATM    3  C5  UNL     1       6.363  55.207  -8.753  1.00  0.00     0.004 C 
HETATM    4  C6  UNL     1       5.953  55.902  -7.464  1.00  0.00     0.183 C 
HETATM    5  O2  UNL     1       4.539  55.887  -7.203  1.00  0.00    -0.306 OA
HETATM    6  C9  UNL     1       4.088  56.924  -6.433  1.00  0.00     0.289 C 
HETATM    7  O3  UNL     1       4.729  57.900  -6.072  1.00  0.00    -0.260 OA
HETATM    8  C10 UNL     1       2.668  56.683  -6.079  1.00  0.00     0.010 C 
HETATM    9  C11 UNL     1       1.666  57.467  -6.853  1.00  0.00     0.054 C 
HETATM   10  C12 UNL     1       2.461  55.690  -5.189  1.00  0.00     0.004 C 
HETATM   11  C13 UNL     1       1.210  54.837  -5.086  1.00  0.00     0.147 C 
HETATM   12  C14 UNL     1       1.014  54.193  -3.703  1.00  0.00     0.233 C 
HETATM   13  O4  UNL     1       0.968  54.773  -2.632  1.00  0.00    -0.272 OA
HETATM   14  N1  UNL     1       0.864  52.819  -3.860  1.00  0.00    -0.327 N 
HETATM   15  C15 UNL     1       0.985  52.410  -5.148  1.00  0.00     0.056 C 
HETATM   16  C16 UNL     1       0.909  51.174  -5.653  1.00  0.00     0.084 C 
HETATM   17  C17 UNL     1       1.147  51.041  -7.131  1.00  0.00     0.185 C 
HETATM   18  O5  UNL     1       1.433  49.956  -7.612  1.00  0.00    -0.287 OA
HETATM   19  C18 UNL     1       0.916  52.260  -7.982  1.00  0.00     0.040 C 
HETATM   20  C19 UNL     1       0.687  53.482  -7.334  1.00  0.00    -0.001 C 
HETATM   21  C20 UNL     1       0.057  54.519  -8.028  1.00  0.00     0.021 C 
HETATM   22  C21 UNL     1      -0.215  54.386  -9.397  1.00  0.00    -0.027 C 
HETATM   23  C22 UNL     1      -0.864  55.514 -10.147  1.00  0.00     0.051 C 
HETATM   24  C23 UNL     1       0.293  53.269 -10.073  1.00  0.00     0.086 C 
HETATM   25  C24 UNL     1       0.946  52.251  -9.366  1.00  0.00     0.058 C 
HETATM   26  C25 UNL     1       1.996  51.489 -10.085  1.00  0.00     0.163 C 
HETATM   27  O7  UNL     1       1.734  51.061 -11.211  1.00  0.00    -0.292 OA
HETATM   28  C26 UNL     1       3.405  51.457  -9.490  1.00  0.00     0.084 C 
HETATM   29  C27 UNL     1       4.407  52.373 -10.210  1.00  0.00     0.016 C 
HETATM   30  C28 UNL     1       1.363  53.583  -5.996  1.00  0.00     0.143 C 
HETATM   31  H20 UNL     1       0.688  52.221  -3.063  1.00  0.00     0.168 HD
ENDROOT
BRANCH   4  32
HETATM   32  C7  UNL     1       6.738  55.306  -6.253  1.00  0.00     0.147 C 
HETATM   33  C8  UNL     1       8.093  55.967  -6.023  1.00  0.00     0.042 C 
BRANCH  32  34
HETATM   34  O1  UNL     1       6.991  53.898  -6.394  1.00  0.00    -0.393 OA
HETATM   35  H14 UNL     1       6.293  53.505  -6.960  1.00  0.00     0.210 HD
ENDBRANCH  32  34
ENDBRANCH   4  32
BRANCH   1  36
HETATM   36  C2  UNL     1       3.611  54.689 -10.898  1.00  0.00     0.004 C 
HETATM   37  C1  UNL     1       2.949  55.970 -10.402  1.00  0.00     0.006 C 
ENDBRANCH   1  36
BRANCH  30  38
HETATM   38  O8  UNL     1       2.761  53.346  -6.316  1.00  0.00    -0.377 OA
HETATM   39  H31 UNL     1       3.242  53.182  -5.489  1.00  0.00     0.211 HD
ENDBRANCH  30  38
BRANCH  24  40
HETATM   40  O6  UNL     1       0.210  53.253 -11.444  1.00  0.00    -0.359 OA
HETATM   41  H26 UNL     1       0.667  52.438 -11.759  1.00  0.00     0.217 HD
ENDBRANCH  24  40
TORSDOF 5
ENDMDL
MODEL 2
REMARK minimizedAffinity -6.45666075
REMARK CNNscore 0.461950392
REMARK CNNaffinity 5.72812319
REMARK  5 active torsions:
REMARK  status: ('A' for Active; 'I' for Inactive)
REMARK    1  A    between atoms: C2_2  and  C3_3 
REMARK    2  A    between atoms: C6_6  and  C7_7 
REMARK    3  A    between atoms: C7_7  and  O1_9 
REMARK    4  A    between atoms: C23_29  and  O6_30 
REMARK    5  A    between atoms: C28_36  and  O8_37 
ROOT
HETATM    1  C3  UNL     1     -12.776  43.917 -24.254  1.00  0.00     0.008 C 
HETATM    2  C4  UNL     1     -11.970  42.934 -23.423  1.00  0.00    -0.023 C 
HETATM    3  C5  UNL     1     -11.036  42.017 -23.746  1.00  0.00     0.004 C 
HETATM    4  C6  UNL     1     -10.381  41.520 -25.025  1.00  0.00     0.183 C 
HETATM    5  O2  UNL     1     -10.987  42.009 -26.233  1.00  0.00    -0.306 OA
HETATM    6  C9  UNL     1     -10.834  41.194 -27.322  1.00  0.00     0.289 C 
HETATM    7  O3  UNL     1     -10.363  40.066 -27.331  1.00  0.00    -0.260 OA
HETATM    8  C10 UNL     1     -11.327  41.901 -28.529  1.00  0.00     0.010 C 
HETATM    9  C11 UNL     1     -12.670  41.482 -29.020  1.00  0.00     0.054 C 
HETATM   10  C12 UNL     1     -10.551  42.919 -28.953  1.00  0.00     0.004 C 
HETATM   11  C13 UNL     1     -11.029  44.142 -29.714  1.00  0.00     0.147 C 
HETATM   12  C14 UNL     1      -9.922  44.837 -30.525  1.00  0.00     0.233 C 
HETATM   13  O4  UNL     1      -9.208  44.323 -31.369  1.00  0.00    -0.272 OA
HETATM   14  N1  UNL     1      -9.871  46.180 -30.165  1.00  0.00    -0.327 N 
HETATM   15  C15 UNL     1     -10.746  46.504 -29.180  1.00  0.00     0.056 C 
HETATM   16  C16 UNL     1     -10.956  47.686 -28.591  1.00  0.00     0.084 C 
HETATM   17  C17 UNL     1     -11.967  47.709 -27.479  1.00  0.00     0.185 C 
HETATM   18  O5  UNL     1     -11.977  48.629 -26.676  1.00  0.00    -0.287 OA
HETATM   19  C18 UNL     1     -13.008  46.622 -27.467  1.00  0.00     0.040 C 
HETATM   20  C19 UNL     1     -12.858  45.557 -28.367  1.00  0.00    -0.001 C 
HETATM   21  C20 UNL     1     -13.970  44.778 -28.699  1.00  0.00     0.021 C 
HETATM   22  C21 UNL     1     -15.188  44.972 -28.033  1.00  0.00    -0.027 C 
HETATM   23  C22 UNL     1     -16.374  44.112 -28.370  1.00  0.00     0.051 C 
HETATM   24  C23 UNL     1     -15.219  45.845 -26.937  1.00  0.00     0.086 C 
HETATM   25  C24 UNL     1     -14.087  46.598 -26.602  1.00  0.00     0.058 C 
HETATM   26  C25 UNL     1     -13.907  46.955 -25.173  1.00  0.00     0.163 C 
HETATM   27  O7  UNL     1     -14.870  47.428 -24.567  1.00  0.00    -0.292 OA
HETATM   28  C26 UNL     1     -12.615  46.526 -24.476  1.00  0.00     0.084 C 
HETATM   29  C27 UNL     1     -12.782  45.317 -23.542  1.00  0.00     0.016 C 
HETATM   30  C28 UNL     1     -11.425  45.259 -28.704  1.00  0.00     0.143 C 
HETATM   31  H20 UNL     1      -9.226  46.815 -30.617  1.00  0.00     0.168 HD
ENDROOT
BRANCH   4  32
HETATM   32  C7  UNL     1      -8.853  41.840 -25.012  1.00  0.00     0.147 C 
HETATM   33  C8  UNL     1      -8.107  41.196 -23.848  1.00  0.00     0.042 C 
BRANCH  32  34
HETATM   34  O1  UNL     1      -8.581  43.250 -24.941  1.00  0.00    -0.393 OA
HETATM   35  H14 UNL     1      -9.334  43.739 -25.334  1.00  0.00     0.210 HD
ENDBRANCH  32  34
ENDBRANCH   4  32
BRANCH   1  36
HETATM   36  C2  UNL     1     -14.229  43.387 -24.352  1.00  0.00     0.004 C 
HETATM   37  C1  UNL     1     -14.700  42.625 -23.119  1.00  0.00     0.006 C 
ENDBRANCH   1  36
BRANCH  30  38
HETATM   38  O8  UNL     1     -10.826  45.012 -27.402  1.00  0.00    -0.377 OA
HETATM   39  H31 UNL     1      -9.860  45.019 -27.502  1.00  0.00     0.211 HD
ENDBRANCH  30  38
BRANCH  24  40
HETATM   40  O6  UNL     1     -16.353  45.866 -26.162  1.00  0.00    -0.359 OA
HETATM   41  H26 UNL     1     -16.184  46.476 -25.407  1.00  0.00     0.217 HD
ENDBRANCH  24  40
TORSDOF 5
ENDMDL
MODEL 3
REMARK minimizedAffinity -6.22142839
REMARK CNNscore 0.431745946
REMARK CNNaffinity 5.25039721
REMARK  5 active torsions:
REMARK  status: ('A' for Active; 'I' for Inactive)
REMARK    1  A    between atoms: C2_2  and  C3_3 
REMARK    2  A    between atoms: C6_6  and  C7_7 
REMARK    3  A    between atoms: C7_7  and  O1_9 
REMARK    4  A    between atoms: C23_29  and  O6_30 
REMARK    5  A    between atoms: C28_36  and  O8_37 
ROOT
HETATM    1  C3  UNL     1     -18.686  44.091 -22.423  1.00  0.00     0.008 C 
HETATM    2  C4  UNL     1     -18.942  43.360 -21.118  1.00  0.00    -0.023 C 
HETATM    3  C5  UNL     1     -18.259  42.403 -20.457  1.00  0.00     0.004 C 
HETATM    4  C6  UNL     1     -16.984  41.608 -20.687  1.00  0.00     0.183 C 
HETATM    5  O2  UNL     1     -16.410  41.769 -21.995  1.00  0.00    -0.306 OA
HETATM    6  C9  UNL     1     -15.662  40.707 -22.426  1.00  0.00     0.289 C 
HETATM    7  O3  UNL     1     -15.550  39.620 -21.880  1.00  0.00    -0.260 OA
HETATM    8  C10 UNL     1     -14.974  41.080 -23.687  1.00  0.00     0.010 C 
HETATM    9  C11 UNL     1     -15.574  40.534 -24.936  1.00  0.00     0.054 C 
HETATM   10  C12 UNL     1     -13.969  41.968 -23.549  1.00  0.00     0.004 C 
HETATM   11  C13 UNL     1     -13.504  42.954 -24.606  1.00  0.00     0.147 C 
HETATM   12  C14 UNL     1     -12.056  43.435 -24.407  1.00  0.00     0.233 C 
HETATM   13  O4  UNL     1     -11.064  42.734 -24.314  1.00  0.00    -0.272 OA
HETATM   14  N1  UNL     1     -12.042  44.826 -24.376  1.00  0.00    -0.327 N 
HETATM   15  C15 UNL     1     -13.278  45.377 -24.469  1.00  0.00     0.056 C 
HETATM   16  C16 UNL     1     -13.632  46.667 -24.461  1.00  0.00     0.084 C 
HETATM   17  C17 UNL     1     -15.105  46.956 -24.521  1.00  0.00     0.185 C 
HETATM   18  O5  UNL     1     -15.532  48.049 -24.182  1.00  0.00    -0.287 OA
HETATM   19  C18 UNL     1     -15.996  45.895 -25.108  1.00  0.00     0.040 C 
HETATM   20  C19 UNL     1     -15.433  44.639 -25.378  1.00  0.00    -0.001 C 
HETATM   21  C20 UNL     1     -16.063  43.787 -26.290  1.00  0.00     0.021 C 
HETATM   22  C21 UNL     1     -17.316  44.127 -26.820  1.00  0.00    -0.027 C 
HETATM   23  C22 UNL     1     -18.005  43.195 -27.776  1.00  0.00     0.051 C 
HETATM   24  C23 UNL     1     -17.979  45.248 -26.303  1.00  0.00     0.086 C 
HETATM   25  C24 UNL     1     -17.343  46.076 -25.369  1.00  0.00     0.058 C 
HETATM   26  C25 UNL     1     -18.204  46.784 -24.390  1.00  0.00     0.163 C 
HETATM   27  O7  UNL     1     -19.194  47.382 -24.815  1.00  0.00    -0.292 OA
HETATM   28  C26 UNL     1     -17.943  46.561 -22.900  1.00  0.00     0.084 C 
HETATM   29  C27 UNL     1     -18.956  45.625 -22.222  1.00  0.00     0.016 C 
HETATM   30  C28 UNL     1     -14.299  44.284 -24.460  1.00  0.00     0.143 C 
HETATM   31  H20 UNL     1     -11.172  45.335 -24.288  1.00  0.00     0.168 HD
ENDROOT
BRANCH   4  32
HETATM   32  C7  UNL     1     -15.931  41.940 -19.584  1.00  0.00     0.147 C 
HETATM   33  C8  UNL     1     -15.821  40.867 -18.505  1.00  0.00     0.042 C 
BRANCH  32  34
HETATM   34  O1  UNL     1     -16.210  43.175 -18.903  1.00  0.00    -0.393 OA
HETATM   35  H14 UNL     1     -16.713  43.763 -19.505  1.00  0.00     0.210 HD
ENDBRANCH  32  34
ENDBRANCH   4  32
BRANCH   1  36
HETATM   36  C2  UNL     1     -19.666  43.535 -23.487  1.00  0.00     0.004 C 
HETATM   37  C1  UNL     1     -21.115  43.457 -23.022  1.00  0.00     0.006 C 
ENDBRANCH   1  36
BRANCH  30  38
HETATM   38  O8  UNL     1     -14.903  44.381 -23.141  1.00  0.00    -0.377 OA
HETATM   39  H31 UNL     1     -14.194  44.375 -22.477  1.00  0.00     0.211 HD
ENDBRANCH  30  38
BRANCH  24  40
HETATM   40  O6  UNL     1     -19.287  45.449 -26.669  1.00  0.00    -0.359 OA
HETATM   41  H26 UNL     1     -19.617  46.232 -26.170  1.00  0.00     0.217 HD
ENDBRANCH  24  40
TORSDOF 5
ENDMDL
MODEL 4
REMARK minimizedAffinity -6.96337318
REMARK CNNscore 0.384210676
REMARK CNNaffinity 5.62311697
REMARK  5 active torsions:
REMARK  status: ('A' for Active; 'I' for Inactive)
REMARK    1  A    between atoms: C2_2  and  C3_3 
REMARK    2  A    between atoms: C6_6  and  C7_7 
REMARK    3  A    between atoms: C7_7  and  O1_9 
REMARK    4  A    between atoms: C23_29  and  O6_30 
REMARK    5  A    between atoms: C28_36  and  O8_37 
ROOT
HETATM    1  C3  UNL     1       0.579  54.519  -7.110  1.00  0.00     0.008 C 
HETATM    2  C4  UNL     1      -0.799  54.012  -6.724  1.00  0.00    -0.023 C 
HETATM    3  C5  UNL     1      -1.585  53.037  -7.221  1.00  0.00     0.004 C 
HETATM    4  C6  UNL     1      -1.505  52.037  -8.363  1.00  0.00     0.183 C 
HETATM    5  O2  UNL     1      -0.403  52.247  -9.262  1.00  0.00    -0.306 OA
HETATM    6  C9  UNL     1      -0.607  51.787 -10.535  1.00  0.00     0.289 C 
HETATM    7  O3  UNL     1      -1.650  51.350 -10.997  1.00  0.00    -0.260 OA
HETATM    8  C10 UNL     1       0.664  51.886 -11.294  1.00  0.00     0.010 C 
HETATM    9  C11 UNL     1       0.759  53.026 -12.248  1.00  0.00     0.054 C 
HETATM   10  C12 UNL     1       1.618  51.005 -10.931  1.00  0.00     0.004 C 
HETATM   11  C13 UNL     1       3.116  51.216 -11.057  1.00  0.00     0.147 C 
HETATM   12  C14 UNL     1       3.923  49.908 -11.094  1.00  0.00     0.233 C 
HETATM   13  O4  UNL     1       3.770  48.982 -11.872  1.00  0.00    -0.272 OA
HETATM   14  N1  UNL     1       4.898  49.949 -10.103  1.00  0.00    -0.327 N 
HETATM   15  C15 UNL     1       4.847  51.074  -9.346  1.00  0.00     0.056 C 
HETATM   16  C16 UNL     1       5.616  51.433  -8.313  1.00  0.00     0.084 C 
HETATM   17  C17 UNL     1       5.265  52.730  -7.638  1.00  0.00     0.185 C 
HETATM   18  O5  UNL     1       5.672  52.967  -6.512  1.00  0.00    -0.287 OA
HETATM   19  C18 UNL     1       4.494  53.742  -8.442  1.00  0.00     0.040 C 
HETATM   20  C19 UNL     1       3.985  53.344  -9.687  1.00  0.00    -0.001 C 
HETATM   21  C20 UNL     1       3.655  54.317 -10.635  1.00  0.00     0.021 C 
HETATM   22  C21 UNL     1       3.701  55.676 -10.293  1.00  0.00    -0.027 C 
HETATM   23  C22 UNL     1       3.316  56.718 -11.305  1.00  0.00     0.051 C 
HETATM   24  C23 UNL     1       3.930  56.021  -8.955  1.00  0.00     0.086 C 
HETATM   25  C24 UNL     1       4.233  55.031  -8.012  1.00  0.00     0.058 C 
HETATM   26  C25 UNL     1       3.823  55.281  -6.608  1.00  0.00     0.163 C 
HETATM   27  O7  UNL     1       4.096  56.375  -6.110  1.00  0.00    -0.292 OA
HETATM   28  C26 UNL     1       2.906  54.263  -5.928  1.00  0.00     0.084 C 
HETATM   29  C27 UNL     1       1.443  54.719  -5.814  1.00  0.00     0.016 C 
HETATM   30  C28 UNL     1       3.656  51.880  -9.756  1.00  0.00     0.143 C 
HETATM   31  H20 UNL     1       5.558  49.189  -9.990  1.00  0.00     0.168 HD
ENDROOT
BRANCH   4  32
HETATM   32  C7  UNL     1      -1.486  50.578  -7.807  1.00  0.00     0.147 C 
HETATM   33  C8  UNL     1      -2.669  49.734  -8.271  1.00  0.00     0.042 C 
BRANCH  32  34
HETATM   34  O1  UNL     1      -1.491  50.532  -6.370  1.00  0.00    -0.393 OA
HETATM   35  H14 UNL     1      -1.085  51.354  -6.024  1.00  0.00     0.210 HD
ENDBRANCH  32  34
ENDBRANCH   4  32
BRANCH   1  36
HETATM   36  C2  UNL     1       0.407  55.883  -7.825  1.00  0.00     0.004 C 
HETATM   37  C1  UNL     1       0.606  57.093  -6.919  1.00  0.00     0.006 C 
ENDBRANCH   1  36
BRANCH  30  38
HETATM   38  O8  UNL     1       2.718  51.702  -8.659  1.00  0.00    -0.377 OA
HETATM   39  H31 UNL     1       2.615  50.751  -8.495  1.00  0.00     0.211 HD
ENDBRANCH  30  38
BRANCH  24  40
HETATM   40  O6  UNL     1       3.760  57.335  -8.590  1.00  0.00    -0.359 OA
HETATM   41  H26 UNL     1       3.895  57.391  -7.616  1.00  0.00     0.217 HD
ENDBRANCH  24  40
TORSDOF 5
ENDMDL
MODEL 5
REMARK minimizedAffinity -6.5590868
REMARK CNNscore 0.378881484
REMARK CNNaffinity 5.63037825
REMARK  5 active torsions:
REMARK  status: ('A' for Active; 'I' for Inactive)
REMARK    1  A    between atoms: C2_2  and  C3_3 
REMARK    2  A    between atoms: C6_6  and  C7_7 
REMARK    3  A    between atoms: C7_7  and  O1_9 
REMARK    4  A    between atoms: C23_29  and  O6_30 
REMARK    5  A    between atoms: C28_36  and  O8_37 
ROOT
HETATM    1  C3  UNL     1       2.655  66.811 -36.528  1.00  0.00     0.008 C 
HETATM    2  C4  UNL     1       2.752  65.520 -35.735  1.00  0.00    -0.023 C 
HETATM    3  C5  UNL     1       3.765  64.934 -35.065  1.00  0.00     0.004 C 
HETATM    4  C6  UNL     1       5.232  65.238 -34.806  1.00  0.00     0.183 C 
HETATM    5  O2  UNL     1       5.757  66.333 -35.575  1.00  0.00    -0.306 OA
HETATM    6  C9  UNL     1       7.104  66.274 -35.809  1.00  0.00     0.289 C 
HETATM    7  O3  UNL     1       7.852  65.343 -35.548  1.00  0.00    -0.260 OA
HETATM    8  C10 UNL     1       7.544  67.546 -36.432  1.00  0.00     0.010 C 
HETATM    9  C11 UNL     1       7.784  67.497 -37.901  1.00  0.00     0.054 C 
HETATM   10  C12 UNL     1       7.547  68.616 -35.610  1.00  0.00     0.004 C 
HETATM   11  C13 UNL     1       7.357  70.061 -36.032  1.00  0.00     0.147 C 
HETATM   12  C14 UNL     1       7.935  71.077 -35.033  1.00  0.00     0.233 C 
HETATM   13  O4  UNL     1       9.083  71.121 -34.623  1.00  0.00    -0.272 OA
HETATM   14  N1  UNL     1       6.939  71.980 -34.678  1.00  0.00    -0.327 N 
HETATM   15  C15 UNL     1       5.737  71.703 -35.243  1.00  0.00     0.056 C 
HETATM   16  C16 UNL     1       4.573  72.347 -35.113  1.00  0.00     0.084 C 
HETATM   17  C17 UNL     1       3.395  71.750 -35.831  1.00  0.00     0.185 C 
HETATM   18  O5  UNL     1       2.258  72.055 -35.507  1.00  0.00    -0.287 OA
HETATM   19  C18 UNL     1       3.681  70.862 -37.012  1.00  0.00     0.040 C 
HETATM   20  C19 UNL     1       5.012  70.490 -37.248  1.00  0.00    -0.001 C 
HETATM   21  C20 UNL     1       5.386  70.051 -38.521  1.00  0.00     0.021 C 
HETATM   22  C21 UNL     1       4.411  69.850 -39.510  1.00  0.00    -0.027 C 
HETATM   23  C22 UNL     1       4.812  69.347 -40.868  1.00  0.00     0.051 C 
HETATM   24  C23 UNL     1       3.062  69.951 -39.147  1.00  0.00     0.086 C 
HETATM   25  C24 UNL     1       2.705  70.367 -37.859  1.00  0.00     0.058 C 
HETATM   26  C25 UNL     1       1.429  69.851 -37.306  1.00  0.00     0.163 C 
HETATM   27  O7  UNL     1       0.423  69.911 -38.016  1.00  0.00    -0.292 OA
HETATM   28  C26 UNL     1       1.468  69.085 -35.983  1.00  0.00     0.084 C 
HETATM   29  C27 UNL     1       1.333  67.562 -36.139  1.00  0.00     0.016 C 
HETATM   30  C28 UNL     1       5.842  70.416 -35.998  1.00  0.00     0.143 C 
HETATM   31  H20 UNL     1       7.135  72.751 -34.052  1.00  0.00     0.168 HD
ENDROOT
BRANCH   4  32
HETATM   32  C7  UNL     1       5.476  65.474 -33.282  1.00  0.00     0.147 C 
HETATM   33  C8  UNL     1       4.400  64.862 -32.392  1.00  0.00     0.042 C 
BRANCH  32  34
HETATM   34  O1  UNL     1       5.544  66.869 -32.940  1.00  0.00    -0.393 OA
HETATM   35  H14 UNL     1       5.850  67.374 -33.722  1.00  0.00     0.210 HD
ENDBRANCH  32  34
ENDBRANCH   4  32
BRANCH   1  36
HETATM   36  C2  UNL     1       2.613  66.449 -38.034  1.00  0.00     0.004 C 
HETATM   37  C1  UNL     1       1.210  66.405 -38.627  1.00  0.00     0.006 C 
ENDBRANCH   1  36
BRANCH  30  38
HETATM   38  O8  UNL     1       5.109  69.467 -35.174  1.00  0.00    -0.377 OA
HETATM   39  H31 UNL     1       5.454  69.517 -34.268  1.00  0.00     0.211 HD
ENDBRANCH  30  38
BRANCH  24  40
HETATM   40  O6  UNL     1       2.118  69.544 -40.059  1.00  0.00    -0.359 OA
HETATM   41  H26 UNL     1       1.236  69.619 -39.625  1.00  0.00     0.217 HD
ENDBRANCH  24  40
TORSDOF 5
ENDMDL
MODEL 6
REMARK minimizedAffinity -6.94471359
REMARK CNNscore 0.364020586
REMARK CNNaffinity 5.77215719
REMARK  5 active torsions:
REMARK  status: ('A' for Active; 'I' for Inactive)
REMARK    1  A    between atoms: C2_2  and  C3_3 
REMARK    2  A    between atoms: C6_6  and  C7_7 
REMARK    3  A    between atoms: C7_7  and  O1_9 
REMARK    4  A    between atoms: C23_29  and  O6_30 
REMARK    5  A    between atoms: C28_36  and  O8_37 
ROOT
HETATM    1  C3  UNL     1     -14.953  43.037 -19.970  1.00  0.00     0.008 C 
HETATM    2  C4  UNL     1     -15.788  41.977 -19.274  1.00  0.00    -0.023 C 
HETATM    3  C5  UNL     1     -17.118  41.781 -19.176  1.00  0.00     0.004 C 
HETATM    4  C6  UNL     1     -18.372  42.494 -19.659  1.00  0.00     0.183 C 
HETATM    5  O2  UNL     1     -18.135  43.788 -20.237  1.00  0.00    -0.306 OA
HETATM    6  C9  UNL     1     -19.190  44.656 -20.149  1.00  0.00     0.289 C 
HETATM    7  O3  UNL     1     -20.229  44.485 -19.530  1.00  0.00    -0.260 OA
HETATM    8  C10 UNL     1     -18.886  45.869 -20.949  1.00  0.00     0.010 C 
HETATM    9  C11 UNL     1     -18.470  47.068 -20.170  1.00  0.00     0.054 C 
HETATM   10  C12 UNL     1     -18.905  45.692 -22.286  1.00  0.00     0.004 C 
HETATM   11  C13 UNL     1     -18.103  46.490 -23.298  1.00  0.00     0.147 C 
HETATM   12  C14 UNL     1     -18.700  46.466 -24.715  1.00  0.00     0.233 C 
HETATM   13  O4  UNL     1     -19.832  46.791 -25.032  1.00  0.00    -0.272 OA
HETATM   14  N1  UNL     1     -17.726  46.037 -25.610  1.00  0.00    -0.327 N 
HETATM   15  C15 UNL     1     -16.556  45.704 -25.010  1.00  0.00     0.056 C 
HETATM   16  C16 UNL     1     -15.424  45.248 -25.558  1.00  0.00     0.084 C 
HETATM   17  C17 UNL     1     -14.309  44.912 -24.607  1.00  0.00     0.185 C 
HETATM   18  O5  UNL     1     -13.393  44.189 -24.965  1.00  0.00    -0.287 OA
HETATM   19  C18 UNL     1     -14.323  45.583 -23.260  1.00  0.00     0.040 C 
HETATM   20  C19 UNL     1     -15.462  46.317 -22.902  1.00  0.00    -0.001 C 
HETATM   21  C20 UNL     1     -15.367  47.284 -21.897  1.00  0.00     0.021 C 
HETATM   22  C21 UNL     1     -14.181  47.419 -21.161  1.00  0.00    -0.027 C 
HETATM   23  C22 UNL     1     -14.092  48.438 -20.060  1.00  0.00     0.051 C 
HETATM   24  C23 UNL     1     -13.167  46.471 -21.350  1.00  0.00     0.086 C 
HETATM   25  C24 UNL     1     -13.290  45.492 -22.343  1.00  0.00     0.058 C 
HETATM   26  C25 UNL     1     -12.616  44.192 -22.105  1.00  0.00     0.163 C 
HETATM   27  O7  UNL     1     -11.441  44.208 -21.732  1.00  0.00    -0.292 OA
HETATM   28  C26 UNL     1     -13.464  42.920 -22.126  1.00  0.00     0.084 C 
HETATM   29  C27 UNL     1     -13.767  42.347 -20.732  1.00  0.00     0.016 C 
HETATM   30  C28 UNL     1     -16.726  45.800 -23.527  1.00  0.00     0.143 C 
HETATM   31  H20 UNL     1     -17.917  45.988 -26.603  1.00  0.00     0.168 HD
ENDROOT
BRANCH   4  32
HETATM   32  C7  UNL     1     -19.162  41.587 -20.654  1.00  0.00     0.147 C 
HETATM   33  C8  UNL     1     -18.782  41.813 -22.114  1.00  0.00     0.042 C 
BRANCH  32  34
HETATM   34  O1  UNL     1     -20.584  41.777 -20.569  1.00  0.00    -0.393 OA
HETATM   35  H14 UNL     1     -20.810  42.084 -19.666  1.00  0.00     0.210 HD
ENDBRANCH  32  34
ENDBRANCH   4  32
BRANCH   1  36
HETATM   36  C2  UNL     1     -14.382  43.987 -18.888  1.00  0.00     0.004 C 
HETATM   37  C1  UNL     1     -15.307  45.140 -18.516  1.00  0.00     0.006 C 
ENDBRANCH   1  36
BRANCH  30  38
HETATM   38  O8  UNL     1     -16.765  44.414 -23.090  1.00  0.00    -0.377 OA
HETATM   39  H31 UNL     1     -17.432  43.944 -23.616  1.00  0.00     0.211 HD
ENDBRANCH  30  38
BRANCH  24  40
HETATM   40  O6  UNL     1     -12.105  46.481 -20.478  1.00  0.00    -0.359 OA
HETATM   41  H26 UNL     1     -11.525  45.719 -20.709  1.00  0.00     0.217 HD
ENDBRANCH  24  40
TORSDOF 5
ENDMDL
MODEL 7
REMARK minimizedAffinity -6.62370777
REMARK CNNscore 0.336081862
REMARK CNNaffinity 5.50928116
REMARK  5 active torsions:
REMARK  status: ('A' for Active; 'I' for Inactive)
REMARK    1  A    between atoms: C2_2  and  C3_3 
REMARK    2  A    between atoms: C6_6  and  C7_7 
REMARK    3  A    between atoms: C7_7  and  O1_9 
REMARK    4  A    between atoms: C23_29  and  O6_30 
REMARK    5  A    between atoms: C28_36  and  O8_37 
ROOT
HETATM    1  C3  UNL     1       3.850  52.393  -6.375  1.00  0.00     0.008 C 
HETATM    2  C4  UNL     1       3.383  51.620  -5.154  1.00  0.00    -0.023 C 
HETATM    3  C5  UNL     1       2.180  51.494  -4.559  1.00  0.00     0.004 C 
HETATM    4  C6  UNL     1       0.781  52.049  -4.780  1.00  0.00     0.183 C 
HETATM    5  O2  UNL     1       0.705  53.095  -5.763  1.00  0.00    -0.306 OA
HETATM    6  C9  UNL     1      -0.333  53.970  -5.588  1.00  0.00     0.289 C 
HETATM    7  O3  UNL     1      -1.093  54.022  -4.633  1.00  0.00    -0.260 OA
HETATM    8  C10 UNL     1      -0.412  54.868  -6.766  1.00  0.00     0.010 C 
HETATM    9  C11 UNL     1       0.133  56.240  -6.571  1.00  0.00     0.054 C 
HETATM   10  C12 UNL     1      -0.853  54.286  -7.900  1.00  0.00     0.004 C 
HETATM   11  C13 UNL     1      -0.498  54.712  -9.313  1.00  0.00     0.147 C 
HETATM   12  C14 UNL     1      -1.522  54.264 -10.369  1.00  0.00     0.233 C 
HETATM   13  O4  UNL     1      -2.718  54.499 -10.367  1.00  0.00    -0.272 OA
HETATM   14  N1  UNL     1      -0.862  53.557 -11.369  1.00  0.00    -0.327 N 
HETATM   15  C15 UNL     1       0.464  53.401 -11.129  1.00  0.00     0.056 C 
HETATM   16  C16 UNL     1       1.388  52.772 -11.864  1.00  0.00     0.084 C 
HETATM   17  C17 UNL     1       2.777  52.723 -11.291  1.00  0.00     0.185 C 
HETATM   18  O5  UNL     1       3.583  51.904 -11.703  1.00  0.00    -0.287 OA
HETATM   19  C18 UNL     1       3.149  53.778 -10.285  1.00  0.00     0.040 C 
HETATM   20  C19 UNL     1       2.131  54.613  -9.800  1.00  0.00    -0.001 C 
HETATM   21  C20 UNL     1       2.469  55.842  -9.225  1.00  0.00     0.021 C 
HETATM   22  C21 UNL     1       3.814  56.171  -9.008  1.00  0.00    -0.027 C 
HETATM   23  C22 UNL     1       4.172  57.479  -8.361  1.00  0.00     0.051 C 
HETATM   24  C23 UNL     1       4.787  55.190  -9.236  1.00  0.00     0.086 C 
HETATM   25  C24 UNL     1       4.429  53.953  -9.788  1.00  0.00     0.058 C 
HETATM   26  C25 UNL     1       5.252  52.777  -9.415  1.00  0.00     0.163 C 
HETATM   27  O7  UNL     1       6.478  52.881  -9.484  1.00  0.00    -0.292 OA
HETATM   28  C26 UNL     1       4.554  51.580  -8.767  1.00  0.00     0.084 C 
HETATM   29  C27 UNL     1       4.775  51.475  -7.249  1.00  0.00     0.016 C 
HETATM   30  C28 UNL     1       0.781  53.956  -9.776  1.00  0.00     0.143 C 
HETATM   31  H20 UNL     1      -1.363  53.206 -12.176  1.00  0.00     0.168 HD
ENDROOT
BRANCH   4  32
HETATM   32  C7  UNL     1      -0.211  50.896  -5.130  1.00  0.00     0.147 C 
HETATM   33  C8  UNL     1      -0.462  50.743  -6.627  1.00  0.00     0.042 C 
BRANCH  32  34
HETATM   34  O1  UNL     1      -1.500  51.067  -4.517  1.00  0.00    -0.393 OA
HETATM   35  H14 UNL     1      -1.394  51.593  -3.696  1.00  0.00     0.210 HD
ENDBRANCH  32  34
ENDBRANCH   4  32
BRANCH   1  36
HETATM   36  C2  UNL     1       4.661  53.619  -5.886  1.00  0.00     0.004 C 
HETATM   37  C1  UNL     1       6.170  53.404  -5.872  1.00  0.00     0.006 C 
ENDBRANCH   1  36
BRANCH  30  38
HETATM   38  O8  UNL     1       1.006  52.774  -8.958  1.00  0.00    -0.377 OA
HETATM   39  H31 UNL     1       0.245  52.180  -9.063  1.00  0.00     0.211 HD
ENDBRANCH  30  38
BRANCH  24  40
HETATM   40  O6  UNL     1       6.071  55.446  -8.820  1.00  0.00    -0.359 OA
HETATM   41  H26 UNL     1       6.606  54.637  -8.994  1.00  0.00     0.217 HD
ENDBRANCH  24  40
TORSDOF 5
ENDMDL
MODEL 8
REMARK minimizedAffinity -6.26058769
REMARK CNNscore 0.30684495
REMARK CNNaffinity 5.54895353
REMARK  5 active torsions:
REMARK  status: ('A' for Active; 'I' for Inactive)
REMARK    1  A    between atoms: C2_2  and  C3_3 
REMARK    2  A    between atoms: C6_6  and  C7_7 
REMARK    3  A    between atoms: C7_7  and  O1_9 
REMARK    4  A    between atoms: C23_29  and  O6_30 
REMARK    5  A    between atoms: C28_36  and  O8_37 
ROOT
HETATM    1  C3  UNL     1       1.712  51.952  -6.884  1.00  0.00     0.008 C 
HETATM    2  C4  UNL     1       0.491  51.466  -6.123  1.00  0.00    -0.023 C 
HETATM    3  C5  UNL     1      -0.808  51.347  -6.463  1.00  0.00     0.004 C 
HETATM    4  C6  UNL     1      -1.655  51.647  -7.690  1.00  0.00     0.183 C 
HETATM    5  O2  UNL     1      -0.973  52.388  -8.716  1.00  0.00    -0.306 OA
HETATM    6  C9  UNL     1      -1.789  53.141  -9.516  1.00  0.00     0.289 C 
HETATM    7  O3  UNL     1      -2.985  53.341  -9.361  1.00  0.00    -0.260 OA
HETATM    8  C10 UNL     1      -0.992  53.689 -10.641  1.00  0.00     0.010 C 
HETATM    9  C11 UNL     1      -0.606  55.122 -10.521  1.00  0.00     0.054 C 
HETATM   10  C12 UNL     1      -0.612  52.785 -11.567  1.00  0.00     0.004 C 
HETATM   11  C13 UNL     1       0.626  52.876 -12.441  1.00  0.00     0.147 C 
HETATM   12  C14 UNL     1       0.531  52.046 -13.733  1.00  0.00     0.233 C 
HETATM   13  O4  UNL     1      -0.339  52.123 -14.583  1.00  0.00    -0.272 OA
HETATM   14  N1  UNL     1       1.629  51.195 -13.806  1.00  0.00    -0.327 N 
HETATM   15  C15 UNL     1       2.441  51.273 -12.722  1.00  0.00     0.056 C 
HETATM   16  C16 UNL     1       3.565  50.598 -12.457  1.00  0.00     0.084 C 
HETATM   17  C17 UNL     1       4.211  50.873 -11.128  1.00  0.00     0.185 C 
HETATM   18  O5  UNL     1       5.018  50.083 -10.663  1.00  0.00    -0.287 OA
HETATM   19  C18 UNL     1       3.903  52.189 -10.467  1.00  0.00     0.040 C 
HETATM   20  C19 UNL     1       2.893  52.985 -11.025  1.00  0.00    -0.001 C 
HETATM   21  C20 UNL     1       2.861  54.353 -10.736  1.00  0.00     0.021 C 
HETATM   22  C21 UNL     1       3.742  54.893  -9.789  1.00  0.00    -0.027 C 
HETATM   23  C22 UNL     1       3.684  56.357  -9.458  1.00  0.00     0.051 C 
HETATM   24  C23 UNL     1       4.537  54.016  -9.040  1.00  0.00     0.086 C 
HETATM   25  C24 UNL     1       4.538  52.644  -9.324  1.00  0.00     0.058 C 
HETATM   26  C25 UNL     1       4.805  51.716  -8.198  1.00  0.00     0.163 C 
HETATM   27  O7  UNL     1       5.770  51.952  -7.468  1.00  0.00    -0.292 OA
HETATM   28  C26 UNL     1       3.760  50.647  -7.875  1.00  0.00     0.084 C 
HETATM   29  C27 UNL     1       2.906  50.964  -6.636  1.00  0.00     0.016 C 
HETATM   30  C28 UNL     1       1.822  52.192 -11.717  1.00  0.00     0.143 C 
HETATM   31  H20 UNL     1       1.765  50.589 -14.605  1.00  0.00     0.168 HD
ENDROOT
BRANCH   4  32
HETATM   32  C7  UNL     1      -2.252  50.328  -8.273  1.00  0.00     0.147 C 
HETATM   33  C8  UNL     1      -2.314  49.189  -7.260  1.00  0.00     0.042 C 
BRANCH  32  34
HETATM   34  O1  UNL     1      -1.509  49.832  -9.399  1.00  0.00    -0.393 OA
HETATM   35  H14 UNL     1      -1.065  50.585  -9.844  1.00  0.00     0.210 HD
ENDBRANCH  32  34
ENDBRANCH   4  32
BRANCH   1  36
HETATM   36  C2  UNL     1       2.089  53.354  -6.342  1.00  0.00     0.004 C 
HETATM   37  C1  UNL     1       1.367  54.505  -7.034  1.00  0.00     0.006 C 
ENDBRANCH   1  36
BRANCH  30  38
HETATM   38  O8  UNL     1       1.349  51.298 -10.672  1.00  0.00    -0.377 OA
HETATM   39  H31 UNL     1       0.806  50.606 -11.082  1.00  0.00     0.211 HD
ENDBRANCH  30  38
BRANCH  24  40
HETATM   40  O6  UNL     1       5.234  54.529  -7.973  1.00  0.00    -0.359 OA
HETATM   41  H26 UNL     1       5.681  53.776  -7.522  1.00  0.00     0.217 HD
ENDBRANCH  24  40
TORSDOF 5
ENDMDL
MODEL 9
REMARK minimizedAffinity -7.11702871
REMARK CNNscore 0.306005955
REMARK CNNaffinity 5.54293966
REMARK  5 active torsions:
REMARK  status: ('A' for Active; 'I' for Inactive)
REMARK    1  A    between atoms: C2_2  and  C3_3 
REMARK    2  A    between atoms: C6_6  and  C7_7 
REMARK    3  A    between atoms: C7_7  and  O1_9 
REMARK    4  A    between atoms: C23_29  and  O6_30 
REMARK    5  A    between atoms: C28_36  and  O8_37 
ROOT
HETATM    1  C3  UNL     1     -13.596  46.078 -23.841  1.00  0.00     0.008 C 
HETATM    2  C4  UNL     1     -12.450  46.903 -24.400  1.00  0.00    -0.023 C 
HETATM    3  C5  UNL     1     -11.930  47.023 -25.638  1.00  0.00     0.004 C 
HETATM    4  C6  UNL     1     -12.195  46.411 -27.004  1.00  0.00     0.183 C 
HETATM    5  O2  UNL     1     -13.120  45.310 -26.994  1.00  0.00    -0.306 OA
HETATM    6  C9  UNL     1     -12.952  44.412 -28.014  1.00  0.00     0.289 C 
HETATM    7  O3  UNL     1     -12.039  44.389 -28.825  1.00  0.00    -0.260 OA
HETATM    8  C10 UNL     1     -14.080  43.448 -28.000  1.00  0.00     0.010 C 
HETATM    9  C11 UNL     1     -13.776  42.108 -27.427  1.00  0.00     0.054 C 
HETATM   10  C12 UNL     1     -15.268  43.952 -28.392  1.00  0.00     0.004 C 
HETATM   11  C13 UNL     1     -16.632  43.459 -27.945  1.00  0.00     0.147 C 
HETATM   12  C14 UNL     1     -17.767  43.815 -28.921  1.00  0.00     0.233 C 
HETATM   13  O4  UNL     1     -17.817  43.541 -30.107  1.00  0.00    -0.272 OA
HETATM   14  N1  UNL     1     -18.767  44.486 -28.226  1.00  0.00    -0.327 N 
HETATM   15  C15 UNL     1     -18.464  44.698 -26.920  1.00  0.00     0.056 C 
HETATM   16  C16 UNL     1     -19.182  45.315 -25.975  1.00  0.00     0.084 C 
HETATM   17  C17 UNL     1     -18.538  45.440 -24.623  1.00  0.00     0.185 C 
HETATM   18  O5  UNL     1     -18.951  46.261 -23.819  1.00  0.00    -0.287 OA
HETATM   19  C18 UNL     1     -17.453  44.455 -24.278  1.00  0.00     0.040 C 
HETATM   20  C19 UNL     1     -16.978  43.617 -25.296  1.00  0.00    -0.001 C 
HETATM   21  C20 UNL     1     -16.316  42.434 -24.957  1.00  0.00     0.021 C 
HETATM   22  C21 UNL     1     -16.007  42.160 -23.616  1.00  0.00    -0.027 C 
HETATM   23  C22 UNL     1     -15.267  40.903 -23.258  1.00  0.00     0.051 C 
HETATM   24  C23 UNL     1     -16.237  43.159 -22.661  1.00  0.00     0.086 C 
HETATM   25  C24 UNL     1     -16.878  44.350 -23.024  1.00  0.00     0.058 C 
HETATM   26  C25 UNL     1     -16.527  45.572 -22.258  1.00  0.00     0.163 C 
HETATM   27  O7  UNL     1     -16.523  45.504 -21.028  1.00  0.00    -0.292 OA
HETATM   28  C26 UNL     1     -15.989  46.780 -23.026  1.00  0.00     0.084 C 
HETATM   29  C27 UNL     1     -14.470  46.976 -22.895  1.00  0.00     0.016 C 
HETATM   30  C28 UNL     1     -17.067  44.230 -26.665  1.00  0.00     0.143 C 
HETATM   31  H20 UNL     1     -19.619  44.775 -28.690  1.00  0.00     0.168 HD
ENDROOT
BRANCH   4  32
HETATM   32  C7  UNL     1     -12.665  47.510 -28.009  1.00  0.00     0.147 C 
HETATM   33  C8  UNL     1     -11.754  47.653 -29.223  1.00  0.00     0.042 C 
BRANCH  32  34
HETATM   34  O1  UNL     1     -12.751  48.812 -27.407  1.00  0.00    -0.393 OA
HETATM   35  H14 UNL     1     -12.920  48.708 -26.447  1.00  0.00     0.210 HD
ENDBRANCH  32  34
ENDBRANCH   4  32
BRANCH   1  36
HETATM   36  C2  UNL     1     -12.994  44.909 -23.023  1.00  0.00     0.004 C 
HETATM   37  C1  UNL     1     -12.674  43.668 -23.849  1.00  0.00     0.006 C 
ENDBRANCH   1  36
BRANCH  30  38
HETATM   38  O8  UNL     1     -16.307  45.462 -26.521  1.00  0.00    -0.377 OA
HETATM   39  H31 UNL     1     -16.487  46.025 -27.292  1.00  0.00     0.211 HD
ENDBRANCH  30  38
BRANCH  24  40
HETATM   40  O6  UNL     1     -15.736  42.968 -21.396  1.00  0.00    -0.359 OA
HETATM   41  H26 UNL     1     -15.927  43.783 -20.876  1.00  0.00     0.217 HD
ENDBRANCH  24  40
TORSDOF 5
ENDMDL
