MODEL 1
REMARK minimizedAffinity -8.39326
REMARK CNNscore 0.89293021
REMARK CNNaffinity 6.93152761
REMARK  13 active torsions:
REMARK  status: ('A' for Active; 'I' for Inactive)
REMARK    1  A    between atoms: O1_2  and  C2_3 
REMARK    2  A    between atoms: C2_3  and  C3_4 
REMARK    3  A    between atoms: C3_4  and  C4_5 
REMARK    4  A    between atoms: C4_5  and  O2_6 
REMARK    5  A    between atoms: O2_6  and  C5_7 
REMARK    6  A    between atoms: C20_23  and  C21_24 
REMARK    7  A    between atoms: C21_24  and  O4_26 
REMARK    8  A    between atoms: C21_24  and  C23_27 
REMARK    9  A    between atoms: C23_27  and  O5_28 
REMARK   10  A    between atoms: C23_27  and  C24_29 
REMARK   11  A    between atoms: C28_34  and  C29_35 
REMARK       I    between atoms: C29_35  and  N1_37 
REMARK   12  A    between atoms: C32_41  and  O8_42 
REMARK   13  A    between atoms: C37_47  and  O9_48 
ROOT
HETATM    1  C5  UNL     1       8.863  16.427  24.378  1.00  0.00     0.122 C 
HETATM    2  C6  UNL     1       7.482  17.066  24.500  1.00  0.00     0.033 C 
HETATM    3  C7  UNL     1       6.380  16.170  23.948  1.00  0.00     0.013 C 
HETATM    4  C8  UNL     1       6.634  15.680  22.485  1.00  0.00    -0.026 C 
HETATM    5  C9  UNL     1       6.585  16.912  21.541  1.00  0.00     0.016 C 
HETATM    6  C10 UNL     1       8.034  15.014  22.415  1.00  0.00     0.071 C 
HETATM    7  C11 UNL     1       9.143  15.935  22.956  1.00  0.00     0.045 C 
HETATM    8  C12 UNL     1       8.081  13.676  23.151  1.00  0.00     0.154 C 
HETATM    9  O3  UNL     1       9.096  13.243  23.691  1.00  0.00    -0.293 OA
HETATM   10  C13 UNL     1       6.881  12.815  23.153  1.00  0.00     0.057 C 
HETATM   11  C14 UNL     1       5.715  13.245  22.651  1.00  0.00    -0.037 C 
HETATM   12  C15 UNL     1       5.492  14.664  22.110  1.00  0.00     0.026 C 
HETATM   13  C16 UNL     1       5.113  14.567  20.614  1.00  0.00     0.011 C 
HETATM   14  C17 UNL     1       3.895  13.646  20.386  1.00  0.00     0.014 C 
HETATM   15  C18 UNL     1       4.110  12.237  20.981  1.00  0.00    -0.002 C 
HETATM   16  C19 UNL     1       5.219  11.526  20.156  1.00  0.00     0.019 C 
HETATM   17  C20 UNL     1       2.822  11.357  21.132  1.00  0.00     0.034 C 
HETATM   18  C35 UNL     1       3.243  10.296  22.186  1.00  0.00     0.012 C 
HETATM   19  C36 UNL     1       4.449  10.896  22.954  1.00  0.00     0.044 C 
HETATM   20  C37 UNL     1       4.502  12.360  22.494  1.00  0.00     0.089 C 
ENDROOT
BRANCH  17  21
HETATM   21  C21 UNL     1       2.009  10.838  19.903  1.00  0.00     0.087 C 
HETATM   22  C22 UNL     1       0.511  10.661  20.177  1.00  0.00     0.049 C 
BRANCH  21  23
HETATM   23  O4  UNL     1       2.523   9.536  19.582  1.00  0.00    -0.387 OA
HETATM   24  H34 UNL     1       3.492   9.578  19.547  1.00  0.00     0.210 HD
ENDBRANCH  21  23
BRANCH  21  25
HETATM   25  C23 UNL     1       2.244  11.821  18.680  1.00  0.00     0.181 C 
BRANCH  25  26
HETATM   26  O5  UNL     1       1.380  12.958  18.800  1.00  0.00    -0.390 OA
HETATM   27  H36 UNL     1       1.930  13.761  18.784  1.00  0.00     0.210 HD
ENDBRANCH  25  26
BRANCH  25  28
HETATM   28  C24 UNL     1       2.113  11.167  17.281  1.00  0.00     0.158 C 
HETATM   29  O6  UNL     1       2.778   9.873  17.211  1.00  0.00    -0.373 OA
HETATM   30  C25 UNL     1       2.083   9.141  16.199  1.00  0.00     0.185 C 
HETATM   31  C26 UNL     1       0.638   9.437  16.510  1.00  0.00     0.028 C 
HETATM   32  C32 UNL     1       2.323   7.627  16.182  1.00  0.00     0.384 C 
HETATM   33  C27 UNL     1      -0.221   8.859  15.408  1.00  0.00     0.053 C 
HETATM   34  C33 UNL     1       0.687  10.947  16.683  1.00  0.00     0.020 C 
HETATM   35  C28 UNL     1       0.058   7.344  15.266  1.00  0.00     0.309 C 
HETATM   36  N2  UNL     1       1.492   6.979  15.181  1.00  0.00     0.128 N 
HETATM   37  H47 UNL     1       1.846   7.245  14.262  1.00  0.00     0.320 HD
HETATM   38  C34 UNL     1      -0.516  11.509  17.434  1.00  0.00     0.013 C 
BRANCH  35  39
HETATM   39  C29 UNL     1      -0.637   6.870  13.976  1.00  0.00     0.233 C 
HETATM   40  O7  UNL     1      -0.011   6.433  13.007  1.00  0.00    -0.277 OA
HETATM   41  N1  UNL     1      -2.016   7.081  13.998  1.00  0.00    -0.249 NA
HETATM   42  C30 UNL     1      -2.680   7.644  12.855  1.00  0.00     0.113 A 
HETATM   43  C31 UNL     1      -2.875   6.219  13.231  1.00  0.00     0.113 A 
ENDBRANCH  35  39
BRANCH  32  44
HETATM   44  O8  UNL     1       3.680   7.380  15.857  1.00  0.00    -0.366 OA
HETATM   45  H49 UNL     1       4.191   7.941  16.472  1.00  0.00     0.212 HD
ENDBRANCH  32  44
ENDBRANCH  25  28
ENDBRANCH  21  25
ENDBRANCH  17  21
BRANCH  20  46
HETATM   46  O9  UNL     1       3.458  13.017  23.239  1.00  0.00    -0.384 OA
HETATM   47  H58 UNL     1       3.808  13.173  24.133  1.00  0.00     0.211 HD
ENDBRANCH  20  46
BRANCH   1  48
HETATM   48  O2  UNL     1       9.831  17.431  24.708  1.00  0.00    -0.386 OA
BRANCH  48  49
HETATM   49  C4  UNL     1      10.537  17.920  23.566  1.00  0.00     0.170 C 
BRANCH  49  50
HETATM   50  C3  UNL     1      10.546  19.442  23.618  1.00  0.00     0.052 C 
BRANCH  50  51
HETATM   51  C2  UNL     1      10.309  19.947  25.038  1.00  0.00     0.169 C 
BRANCH  51  52
HETATM   52  O1  UNL     1      11.553  20.083  25.729  1.00  0.00    -0.396 OA
HETATM   53  C1  UNL     1      12.501  20.854  24.998  1.00  0.00     0.201 C 
ENDBRANCH  51  52
ENDBRANCH  50  51
ENDBRANCH  49  50
ENDBRANCH  48  49
ENDBRANCH   1  48
TORSDOF 13
ENDMDL
MODEL 2
REMARK minimizedAffinity -8.81159973
REMARK CNNscore 0.555945754
REMARK CNNaffinity 6.6169529
REMARK  13 active torsions:
REMARK  status: ('A' for Active; 'I' for Inactive)
REMARK    1  A    between atoms: O1_2  and  C2_3 
REMARK    2  A    between atoms: C2_3  and  C3_4 
REMARK    3  A    between atoms: C3_4  and  C4_5 
REMARK    4  A    between atoms: C4_5  and  O2_6 
REMARK    5  A    between atoms: O2_6  and  C5_7 
REMARK    6  A    between atoms: C20_23  and  C21_24 
REMARK    7  A    between atoms: C21_24  and  O4_26 
REMARK    8  A    between atoms: C21_24  and  C23_27 
REMARK    9  A    between atoms: C23_27  and  O5_28 
REMARK   10  A    between atoms: C23_27  and  C24_29 
REMARK   11  A    between atoms: C28_34  and  C29_35 
REMARK       I    between atoms: C29_35  and  N1_37 
REMARK   12  A    between atoms: C32_41  and  O8_42 
REMARK   13  A    between atoms: C37_47  and  O9_48 
ROOT
HETATM    1  C5  UNL     1       5.973  13.165  22.045  1.00  0.00     0.122 C 
HETATM    2  C6  UNL     1       5.583  11.752  22.472  1.00  0.00     0.033 C 
HETATM    3  C7  UNL     1       4.535  11.139  21.552  1.00  0.00     0.013 C 
HETATM    4  C8  UNL     1       3.263  12.028  21.359  1.00  0.00    -0.026 C 
HETATM    5  C9  UNL     1       2.519  12.121  22.719  1.00  0.00     0.016 C 
HETATM    6  C10 UNL     1       3.705  13.443  20.898  1.00  0.00     0.071 C 
HETATM    7  C11 UNL     1       4.749  14.062  21.846  1.00  0.00     0.045 C 
HETATM    8  C12 UNL     1       4.247  13.449  19.471  1.00  0.00     0.154 C 
HETATM    9  O3  UNL     1       5.108  14.236  19.083  1.00  0.00    -0.293 OA
HETATM   10  C13 UNL     1       3.663  12.525  18.477  1.00  0.00     0.057 C 
HETATM   11  C14 UNL     1       2.775  11.588  18.834  1.00  0.00    -0.037 C 
HETATM   12  C15 UNL     1       2.345  11.332  20.286  1.00  0.00     0.026 C 
HETATM   13  C16 UNL     1       0.825  11.590  20.402  1.00  0.00     0.011 C 
HETATM   14  C17 UNL     1       0.018  10.751  19.386  1.00  0.00     0.014 C 
HETATM   15  C18 UNL     1       0.495  10.976  17.935  1.00  0.00    -0.002 C 
HETATM   16  C19 UNL     1       0.129  12.430  17.525  1.00  0.00     0.019 C 
HETATM   17  C20 UNL     1       0.008   9.920  16.885  1.00  0.00     0.034 C 
HETATM   18  C35 UNL     1       1.022  10.088  15.720  1.00  0.00     0.012 C 
HETATM   19  C36 UNL     1       2.277  10.766  16.328  1.00  0.00     0.044 C 
HETATM   20  C37 UNL     1       2.039  10.720  17.843  1.00  0.00     0.089 C 
ENDROOT
BRANCH  17  21
HETATM   21  C21 UNL     1      -1.495   9.760  16.488  1.00  0.00     0.087 C 
HETATM   22  C22 UNL     1      -2.476  10.319  17.525  1.00  0.00     0.049 C 
BRANCH  21  23
HETATM   23  O4  UNL     1      -1.755   8.350  16.397  1.00  0.00    -0.387 OA
HETATM   24  H34 UNL     1      -1.059   7.934  15.863  1.00  0.00     0.210 HD
ENDBRANCH  21  23
BRANCH  21  25
HETATM   25  C23 UNL     1      -1.727  10.438  15.073  1.00  0.00     0.181 C 
BRANCH  25  26
HETATM   26  O5  UNL     1      -2.586  11.575  15.216  1.00  0.00    -0.390 OA
HETATM   27  H36 UNL     1      -2.128  12.352  14.850  1.00  0.00     0.210 HD
ENDBRANCH  25  26
BRANCH  25  28
HETATM   28  C24 UNL     1      -2.246   9.484  13.967  1.00  0.00     0.158 C 
HETATM   29  O6  UNL     1      -1.423   8.289  13.838  1.00  0.00    -0.373 OA
HETATM   30  C25 UNL     1      -2.293   7.279  13.322  1.00  0.00     0.185 C 
HETATM   31  C26 UNL     1      -3.545   7.472  14.140  1.00  0.00     0.028 C 
HETATM   32  C32 UNL     1      -1.795   5.835  13.447  1.00  0.00     0.384 C 
HETATM   33  C27 UNL     1      -4.627   6.575  13.585  1.00  0.00     0.053 C 
HETATM   34  C33 UNL     1      -3.722   8.980  14.040  1.00  0.00     0.020 C 
HETATM   35  C28 UNL     1      -4.140   5.106  13.581  1.00  0.00     0.309 C 
HETATM   36  N2  UNL     1      -2.801   4.895  12.982  1.00  0.00     0.128 N 
HETATM   37  H47 UNL     1      -2.875   4.991  11.969  1.00  0.00     0.320 HD
HETATM   38  C34 UNL     1      -4.639   9.553  15.115  1.00  0.00     0.013 C 
BRANCH  35  39
HETATM   39  C29 UNL     1      -5.165   4.287  12.774  1.00  0.00     0.233 C 
HETATM   40  O7  UNL     1      -4.871   3.705  11.727  1.00  0.00    -0.277 OA
HETATM   41  N1  UNL     1      -6.453   4.361  13.305  1.00  0.00    -0.249 NA
HETATM   42  C30 UNL     1      -7.579   4.582  12.440  1.00  0.00     0.113 A 
HETATM   43  C31 UNL     1      -7.365   3.268  13.101  1.00  0.00     0.113 A 
ENDBRANCH  35  39
BRANCH  32  44
HETATM   44  O8  UNL     1      -0.639   5.677  12.643  1.00  0.00    -0.366 OA
HETATM   45  H49 UNL     1      -0.050   6.412  12.903  1.00  0.00     0.212 HD
ENDBRANCH  32  44
ENDBRANCH  25  28
ENDBRANCH  21  25
ENDBRANCH  17  21
BRANCH  20  46
HETATM   46  O9  UNL     1       2.354   9.366  18.223  1.00  0.00    -0.384 OA
HETATM   47  H58 UNL     1       3.323   9.305  18.265  1.00  0.00     0.211 HD
ENDBRANCH  20  46
BRANCH   1  48
HETATM   48  O2  UNL     1       6.777  13.723  23.091  1.00  0.00    -0.386 OA
BRANCH  48  49
HETATM   49  C4  UNL     1       8.129  13.955  22.691  1.00  0.00     0.170 C 
BRANCH  49  50
HETATM   50  C3  UNL     1       8.942  12.702  22.984  1.00  0.00     0.052 C 
BRANCH  50  51
HETATM   51  C2  UNL     1       9.466  12.071  21.697  1.00  0.00     0.169 C 
BRANCH  51  52
HETATM   52  O1  UNL     1      10.527  12.861  21.156  1.00  0.00    -0.396 OA
HETATM   53  C1  UNL     1      11.120  12.265  20.006  1.00  0.00     0.201 C 
ENDBRANCH  51  52
ENDBRANCH  50  51
ENDBRANCH  49  50
ENDBRANCH  48  49
ENDBRANCH   1  48
TORSDOF 13
ENDMDL
MODEL 3
REMARK minimizedAffinity -7.98904562
REMARK CNNscore 0.423223555
REMARK CNNaffinity 6.35623693
REMARK  13 active torsions:
REMARK  status: ('A' for Active; 'I' for Inactive)
REMARK    1  A    between atoms: O1_2  and  C2_3 
REMARK    2  A    between atoms: C2_3  and  C3_4 
REMARK    3  A    between atoms: C3_4  and  C4_5 
REMARK    4  A    between atoms: C4_5  and  O2_6 
REMARK    5  A    between atoms: O2_6  and  C5_7 
REMARK    6  A    between atoms: C20_23  and  C21_24 
REMARK    7  A    between atoms: C21_24  and  O4_26 
REMARK    8  A    between atoms: C21_24  and  C23_27 
REMARK    9  A    between atoms: C23_27  and  O5_28 
REMARK   10  A    between atoms: C23_27  and  C24_29 
REMARK   11  A    between atoms: C28_34  and  C29_35 
REMARK       I    between atoms: C29_35  and  N1_37 
REMARK   12  A    between atoms: C32_41  and  O8_42 
REMARK   13  A    between atoms: C37_47  and  O9_48 
ROOT
HETATM    1  C5  UNL     1       8.993  16.501  24.292  1.00  0.00     0.122 C 
HETATM    2  C6  UNL     1       7.601  17.110  24.443  1.00  0.00     0.033 C 
HETATM    3  C7  UNL     1       6.505  16.175  23.945  1.00  0.00     0.013 C 
HETATM    4  C8  UNL     1       6.727  15.659  22.486  1.00  0.00    -0.026 C 
HETATM    5  C9  UNL     1       6.619  16.868  21.516  1.00  0.00     0.016 C 
HETATM    6  C10 UNL     1       8.140  15.024  22.387  1.00  0.00     0.071 C 
HETATM    7  C11 UNL     1       9.242  15.984  22.873  1.00  0.00     0.045 C 
HETATM    8  C12 UNL     1       8.242  13.705  23.150  1.00  0.00     0.154 C 
HETATM    9  O3  UNL     1       9.283  13.309  23.669  1.00  0.00    -0.293 OA
HETATM   10  C13 UNL     1       7.063  12.817  23.208  1.00  0.00     0.057 C 
HETATM   11  C14 UNL     1       5.872  13.207  22.734  1.00  0.00    -0.037 C 
HETATM   12  C15 UNL     1       5.599  14.608  22.168  1.00  0.00     0.026 C 
HETATM   13  C16 UNL     1       5.177  14.468  20.688  1.00  0.00     0.011 C 
HETATM   14  C17 UNL     1       3.975  13.513  20.517  1.00  0.00     0.014 C 
HETATM   15  C18 UNL     1       4.243  12.124  21.136  1.00  0.00    -0.002 C 
HETATM   16  C19 UNL     1       5.343  11.421  20.293  1.00  0.00     0.019 C 
HETATM   17  C20 UNL     1       2.982  11.217  21.346  1.00  0.00     0.034 C 
HETATM   18  C35 UNL     1       3.460  10.191  22.410  1.00  0.00     0.012 C 
HETATM   19  C36 UNL     1       4.674  10.837  23.126  1.00  0.00     0.044 C 
HETATM   20  C37 UNL     1       4.678  12.290  22.633  1.00  0.00     0.089 C 
ENDROOT
BRANCH  17  21
HETATM   21  C21 UNL     1       2.144  10.652  20.154  1.00  0.00     0.087 C 
HETATM   22  C22 UNL     1       0.638  10.904  20.276  1.00  0.00     0.049 C 
BRANCH  21  23
HETATM   23  O4  UNL     1       2.322   9.226  20.159  1.00  0.00    -0.387 OA
HETATM   24  H34 UNL     1       3.268   9.025  20.233  1.00  0.00     0.210 HD
ENDBRANCH  21  23
BRANCH  21  25
HETATM   25  C23 UNL     1       2.707  11.255  18.799  1.00  0.00     0.181 C 
BRANCH  25  26
HETATM   26  O5  UNL     1       1.834  12.289  18.330  1.00  0.00    -0.390 OA
HETATM   27  H36 UNL     1       2.357  13.102  18.217  1.00  0.00     0.210 HD
ENDBRANCH  25  26
BRANCH  25  28
HETATM   28  C24 UNL     1       2.987  10.214  17.685  1.00  0.00     0.158 C 
HETATM   29  O6  UNL     1       1.877   9.288  17.504  1.00  0.00    -0.373 OA
HETATM   30  C25 UNL     1       1.957   8.858  16.143  1.00  0.00     0.185 C 
HETATM   31  C26 UNL     1       2.236  10.143  15.406  1.00  0.00     0.028 C 
HETATM   32  C32 UNL     1       0.702   8.183  15.578  1.00  0.00     0.384 C 
HETATM   33  C27 UNL     1       2.516   9.817  13.957  1.00  0.00     0.053 C 
HETATM   34  C33 UNL     1       3.357  10.722  16.256  1.00  0.00     0.020 C 
HETATM   35  C28 UNL     1       1.326   9.034  13.355  1.00  0.00     0.309 C 
HETATM   36  N2  UNL     1       0.865   7.881  14.165  1.00  0.00     0.128 N 
HETATM   37  H47 UNL     1       1.548   7.127  14.084  1.00  0.00     0.320 HD
HETATM   38  C34 UNL     1       3.567  12.217  16.042  1.00  0.00     0.013 C 
BRANCH  35  39
HETATM   39  C29 UNL     1       1.773   8.508  11.978  1.00  0.00     0.233 C 
HETATM   40  O7  UNL     1       1.020   8.482  11.002  1.00  0.00    -0.277 OA
HETATM   41  N1  UNL     1       3.068   7.989  11.994  1.00  0.00    -0.249 NA
HETATM   42  C30 UNL     1       3.351   6.735  11.352  1.00  0.00     0.113 A 
HETATM   43  C31 UNL     1       3.855   8.016  10.791  1.00  0.00     0.113 A 
ENDBRANCH  35  39
BRANCH  32  44
HETATM   44  O8  UNL     1       0.485   6.965  16.267  1.00  0.00    -0.366 OA
HETATM   45  H49 UNL     1       0.516   7.204  17.214  1.00  0.00     0.212 HD
ENDBRANCH  32  44
ENDBRANCH  25  28
ENDBRANCH  21  25
ENDBRANCH  17  21
BRANCH  20  46
HETATM   46  O9  UNL     1       3.641  12.940  23.395  1.00  0.00    -0.384 OA
HETATM   47  H58 UNL     1       4.014  13.123  24.274  1.00  0.00     0.211 HD
ENDBRANCH  20  46
BRANCH   1  48
HETATM   48  O2  UNL     1       9.945  17.535  24.570  1.00  0.00    -0.386 OA
BRANCH  48  49
HETATM   49  C4  UNL     1      10.203  18.372  23.441  1.00  0.00     0.170 C 
BRANCH  49  50
HETATM   50  C3  UNL     1      10.512  19.777  23.942  1.00  0.00     0.052 C 
BRANCH  50  51
HETATM   51  C2  UNL     1      11.490  20.491  23.012  1.00  0.00     0.169 C 
BRANCH  51  52
HETATM   52  O1  UNL     1      12.083  19.558  22.107  1.00  0.00    -0.396 OA
HETATM   53  C1  UNL     1      13.484  19.413  22.314  1.00  0.00     0.201 C 
ENDBRANCH  51  52
ENDBRANCH  50  51
ENDBRANCH  49  50
ENDBRANCH  48  49
ENDBRANCH   1  48
TORSDOF 13
ENDMDL
MODEL 4
REMARK minimizedAffinity -9.49837017
REMARK CNNscore 0.375415742
REMARK CNNaffinity 6.44026947
REMARK  13 active torsions:
REMARK  status: ('A' for Active; 'I' for Inactive)
REMARK    1  A    between atoms: O1_2  and  C2_3 
REMARK    2  A    between atoms: C2_3  and  C3_4 
REMARK    3  A    between atoms: C3_4  and  C4_5 
REMARK    4  A    between atoms: C4_5  and  O2_6 
REMARK    5  A    between atoms: O2_6  and  C5_7 
REMARK    6  A    between atoms: C20_23  and  C21_24 
REMARK    7  A    between atoms: C21_24  and  O4_26 
REMARK    8  A    between atoms: C21_24  and  C23_27 
REMARK    9  A    between atoms: C23_27  and  O5_28 
REMARK   10  A    between atoms: C23_27  and  C24_29 
REMARK   11  A    between atoms: C28_34  and  C29_35 
REMARK       I    between atoms: C29_35  and  N1_37 
REMARK   12  A    between atoms: C32_41  and  O8_42 
REMARK   13  A    between atoms: C37_47  and  O9_48 
ROOT
HETATM    1  C5  UNL     1       7.654   7.554  12.943  1.00  0.00     0.122 C 
HETATM    2  C6  UNL     1       7.191   7.389  14.389  1.00  0.00     0.033 C 
HETATM    3  C7  UNL     1       5.673   7.331  14.505  1.00  0.00     0.013 C 
HETATM    4  C8  UNL     1       4.937   8.530  13.824  1.00  0.00    -0.026 C 
HETATM    5  C9  UNL     1       5.295   9.828  14.597  1.00  0.00     0.016 C 
HETATM    6  C10 UNL     1       5.417   8.641  12.351  1.00  0.00     0.071 C 
HETATM    7  C11 UNL     1       6.951   8.721  12.245  1.00  0.00     0.045 C 
HETATM    8  C12 UNL     1       4.907   7.492  11.483  1.00  0.00     0.154 C 
HETATM    9  O3  UNL     1       5.527   7.055  10.516  1.00  0.00    -0.293 OA
HETATM   10  C13 UNL     1       3.571   6.924  11.757  1.00  0.00     0.057 C 
HETATM   11  C14 UNL     1       2.865   7.293  12.834  1.00  0.00    -0.037 C 
HETATM   12  C15 UNL     1       3.389   8.258  13.907  1.00  0.00     0.026 C 
HETATM   13  C16 UNL     1       2.468   9.499  13.945  1.00  0.00     0.011 C 
HETATM   14  C17 UNL     1       0.988   9.113  14.165  1.00  0.00     0.014 C 
HETATM   15  C18 UNL     1       0.487   8.101  13.111  1.00  0.00    -0.002 C 
HETATM   16  C19 UNL     1       0.439   8.820  11.734  1.00  0.00     0.019 C 
HETATM   17  C20 UNL     1      -0.857   7.373  13.452  1.00  0.00     0.034 C 
HETATM   18  C35 UNL     1      -0.816   6.115  12.540  1.00  0.00     0.012 C 
HETATM   19  C36 UNL     1       0.673   5.892  12.170  1.00  0.00     0.044 C 
HETATM   20  C37 UNL     1       1.441   6.857  13.082  1.00  0.00     0.089 C 
ENDROOT
BRANCH  17  21
HETATM   21  C21 UNL     1      -2.223   8.127  13.544  1.00  0.00     0.087 C 
HETATM   22  C22 UNL     1      -2.680   8.750  12.220  1.00  0.00     0.049 C 
BRANCH  21  23
HETATM   23  O4  UNL     1      -2.038   9.213  14.465  1.00  0.00    -0.387 OA
HETATM   24  H34 UNL     1      -1.607   8.878  15.267  1.00  0.00     0.210 HD
ENDBRANCH  21  23
BRANCH  21  25
HETATM   25  C23 UNL     1      -3.322   7.131  14.106  1.00  0.00     0.181 C 
BRANCH  25  26
HETATM   26  O5  UNL     1      -2.897   5.778  13.907  1.00  0.00    -0.390 OA
HETATM   27  H36 UNL     1      -2.901   5.327  14.769  1.00  0.00     0.210 HD
ENDBRANCH  25  26
BRANCH  25  28
HETATM   28  C24 UNL     1      -4.752   7.354  13.550  1.00  0.00     0.158 C 
HETATM   29  O6  UNL     1      -5.466   6.101  13.346  1.00  0.00    -0.373 OA
HETATM   30  C25 UNL     1      -6.853   6.427  13.469  1.00  0.00     0.185 C 
HETATM   31  C26 UNL     1      -6.873   7.332  14.675  1.00  0.00     0.028 C 
HETATM   32  C32 UNL     1      -7.804   5.243  13.678  1.00  0.00     0.384 C 
HETATM   33  C27 UNL     1      -8.266   7.899  14.829  1.00  0.00     0.053 C 
HETATM   34  C33 UNL     1      -5.731   8.279  14.340  1.00  0.00     0.020 C 
HETATM   35  C28 UNL     1      -9.293   6.746  14.934  1.00  0.00     0.309 C 
HETATM   36  N2  UNL     1      -9.168   5.703  13.889  1.00  0.00     0.128 N 
HETATM   37  H47 UNL     1      -9.511   6.078  13.006  1.00  0.00     0.320 HD
HETATM   38  C34 UNL     1      -5.202   9.041  15.551  1.00  0.00     0.013 C 
BRANCH  35  39
HETATM   39  C29 UNL     1     -10.696   7.372  14.825  1.00  0.00     0.233 C 
HETATM   40  O7  UNL     1     -11.036   8.357  15.485  1.00  0.00    -0.277 OA
HETATM   41  N1  UNL     1     -11.544   6.651  13.984  1.00  0.00    -0.249 NA
HETATM   42  C30 UNL     1     -12.893   6.367  14.389  1.00  0.00     0.113 A 
HETATM   43  C31 UNL     1     -12.607   7.335  13.298  1.00  0.00     0.113 A 
ENDBRANCH  35  39
BRANCH  32  44
HETATM   44  O8  UNL     1      -7.788   4.430  12.518  1.00  0.00    -0.366 OA
HETATM   45  H49 UNL     1      -6.841   4.260  12.345  1.00  0.00     0.212 HD
ENDBRANCH  32  44
ENDBRANCH  25  28
ENDBRANCH  21  25
ENDBRANCH  17  21
BRANCH  20  46
HETATM   46  O9  UNL     1       1.466   6.206  14.368  1.00  0.00    -0.384 OA
HETATM   47  H58 UNL     1       2.160   5.526  14.323  1.00  0.00     0.211 HD
ENDBRANCH  20  46
BRANCH   1  48
HETATM   48  O2  UNL     1       9.060   7.826  12.972  1.00  0.00    -0.386 OA
BRANCH  48  49
HETATM   49  C4  UNL     1       9.544   8.117  14.285  1.00  0.00     0.170 C 
BRANCH  49  50
HETATM   50  C3  UNL     1      10.928   8.741  14.163  1.00  0.00     0.052 C 
BRANCH  50  51
HETATM   51  C2  UNL     1      10.925  10.189  14.646  1.00  0.00     0.169 C 
BRANCH  51  52
HETATM   52  O1  UNL     1       9.775  10.874  14.147  1.00  0.00    -0.396 OA
HETATM   53  C1  UNL     1       8.817  11.147  15.165  1.00  0.00     0.201 C 
ENDBRANCH  51  52
ENDBRANCH  50  51
ENDBRANCH  49  50
ENDBRANCH  48  49
ENDBRANCH   1  48
TORSDOF 13
ENDMDL
MODEL 5
REMARK minimizedAffinity -8.76659298
REMARK CNNscore 0.369747728
REMARK CNNaffinity 6.36024857
REMARK  13 active torsions:
REMARK  status: ('A' for Active; 'I' for Inactive)
REMARK    1  A    between atoms: O1_2  and  C2_3 
REMARK    2  A    between atoms: C2_3  and  C3_4 
REMARK    3  A    between atoms: C3_4  and  C4_5 
REMARK    4  A    between atoms: C4_5  and  O2_6 
REMARK    5  A    between atoms: O2_6  and  C5_7 
REMARK    6  A    between atoms: C20_23  and  C21_24 
REMARK    7  A    between atoms: C21_24  and  O4_26 
REMARK    8  A    between atoms: C21_24  and  C23_27 
REMARK    9  A    between atoms: C23_27  and  O5_28 
REMARK   10  A    between atoms: C23_27  and  C24_29 
REMARK   11  A    between atoms: C28_34  and  C29_35 
REMARK       I    between atoms: C29_35  and  N1_37 
REMARK   12  A    between atoms: C32_41  and  O8_42 
REMARK   13  A    between atoms: C37_47  and  O9_48 
ROOT
HETATM    1  C5  UNL     1      -7.366  -9.924  12.374  1.00  0.00     0.122 C 
HETATM    2  C6  UNL     1      -8.365 -10.576  11.420  1.00  0.00     0.033 C 
HETATM    3  C7  UNL     1      -7.770 -10.819  10.039  1.00  0.00     0.013 C 
HETATM    4  C8  UNL     1      -7.135  -9.548   9.389  1.00  0.00    -0.026 C 
HETATM    5  C9  UNL     1      -8.267  -8.524   9.103  1.00  0.00     0.016 C 
HETATM    6  C10 UNL     1      -6.107  -8.937  10.380  1.00  0.00     0.071 C 
HETATM    7  C11 UNL     1      -6.724  -8.675  11.766  1.00  0.00     0.045 C 
HETATM    8  C12 UNL     1      -4.859  -9.804  10.534  1.00  0.00     0.154 C 
HETATM    9  O3  UNL     1      -4.202  -9.855  11.571  1.00  0.00    -0.293 OA
HETATM   10  C13 UNL     1      -4.362 -10.561   9.366  1.00  0.00     0.057 C 
HETATM   11  C14 UNL     1      -5.060 -10.617   8.224  1.00  0.00    -0.037 C 
HETATM   12  C15 UNL     1      -6.447  -9.985   8.042  1.00  0.00     0.026 C 
HETATM   13  C16 UNL     1      -6.359  -8.916   6.928  1.00  0.00     0.011 C 
HETATM   14  C17 UNL     1      -5.793  -9.498   5.614  1.00  0.00     0.014 C 
HETATM   15  C18 UNL     1      -4.421 -10.177   5.820  1.00  0.00    -0.002 C 
HETATM   16  C19 UNL     1      -3.382  -9.075   6.168  1.00  0.00     0.019 C 
HETATM   17  C20 UNL     1      -3.939 -11.106   4.654  1.00  0.00     0.034 C 
HETATM   18  C35 UNL     1      -2.876 -12.007   5.340  1.00  0.00     0.012 C 
HETATM   19  C36 UNL     1      -3.172 -11.954   6.861  1.00  0.00     0.044 C 
HETATM   20  C37 UNL     1      -4.532 -11.248   6.959  1.00  0.00     0.089 C 
ENDROOT
BRANCH  17  21
HETATM   21  C21 UNL     1      -3.583 -10.559   3.234  1.00  0.00     0.087 C 
HETATM   22  C22 UNL     1      -2.126 -10.797   2.823  1.00  0.00     0.049 C 
BRANCH  21  23
HETATM   23  O4  UNL     1      -3.768  -9.135   3.279  1.00  0.00    -0.387 OA
HETATM   24  H34 UNL     1      -4.630  -8.940   3.677  1.00  0.00     0.210 HD
ENDBRANCH  21  23
BRANCH  21  25
HETATM   25  C23 UNL     1      -4.578 -11.194   2.175  1.00  0.00     0.181 C 
BRANCH  25  26
HETATM   26  O5  UNL     1      -4.155 -12.523   1.851  1.00  0.00    -0.390 OA
HETATM   27  H36 UNL     1      -4.896 -13.130   2.024  1.00  0.00     0.210 HD
ENDBRANCH  25  26
BRANCH  25  28
HETATM   28  C24 UNL     1      -4.794 -10.350   0.892  1.00  0.00     0.158 C 
HETATM   29  O6  UNL     1      -4.454 -11.087  -0.318  1.00  0.00    -0.373 OA
HETATM   30  C25 UNL     1      -5.255 -10.511  -1.352  1.00  0.00     0.185 C 
HETATM   31  C26 UNL     1      -6.601 -10.366  -0.688  1.00  0.00     0.028 C 
HETATM   32  C32 UNL     1      -5.383 -11.335  -2.639  1.00  0.00     0.384 C 
HETATM   33  C27 UNL     1      -7.519  -9.607  -1.618  1.00  0.00     0.053 C 
HETATM   34  C33 UNL     1      -6.201  -9.724   0.631  1.00  0.00     0.020 C 
HETATM   35  C28 UNL     1      -7.604 -10.333  -2.981  1.00  0.00     0.309 C 
HETATM   36  N2  UNL     1      -6.296 -10.699  -3.575  1.00  0.00     0.128 N 
HETATM   37  H47 UNL     1      -5.845  -9.855  -3.926  1.00  0.00     0.320 HD
HETATM   38  C34 UNL     1      -7.269  -9.848   1.712  1.00  0.00     0.013 C 
BRANCH  35  39
HETATM   39  C29 UNL     1      -8.329  -9.389  -3.958  1.00  0.00     0.233 C 
HETATM   40  O7  UNL     1      -9.374  -8.804  -3.662  1.00  0.00    -0.277 OA
HETATM   41  N1  UNL     1      -7.731  -9.352  -5.218  1.00  0.00    -0.249 NA
HETATM   42  C30 UNL     1      -8.538  -9.431  -6.404  1.00  0.00     0.113 A 
HETATM   43  C31 UNL     1      -7.853  -8.168  -6.024  1.00  0.00     0.113 A 
ENDBRANCH  35  39
BRANCH  32  44
HETATM   44  O8  UNL     1      -4.111 -11.425  -3.256  1.00  0.00    -0.366 OA
HETATM   45  H49 UNL     1      -3.510 -11.731  -2.548  1.00  0.00     0.212 HD
ENDBRANCH  32  44
ENDBRANCH  25  28
ENDBRANCH  21  25
ENDBRANCH  17  21
BRANCH  20  46
HETATM   46  O9  UNL     1      -5.498 -12.261   6.613  1.00  0.00    -0.384 OA
HETATM   47  H58 UNL     1      -5.610 -12.820   7.400  1.00  0.00     0.211 HD
ENDBRANCH  20  46
BRANCH   1  48
HETATM   48  O2  UNL     1      -8.087  -9.536  13.550  1.00  0.00    -0.386 OA
BRANCH  48  49
HETATM   49  C4  UNL     1      -8.923 -10.576  14.059  1.00  0.00     0.170 C 
BRANCH  49  50
HETATM   50  C3  UNL     1     -10.131  -9.939  14.732  1.00  0.00     0.052 C 
BRANCH  50  51
HETATM   51  C2  UNL     1     -10.084 -10.128  16.246  1.00  0.00     0.169 C 
BRANCH  51  52
HETATM   52  O1  UNL     1      -9.687  -8.912  16.883  1.00  0.00    -0.396 OA
HETATM   53  C1  UNL     1      -9.789  -8.981  18.302  1.00  0.00     0.201 C 
ENDBRANCH  51  52
ENDBRANCH  50  51
ENDBRANCH  49  50
ENDBRANCH  48  49
ENDBRANCH   1  48
TORSDOF 13
ENDMDL
MODEL 6
REMARK minimizedAffinity -8.43358231
REMARK CNNscore 0.359920591
REMARK CNNaffinity 6.48116922
REMARK  13 active torsions:
REMARK  status: ('A' for Active; 'I' for Inactive)
REMARK    1  A    between atoms: O1_2  and  C2_3 
REMARK    2  A    between atoms: C2_3  and  C3_4 
REMARK    3  A    between atoms: C3_4  and  C4_5 
REMARK    4  A    between atoms: C4_5  and  O2_6 
REMARK    5  A    between atoms: O2_6  and  C5_7 
REMARK    6  A    between atoms: C20_23  and  C21_24 
REMARK    7  A    between atoms: C21_24  and  O4_26 
REMARK    8  A    between atoms: C21_24  and  C23_27 
REMARK    9  A    between atoms: C23_27  and  O5_28 
REMARK   10  A    between atoms: C23_27  and  C24_29 
REMARK   11  A    between atoms: C28_34  and  C29_35 
REMARK       I    between atoms: C29_35  and  N1_37 
REMARK   12  A    between atoms: C32_41  and  O8_42 
REMARK   13  A    between atoms: C37_47  and  O9_48 
ROOT
HETATM    1  C5  UNL     1       4.873   8.182  11.615  1.00  0.00     0.122 C 
HETATM    2  C6  UNL     1       4.379   9.573  12.006  1.00  0.00     0.033 C 
HETATM    3  C7  UNL     1       5.331  10.274  12.968  1.00  0.00     0.013 C 
HETATM    4  C8  UNL     1       5.681   9.435  14.239  1.00  0.00    -0.026 C 
HETATM    5  C9  UNL     1       4.390   9.269  15.088  1.00  0.00     0.016 C 
HETATM    6  C10 UNL     1       6.204   8.043  13.794  1.00  0.00     0.071 C 
HETATM    7  C11 UNL     1       5.226   7.334  12.839  1.00  0.00     0.045 C 
HETATM    8  C12 UNL     1       7.584   8.120  13.143  1.00  0.00     0.154 C 
HETATM    9  O3  UNL     1       7.959   7.339  12.271  1.00  0.00    -0.293 OA
HETATM   10  C13 UNL     1       8.552   9.124  13.629  1.00  0.00     0.057 C 
HETATM   11  C14 UNL     1       8.198  10.058  14.521  1.00  0.00    -0.037 C 
HETATM   12  C15 UNL     1       6.769  10.226  15.057  1.00  0.00     0.026 C 
HETATM   13  C16 UNL     1       6.786  10.002  16.587  1.00  0.00     0.011 C 
HETATM   14  C17 UNL     1       7.799  10.929  17.294  1.00  0.00     0.014 C 
HETATM   15  C18 UNL     1       9.223  10.790  16.712  1.00  0.00    -0.002 C 
HETATM   16  C19 UNL     1       9.759   9.377  17.075  1.00  0.00     0.019 C 
HETATM   17  C20 UNL     1      10.230  11.928  17.094  1.00  0.00     0.034 C 
HETATM   18  C35 UNL     1      11.323  11.813  15.997  1.00  0.00     0.012 C 
HETATM   19  C36 UNL     1      10.672  11.061  14.807  1.00  0.00     0.044 C 
HETATM   20  C37 UNL     1       9.179  11.011  15.160  1.00  0.00     0.089 C 
ENDROOT
BRANCH  17  21
HETATM   21  C21 UNL     1      10.727  12.154  18.558  1.00  0.00     0.087 C 
HETATM   22  C22 UNL     1       9.784  11.595  19.629  1.00  0.00     0.049 C 
BRANCH  21  23
HETATM   23  O4  UNL     1      10.784  13.575  18.764  1.00  0.00    -0.387 OA
HETATM   24  H34 UNL     1      11.251  13.984  18.019  1.00  0.00     0.210 HD
ENDBRANCH  21  23
BRANCH  21  25
HETATM   25  C23 UNL     1      12.179  11.534  18.708  1.00  0.00     0.181 C 
BRANCH  25  26
HETATM   26  O5  UNL     1      12.208  10.634  19.822  1.00  0.00    -0.390 OA
HETATM   27  H36 UNL     1      12.517   9.767  19.506  1.00  0.00     0.210 HD
ENDBRANCH  25  26
BRANCH  25  28
HETATM   28  C24 UNL     1      13.327  12.571  18.800  1.00  0.00     0.158 C 
HETATM   29  O6  UNL     1      13.927  12.616  20.127  1.00  0.00    -0.373 OA
HETATM   30  C25 UNL     1      15.270  13.062  19.924  1.00  0.00     0.185 C 
HETATM   31  C26 UNL     1      15.707  12.260  18.724  1.00  0.00     0.028 C 
HETATM   32  C32 UNL     1      16.236  12.835  21.093  1.00  0.00     0.384 C 
HETATM   33  C27 UNL     1      17.066  12.753  18.284  1.00  0.00     0.053 C 
HETATM   34  C33 UNL     1      14.519  12.465  17.796  1.00  0.00     0.020 C 
HETATM   35  C28 UNL     1      18.067  12.654  19.460  1.00  0.00     0.309 C 
HETATM   36  N2  UNL     1      17.587  13.235  20.736  1.00  0.00     0.128 N 
HETATM   37  H47 UNL     1      17.603  14.252  20.662  1.00  0.00     0.320 HD
HETATM   38  C34 UNL     1      14.442  11.434  16.675  1.00  0.00     0.013 C 
BRANCH  35  39
HETATM   39  C29 UNL     1      19.344  13.403  19.038  1.00  0.00     0.233 C 
HETATM   40  O7  UNL     1      19.889  14.243  19.759  1.00  0.00    -0.277 OA
HETATM   41  N1  UNL     1      19.746  13.095  17.738  1.00  0.00    -0.249 NA
HETATM   42  C30 UNL     1      20.141  14.142  16.837  1.00  0.00     0.113 A 
HETATM   43  C31 UNL     1      21.138  13.187  17.388  1.00  0.00     0.113 A 
ENDBRANCH  35  39
BRANCH  32  44
HETATM   44  O8  UNL     1      15.818  13.624  22.193  1.00  0.00    -0.366 OA
HETATM   45  H49 UNL     1      14.870  13.415  22.306  1.00  0.00     0.212 HD
ENDBRANCH  32  44
ENDBRANCH  25  28
ENDBRANCH  21  25
ENDBRANCH  17  21
BRANCH  20  46
HETATM   46  O9  UNL     1       8.682  12.328  14.847  1.00  0.00    -0.384 OA
HETATM   47  H58 UNL     1       8.564  12.359  13.883  1.00  0.00     0.211 HD
ENDBRANCH  20  46
BRANCH   1  48
HETATM   48  O2  UNL     1       3.810   7.534  10.907  1.00  0.00    -0.386 OA
BRANCH  48  49
HETATM   49  C4  UNL     1       3.667   8.005   9.565  1.00  0.00     0.170 C 
BRANCH  49  50
HETATM   50  C3  UNL     1       2.967   6.929   8.747  1.00  0.00     0.052 C 
BRANCH  50  51
HETATM   51  C2  UNL     1       1.650   6.510   9.396  1.00  0.00     0.169 C 
BRANCH  51  52
HETATM   52  O1  UNL     1       1.840   5.334  10.185  1.00  0.00    -0.396 OA
HETATM   53  C1  UNL     1       0.942   5.267  11.288  1.00  0.00     0.201 C 
ENDBRANCH  51  52
ENDBRANCH  50  51
ENDBRANCH  49  50
ENDBRANCH  48  49
ENDBRANCH   1  48
TORSDOF 13
ENDMDL
MODEL 7
REMARK minimizedAffinity -8.00874519
REMARK CNNscore 0.334944755
REMARK CNNaffinity 7.02169085
REMARK  13 active torsions:
REMARK  status: ('A' for Active; 'I' for Inactive)
REMARK    1  A    between atoms: O1_2  and  C2_3 
REMARK    2  A    between atoms: C2_3  and  C3_4 
REMARK    3  A    between atoms: C3_4  and  C4_5 
REMARK    4  A    between atoms: C4_5  and  O2_6 
REMARK    5  A    between atoms: O2_6  and  C5_7 
REMARK    6  A    between atoms: C20_23  and  C21_24 
REMARK    7  A    between atoms: C21_24  and  O4_26 
REMARK    8  A    between atoms: C21_24  and  C23_27 
REMARK    9  A    between atoms: C23_27  and  O5_28 
REMARK   10  A    between atoms: C23_27  and  C24_29 
REMARK   11  A    between atoms: C28_34  and  C29_35 
REMARK       I    between atoms: C29_35  and  N1_37 
REMARK   12  A    between atoms: C32_41  and  O8_42 
REMARK   13  A    between atoms: C37_47  and  O9_48 
ROOT
HETATM    1  C5  UNL     1      -6.741   3.973  13.017  1.00  0.00     0.122 C 
HETATM    2  C6  UNL     1      -7.225   3.719  14.442  1.00  0.00     0.033 C 
HETATM    3  C7  UNL     1      -8.398   4.614  14.822  1.00  0.00     0.013 C 
HETATM    4  C8  UNL     1      -8.132   6.138  14.593  1.00  0.00    -0.026 C 
HETATM    5  C9  UNL     1      -7.016   6.594  15.572  1.00  0.00     0.016 C 
HETATM    6  C10 UNL     1      -7.671   6.352  13.126  1.00  0.00     0.071 C 
HETATM    7  C11 UNL     1      -6.473   5.458  12.759  1.00  0.00     0.045 C 
HETATM    8  C12 UNL     1      -8.799   6.129  12.121  1.00  0.00     0.154 C 
HETATM    9  O3  UNL     1      -8.609   5.713  10.981  1.00  0.00    -0.293 OA
HETATM   10  C13 UNL     1     -10.179   6.500  12.497  1.00  0.00     0.057 C 
HETATM   11  C14 UNL     1     -10.481   6.889  13.743  1.00  0.00    -0.037 C 
HETATM   12  C15 UNL     1      -9.468   6.913  14.896  1.00  0.00     0.026 C 
HETATM   13  C16 UNL     1      -9.328   8.368  15.399  1.00  0.00     0.011 C 
HETATM   14  C17 UNL     1     -10.692   8.977  15.792  1.00  0.00     0.014 C 
HETATM   15  C18 UNL     1     -11.719   8.900  14.641  1.00  0.00    -0.002 C 
HETATM   16  C19 UNL     1     -11.247   9.853  13.507  1.00  0.00     0.019 C 
HETATM   17  C20 UNL     1     -13.213   9.144  15.043  1.00  0.00     0.034 C 
HETATM   18  C35 UNL     1     -14.003   8.504  13.869  1.00  0.00     0.012 C 
HETATM   19  C36 UNL     1     -13.034   7.503  13.185  1.00  0.00     0.044 C 
HETATM   20  C37 UNL     1     -11.837   7.419  14.141  1.00  0.00     0.089 C 
ENDROOT
BRANCH  17  21
HETATM   21  C21 UNL     1     -13.730  10.524  15.564  1.00  0.00     0.087 C 
HETATM   22  C22 UNL     1     -14.811  11.157  14.682  1.00  0.00     0.049 C 
BRANCH  21  23
HETATM   23  O4  UNL     1     -12.608  11.422  15.546  1.00  0.00    -0.387 OA
HETATM   24  H34 UNL     1     -11.850  10.991  15.969  1.00  0.00     0.210 HD
ENDBRANCH  21  23
BRANCH  21  25
HETATM   25  C23 UNL     1     -14.250  10.349  17.052  1.00  0.00     0.181 C 
BRANCH  25  26
HETATM   26  O5  UNL     1     -14.124  11.590  17.758  1.00  0.00    -0.390 OA
HETATM   27  H36 UNL     1     -14.998  11.830  18.111  1.00  0.00     0.210 HD
ENDBRANCH  25  26
BRANCH  25  28
HETATM   28  C24 UNL     1     -13.592   9.190  17.843  1.00  0.00     0.158 C 
HETATM   29  O6  UNL     1     -12.845   9.664  19.000  1.00  0.00    -0.373 OA
HETATM   30  C25 UNL     1     -12.857   8.580  19.933  1.00  0.00     0.185 C 
HETATM   31  C26 UNL     1     -14.287   8.106  19.870  1.00  0.00     0.028 C 
HETATM   32  C32 UNL     1     -12.478   8.933  21.376  1.00  0.00     0.384 C 
HETATM   33  C27 UNL     1     -14.412   6.841  20.688  1.00  0.00     0.053 C 
HETATM   34  C33 UNL     1     -14.496   8.028  18.365  1.00  0.00     0.020 C 
HETATM   35  C28 UNL     1     -13.936   7.104  22.137  1.00  0.00     0.309 C 
HETATM   36  N2  UNL     1     -12.622   7.779  22.248  1.00  0.00     0.128 N 
HETATM   37  H47 UNL     1     -11.887   7.113  22.009  1.00  0.00     0.320 HD
HETATM   38  C34 UNL     1     -15.965   8.004  17.959  1.00  0.00     0.013 C 
BRANCH  35  39
HETATM   39  C29 UNL     1     -13.838   5.738  22.841  1.00  0.00     0.233 C 
HETATM   40  O7  UNL     1     -13.121   5.550  23.827  1.00  0.00    -0.277 OA
HETATM   41  N1  UNL     1     -14.564   4.741  22.188  1.00  0.00    -0.249 NA
HETATM   42  C30 UNL     1     -13.979   3.448  21.968  1.00  0.00     0.113 A 
HETATM   43  C31 UNL     1     -15.083   3.634  22.944  1.00  0.00     0.113 A 
ENDBRANCH  35  39
BRANCH  32  44
HETATM   44  O8  UNL     1     -11.122   9.344  21.407  1.00  0.00    -0.366 OA
HETATM   45  H49 UNL     1     -11.051  10.026  20.711  1.00  0.00     0.212 HD
ENDBRANCH  32  44
ENDBRANCH  25  28
ENDBRANCH  21  25
ENDBRANCH  17  21
BRANCH  20  46
HETATM   46  O9  UNL     1     -12.279   6.555  15.208  1.00  0.00    -0.384 OA
HETATM   47  H58 UNL     1     -12.215   5.644  14.874  1.00  0.00     0.211 HD
ENDBRANCH  20  46
BRANCH   1  48
HETATM   48  O2  UNL     1      -5.513   3.256  12.847  1.00  0.00    -0.386 OA
BRANCH  48  49
HETATM   49  C4  UNL     1      -4.899   3.495  11.579  1.00  0.00     0.170 C 
BRANCH  49  50
HETATM   50  C3  UNL     1      -3.414   3.176  11.693  1.00  0.00     0.052 C 
BRANCH  50  51
HETATM   51  C2  UNL     1      -2.681   3.487  10.391  1.00  0.00     0.169 C 
BRANCH  51  52
HETATM   52  O1  UNL     1      -1.352   2.963  10.435  1.00  0.00    -0.396 OA
HETATM   53  C1  UNL     1      -1.315   1.607  10.870  1.00  0.00     0.201 C 
ENDBRANCH  51  52
ENDBRANCH  50  51
ENDBRANCH  49  50
ENDBRANCH  48  49
ENDBRANCH   1  48
TORSDOF 13
ENDMDL
MODEL 8
REMARK minimizedAffinity -9.1042881
REMARK CNNscore 0.317589879
REMARK CNNaffinity 7.16031122
REMARK  13 active torsions:
REMARK  status: ('A' for Active; 'I' for Inactive)
REMARK    1  A    between atoms: O1_2  and  C2_3 
REMARK    2  A    between atoms: C2_3  and  C3_4 
REMARK    3  A    between atoms: C3_4  and  C4_5 
REMARK    4  A    between atoms: C4_5  and  O2_6 
REMARK    5  A    between atoms: O2_6  and  C5_7 
REMARK    6  A    between atoms: C20_23  and  C21_24 
REMARK    7  A    between atoms: C21_24  and  O4_26 
REMARK    8  A    between atoms: C21_24  and  C23_27 
REMARK    9  A    between atoms: C23_27  and  O5_28 
REMARK   10  A    between atoms: C23_27  and  C24_29 
REMARK   11  A    between atoms: C28_34  and  C29_35 
REMARK       I    between atoms: C29_35  and  N1_37 
REMARK   12  A    between atoms: C32_41  and  O8_42 
REMARK   13  A    between atoms: C37_47  and  O9_48 
ROOT
HETATM    1  C5  UNL     1       4.009   8.922  12.554  1.00  0.00     0.122 C 
HETATM    2  C6  UNL     1       3.320   8.693  11.210  1.00  0.00     0.033 C 
HETATM    3  C7  UNL     1       1.820   8.479  11.360  1.00  0.00     0.013 C 
HETATM    4  C8  UNL     1       1.438   7.352  12.375  1.00  0.00    -0.026 C 
HETATM    5  C9  UNL     1       1.928   5.993  11.807  1.00  0.00     0.016 C 
HETATM    6  C10 UNL     1       2.136   7.642  13.732  1.00  0.00     0.071 C 
HETATM    7  C11 UNL     1       3.655   7.836  13.572  1.00  0.00     0.045 C 
HETATM    8  C12 UNL     1       1.541   8.853  14.447  1.00  0.00     0.154 C 
HETATM    9  O3  UNL     1       2.196   9.583  15.188  1.00  0.00    -0.293 OA
HETATM   10  C13 UNL     1       0.095   9.124  14.317  1.00  0.00     0.057 C 
HETATM   11  C14 UNL     1      -0.673   8.422  13.473  1.00  0.00    -0.037 C 
HETATM   12  C15 UNL     1      -0.129   7.345  12.523  1.00  0.00     0.026 C 
HETATM   13  C16 UNL     1      -0.785   5.993  12.884  1.00  0.00     0.011 C 
HETATM   14  C17 UNL     1      -2.328   6.077  12.867  1.00  0.00     0.014 C 
HETATM   15  C18 UNL     1      -2.861   7.198  13.786  1.00  0.00    -0.002 C 
HETATM   16  C19 UNL     1      -2.569   6.797  15.259  1.00  0.00     0.019 C 
HETATM   17  C20 UNL     1      -4.357   7.608  13.563  1.00  0.00     0.034 C 
HETATM   18  C35 UNL     1      -4.432   9.023  14.201  1.00  0.00     0.012 C 
HETATM   19  C36 UNL     1      -2.978   9.559  14.249  1.00  0.00     0.044 C 
HETATM   20  C37 UNL     1      -2.175   8.556  13.409  1.00  0.00     0.089 C 
ENDROOT
BRANCH  17  21
HETATM   21  C21 UNL     1      -5.547   6.641  13.861  1.00  0.00     0.087 C 
HETATM   22  C22 UNL     1      -5.211   5.160  13.659  1.00  0.00     0.049 C 
BRANCH  21  23
HETATM   23  O4  UNL     1      -6.587   6.958  12.921  1.00  0.00    -0.387 OA
HETATM   24  H34 UNL     1      -6.725   7.918  12.914  1.00  0.00     0.210 HD
ENDBRANCH  21  23
BRANCH  21  25
HETATM   25  C23 UNL     1      -6.064   6.903  15.338  1.00  0.00     0.181 C 
BRANCH  25  26
HETATM   26  O5  UNL     1      -5.212   6.234  16.275  1.00  0.00    -0.390 OA
HETATM   27  H36 UNL     1      -4.880   6.893  16.910  1.00  0.00     0.210 HD
ENDBRANCH  25  26
BRANCH  25  28
HETATM   28  C24 UNL     1      -7.552   6.545  15.583  1.00  0.00     0.158 C 
HETATM   29  O6  UNL     1      -8.267   7.603  16.284  1.00  0.00    -0.373 OA
HETATM   30  C25 UNL     1      -9.634   7.467  15.889  1.00  0.00     0.185 C 
HETATM   31  C26 UNL     1      -9.528   7.232  14.404  1.00  0.00     0.028 C 
HETATM   32  C32 UNL     1     -10.538   8.673  16.173  1.00  0.00     0.384 C 
HETATM   33  C27 UNL     1     -10.901   6.899  13.868  1.00  0.00     0.053 C 
HETATM   34  C33 UNL     1      -8.446   6.163  14.361  1.00  0.00     0.020 C 
HETATM   35  C28 UNL     1     -11.891   8.034  14.220  1.00  0.00     0.309 C 
HETATM   36  N2  UNL     1     -11.873   8.458  15.640  1.00  0.00     0.128 N 
HETATM   37  H47 UNL     1     -12.323   7.738  16.205  1.00  0.00     0.320 HD
HETATM   38  C34 UNL     1      -7.791   6.021  12.991  1.00  0.00     0.013 C 
BRANCH  35  39
HETATM   39  C29 UNL     1     -13.307   7.526  13.887  1.00  0.00     0.233 C 
HETATM   40  O7  UNL     1     -13.519   6.684  13.010  1.00  0.00    -0.277 OA
HETATM   41  N1  UNL     1     -14.301   8.186  14.609  1.00  0.00    -0.249 NA
HETATM   42  C30 UNL     1     -15.490   8.646  13.947  1.00  0.00     0.113 A 
HETATM   43  C31 UNL     1     -15.534   7.505  14.899  1.00  0.00     0.113 A 
ENDBRANCH  35  39
BRANCH  32  44
HETATM   44  O8  UNL     1     -10.644   8.848  17.574  1.00  0.00    -0.366 OA
HETATM   45  H49 UNL     1      -9.722   8.853  17.897  1.00  0.00     0.212 HD
ENDBRANCH  32  44
ENDBRANCH  25  28
ENDBRANCH  21  25
ENDBRANCH  17  21
BRANCH  20  46
HETATM   46  O9  UNL     1      -2.462   8.910  12.041  1.00  0.00    -0.384 OA
HETATM   47  H58 UNL     1      -1.915   9.687  11.833  1.00  0.00     0.211 HD
ENDBRANCH  20  46
BRANCH   1  48
HETATM   48  O2  UNL     1       5.423   8.882  12.323  1.00  0.00    -0.386 OA
BRANCH  48  49
HETATM   49  C4  UNL     1       6.186   8.975  13.527  1.00  0.00     0.170 C 
BRANCH  49  50
HETATM   50  C3  UNL     1       7.276   7.912  13.491  1.00  0.00     0.052 C 
BRANCH  50  51
HETATM   51  C2  UNL     1       8.484   8.331  14.325  1.00  0.00     0.169 C 
BRANCH  51  52
HETATM   52  O1  UNL     1       9.608   8.578  13.478  1.00  0.00    -0.396 OA
HETATM   53  C1  UNL     1      10.814   8.029  13.998  1.00  0.00     0.201 C 
ENDBRANCH  51  52
ENDBRANCH  50  51
ENDBRANCH  49  50
ENDBRANCH  48  49
ENDBRANCH   1  48
TORSDOF 13
ENDMDL
MODEL 9
REMARK minimizedAffinity -9.00773525
REMARK CNNscore 0.302604258
REMARK CNNaffinity 6.98085165
REMARK  13 active torsions:
REMARK  status: ('A' for Active; 'I' for Inactive)
REMARK    1  A    between atoms: O1_2  and  C2_3 
REMARK    2  A    between atoms: C2_3  and  C3_4 
REMARK    3  A    between atoms: C3_4  and  C4_5 
REMARK    4  A    between atoms: C4_5  and  O2_6 
REMARK    5  A    between atoms: O2_6  and  C5_7 
REMARK    6  A    between atoms: C20_23  and  C21_24 
REMARK    7  A    between atoms: C21_24  and  O4_26 
REMARK    8  A    between atoms: C21_24  and  C23_27 
REMARK    9  A    between atoms: C23_27  and  O5_28 
REMARK   10  A    between atoms: C23_27  and  C24_29 
REMARK   11  A    between atoms: C28_34  and  C29_35 
REMARK       I    between atoms: C29_35  and  N1_37 
REMARK   12  A    between atoms: C32_41  and  O8_42 
REMARK   13  A    between atoms: C37_47  and  O9_48 
ROOT
HETATM    1  C5  UNL     1      -5.135   7.192  14.813  1.00  0.00     0.122 C 
HETATM    2  C6  UNL     1      -4.393   6.003  15.421  1.00  0.00     0.033 C 
HETATM    3  C7  UNL     1      -2.881   6.182  15.372  1.00  0.00     0.013 C 
HETATM    4  C8  UNL     1      -2.326   6.509  13.948  1.00  0.00    -0.026 C 
HETATM    5  C9  UNL     1      -2.559   5.275  13.035  1.00  0.00     0.016 C 
HETATM    6  C10 UNL     1      -3.088   7.738  13.383  1.00  0.00     0.071 C 
HETATM    7  C11 UNL     1      -4.614   7.540  13.417  1.00  0.00     0.045 C 
HETATM    8  C12 UNL     1      -2.727   9.033  14.109  1.00  0.00     0.154 C 
HETATM    9  O3  UNL     1      -3.513   9.968  14.243  1.00  0.00    -0.293 OA
HETATM   10  C13 UNL     1      -1.349   9.216  14.608  1.00  0.00     0.057 C 
HETATM   11  C14 UNL     1      -0.455   8.219  14.568  1.00  0.00    -0.037 C 
HETATM   12  C15 UNL     1      -0.784   6.799  14.084  1.00  0.00     0.026 C 
HETATM   13  C16 UNL     1       0.093   6.483  12.851  1.00  0.00     0.011 C 
HETATM   14  C17 UNL     1       1.596   6.677  13.148  1.00  0.00     0.014 C 
HETATM   15  C18 UNL     1       1.908   8.091  13.683  1.00  0.00    -0.002 C 
HETATM   16  C19 UNL     1       1.665   9.109  12.533  1.00  0.00     0.019 C 
HETATM   17  C20 UNL     1       3.312   8.272  14.354  1.00  0.00     0.034 C 
HETATM   18  C35 UNL     1       3.127   9.549  15.218  1.00  0.00     0.012 C 
HETATM   19  C36 UNL     1       1.600   9.710  15.440  1.00  0.00     0.044 C 
HETATM   20  C37 UNL     1       1.001   8.394  14.925  1.00  0.00     0.089 C 
ENDROOT
BRANCH  17  21
HETATM   21  C21 UNL     1       4.649   8.157  13.552  1.00  0.00     0.087 C 
HETATM   22  C22 UNL     1       4.975   9.393  12.707  1.00  0.00     0.049 C 
BRANCH  21  23
HETATM   23  O4  UNL     1       4.491   7.063  12.634  1.00  0.00    -0.387 OA
HETATM   24  H34 UNL     1       4.139   6.297  13.113  1.00  0.00     0.210 HD
ENDBRANCH  21  23
BRANCH  21  25
HETATM   25  C23 UNL     1       5.829   7.840  14.563  1.00  0.00     0.181 C 
BRANCH  25  26
HETATM   26  O5  UNL     1       5.316   7.131  15.697  1.00  0.00    -0.390 OA
HETATM   27  H36 UNL     1       5.812   6.298  15.786  1.00  0.00     0.210 HD
ENDBRANCH  25  26
BRANCH  25  28
HETATM   28  C24 UNL     1       6.660   9.071  15.005  1.00  0.00     0.158 C 
HETATM   29  O6  UNL     1       6.184   9.639  16.259  1.00  0.00    -0.373 OA
HETATM   30  C25 UNL     1       7.322  10.271  16.849  1.00  0.00     0.185 C 
HETATM   31  C26 UNL     1       8.414   9.253  16.635  1.00  0.00     0.028 C 
HETATM   32  C32 UNL     1       7.202  10.615  18.338  1.00  0.00     0.384 C 
HETATM   33  C27 UNL     1       9.730   9.860  17.062  1.00  0.00     0.053 C 
HETATM   34  C33 UNL     1       8.206   8.916  15.166  1.00  0.00     0.020 C 
HETATM   35  C28 UNL     1       9.638  10.332  18.532  1.00  0.00     0.309 C 
HETATM   36  N2  UNL     1       8.450  11.160  18.848  1.00  0.00     0.128 N 
HETATM   37  H47 UNL     1       8.576  12.086  18.441  1.00  0.00     0.320 HD
HETATM   38  C34 UNL     1       8.857   7.602  14.749  1.00  0.00     0.013 C 
BRANCH  35  39
HETATM   39  C29 UNL     1      10.899  11.167  18.825  1.00  0.00     0.233 C 
HETATM   40  O7  UNL     1      11.488  11.122  19.908  1.00  0.00    -0.277 OA
HETATM   41  N1  UNL     1      11.230  12.030  17.779  1.00  0.00    -0.249 NA
HETATM   42  C30 UNL     1      11.587  13.394  18.053  1.00  0.00     0.113 A 
HETATM   43  C31 UNL     1      12.602  12.414  17.587  1.00  0.00     0.113 A 
ENDBRANCH  35  39
BRANCH  32  44
HETATM   44  O8  UNL     1       6.193  11.596  18.503  1.00  0.00    -0.366 OA
HETATM   45  H49 UNL     1       5.417  11.238  18.028  1.00  0.00     0.212 HD
ENDBRANCH  32  44
ENDBRANCH  25  28
ENDBRANCH  21  25
ENDBRANCH  17  21
BRANCH  20  46
HETATM   46  O9  UNL     1       1.246   7.441  15.979  1.00  0.00    -0.384 OA
HETATM   47  H58 UNL     1       0.575   7.604  16.664  1.00  0.00     0.211 HD
ENDBRANCH  20  46
BRANCH   1  48
HETATM   48  O2  UNL     1      -6.515   6.823  14.702  1.00  0.00    -0.386 OA
BRANCH  48  49
HETATM   49  C4  UNL     1      -6.900   5.817  15.641  1.00  0.00     0.170 C 
BRANCH  49  50
HETATM   50  C3  UNL     1      -7.607   4.698  14.889  1.00  0.00     0.052 C 
BRANCH  50  51
HETATM   51  C2  UNL     1      -7.755   5.036  13.408  1.00  0.00     0.169 C 
BRANCH  51  52
HETATM   52  O1  UNL     1      -8.269   3.910  12.693  1.00  0.00    -0.396 OA
HETATM   53  C1  UNL     1      -7.568   2.707  12.994  1.00  0.00     0.201 C 
ENDBRANCH  51  52
ENDBRANCH  50  51
ENDBRANCH  49  50
ENDBRANCH  48  49
ENDBRANCH   1  48
TORSDOF 13
ENDMDL
