MODEL 1
REMARK minimizedAffinity -7.65342188
REMARK CNNscore 0.589732885
REMARK CNNaffinity 6.17540884
REMARK  10 active torsions:
REMARK  status: ('A' for Active; 'I' for Inactive)
REMARK    1  A    between atoms: C3_3  and  O1_4 
REMARK    2  A    between atoms: N1_14  and  O2_16 
REMARK    3  A    between atoms: O2_16  and  C13_17 
REMARK    4  A    between atoms: C13_17  and  C14_18 
REMARK       I    between atoms: C14_18  and  N2_20 
REMARK    5  A    between atoms: N2_20  and  C15_21 
REMARK    6  A    between atoms: C15_21  and  C16_22 
REMARK       I    between atoms: C16_22  and  N3_24 
REMARK    7  A    between atoms: N3_24  and  C17_25 
REMARK    8  A    between atoms: C17_25  and  C18_26 
REMARK    9  A    between atoms: C17_25  and  C19_29 
REMARK   10  A    between atoms: C18_26  and  O6_28 
ROOT
HETATM    1  C1  UNL     1      -0.644  52.233 -22.688  1.00  0.00     0.015 C 
HETATM    2  C2  UNL     1      -1.169  51.204 -22.357  1.00  0.00    -0.078 C 
HETATM    3  C3  UNL     1      -1.800  49.933 -21.968  1.00  0.00     0.128 C 
HETATM    4  C4  UNL     1      -0.834  49.017 -21.209  1.00  0.00     0.052 C 
HETATM    5  C5  UNL     1      -1.755  47.950 -20.626  1.00  0.00     0.010 C 
HETATM    6  C6  UNL     1      -3.010  48.725 -20.194  1.00  0.00     0.002 C 
HETATM    7  C7  UNL     1      -4.340  47.938 -20.201  1.00  0.00    -0.004 C 
HETATM    8  C8  UNL     1      -4.612  47.041 -21.422  1.00  0.00     0.010 C 
HETATM    9  C9  UNL     1      -6.042  47.072 -21.983  1.00  0.00     0.035 C 
HETATM   10  C10 UNL     1      -7.163  47.309 -21.000  1.00  0.00    -0.069 C 
HETATM   11  C11 UNL     1      -8.410  46.902 -21.300  1.00  0.00     0.030 C 
HETATM   12  C12 UNL     1      -9.570  47.243 -20.433  1.00  0.00     0.032 C 
HETATM   13  N1  UNL     1     -10.683  46.595 -20.634  1.00  0.00    -0.271 N 
ATOM     14  H1  UNL     1     -10.795  45.841 -21.312  1.00  0.00     0.194 HD
HETATM   15  C22 UNL     1      -9.404  48.316 -19.367  1.00  0.00     0.060 C 
HETATM   16  C23 UNL     1      -8.055  49.030 -19.428  1.00  0.00     0.020 C 
HETATM   17  C24 UNL     1      -6.865  48.082 -19.726  1.00  0.00    -0.016 C 
HETATM   18  C25 UNL     1      -6.733  47.063 -18.558  1.00  0.00     0.020 C 
HETATM   19  C26 UNL     1      -5.524  48.886 -19.877  1.00  0.00     0.002 C 
HETATM   20  C27 UNL     1      -5.602  50.078 -20.868  1.00  0.00     0.007 C 
HETATM   21  C28 UNL     1      -4.355  50.294 -21.732  1.00  0.00     0.014 C 
HETATM   22  C29 UNL     1      -3.020  50.071 -20.994  1.00  0.00     0.003 C 
HETATM   23  C30 UNL     1      -2.818  51.229 -19.976  1.00  0.00     0.020 C 
ENDROOT
BRANCH   3  24
HETATM   24  O1  UNL     1      -2.178  49.239 -23.163  1.00  0.00    -0.377 OA
HETATM   25  H2  UNL     1      -1.446  49.345 -23.793  1.00  0.00     0.211 HD
ENDBRANCH   3  24
BRANCH  13  26
HETATM   26  O2  UNL     1     -11.709  47.066 -19.799  1.00  0.00    -0.271 OA
BRANCH  26  27
HETATM   27  C13 UNL     1     -12.945  46.502 -20.210  1.00  0.00     0.303 C 
BRANCH  27  28
HETATM   28  C14 UNL     1     -13.756  47.338 -21.211  1.00  0.00     0.244 C 
HETATM   29  O3  UNL     1     -14.115  48.495 -21.021  1.00  0.00    -0.271 OA
HETATM   30  N2  UNL     1     -14.053  46.640 -22.374  1.00  0.00    -0.350 N 
HETATM   31  H16 UNL     1     -14.107  45.629 -22.287  1.00  0.00     0.163 HD
BRANCH  30  32
HETATM   32  C15 UNL     1     -14.896  47.237 -23.392  1.00  0.00     0.225 C 
BRANCH  32  33
HETATM   33  C16 UNL     1     -15.810  46.189 -24.035  1.00  0.00     0.236 C 
HETATM   34  O4  UNL     1     -15.535  45.604 -25.084  1.00  0.00    -0.272 OA
HETATM   35  N3  UNL     1     -16.997  45.996 -23.351  1.00  0.00    -0.345 N 
HETATM   36  H19 UNL     1     -17.258  46.716 -22.690  1.00  0.00     0.163 HD
BRANCH  35  37
HETATM   37  C17 UNL     1     -18.101  45.250 -23.972  1.00  0.00     0.185 C 
BRANCH  37  38
HETATM   38  C18 UNL     1     -18.753  46.178 -25.001  1.00  0.00     0.163 C 
HETATM   39  O5  UNL     1     -19.301  47.246 -24.761  1.00  0.00    -0.648 OA
BRANCH  38  40
HETATM   40  O6  UNL     1     -18.692  45.716 -26.263  1.00  0.00    -0.775 OA
HETATM   41  H21 UNL     1     -19.133  46.410 -26.799  1.00  0.00     0.167 HD
ENDBRANCH  38  40
ENDBRANCH  37  38
BRANCH  37  42
HETATM   42  C19 UNL     1     -19.087  44.736 -22.902  1.00  0.00     0.010 C 
HETATM   43  C20 UNL     1     -20.472  44.469 -23.501  1.00  0.00     0.012 C 
HETATM   44  C21 UNL     1     -19.211  45.657 -21.684  1.00  0.00     0.012 C 
ENDBRANCH  37  42
ENDBRANCH  35  37
ENDBRANCH  32  33
ENDBRANCH  30  32
ENDBRANCH  27  28
ENDBRANCH  26  27
ENDBRANCH  13  26
TORSDOF 10
ENDMDL
MODEL 2
REMARK minimizedAffinity -8.09653378
REMARK CNNscore 0.478860795
REMARK CNNaffinity 6.38237572
REMARK  10 active torsions:
REMARK  status: ('A' for Active; 'I' for Inactive)
REMARK    1  A    between atoms: C3_3  and  O1_4 
REMARK    2  A    between atoms: N1_14  and  O2_16 
REMARK    3  A    between atoms: O2_16  and  C13_17 
REMARK    4  A    between atoms: C13_17  and  C14_18 
REMARK       I    between atoms: C14_18  and  N2_20 
REMARK    5  A    between atoms: N2_20  and  C15_21 
REMARK    6  A    between atoms: C15_21  and  C16_22 
REMARK       I    between atoms: C16_22  and  N3_24 
REMARK    7  A    between atoms: N3_24  and  C17_25 
REMARK    8  A    between atoms: C17_25  and  C18_26 
REMARK    9  A    between atoms: C17_25  and  C19_29 
REMARK   10  A    between atoms: C18_26  and  O6_28 
ROOT
HETATM    1  C1  UNL     1       1.392  51.061 -26.361  1.00  0.00     0.015 C 
HETATM    2  C2  UNL     1       0.300  51.350 -25.949  1.00  0.00    -0.078 C 
HETATM    3  C3  UNL     1      -1.029  51.726 -25.441  1.00  0.00     0.128 C 
HETATM    4  C4  UNL     1      -1.814  52.573 -26.448  1.00  0.00     0.052 C 
HETATM    5  C5  UNL     1      -3.231  52.559 -25.882  1.00  0.00     0.010 C 
HETATM    6  C6  UNL     1      -3.416  51.125 -25.358  1.00  0.00     0.002 C 
HETATM    7  C7  UNL     1      -4.398  50.946 -24.178  1.00  0.00    -0.004 C 
HETATM    8  C8  UNL     1      -4.300  51.968 -23.031  1.00  0.00     0.010 C 
HETATM    9  C9  UNL     1      -4.401  51.401 -21.606  1.00  0.00     0.035 C 
HETATM   10  C10 UNL     1      -5.265  50.179 -21.410  1.00  0.00    -0.069 C 
HETATM   11  C11 UNL     1      -5.770  49.908 -20.193  1.00  0.00     0.030 C 
HETATM   12  C12 UNL     1      -6.501  48.641 -19.918  1.00  0.00     0.032 C 
HETATM   13  N1  UNL     1      -7.188  48.570 -18.812  1.00  0.00    -0.271 N 
ATOM     14  H1  UNL     1      -7.293  49.340 -18.151  1.00  0.00     0.194 HD
HETATM   15  C22 UNL     1      -6.414  47.505 -20.926  1.00  0.00     0.060 C 
HETATM   16  C23 UNL     1      -5.432  47.777 -22.064  1.00  0.00     0.020 C 
HETATM   17  C24 UNL     1      -5.473  49.236 -22.584  1.00  0.00    -0.016 C 
HETATM   18  C25 UNL     1      -6.879  49.512 -23.188  1.00  0.00     0.020 C 
HETATM   19  C26 UNL     1      -4.372  49.478 -23.679  1.00  0.00     0.002 C 
HETATM   20  C27 UNL     1      -2.946  49.031 -23.262  1.00  0.00     0.007 C 
HETATM   21  C28 UNL     1      -1.810  49.951 -23.722  1.00  0.00     0.014 C 
HETATM   22  C29 UNL     1      -1.988  50.523 -25.143  1.00  0.00     0.003 C 
HETATM   23  C30 UNL     1      -1.800  49.368 -26.168  1.00  0.00     0.020 C 
ENDROOT
BRANCH   3  24
HETATM   24  O1  UNL     1      -0.847  52.533 -24.272  1.00  0.00    -0.377 OA
HETATM   25  H2  UNL     1      -0.114  53.143 -24.462  1.00  0.00     0.211 HD
ENDBRANCH   3  24
BRANCH  13  26
HETATM   26  O2  UNL     1      -7.765  47.301 -18.647  1.00  0.00    -0.271 OA
BRANCH  26  27
HETATM   27  C13 UNL     1      -9.168  47.441 -18.481  1.00  0.00     0.303 C 
BRANCH  27  28
HETATM   28  C14 UNL     1      -9.992  47.451 -19.776  1.00  0.00     0.244 C 
HETATM   29  O3  UNL     1      -9.586  47.867 -20.856  1.00  0.00    -0.271 OA
HETATM   30  N2  UNL     1     -11.270  46.939 -19.601  1.00  0.00    -0.350 N 
HETATM   31  H16 UNL     1     -11.661  47.020 -18.666  1.00  0.00     0.163 HD
BRANCH  30  32
HETATM   32  C15 UNL     1     -12.224  46.960 -20.692  1.00  0.00     0.225 C 
BRANCH  32  33
HETATM   33  C16 UNL     1     -13.469  47.772 -20.321  1.00  0.00     0.236 C 
HETATM   34  O4  UNL     1     -13.533  48.999 -20.425  1.00  0.00    -0.272 OA
HETATM   35  N3  UNL     1     -14.500  47.003 -19.811  1.00  0.00    -0.345 N 
HETATM   36  H19 UNL     1     -14.253  46.075 -19.492  1.00  0.00     0.163 HD
BRANCH  35  37
HETATM   37  C17 UNL     1     -15.645  47.639 -19.145  1.00  0.00     0.185 C 
BRANCH  37  38
HETATM   38  C18 UNL     1     -15.185  48.044 -17.741  1.00  0.00     0.163 C 
HETATM   39  O5  UNL     1     -14.693  47.300 -16.903  1.00  0.00    -0.648 OA
BRANCH  38  40
HETATM   40  O6  UNL     1     -15.375  49.346 -17.464  1.00  0.00    -0.775 OA
HETATM   41  H21 UNL     1     -15.029  49.454 -16.551  1.00  0.00     0.167 HD
ENDBRANCH  38  40
ENDBRANCH  37  38
BRANCH  37  42
HETATM   42  C19 UNL     1     -16.869  46.699 -19.139  1.00  0.00     0.010 C 
HETATM   43  C20 UNL     1     -16.456  45.247 -18.872  1.00  0.00     0.012 C 
HETATM   44  C21 UNL     1     -17.713  46.777 -20.415  1.00  0.00     0.012 C 
ENDBRANCH  37  42
ENDBRANCH  35  37
ENDBRANCH  32  33
ENDBRANCH  30  32
ENDBRANCH  27  28
ENDBRANCH  26  27
ENDBRANCH  13  26
TORSDOF 10
ENDMDL
MODEL 3
REMARK minimizedAffinity -7.88640213
REMARK CNNscore 0.437434167
REMARK CNNaffinity 5.87704659
REMARK  10 active torsions:
REMARK  status: ('A' for Active; 'I' for Inactive)
REMARK    1  A    between atoms: C3_3  and  O1_4 
REMARK    2  A    between atoms: N1_14  and  O2_16 
REMARK    3  A    between atoms: O2_16  and  C13_17 
REMARK    4  A    between atoms: C13_17  and  C14_18 
REMARK       I    between atoms: C14_18  and  N2_20 
REMARK    5  A    between atoms: N2_20  and  C15_21 
REMARK    6  A    between atoms: C15_21  and  C16_22 
REMARK       I    between atoms: C16_22  and  N3_24 
REMARK    7  A    between atoms: N3_24  and  C17_25 
REMARK    8  A    between atoms: C17_25  and  C18_26 
REMARK    9  A    between atoms: C17_25  and  C19_29 
REMARK   10  A    between atoms: C18_26  and  O6_28 
ROOT
HETATM    1  C1  UNL     1      -3.995  48.729 -33.966  1.00  0.00     0.015 C 
HETATM    2  C2  UNL     1      -4.684  47.875 -33.476  1.00  0.00    -0.078 C 
HETATM    3  C3  UNL     1      -5.527  46.818 -32.896  1.00  0.00     0.128 C 
HETATM    4  C4  UNL     1      -4.731  45.544 -32.596  1.00  0.00     0.052 C 
HETATM    5  C5  UNL     1      -5.685  44.738 -31.719  1.00  0.00     0.010 C 
HETATM    6  C6  UNL     1      -6.350  45.789 -30.815  1.00  0.00     0.002 C 
HETATM    7  C7  UNL     1      -7.775  45.462 -30.315  1.00  0.00    -0.004 C 
HETATM    8  C8  UNL     1      -8.761  44.890 -31.349  1.00  0.00     0.010 C 
HETATM    9  C9  UNL     1     -10.192  45.447 -31.304  1.00  0.00     0.035 C 
HETATM   10  C10 UNL     1     -10.726  45.866 -29.956  1.00  0.00    -0.069 C 
HETATM   11  C11 UNL     1     -12.055  45.916 -29.751  1.00  0.00     0.030 C 
HETATM   12  C12 UNL     1     -12.629  46.463 -28.492  1.00  0.00     0.032 C 
HETATM   13  N1  UNL     1     -13.889  46.230 -28.253  1.00  0.00    -0.271 N 
ATOM     14  H1  UNL     1     -14.491  45.660 -28.848  1.00  0.00     0.194 HD
HETATM   15  C22 UNL     1     -11.730  47.257 -27.555  1.00  0.00     0.060 C 
HETATM   16  C23 UNL     1     -10.338  47.518 -28.126  1.00  0.00     0.020 C 
HETATM   17  C24 UNL     1      -9.741  46.306 -28.885  1.00  0.00    -0.016 C 
HETATM   18  C25 UNL     1      -9.555  45.131 -27.883  1.00  0.00     0.020 C 
HETATM   19  C26 UNL     1      -8.358  46.669 -29.534  1.00  0.00     0.002 C 
HETATM   20  C27 UNL     1      -8.373  47.963 -30.391  1.00  0.00     0.007 C 
HETATM   21  C28 UNL     1      -7.531  47.912 -31.671  1.00  0.00     0.014 C 
HETATM   22  C29 UNL     1      -6.184  47.176 -31.520  1.00  0.00     0.003 C 
HETATM   23  C30 UNL     1      -5.242  48.047 -30.640  1.00  0.00     0.020 C 
ENDROOT
BRANCH   3  24
HETATM   24  O1  UNL     1      -6.526  46.465 -33.860  1.00  0.00    -0.377 OA
HETATM   25  H2  UNL     1      -6.084  46.434 -34.726  1.00  0.00     0.211 HD
ENDBRANCH   3  24
BRANCH  13  26
HETATM   26  O2  UNL     1     -14.314  46.862 -27.073  1.00  0.00    -0.271 OA
BRANCH  26  27
HETATM   27  C13 UNL     1     -14.957  45.912 -26.237  1.00  0.00     0.303 C 
BRANCH  27  28
HETATM   28  C14 UNL     1     -15.933  46.491 -25.203  1.00  0.00     0.244 C 
HETATM   29  O3  UNL     1     -15.714  47.484 -24.519  1.00  0.00    -0.271 OA
HETATM   30  N2  UNL     1     -17.112  45.762 -25.113  1.00  0.00    -0.350 N 
HETATM   31  H16 UNL     1     -17.049  44.778 -25.363  1.00  0.00     0.163 HD
BRANCH  30  32
HETATM   32  C15 UNL     1     -18.110  46.102 -24.119  1.00  0.00     0.225 C 
BRANCH  32  33
HETATM   33  C16 UNL     1     -17.740  45.532 -22.746  1.00  0.00     0.236 C 
HETATM   34  O4  UNL     1     -17.037  44.531 -22.597  1.00  0.00    -0.272 OA
HETATM   35  N3  UNL     1     -18.309  46.219 -21.689  1.00  0.00    -0.345 N 
HETATM   36  H19 UNL     1     -19.090  46.824 -21.914  1.00  0.00     0.163 HD
BRANCH  35  37
HETATM   37  C17 UNL     1     -18.296  45.648 -20.335  1.00  0.00     0.185 C 
BRANCH  37  38
HETATM   38  C18 UNL     1     -19.565  44.802 -20.188  1.00  0.00     0.163 C 
HETATM   39  O5  UNL     1     -20.137  44.542 -19.138  1.00  0.00    -0.648 OA
BRANCH  38  40
HETATM   40  O6  UNL     1     -20.035  44.324 -21.353  1.00  0.00    -0.775 OA
HETATM   41  H21 UNL     1     -20.840  43.820 -21.104  1.00  0.00     0.167 HD
ENDBRANCH  38  40
ENDBRANCH  37  38
BRANCH  37  42
HETATM   42  C19 UNL     1     -18.176  46.759 -19.271  1.00  0.00     0.010 C 
HETATM   43  C20 UNL     1     -19.188  47.882 -19.521  1.00  0.00     0.012 C 
HETATM   44  C21 UNL     1     -16.766  47.343 -19.146  1.00  0.00     0.012 C 
ENDBRANCH  37  42
ENDBRANCH  35  37
ENDBRANCH  32  33
ENDBRANCH  30  32
ENDBRANCH  27  28
ENDBRANCH  26  27
ENDBRANCH  13  26
TORSDOF 10
ENDMDL
MODEL 4
REMARK minimizedAffinity -8.63052177
REMARK CNNscore 0.435717344
REMARK CNNaffinity 6.07696009
REMARK  10 active torsions:
REMARK  status: ('A' for Active; 'I' for Inactive)
REMARK    1  A    between atoms: C3_3  and  O1_4 
REMARK    2  A    between atoms: N1_14  and  O2_16 
REMARK    3  A    between atoms: O2_16  and  C13_17 
REMARK    4  A    between atoms: C13_17  and  C14_18 
REMARK       I    between atoms: C14_18  and  N2_20 
REMARK    5  A    between atoms: N2_20  and  C15_21 
REMARK    6  A    between atoms: C15_21  and  C16_22 
REMARK       I    between atoms: C16_22  and  N3_24 
REMARK    7  A    between atoms: N3_24  and  C17_25 
REMARK    8  A    between atoms: C17_25  and  C18_26 
REMARK    9  A    between atoms: C17_25  and  C19_29 
REMARK   10  A    between atoms: C18_26  and  O6_28 
ROOT
HETATM    1  C1  UNL     1       0.125  53.419 -20.406  1.00  0.00     0.015 C 
HETATM    2  C2  UNL     1      -0.286  52.353 -20.780  1.00  0.00    -0.078 C 
HETATM    3  C3  UNL     1      -0.771  51.047 -21.251  1.00  0.00     0.128 C 
HETATM    4  C4  UNL     1       0.052  49.886 -20.684  1.00  0.00     0.052 C 
HETATM    5  C5  UNL     1      -0.801  48.664 -21.012  1.00  0.00     0.010 C 
HETATM    6  C6  UNL     1      -2.245  49.132 -20.769  1.00  0.00     0.002 C 
HETATM    7  C7  UNL     1      -3.343  48.436 -21.604  1.00  0.00    -0.004 C 
HETATM    8  C8  UNL     1      -3.051  48.228 -23.101  1.00  0.00     0.010 C 
HETATM    9  C9  UNL     1      -4.213  48.513 -24.066  1.00  0.00     0.035 C 
HETATM   10  C10 UNL     1      -5.610  48.246 -23.561  1.00  0.00    -0.069 C 
HETATM   11  C11 UNL     1      -6.605  48.024 -24.438  1.00  0.00     0.030 C 
HETATM   12  C12 UNL     1      -8.021  47.903 -23.996  1.00  0.00     0.032 C 
HETATM   13  N1  UNL     1      -8.880  47.423 -24.850  1.00  0.00    -0.271 N 
ATOM     14  H1  UNL     1      -8.636  47.083 -25.781  1.00  0.00     0.194 HD
HETATM   15  C22 UNL     1      -8.393  48.340 -22.587  1.00  0.00     0.060 C 
HETATM   16  C23 UNL     1      -7.243  49.004 -21.832  1.00  0.00     0.020 C 
HETATM   17  C24 UNL     1      -5.872  48.320 -22.065  1.00  0.00    -0.016 C 
HETATM   18  C25 UNL     1      -5.937  46.868 -21.510  1.00  0.00     0.020 C 
HETATM   19  C26 UNL     1      -4.717  49.107 -21.348  1.00  0.00     0.002 C 
HETATM   20  C27 UNL     1      -4.688  50.627 -21.661  1.00  0.00     0.007 C 
HETATM   21  C28 UNL     1      -3.292  51.237 -21.824  1.00  0.00     0.014 C 
HETATM   22  C29 UNL     1      -2.240  50.696 -20.834  1.00  0.00     0.003 C 
HETATM   23  C30 UNL     1      -2.579  51.231 -19.413  1.00  0.00     0.020 C 
ENDROOT
BRANCH   3  24
HETATM   24  O1  UNL     1      -0.624  51.004 -22.676  1.00  0.00    -0.377 OA
HETATM   25  H2  UNL     1       0.239  51.402 -22.881  1.00  0.00     0.211 HD
ENDBRANCH   3  24
BRANCH  13  26
HETATM   26  O2  UNL     1     -10.184  47.432 -24.328  1.00  0.00    -0.271 OA
BRANCH  26  27
HETATM   27  C13 UNL     1     -10.999  46.550 -25.086  1.00  0.00     0.303 C 
BRANCH  27  28
HETATM   28  C14 UNL     1     -12.374  47.101 -25.491  1.00  0.00     0.244 C 
HETATM   29  O3  UNL     1     -12.563  47.895 -26.405  1.00  0.00    -0.271 OA
HETATM   30  N2  UNL     1     -13.402  46.604 -24.701  1.00  0.00    -0.350 N 
HETATM   31  H16 UNL     1     -13.147  46.322 -23.758  1.00  0.00     0.163 HD
BRANCH  30  32
HETATM   32  C15 UNL     1     -14.758  47.089 -24.873  1.00  0.00     0.225 C 
BRANCH  32  33
HETATM   33  C16 UNL     1     -15.780  45.984 -24.585  1.00  0.00     0.236 C 
HETATM   34  O4  UNL     1     -15.532  44.783 -24.713  1.00  0.00    -0.272 OA
HETATM   35  N3  UNL     1     -17.023  46.463 -24.215  1.00  0.00    -0.345 N 
HETATM   36  H19 UNL     1     -17.212  47.435 -24.424  1.00  0.00     0.163 HD
BRANCH  35  37
HETATM   37  C17 UNL     1     -18.188  45.566 -24.181  1.00  0.00     0.185 C 
BRANCH  37  38
HETATM   38  C18 UNL     1     -19.031  45.871 -25.423  1.00  0.00     0.163 C 
HETATM   39  O5  UNL     1     -18.710  45.647 -26.582  1.00  0.00    -0.648 OA
BRANCH  38  40
HETATM   40  O6  UNL     1     -20.217  46.443 -25.145  1.00  0.00    -0.775 OA
HETATM   41  H21 UNL     1     -20.639  46.566 -26.023  1.00  0.00     0.167 HD
ENDBRANCH  38  40
ENDBRANCH  37  38
BRANCH  37  42
HETATM   42  C19 UNL     1     -18.966  45.728 -22.858  1.00  0.00     0.010 C 
HETATM   43  C20 UNL     1     -18.161  46.532 -21.832  1.00  0.00     0.012 C 
HETATM   44  C21 UNL     1     -19.422  44.400 -22.245  1.00  0.00     0.012 C 
ENDBRANCH  37  42
ENDBRANCH  35  37
ENDBRANCH  32  33
ENDBRANCH  30  32
ENDBRANCH  27  28
ENDBRANCH  26  27
ENDBRANCH  13  26
TORSDOF 10
ENDMDL
MODEL 5
REMARK minimizedAffinity -8.49874115
REMARK CNNscore 0.37079376
REMARK CNNaffinity 6.60346603
REMARK  10 active torsions:
REMARK  status: ('A' for Active; 'I' for Inactive)
REMARK    1  A    between atoms: C3_3  and  O1_4 
REMARK    2  A    between atoms: N1_14  and  O2_16 
REMARK    3  A    between atoms: O2_16  and  C13_17 
REMARK    4  A    between atoms: C13_17  and  C14_18 
REMARK       I    between atoms: C14_18  and  N2_20 
REMARK    5  A    between atoms: N2_20  and  C15_21 
REMARK    6  A    between atoms: C15_21  and  C16_22 
REMARK       I    between atoms: C16_22  and  N3_24 
REMARK    7  A    between atoms: N3_24  and  C17_25 
REMARK    8  A    between atoms: C17_25  and  C18_26 
REMARK    9  A    between atoms: C17_25  and  C19_29 
REMARK   10  A    between atoms: C18_26  and  O6_28 
ROOT
HETATM    1  C1  UNL     1      -7.918  49.215 -24.212  1.00  0.00     0.015 C 
HETATM    2  C2  UNL     1      -6.751  49.039 -23.986  1.00  0.00    -0.078 C 
HETATM    3  C3  UNL     1      -5.325  48.801 -23.713  1.00  0.00     0.128 C 
HETATM    4  C4  UNL     1      -4.532  48.513 -24.993  1.00  0.00     0.052 C 
HETATM    5  C5  UNL     1      -3.081  48.634 -24.535  1.00  0.00     0.010 C 
HETATM    6  C6  UNL     1      -3.088  49.822 -23.558  1.00  0.00     0.002 C 
HETATM    7  C7  UNL     1      -2.017  49.802 -22.445  1.00  0.00    -0.004 C 
HETATM    8  C8  UNL     1      -1.793  48.463 -21.719  1.00  0.00     0.010 C 
HETATM    9  C9  UNL     1      -1.619  48.539 -20.194  1.00  0.00     0.035 C 
HETATM   10  C10 UNL     1      -0.967  49.779 -19.635  1.00  0.00    -0.069 C 
HETATM   11  C11 UNL     1      -0.372  49.734 -18.429  1.00  0.00     0.030 C 
HETATM   12  C12 UNL     1       0.153  50.962 -17.772  1.00  0.00     0.032 C 
HETATM   13  N1  UNL     1       0.946  50.806 -16.750  1.00  0.00    -0.271 N 
ATOM     14  H1  UNL     1       1.265  49.901 -16.403  1.00  0.00     0.194 HD
HETATM   15  C22 UNL     1      -0.255  52.322 -18.319  1.00  0.00     0.060 C 
HETATM   16  C23 UNL     1      -1.306  52.242 -19.424  1.00  0.00     0.020 C 
HETATM   17  C24 UNL     1      -1.073  51.077 -20.419  1.00  0.00    -0.016 C 
HETATM   18  C25 UNL     1       0.276  51.312 -21.157  1.00  0.00     0.020 C 
HETATM   19  C26 UNL     1      -2.239  50.985 -21.468  1.00  0.00     0.002 C 
HETATM   20  C27 UNL     1      -3.660  50.965 -20.844  1.00  0.00     0.007 C 
HETATM   21  C28 UNL     1      -4.664  50.033 -21.531  1.00  0.00     0.014 C 
HETATM   22  C29 UNL     1      -4.564  50.010 -23.070  1.00  0.00     0.003 C 
HETATM   23  C30 UNL     1      -5.075  51.372 -23.619  1.00  0.00     0.020 C 
ENDROOT
BRANCH   3  24
HETATM   24  O1  UNL     1      -5.217  47.635 -22.887  1.00  0.00    -0.377 OA
HETATM   25  H2  UNL     1      -5.849  46.984 -23.236  1.00  0.00     0.211 HD
ENDBRANCH   3  24
BRANCH  13  26
HETATM   26  O2  UNL     1       1.307  52.041 -16.187  1.00  0.00    -0.271 OA
BRANCH  26  27
HETATM   27  C13 UNL     1       0.772  52.133 -14.875  1.00  0.00     0.303 C 
BRANCH  27  28
HETATM   28  C14 UNL     1       1.595  51.449 -13.774  1.00  0.00     0.244 C 
HETATM   29  O3  UNL     1       1.694  50.236 -13.631  1.00  0.00    -0.271 OA
HETATM   30  N2  UNL     1       2.226  52.358 -12.935  1.00  0.00    -0.350 N 
HETATM   31  H16 UNL     1       1.780  53.267 -12.844  1.00  0.00     0.163 HD
BRANCH  30  32
HETATM   32  C15 UNL     1       2.966  51.896 -11.777  1.00  0.00     0.225 C 
BRANCH  32  33
HETATM   33  C16 UNL     1       2.889  52.910 -10.631  1.00  0.00     0.236 C 
HETATM   34  O4  UNL     1       1.835  53.423 -10.252  1.00  0.00    -0.272 OA
HETATM   35  N3  UNL     1       4.123  53.232 -10.094  1.00  0.00    -0.345 N 
HETATM   36  H19 UNL     1       4.933  52.997 -10.653  1.00  0.00     0.163 HD
BRANCH  35  37
HETATM   37  C17 UNL     1       4.265  54.385  -9.194  1.00  0.00     0.185 C 
BRANCH  37  38
HETATM   38  C18 UNL     1       3.717  53.964  -7.826  1.00  0.00     0.163 C 
HETATM   39  O5  UNL     1       2.591  54.190  -7.402  1.00  0.00    -0.648 OA
BRANCH  38  40
HETATM   40  O6  UNL     1       4.606  53.296  -7.069  1.00  0.00    -0.775 OA
HETATM   41  H21 UNL     1       4.116  53.087  -6.245  1.00  0.00     0.167 HD
ENDBRANCH  38  40
ENDBRANCH  37  38
BRANCH  37  42
HETATM   42  C19 UNL     1       3.560  55.628  -9.777  1.00  0.00     0.010 C 
HETATM   43  C20 UNL     1       4.087  55.961 -11.178  1.00  0.00     0.012 C 
HETATM   44  C21 UNL     1       3.645  56.865  -8.878  1.00  0.00     0.012 C 
ENDBRANCH  37  42
ENDBRANCH  35  37
ENDBRANCH  32  33
ENDBRANCH  30  32
ENDBRANCH  27  28
ENDBRANCH  26  27
ENDBRANCH  13  26
TORSDOF 10
ENDMDL
MODEL 6
REMARK minimizedAffinity -8.45467854
REMARK CNNscore 0.302385628
REMARK CNNaffinity 6.41784334
REMARK  10 active torsions:
REMARK  status: ('A' for Active; 'I' for Inactive)
REMARK    1  A    between atoms: C3_3  and  O1_4 
REMARK    2  A    between atoms: N1_14  and  O2_16 
REMARK    3  A    between atoms: O2_16  and  C13_17 
REMARK    4  A    between atoms: C13_17  and  C14_18 
REMARK       I    between atoms: C14_18  and  N2_20 
REMARK    5  A    between atoms: N2_20  and  C15_21 
REMARK    6  A    between atoms: C15_21  and  C16_22 
REMARK       I    between atoms: C16_22  and  N3_24 
REMARK    7  A    between atoms: N3_24  and  C17_25 
REMARK    8  A    between atoms: C17_25  and  C18_26 
REMARK    9  A    between atoms: C17_25  and  C19_29 
REMARK   10  A    between atoms: C18_26  and  O6_28 
ROOT
HETATM    1  C1  UNL     1      -0.082  55.483 -27.348  1.00  0.00     0.015 C 
HETATM    2  C2  UNL     1      -0.256  54.304 -27.186  1.00  0.00    -0.078 C 
HETATM    3  C3  UNL     1      -0.464  52.859 -27.011  1.00  0.00     0.128 C 
HETATM    4  C4  UNL     1       0.855  52.080 -27.019  1.00  0.00     0.052 C 
HETATM    5  C5  UNL     1       0.447  50.704 -26.499  1.00  0.00     0.010 C 
HETATM    6  C6  UNL     1      -0.579  51.004 -25.394  1.00  0.00     0.002 C 
HETATM    7  C7  UNL     1      -1.649  49.920 -25.137  1.00  0.00    -0.004 C 
HETATM    8  C8  UNL     1      -2.309  49.286 -26.376  1.00  0.00     0.010 C 
HETATM    9  C9  UNL     1      -3.828  49.069 -26.300  1.00  0.00     0.035 C 
HETATM   10  C10 UNL     1      -4.415  48.773 -24.941  1.00  0.00    -0.069 C 
HETATM   11  C11 UNL     1      -5.595  48.133 -24.850  1.00  0.00     0.030 C 
HETATM   12  C12 UNL     1      -6.283  47.951 -23.543  1.00  0.00     0.032 C 
HETATM   13  N1  UNL     1      -7.268  47.098 -23.494  1.00  0.00    -0.271 N 
ATOM     14  H1  UNL     1      -7.564  46.517 -24.278  1.00  0.00     0.194 HD
HETATM   15  C22 UNL     1      -5.811  48.758 -22.342  1.00  0.00     0.060 C 
HETATM   16  C23 UNL     1      -4.743  49.794 -22.688  1.00  0.00     0.020 C 
HETATM   17  C24 UNL     1      -3.692  49.285 -23.706  1.00  0.00    -0.016 C 
HETATM   18  C25 UNL     1      -2.914  48.097 -23.070  1.00  0.00     0.020 C 
HETATM   19  C26 UNL     1      -2.685  50.424 -24.098  1.00  0.00     0.002 C 
HETATM   20  C27 UNL     1      -3.359  51.748 -24.546  1.00  0.00     0.007 C 
HETATM   21  C28 UNL     1      -2.671  52.475 -25.707  1.00  0.00     0.014 C 
HETATM   22  C29 UNL     1      -1.130  52.446 -25.654  1.00  0.00     0.003 C 
HETATM   23  C30 UNL     1      -0.659  53.353 -24.481  1.00  0.00     0.020 C 
ENDROOT
BRANCH   3  24
HETATM   24  O1  UNL     1      -1.235  52.382 -28.121  1.00  0.00    -0.377 OA
HETATM   25  H2  UNL     1      -0.883  52.817 -28.916  1.00  0.00     0.211 HD
ENDBRANCH   3  24
BRANCH  13  26
HETATM   26  O2  UNL     1      -7.869  47.080 -22.225  1.00  0.00    -0.271 OA
BRANCH  26  27
HETATM   27  C13 UNL     1      -9.275  47.211 -22.370  1.00  0.00     0.303 C 
BRANCH  27  28
HETATM   28  C14 UNL     1      -9.812  47.058 -23.801  1.00  0.00     0.244 C 
HETATM   29  O3  UNL     1      -9.460  47.746 -24.753  1.00  0.00    -0.271 OA
HETATM   30  N2  UNL     1     -10.758  46.048 -23.912  1.00  0.00    -0.350 N 
HETATM   31  H16 UNL     1     -11.286  45.834 -23.070  1.00  0.00     0.163 HD
BRANCH  30  32
HETATM   32  C15 UNL     1     -11.447  45.825 -25.168  1.00  0.00     0.225 C 
BRANCH  32  33
HETATM   33  C16 UNL     1     -12.743  46.639 -25.239  1.00  0.00     0.236 C 
HETATM   34  O4  UNL     1     -12.845  47.696 -25.864  1.00  0.00    -0.272 OA
HETATM   35  N3  UNL     1     -13.776  46.099 -24.493  1.00  0.00    -0.345 N 
HETATM   36  H19 UNL     1     -13.518  45.415 -23.794  1.00  0.00     0.163 HD
BRANCH  35  37
HETATM   37  C17 UNL     1     -14.987  46.887 -24.218  1.00  0.00     0.185 C 
BRANCH  37  38
HETATM   38  C18 UNL     1     -15.045  47.113 -22.703  1.00  0.00     0.163 C 
HETATM   39  O5  UNL     1     -14.279  47.809 -22.051  1.00  0.00    -0.648 OA
BRANCH  38  40
HETATM   40  O6  UNL     1     -16.047  46.453 -22.096  1.00  0.00    -0.775 OA
HETATM   41  H21 UNL     1     -15.963  46.700 -21.149  1.00  0.00     0.167 HD
ENDBRANCH  38  40
ENDBRANCH  37  38
BRANCH  37  42
HETATM   42  C19 UNL     1     -16.240  46.184 -24.779  1.00  0.00     0.010 C 
HETATM   43  C20 UNL     1     -17.485  47.067 -24.639  1.00  0.00     0.012 C 
HETATM   44  C21 UNL     1     -16.502  44.806 -24.164  1.00  0.00     0.012 C 
ENDBRANCH  37  42
ENDBRANCH  35  37
ENDBRANCH  32  33
ENDBRANCH  30  32
ENDBRANCH  27  28
ENDBRANCH  26  27
ENDBRANCH  13  26
TORSDOF 10
ENDMDL
MODEL 7
REMARK minimizedAffinity -8.5423851
REMARK CNNscore 0.29240182
REMARK CNNaffinity 6.56074905
REMARK  10 active torsions:
REMARK  status: ('A' for Active; 'I' for Inactive)
REMARK    1  A    between atoms: C3_3  and  O1_4 
REMARK    2  A    between atoms: N1_14  and  O2_16 
REMARK    3  A    between atoms: O2_16  and  C13_17 
REMARK    4  A    between atoms: C13_17  and  C14_18 
REMARK       I    between atoms: C14_18  and  N2_20 
REMARK    5  A    between atoms: N2_20  and  C15_21 
REMARK    6  A    between atoms: C15_21  and  C16_22 
REMARK       I    between atoms: C16_22  and  N3_24 
REMARK    7  A    between atoms: N3_24  and  C17_25 
REMARK    8  A    between atoms: C17_25  and  C18_26 
REMARK    9  A    between atoms: C17_25  and  C19_29 
REMARK   10  A    between atoms: C18_26  and  O6_28 
ROOT
HETATM    1  C1  UNL     1      -0.142  49.218 -17.301  1.00  0.00     0.015 C 
HETATM    2  C2  UNL     1      -1.012  49.586 -18.045  1.00  0.00    -0.078 C 
HETATM    3  C3  UNL     1      -2.091  50.033 -18.939  1.00  0.00     0.128 C 
HETATM    4  C4  UNL     1      -2.614  51.423 -18.562  1.00  0.00     0.052 C 
HETATM    5  C5  UNL     1      -3.452  51.818 -19.775  1.00  0.00     0.010 C 
HETATM    6  C6  UNL     1      -2.647  51.299 -20.978  1.00  0.00     0.002 C 
HETATM    7  C7  UNL     1      -3.459  50.925 -22.238  1.00  0.00    -0.004 C 
HETATM    8  C8  UNL     1      -4.750  50.116 -22.019  1.00  0.00     0.010 C 
HETATM    9  C9  UNL     1      -5.007  48.966 -23.006  1.00  0.00     0.035 C 
HETATM   10  C10 UNL     1      -4.497  49.141 -24.416  1.00  0.00    -0.069 C 
HETATM   11  C11 UNL     1      -5.057  48.440 -25.419  1.00  0.00     0.030 C 
HETATM   12  C12 UNL     1      -4.494  48.466 -26.796  1.00  0.00     0.032 C 
HETATM   13  N1  UNL     1      -5.234  47.992 -27.758  1.00  0.00    -0.271 N 
ATOM     14  H1  UNL     1      -6.187  47.649 -27.635  1.00  0.00     0.194 HD
HETATM   15  C22 UNL     1      -3.101  49.039 -27.013  1.00  0.00     0.060 C 
HETATM   16  C23 UNL     1      -2.381  49.393 -25.713  1.00  0.00     0.020 C 
HETATM   17  C24 UNL     1      -3.301  50.048 -24.652  1.00  0.00    -0.016 C 
HETATM   18  C25 UNL     1      -3.821  51.404 -25.210  1.00  0.00     0.020 C 
HETATM   19  C26 UNL     1      -2.529  50.293 -23.306  1.00  0.00     0.002 C 
HETATM   20  C27 UNL     1      -1.781  49.048 -22.762  1.00  0.00     0.007 C 
HETATM   21  C28 UNL     1      -1.819  48.874 -21.240  1.00  0.00     0.014 C 
HETATM   22  C29 UNL     1      -1.683  50.187 -20.444  1.00  0.00     0.003 C 
HETATM   23  C30 UNL     1      -0.226  50.709 -20.596  1.00  0.00     0.020 C 
ENDROOT
BRANCH   3  24
HETATM   24  O1  UNL     1      -3.190  49.124 -18.800  1.00  0.00    -0.377 OA
HETATM   25  H2  UNL     1      -3.276  48.930 -17.851  1.00  0.00     0.211 HD
ENDBRANCH   3  24
BRANCH  13  26
HETATM   26  O2  UNL     1      -4.555  48.013 -28.987  1.00  0.00    -0.271 OA
BRANCH  26  27
HETATM   27  C13 UNL     1      -5.485  48.249 -30.034  1.00  0.00     0.303 C 
BRANCH  27  28
HETATM   28  C14 UNL     1      -5.288  47.402 -31.299  1.00  0.00     0.244 C 
HETATM   29  O3  UNL     1      -4.356  47.529 -32.084  1.00  0.00    -0.271 OA
HETATM   30  N2  UNL     1      -6.294  46.461 -31.474  1.00  0.00    -0.350 N 
HETATM   31  H16 UNL     1      -7.196  46.688 -31.064  1.00  0.00     0.163 HD
BRANCH  30  32
HETATM   32  C15 UNL     1      -6.328  45.637 -32.667  1.00  0.00     0.225 C 
BRANCH  32  33
HETATM   33  C16 UNL     1      -6.093  44.162 -32.326  1.00  0.00     0.236 C 
HETATM   34  O4  UNL     1      -5.900  43.755 -31.179  1.00  0.00    -0.272 OA
HETATM   35  N3  UNL     1      -6.069  43.335 -33.435  1.00  0.00    -0.345 N 
HETATM   36  H19 UNL     1      -5.940  43.787 -34.331  1.00  0.00     0.163 HD
BRANCH  35  37
HETATM   37  C17 UNL     1      -5.577  41.955 -33.324  1.00  0.00     0.185 C 
BRANCH  37  38
HETATM   38  C18 UNL     1      -4.098  41.967 -33.724  1.00  0.00     0.163 C 
HETATM   39  O5  UNL     1      -3.216  41.273 -33.237  1.00  0.00    -0.648 OA
BRANCH  38  40
HETATM   40  O6  UNL     1      -3.808  42.848 -34.699  1.00  0.00    -0.775 OA
HETATM   41  H21 UNL     1      -2.845  42.735 -34.851  1.00  0.00     0.167 HD
ENDBRANCH  38  40
ENDBRANCH  37  38
BRANCH  37  42
HETATM   42  C19 UNL     1      -6.433  40.996 -34.178  1.00  0.00     0.010 C 
HETATM   43  C20 UNL     1      -6.329  41.334 -35.669  1.00  0.00     0.012 C 
HETATM   44  C21 UNL     1      -7.904  40.939 -33.754  1.00  0.00     0.012 C 
ENDBRANCH  37  42
ENDBRANCH  35  37
ENDBRANCH  32  33
ENDBRANCH  30  32
ENDBRANCH  27  28
ENDBRANCH  26  27
ENDBRANCH  13  26
TORSDOF 10
ENDMDL
MODEL 8
REMARK minimizedAffinity -8.54265881
REMARK CNNscore 0.291743934
REMARK CNNaffinity 6.6873498
REMARK  10 active torsions:
REMARK  status: ('A' for Active; 'I' for Inactive)
REMARK    1  A    between atoms: C3_3  and  O1_4 
REMARK    2  A    between atoms: N1_14  and  O2_16 
REMARK    3  A    between atoms: O2_16  and  C13_17 
REMARK    4  A    between atoms: C13_17  and  C14_18 
REMARK       I    between atoms: C14_18  and  N2_20 
REMARK    5  A    between atoms: N2_20  and  C15_21 
REMARK    6  A    between atoms: C15_21  and  C16_22 
REMARK       I    between atoms: C16_22  and  N3_24 
REMARK    7  A    between atoms: N3_24  and  C17_25 
REMARK    8  A    between atoms: C17_25  and  C18_26 
REMARK    9  A    between atoms: C17_25  and  C19_29 
REMARK   10  A    between atoms: C18_26  and  O6_28 
ROOT
HETATM    1  C1  UNL     1      -0.431  48.844 -17.142  1.00  0.00     0.015 C 
HETATM    2  C2  UNL     1      -1.256  49.265 -17.907  1.00  0.00    -0.078 C 
HETATM    3  C3  UNL     1      -2.283  49.778 -18.828  1.00  0.00     0.128 C 
HETATM    4  C4  UNL     1      -2.754  51.184 -18.443  1.00  0.00     0.052 C 
HETATM    5  C5  UNL     1      -3.530  51.638 -19.677  1.00  0.00     0.010 C 
HETATM    6  C6  UNL     1      -2.709  51.102 -20.861  1.00  0.00     0.002 C 
HETATM    7  C7  UNL     1      -3.494  50.788 -22.155  1.00  0.00    -0.004 C 
HETATM    8  C8  UNL     1      -4.828  50.036 -21.994  1.00  0.00     0.010 C 
HETATM    9  C9  UNL     1      -5.103  48.917 -23.010  1.00  0.00     0.035 C 
HETATM   10  C10 UNL     1      -4.538  49.092 -24.399  1.00  0.00    -0.069 C 
HETATM   11  C11 UNL     1      -5.094  48.436 -25.433  1.00  0.00     0.030 C 
HETATM   12  C12 UNL     1      -4.484  48.459 -26.790  1.00  0.00     0.032 C 
HETATM   13  N1  UNL     1      -5.211  48.037 -27.785  1.00  0.00    -0.271 N 
ATOM     14  H1  UNL     1      -6.183  47.737 -27.700  1.00  0.00     0.194 HD
HETATM   15  C22 UNL     1      -3.059  48.970 -26.949  1.00  0.00     0.060 C 
HETATM   16  C23 UNL     1      -2.368  49.268 -25.620  1.00  0.00     0.020 C 
HETATM   17  C24 UNL     1      -3.293  49.946 -24.578  1.00  0.00    -0.016 C 
HETATM   18  C25 UNL     1      -3.731  51.334 -25.128  1.00  0.00     0.020 C 
HETATM   19  C26 UNL     1      -2.558  50.133 -23.203  1.00  0.00     0.002 C 
HETATM   20  C27 UNL     1      -1.887  48.844 -22.657  1.00  0.00     0.007 C 
HETATM   21  C28 UNL     1      -1.985  48.646 -21.141  1.00  0.00     0.014 C 
HETATM   22  C29 UNL     1      -1.817  49.938 -20.316  1.00  0.00     0.003 C 
HETATM   23  C30 UNL     1      -0.332  50.394 -20.409  1.00  0.00     0.020 C 
ENDROOT
BRANCH   3  24
HETATM   24  O1  UNL     1      -3.427  48.919 -18.744  1.00  0.00    -0.377 OA
HETATM   25  H2  UNL     1      -3.554  48.712 -17.802  1.00  0.00     0.211 HD
ENDBRANCH   3  24
BRANCH  13  26
HETATM   26  O2  UNL     1      -4.490  48.047 -28.990  1.00  0.00    -0.271 OA
BRANCH  26  27
HETATM   27  C13 UNL     1      -5.368  48.360 -30.061  1.00  0.00     0.303 C 
BRANCH  27  28
HETATM   28  C14 UNL     1      -5.373  47.362 -31.227  1.00  0.00     0.244 C 
HETATM   29  O3  UNL     1      -4.419  46.664 -31.551  1.00  0.00    -0.271 OA
HETATM   30  N2  UNL     1      -6.589  47.329 -31.898  1.00  0.00    -0.350 N 
HETATM   31  H16 UNL     1      -7.143  48.181 -31.862  1.00  0.00     0.163 HD
BRANCH  30  32
HETATM   32  C15 UNL     1      -6.748  46.518 -33.088  1.00  0.00     0.225 C 
BRANCH  32  33
HETATM   33  C16 UNL     1      -8.114  46.757 -33.741  1.00  0.00     0.236 C 
HETATM   34  O4  UNL     1      -9.063  47.278 -33.153  1.00  0.00    -0.272 OA
HETATM   35  N3  UNL     1      -8.196  46.288 -35.040  1.00  0.00    -0.345 N 
HETATM   36  H19 UNL     1      -7.486  45.625 -35.325  1.00  0.00     0.163 HD
BRANCH  35  37
HETATM   37  C17 UNL     1      -9.499  46.175 -35.710  1.00  0.00     0.185 C 
BRANCH  37  38
HETATM   38  C18 UNL     1      -9.890  44.694 -35.696  1.00  0.00     0.163 C 
HETATM   39  O5  UNL     1     -10.549  44.133 -34.831  1.00  0.00    -0.648 OA
BRANCH  38  40
HETATM   40  O6  UNL     1      -9.428  44.002 -36.753  1.00  0.00    -0.775 OA
HETATM   41  H21 UNL     1      -9.761  43.089 -36.612  1.00  0.00     0.167 HD
ENDBRANCH  38  40
ENDBRANCH  37  38
BRANCH  37  42
HETATM   42  C19 UNL     1      -9.441  46.778 -37.130  1.00  0.00     0.010 C 
HETATM   43  C20 UNL     1      -8.192  47.648 -37.314  1.00  0.00     0.012 C 
HETATM   44  C21 UNL     1     -10.693  47.570 -37.515  1.00  0.00     0.012 C 
ENDBRANCH  37  42
ENDBRANCH  35  37
ENDBRANCH  32  33
ENDBRANCH  30  32
ENDBRANCH  27  28
ENDBRANCH  26  27
ENDBRANCH  13  26
TORSDOF 10
ENDMDL
MODEL 9
REMARK minimizedAffinity -8.82525635
REMARK CNNscore 0.244629562
REMARK CNNaffinity 6.33669472
REMARK  10 active torsions:
REMARK  status: ('A' for Active; 'I' for Inactive)
REMARK    1  A    between atoms: C3_3  and  O1_4 
REMARK    2  A    between atoms: N1_14  and  O2_16 
REMARK    3  A    between atoms: O2_16  and  C13_17 
REMARK    4  A    between atoms: C13_17  and  C14_18 
REMARK       I    between atoms: C14_18  and  N2_20 
REMARK    5  A    between atoms: N2_20  and  C15_21 
REMARK    6  A    between atoms: C15_21  and  C16_22 
REMARK       I    between atoms: C16_22  and  N3_24 
REMARK    7  A    between atoms: N3_24  and  C17_25 
REMARK    8  A    between atoms: C17_25  and  C18_26 
REMARK    9  A    between atoms: C17_25  and  C19_29 
REMARK   10  A    between atoms: C18_26  and  O6_28 
ROOT
HETATM    1  C1  UNL     1      -0.400  54.811 -27.772  1.00  0.00     0.015 C 
HETATM    2  C2  UNL     1      -0.618  53.669 -27.465  1.00  0.00    -0.078 C 
HETATM    3  C3  UNL     1      -0.880  52.265 -27.111  1.00  0.00     0.128 C 
HETATM    4  C4  UNL     1       0.413  51.463 -26.935  1.00  0.00     0.052 C 
HETATM    5  C5  UNL     1      -0.065  50.180 -26.261  1.00  0.00     0.010 C 
HETATM    6  C6  UNL     1      -1.142  50.650 -25.269  1.00  0.00     0.002 C 
HETATM    7  C7  UNL     1      -2.257  49.635 -24.934  1.00  0.00    -0.004 C 
HETATM    8  C8  UNL     1      -2.865  48.854 -26.114  1.00  0.00     0.010 C 
HETATM    9  C9  UNL     1      -4.391  48.683 -26.101  1.00  0.00     0.035 C 
HETATM   10  C10 UNL     1      -5.063  48.587 -24.753  1.00  0.00    -0.069 C 
HETATM   11  C11 UNL     1      -6.265  47.992 -24.647  1.00  0.00     0.030 C 
HETATM   12  C12 UNL     1      -7.031  48.005 -23.372  1.00  0.00     0.032 C 
HETATM   13  N1  UNL     1      -8.042  47.189 -23.268  1.00  0.00    -0.271 N 
ATOM     14  H1  UNL     1      -8.311  46.513 -23.984  1.00  0.00     0.194 HD
HETATM   15  C22 UNL     1      -6.603  48.956 -22.264  1.00  0.00     0.060 C 
HETATM   16  C23 UNL     1      -5.486  49.911 -22.681  1.00  0.00     0.020 C 
HETATM   17  C24 UNL     1      -4.396  49.245 -23.557  1.00  0.00    -0.016 C 
HETATM   18  C25 UNL     1      -3.691  48.138 -22.722  1.00  0.00     0.020 C 
HETATM   19  C26 UNL     1      -3.333  50.298 -24.037  1.00  0.00     0.002 C 
HETATM   20  C27 UNL     1      -3.941  51.564 -24.698  1.00  0.00     0.007 C 
HETATM   21  C28 UNL     1      -3.167  52.111 -25.901  1.00  0.00     0.014 C 
HETATM   22  C29 UNL     1      -1.633  52.055 -25.753  1.00  0.00     0.003 C 
HETATM   23  C30 UNL     1      -1.202  53.102 -24.686  1.00  0.00     0.020 C 
ENDROOT
BRANCH   3  24
HETATM   24  O1  UNL     1      -1.601  51.660 -28.191  1.00  0.00    -0.377 OA
HETATM   25  H2  UNL     1      -1.191  51.975 -29.014  1.00  0.00     0.211 HD
ENDBRANCH   3  24
BRANCH  13  26
HETATM   26  O2  UNL     1      -8.714  47.356 -22.046  1.00  0.00    -0.271 OA
BRANCH  26  27
HETATM   27  C13 UNL     1      -8.628  46.155 -21.295  1.00  0.00     0.303 C 
BRANCH  27  28
HETATM   28  C14 UNL     1      -8.600  46.327 -19.769  1.00  0.00     0.244 C 
HETATM   29  O3  UNL     1      -7.619  46.687 -19.128  1.00  0.00    -0.271 OA
HETATM   30  N2  UNL     1      -9.817  46.024 -19.174  1.00  0.00    -0.350 N 
HETATM   31  H16 UNL     1     -10.405  45.359 -19.671  1.00  0.00     0.163 HD
BRANCH  30  32
HETATM   32  C15 UNL     1      -9.950  46.034 -17.730  1.00  0.00     0.225 C 
BRANCH  32  33
HETATM   33  C16 UNL     1     -11.062  46.989 -17.285  1.00  0.00     0.236 C 
HETATM   34  O4  UNL     1     -10.927  47.807 -16.373  1.00  0.00    -0.272 OA
HETATM   35  N3  UNL     1     -12.250  46.814 -17.972  1.00  0.00    -0.345 N 
HETATM   36  H19 UNL     1     -12.353  45.943 -18.478  1.00  0.00     0.163 HD
BRANCH  35  37
HETATM   37  C17 UNL     1     -13.490  47.437 -17.488  1.00  0.00     0.185 C 
BRANCH  37  38
HETATM   38  C18 UNL     1     -14.171  46.428 -16.558  1.00  0.00     0.163 C 
HETATM   39  O5  UNL     1     -14.344  46.563 -15.354  1.00  0.00    -0.648 OA
BRANCH  38  40
HETATM   40  O6  UNL     1     -14.586  45.311 -17.183  1.00  0.00    -0.775 OA
HETATM   41  H21 UNL     1     -15.004  44.776 -16.473  1.00  0.00     0.167 HD
ENDBRANCH  38  40
ENDBRANCH  37  38
BRANCH  37  42
HETATM   42  C19 UNL     1     -14.380  47.879 -18.669  1.00  0.00     0.010 C 
HETATM   43  C20 UNL     1     -13.608  48.773 -19.645  1.00  0.00     0.012 C 
HETATM   44  C21 UNL     1     -15.677  48.570 -18.238  1.00  0.00     0.012 C 
ENDBRANCH  37  42
ENDBRANCH  35  37
ENDBRANCH  32  33
ENDBRANCH  30  32
ENDBRANCH  27  28
ENDBRANCH  26  27
ENDBRANCH  13  26
TORSDOF 10
ENDMDL
