MODEL 1
REMARK minimizedAffinity -8.52780724
REMARK CNNscore 0.564228117
REMARK CNNaffinity 6.55710459
REMARK  10 active torsions:
REMARK  status: ('A' for Active; 'I' for Inactive)
REMARK    1  A    between atoms: O1_2  and  C2_3 
REMARK    2  A    between atoms: C4_5  and  O2_6 
REMARK    3  A    between atoms: O2_6  and  C5_7 
REMARK    4  A    between atoms: C6_8  and  O3_9 
REMARK    5  A    between atoms: C8_11  and  O4_12 
REMARK    6  A    between atoms: O4_12  and  C9_13 
REMARK    7  A    between atoms: C20_24  and  C21_25 
REMARK    8  A    between atoms: C21_25  and  O5_27 
REMARK    9  A    between atoms: C25_30  and  O6_31 
REMARK   10  A    between atoms: C34_42  and  O9_43 
ROOT
HETATM    1  C9  UNL     1      -7.938  46.209 -24.929  1.00  0.00     0.046 C 
HETATM    2  C10 UNL     1      -7.951  46.057 -23.597  1.00  0.00     0.011 C 
HETATM    3  C11 UNL     1      -7.230  46.976 -22.629  1.00  0.00     0.019 C 
HETATM    4  C12 UNL     1      -6.283  46.115 -21.773  1.00  0.00     0.010 C 
HETATM    5  C13 UNL     1      -5.267  46.947 -21.003  1.00  0.00     0.009 C 
HETATM    6  C14 UNL     1      -4.295  47.680 -21.955  1.00  0.00     0.025 C 
HETATM    7  C15 UNL     1      -4.972  48.025 -23.321  1.00  0.00     0.001 C 
HETATM    8  C16 UNL     1      -4.189  49.058 -24.147  1.00  0.00     0.007 C 
HETATM    9  C17 UNL     1      -2.756  49.247 -23.657  1.00  0.00     0.013 C 
HETATM   10  C18 UNL     1      -2.697  49.786 -22.199  1.00  0.00    -0.007 C 
HETATM   11  C19 UNL     1      -3.251  51.229 -22.202  1.00  0.00     0.019 C 
HETATM   12  C20 UNL     1      -1.191  49.734 -21.721  1.00  0.00     0.025 C 
HETATM   13  C23 UNL     1      -1.094  48.355 -21.058  1.00  0.00     0.011 C 
HETATM   14  C24 UNL     1      -2.411  48.182 -20.317  1.00  0.00     0.039 C 
HETATM   15  C25 UNL     1      -3.490  48.821 -21.238  1.00  0.00     0.070 C 
HETATM   16  C26 UNL     1      -6.532  48.241 -23.277  1.00  0.00    -0.033 C 
HETATM   17  C27 UNL     1      -6.907  49.488 -22.438  1.00  0.00     0.016 C 
HETATM   18  C28 UNL     1      -7.117  48.515 -24.701  1.00  0.00     0.016 C 
HETATM   19  C29 UNL     1      -7.139  47.285 -25.600  1.00  0.00     0.065 C 
ENDROOT
BRANCH   1  20
HETATM   20  O4  UNL     1      -8.719  45.406 -25.747  1.00  0.00    -0.325 OA
BRANCH  20  21
HETATM   21  C8  UNL     1     -10.011  46.019 -25.983  1.00  0.00     0.269 C 
HETATM   22  C7  UNL     1     -11.089  44.968 -25.706  1.00  0.00     0.095 C 
HETATM   23  C6  UNL     1     -11.704  44.403 -26.981  1.00  0.00     0.154 C 
HETATM   24  C5  UNL     1     -12.254  45.529 -27.881  1.00  0.00     0.182 C 
HETATM   25  C30 UNL     1     -11.403  46.823 -27.778  1.00  0.00     0.152 C 
HETATM   26  O7  UNL     1     -10.088  46.555 -27.302  1.00  0.00    -0.353 OA
HETATM   27  C31 UNL     1     -12.038  47.972 -26.993  1.00  0.00     0.042 C 
BRANCH  23  28
HETATM   28  O3  UNL     1     -10.742  43.630 -27.710  1.00  0.00    -0.393 OA
HETATM   29  H10 UNL     1     -10.238  43.096 -27.066  1.00  0.00     0.210 HD
ENDBRANCH  23  28
BRANCH  24  30
HETATM   30  O2  UNL     1     -13.615  45.863 -27.575  1.00  0.00    -0.351 OA
BRANCH  30  31
HETATM   31  C4  UNL     1     -14.478  44.749 -27.370  1.00  0.00     0.263 C 
HETATM   32  C3  UNL     1     -15.400  44.676 -28.586  1.00  0.00     0.095 C 
HETATM   33  C2  UNL     1     -16.741  44.059 -28.223  1.00  0.00     0.156 C 
HETATM   34  C34 UNL     1     -17.420  44.839 -27.070  1.00  0.00     0.175 C 
HETATM   35  C32 UNL     1     -16.383  45.683 -26.298  1.00  0.00     0.151 C 
HETATM   36  O8  UNL     1     -15.190  44.897 -26.141  1.00  0.00    -0.354 OA
HETATM   37  C33 UNL     1     -16.860  46.120 -24.919  1.00  0.00     0.042 C 
BRANCH  33  38
HETATM   38  O1  UNL     1     -17.539  44.076 -29.418  1.00  0.00    -0.388 OA
HETATM   39  C1  UNL     1     -18.001  42.786 -29.802  1.00  0.00     0.202 C 
ENDBRANCH  33  38
BRANCH  34  40
HETATM   40  O9  UNL     1     -18.036  43.868 -26.199  1.00  0.00    -0.390 OA
HETATM   41  H56 UNL     1     -17.318  43.462 -25.691  1.00  0.00     0.210 HD
ENDBRANCH  34  40
ENDBRANCH  30  31
ENDBRANCH  24  30
ENDBRANCH  20  21
ENDBRANCH   1  20
BRANCH  15  42
HETATM   42  O6  UNL     1      -4.405  49.588 -20.453  1.00  0.00    -0.389 OA
HETATM   43  H39 UNL     1      -4.123  49.563 -19.520  1.00  0.00     0.210 HD
ENDBRANCH  15  42
BRANCH  12  44
HETATM   44  C21 UNL     1      -0.716  50.887 -20.797  1.00  0.00     0.119 C 
HETATM   45  C22 UNL     1       0.321  51.797 -21.446  1.00  0.00     0.040 C 
BRANCH  44  46
HETATM   46  O5  UNL     1      -0.165  50.397 -19.575  1.00  0.00    -0.396 OA
HETATM   47  H34 UNL     1      -0.207  51.121 -18.934  1.00  0.00     0.210 HD
ENDBRANCH  44  46
ENDBRANCH  12  44
TORSDOF 10
ENDMDL
MODEL 2
REMARK minimizedAffinity -8.96059704
REMARK CNNscore 0.563590765
REMARK CNNaffinity 6.608603
REMARK  10 active torsions:
REMARK  status: ('A' for Active; 'I' for Inactive)
REMARK    1  A    between atoms: O1_2  and  C2_3 
REMARK    2  A    between atoms: C4_5  and  O2_6 
REMARK    3  A    between atoms: O2_6  and  C5_7 
REMARK    4  A    between atoms: C6_8  and  O3_9 
REMARK    5  A    between atoms: C8_11  and  O4_12 
REMARK    6  A    between atoms: O4_12  and  C9_13 
REMARK    7  A    between atoms: C20_24  and  C21_25 
REMARK    8  A    between atoms: C21_25  and  O5_27 
REMARK    9  A    between atoms: C25_30  and  O6_31 
REMARK   10  A    between atoms: C34_42  and  O9_43 
ROOT
HETATM    1  C9  UNL     1      -7.936  46.282 -24.970  1.00  0.00     0.046 C 
HETATM    2  C10 UNL     1      -7.942  46.097 -23.642  1.00  0.00     0.011 C 
HETATM    3  C11 UNL     1      -7.211  46.988 -22.656  1.00  0.00     0.019 C 
HETATM    4  C12 UNL     1      -6.264  46.100 -21.827  1.00  0.00     0.010 C 
HETATM    5  C13 UNL     1      -5.240  46.908 -21.042  1.00  0.00     0.009 C 
HETATM    6  C14 UNL     1      -4.269  47.659 -21.982  1.00  0.00     0.025 C 
HETATM    7  C15 UNL     1      -4.952  48.042 -23.334  1.00  0.00     0.001 C 
HETATM    8  C16 UNL     1      -4.167  49.091 -24.139  1.00  0.00     0.007 C 
HETATM    9  C17 UNL     1      -2.730  49.260 -23.652  1.00  0.00     0.013 C 
HETATM   10  C18 UNL     1      -2.661  49.762 -22.182  1.00  0.00    -0.007 C 
HETATM   11  C19 UNL     1      -3.207  51.208 -22.146  1.00  0.00     0.019 C 
HETATM   12  C20 UNL     1      -1.152  49.690 -21.714  1.00  0.00     0.025 C 
HETATM   13  C23 UNL     1      -1.059  48.294 -21.087  1.00  0.00     0.011 C 
HETATM   14  C24 UNL     1      -2.373  48.110 -20.342  1.00  0.00     0.039 C 
HETATM   15  C25 UNL     1      -3.454  48.778 -21.241  1.00  0.00     0.070 C 
HETATM   16  C26 UNL     1      -6.509  48.265 -23.276  1.00  0.00    -0.033 C 
HETATM   17  C27 UNL     1      -6.874  49.493 -22.404  1.00  0.00     0.016 C 
HETATM   18  C28 UNL     1      -7.102  48.578 -24.690  1.00  0.00     0.016 C 
HETATM   19  C29 UNL     1      -7.135  47.371 -25.618  1.00  0.00     0.065 C 
ENDROOT
BRANCH   1  20
HETATM   20  O4  UNL     1      -8.726  45.504 -25.803  1.00  0.00    -0.325 OA
BRANCH  20  21
HETATM   21  C8  UNL     1     -10.094  45.467 -25.325  1.00  0.00     0.269 C 
HETATM   22  C7  UNL     1     -10.820  44.336 -26.058  1.00  0.00     0.095 C 
HETATM   23  C6  UNL     1     -11.761  44.846 -27.143  1.00  0.00     0.154 C 
HETATM   24  C5  UNL     1     -12.769  45.866 -26.573  1.00  0.00     0.182 C 
HETATM   25  C30 UNL     1     -12.150  46.718 -25.433  1.00  0.00     0.152 C 
HETATM   26  O7  UNL     1     -10.728  46.733 -25.495  1.00  0.00    -0.353 OA
HETATM   27  C31 UNL     1     -12.626  46.377 -24.019  1.00  0.00     0.042 C 
BRANCH  23  28
HETATM   28  O3  UNL     1     -11.023  45.445 -28.216  1.00  0.00    -0.393 OA
HETATM   29  H10 UNL     1     -10.243  44.885 -28.391  1.00  0.00     0.210 HD
ENDBRANCH  23  28
BRANCH  24  30
HETATM   30  O2  UNL     1     -13.959  45.243 -26.071  1.00  0.00    -0.351 OA
BRANCH  30  31
HETATM   31  C4  UNL     1     -15.169  45.938 -26.356  1.00  0.00     0.263 C 
HETATM   32  C3  UNL     1     -16.092  45.726 -25.158  1.00  0.00     0.095 C 
HETATM   33  C2  UNL     1     -17.553  45.772 -25.574  1.00  0.00     0.156 C 
HETATM   34  C34 UNL     1     -17.851  44.731 -26.682  1.00  0.00     0.175 C 
HETATM   35  C32 UNL     1     -16.547  44.298 -27.387  1.00  0.00     0.151 C 
HETATM   36  O8  UNL     1     -15.732  45.465 -27.581  1.00  0.00    -0.354 OA
HETATM   37  C33 UNL     1     -16.779  43.638 -28.740  1.00  0.00     0.042 C 
BRANCH  33  38
HETATM   38  O1  UNL     1     -18.327  45.522 -24.390  1.00  0.00    -0.388 OA
HETATM   39  C1  UNL     1     -19.145  46.625 -24.010  1.00  0.00     0.202 C 
ENDBRANCH  33  38
BRANCH  34  40
HETATM   40  O9  UNL     1     -18.756  45.349 -27.620  1.00  0.00    -0.390 OA
HETATM   41  H56 UNL     1     -18.226  45.967 -28.145  1.00  0.00     0.210 HD
ENDBRANCH  34  40
ENDBRANCH  30  31
ENDBRANCH  24  30
ENDBRANCH  20  21
ENDBRANCH   1  20
BRANCH  15  42
HETATM   42  O6  UNL     1      -4.360  49.530 -20.432  1.00  0.00    -0.389 OA
HETATM   43  H39 UNL     1      -4.072  49.480 -19.501  1.00  0.00     0.210 HD
ENDBRANCH  15  42
BRANCH  12  44
HETATM   44  C21 UNL     1      -0.666  50.817 -20.764  1.00  0.00     0.119 C 
HETATM   45  C22 UNL     1       0.330  51.771 -21.415  1.00  0.00     0.040 C 
BRANCH  44  46
HETATM   46  O5  UNL     1      -0.062  50.293 -19.582  1.00  0.00    -0.396 OA
HETATM   47  H34 UNL     1      -0.094  50.992 -18.913  1.00  0.00     0.210 HD
ENDBRANCH  44  46
ENDBRANCH  12  44
TORSDOF 10
ENDMDL
MODEL 3
REMARK minimizedAffinity -9.91091347
REMARK CNNscore 0.558124244
REMARK CNNaffinity 6.96545839
REMARK  10 active torsions:
REMARK  status: ('A' for Active; 'I' for Inactive)
REMARK    1  A    between atoms: O1_2  and  C2_3 
REMARK    2  A    between atoms: C4_5  and  O2_6 
REMARK    3  A    between atoms: O2_6  and  C5_7 
REMARK    4  A    between atoms: C6_8  and  O3_9 
REMARK    5  A    between atoms: C8_11  and  O4_12 
REMARK    6  A    between atoms: O4_12  and  C9_13 
REMARK    7  A    between atoms: C20_24  and  C21_25 
REMARK    8  A    between atoms: C21_25  and  O5_27 
REMARK    9  A    between atoms: C25_30  and  O6_31 
REMARK   10  A    between atoms: C34_42  and  O9_43 
ROOT
HETATM    1  C9  UNL     1      -0.054  50.329 -17.629  1.00  0.00     0.046 C 
HETATM    2  C10 UNL     1      -0.048  51.495 -18.291  1.00  0.00     0.011 C 
HETATM    3  C11 UNL     1      -0.941  51.805 -19.477  1.00  0.00     0.019 C 
HETATM    4  C12 UNL     1      -0.038  52.210 -20.657  1.00  0.00     0.010 C 
HETATM    5  C13 UNL     1      -0.779  52.220 -21.987  1.00  0.00     0.009 C 
HETATM    6  C14 UNL     1      -1.246  50.801 -22.386  1.00  0.00     0.025 C 
HETATM    7  C15 UNL     1      -1.545  49.916 -21.134  1.00  0.00     0.001 C 
HETATM    8  C16 UNL     1      -2.350  48.647 -21.461  1.00  0.00     0.007 C 
HETATM    9  C17 UNL     1      -2.364  48.321 -22.952  1.00  0.00     0.013 C 
HETATM   10  C18 UNL     1      -3.039  49.441 -23.794  1.00  0.00    -0.007 C 
HETATM   11  C19 UNL     1      -4.542  49.467 -23.436  1.00  0.00     0.019 C 
HETATM   12  C20 UNL     1      -2.804  49.109 -25.322  1.00  0.00     0.025 C 
HETATM   13  C23 UNL     1      -1.504  49.860 -25.636  1.00  0.00     0.011 C 
HETATM   14  C24 UNL     1      -1.619  51.175 -24.878  1.00  0.00     0.039 C 
HETATM   15  C25 UNL     1      -2.317  50.817 -23.534  1.00  0.00     0.070 C 
HETATM   16  C26 UNL     1      -2.005  50.690 -19.842  1.00  0.00    -0.033 C 
HETATM   17  C27 UNL     1      -3.378  51.378 -20.052  1.00  0.00     0.016 C 
HETATM   18  C28 UNL     1      -2.215  49.722 -18.632  1.00  0.00     0.016 C 
HETATM   19  C29 UNL     1      -0.915  49.178 -18.053  1.00  0.00     0.065 C 
ENDROOT
BRANCH   1  20
HETATM   20  O4  UNL     1       0.699  50.158 -16.477  1.00  0.00    -0.325 OA
BRANCH  20  21
HETATM   21  C8  UNL     1       0.251  51.058 -15.433  1.00  0.00     0.269 C 
HETATM   22  C7  UNL     1       1.390  52.035 -15.130  1.00  0.00     0.095 C 
HETATM   23  C6  UNL     1       2.111  51.713 -13.827  1.00  0.00     0.154 C 
HETATM   24  C5  UNL     1       1.121  51.643 -12.645  1.00  0.00     0.182 C 
HETATM   25  C30 UNL     1      -0.262  51.088 -13.079  1.00  0.00     0.152 C 
HETATM   26  O7  UNL     1      -0.175  50.331 -14.283  1.00  0.00    -0.353 OA
HETATM   27  C31 UNL     1      -1.390  52.119 -13.169  1.00  0.00     0.042 C 
BRANCH  23  28
HETATM   28  O3  UNL     1       2.825  50.476 -13.932  1.00  0.00    -0.393 OA
HETATM   29  H10 UNL     1       3.252  50.451 -14.810  1.00  0.00     0.210 HD
ENDBRANCH  23  28
BRANCH  24  30
HETATM   30  O2  UNL     1       0.916  52.917 -12.020  1.00  0.00    -0.351 OA
BRANCH  30  31
HETATM   31  C4  UNL     1       1.413  53.023 -10.690  1.00  0.00     0.263 C 
HETATM   32  C3  UNL     1       0.241  53.466  -9.816  1.00  0.00     0.095 C 
HETATM   33  C2  UNL     1       0.722  54.267  -8.617  1.00  0.00     0.156 C 
HETATM   34  C34 UNL     1       1.564  55.489  -9.063  1.00  0.00     0.175 C 
HETATM   35  C32 UNL     1       2.086  55.295 -10.502  1.00  0.00     0.151 C 
HETATM   36  O8  UNL     1       2.515  53.931 -10.645  1.00  0.00    -0.354 OA
HETATM   37  C33 UNL     1       3.252  56.209 -10.854  1.00  0.00     0.042 C 
BRANCH  33  38
HETATM   38  O1  UNL     1      -0.451  54.668  -7.891  1.00  0.00    -0.388 OA
HETATM   39  C1  UNL     1      -0.771  53.792  -6.815  1.00  0.00     0.202 C 
ENDBRANCH  33  38
BRANCH  34  40
HETATM   40  O9  UNL     1       2.662  55.617  -8.135  1.00  0.00    -0.390 OA
HETATM   41  H56 UNL     1       3.294  54.919  -8.363  1.00  0.00     0.210 HD
ENDBRANCH  34  40
ENDBRANCH  30  31
ENDBRANCH  24  30
ENDBRANCH  20  21
ENDBRANCH   1  20
BRANCH  15  42
HETATM   42  O6  UNL     1      -3.296  51.808 -23.218  1.00  0.00    -0.389 OA
HETATM   43  H39 UNL     1      -3.327  52.467 -23.937  1.00  0.00     0.210 HD
ENDBRANCH  15  42
BRANCH  12  44
HETATM   44  C21 UNL     1      -3.960  49.463 -26.295  1.00  0.00     0.119 C 
HETATM   45  C22 UNL     1      -4.262  48.362 -27.305  1.00  0.00     0.040 C 
BRANCH  44  46
HETATM   46  O5  UNL     1      -3.696  50.662 -27.022  1.00  0.00    -0.396 OA
HETATM   47  H34 UNL     1      -4.548  51.000 -27.333  1.00  0.00     0.210 HD
ENDBRANCH  44  46
ENDBRANCH  12  44
TORSDOF 10
ENDMDL
MODEL 4
REMARK minimizedAffinity -9.11069202
REMARK CNNscore 0.547537446
REMARK CNNaffinity 6.8041687
REMARK  10 active torsions:
REMARK  status: ('A' for Active; 'I' for Inactive)
REMARK    1  A    between atoms: O1_2  and  C2_3 
REMARK    2  A    between atoms: C4_5  and  O2_6 
REMARK    3  A    between atoms: O2_6  and  C5_7 
REMARK    4  A    between atoms: C6_8  and  O3_9 
REMARK    5  A    between atoms: C8_11  and  O4_12 
REMARK    6  A    between atoms: O4_12  and  C9_13 
REMARK    7  A    between atoms: C20_24  and  C21_25 
REMARK    8  A    between atoms: C21_25  and  O5_27 
REMARK    9  A    between atoms: C25_30  and  O6_31 
REMARK   10  A    between atoms: C34_42  and  O9_43 
ROOT
HETATM    1  C9  UNL     1      -5.150  48.257 -21.495  1.00  0.00     0.046 C 
HETATM    2  C10 UNL     1      -4.625  49.361 -20.944  1.00  0.00     0.011 C 
HETATM    3  C11 UNL     1      -4.063  50.524 -21.738  1.00  0.00     0.019 C 
HETATM    4  C12 UNL     1      -2.607  50.747 -21.288  1.00  0.00     0.010 C 
HETATM    5  C13 UNL     1      -1.832  51.654 -22.233  1.00  0.00     0.009 C 
HETATM    6  C14 UNL     1      -1.663  51.009 -23.627  1.00  0.00     0.025 C 
HETATM    7  C15 UNL     1      -2.857  50.064 -23.977  1.00  0.00     0.001 C 
HETATM    8  C16 UNL     1      -2.927  49.693 -25.468  1.00  0.00     0.007 C 
HETATM    9  C17 UNL     1      -1.633  50.002 -26.217  1.00  0.00     0.013 C 
HETATM   10  C18 UNL     1      -1.293  51.519 -26.206  1.00  0.00    -0.007 C 
HETATM   11  C19 UNL     1      -2.360  52.253 -27.050  1.00  0.00     0.019 C 
HETATM   12  C20 UNL     1       0.158  51.697 -26.809  1.00  0.00     0.025 C 
HETATM   13  C23 UNL     1       1.051  51.638 -25.564  1.00  0.00     0.011 C 
HETATM   14  C24 UNL     1       0.284  52.402 -24.494  1.00  0.00     0.039 C 
HETATM   15  C25 UNL     1      -1.212  52.041 -24.721  1.00  0.00     0.070 C 
HETATM   16  C26 UNL     1      -4.237  50.428 -23.309  1.00  0.00    -0.033 C 
HETATM   17  C27 UNL     1      -4.774  51.787 -23.824  1.00  0.00     0.016 C 
HETATM   18  C28 UNL     1      -5.346  49.386 -23.670  1.00  0.00     0.016 C 
HETATM   19  C29 UNL     1      -5.169  48.041 -22.978  1.00  0.00     0.065 C 
ENDROOT
BRANCH   1  20
HETATM   20  O4  UNL     1      -5.758  47.288 -20.712  1.00  0.00    -0.325 OA
BRANCH  20  21
HETATM   21  C8  UNL     1      -4.775  46.586 -19.910  1.00  0.00     0.269 C 
HETATM   22  C7  UNL     1      -4.485  45.244 -20.587  1.00  0.00     0.095 C 
HETATM   23  C6  UNL     1      -5.144  44.069 -19.874  1.00  0.00     0.154 C 
HETATM   24  C5  UNL     1      -4.747  44.029 -18.383  1.00  0.00     0.182 C 
HETATM   25  C30 UNL     1      -4.547  45.452 -17.797  1.00  0.00     0.152 C 
HETATM   26  O7  UNL     1      -5.225  46.441 -18.565  1.00  0.00    -0.353 OA
HETATM   27  C31 UNL     1      -3.096  45.865 -17.543  1.00  0.00     0.042 C 
BRANCH  23  28
HETATM   28  O3  UNL     1      -6.571  44.138 -19.991  1.00  0.00    -0.393 OA
HETATM   29  H10 UNL     1      -6.782  44.408 -20.905  1.00  0.00     0.210 HD
ENDBRANCH  23  28
BRANCH  24  30
HETATM   30  O2  UNL     1      -3.548  43.277 -18.152  1.00  0.00    -0.351 OA
BRANCH  30  31
HETATM   31  C4  UNL     1      -3.562  41.948 -18.662  1.00  0.00     0.263 C 
HETATM   32  C3  UNL     1      -4.310  41.092 -17.641  1.00  0.00     0.095 C 
HETATM   33  C2  UNL     1      -3.820  39.653 -17.666  1.00  0.00     0.156 C 
HETATM   34  C34 UNL     1      -2.292  39.579 -17.425  1.00  0.00     0.175 C 
HETATM   35  C32 UNL     1      -1.629  40.943 -17.713  1.00  0.00     0.151 C 
HETATM   36  O8  UNL     1      -2.228  41.495 -18.897  1.00  0.00    -0.354 OA
HETATM   37  C33 UNL     1      -0.123  40.853 -17.929  1.00  0.00     0.042 C 
BRANCH  33  38
HETATM   38  O1  UNL     1      -4.552  38.951 -16.648  1.00  0.00    -0.388 OA
HETATM   39  C1  UNL     1      -4.192  39.343 -15.327  1.00  0.00     0.202 C 
ENDBRANCH  33  38
BRANCH  34  40
HETATM   40  O9  UNL     1      -1.767  38.562 -18.304  1.00  0.00    -0.390 OA
HETATM   41  H56 UNL     1      -1.752  38.949 -19.192  1.00  0.00     0.210 HD
ENDBRANCH  34  40
ENDBRANCH  30  31
ENDBRANCH  24  30
ENDBRANCH  20  21
ENDBRANCH   1  20
BRANCH  15  42
HETATM   42  O6  UNL     1      -2.019  53.212 -24.591  1.00  0.00    -0.389 OA
HETATM   43  H39 UNL     1      -1.441  53.980 -24.422  1.00  0.00     0.210 HD
ENDBRANCH  15  42
BRANCH  12  44
HETATM   44  C21 UNL     1       0.402  52.964 -27.672  1.00  0.00     0.119 C 
HETATM   45  C22 UNL     1      -0.076  54.250 -27.007  1.00  0.00     0.040 C 
BRANCH  44  46
HETATM   46  O5  UNL     1      -0.231  52.868 -28.946  1.00  0.00    -0.396 OA
HETATM   47  H34 UNL     1       0.218  53.493 -29.535  1.00  0.00     0.210 HD
ENDBRANCH  44  46
ENDBRANCH  12  44
TORSDOF 10
ENDMDL
MODEL 5
REMARK minimizedAffinity -8.32516956
REMARK CNNscore 0.535779834
REMARK CNNaffinity 6.53906965
REMARK  10 active torsions:
REMARK  status: ('A' for Active; 'I' for Inactive)
REMARK    1  A    between atoms: O1_2  and  C2_3 
REMARK    2  A    between atoms: C4_5  and  O2_6 
REMARK    3  A    between atoms: O2_6  and  C5_7 
REMARK    4  A    between atoms: C6_8  and  O3_9 
REMARK    5  A    between atoms: C8_11  and  O4_12 
REMARK    6  A    between atoms: O4_12  and  C9_13 
REMARK    7  A    between atoms: C20_24  and  C21_25 
REMARK    8  A    between atoms: C21_25  and  O5_27 
REMARK    9  A    between atoms: C25_30  and  O6_31 
REMARK   10  A    between atoms: C34_42  and  O9_43 
ROOT
HETATM    1  C9  UNL     1       1.502  52.613 -11.473  1.00  0.00     0.046 C 
HETATM    2  C10 UNL     1       0.751  53.692 -11.210  1.00  0.00     0.011 C 
HETATM    3  C11 UNL     1       1.253  54.917 -10.470  1.00  0.00     0.019 C 
HETATM    4  C12 UNL     1       0.333  55.148  -9.256  1.00  0.00     0.010 C 
HETATM    5  C13 UNL     1       0.918  56.133  -8.253  1.00  0.00     0.009 C 
HETATM    6  C14 UNL     1       2.208  55.581  -7.604  1.00  0.00     0.025 C 
HETATM    7  C15 UNL     1       2.983  54.631  -8.572  1.00  0.00     0.001 C 
HETATM    8  C16 UNL     1       4.429  54.353  -8.128  1.00  0.00     0.007 C 
HETATM    9  C17 UNL     1       4.688  54.741  -6.675  1.00  0.00     0.013 C 
HETATM   10  C18 UNL     1       4.487  56.263  -6.425  1.00  0.00    -0.007 C 
HETATM   11  C19 UNL     1       5.599  57.021  -7.185  1.00  0.00     0.019 C 
HETATM   12  C20 UNL     1       4.562  56.514  -4.866  1.00  0.00     0.025 C 
HETATM   13  C23 UNL     1       3.096  56.399  -4.434  1.00  0.00     0.011 C 
HETATM   14  C24 UNL     1       2.305  57.075  -5.544  1.00  0.00     0.039 C 
HETATM   15  C25 UNL     1       3.035  56.691  -6.863  1.00  0.00     0.070 C 
HETATM   16  C26 UNL     1       2.795  54.916 -10.110  1.00  0.00    -0.033 C 
HETATM   17  C27 UNL     1       3.389  56.291 -10.507  1.00  0.00     0.016 C 
HETATM   18  C28 UNL     1       3.558  53.872 -10.990  1.00  0.00     0.016 C 
HETATM   19  C29 UNL     1       2.916  52.491 -10.991  1.00  0.00     0.065 C 
ENDROOT
BRANCH   1  20
HETATM   20  O4  UNL     1       1.016  51.581 -12.262  1.00  0.00    -0.325 OA
BRANCH  20  21
HETATM   21  C8  UNL     1       0.915  51.998 -13.646  1.00  0.00     0.269 C 
HETATM   22  C7  UNL     1      -0.552  51.883 -14.068  1.00  0.00     0.095 C 
HETATM   23  C6  UNL     1      -0.818  50.672 -14.954  1.00  0.00     0.154 C 
HETATM   24  C5  UNL     1       0.109  50.670 -16.188  1.00  0.00     0.182 C 
HETATM   25  C30 UNL     1       1.502  51.274 -15.868  1.00  0.00     0.152 C 
HETATM   26  O7  UNL     1       1.790  51.234 -14.474  1.00  0.00    -0.353 OA
HETATM   27  C31 UNL     1       1.763  52.672 -16.434  1.00  0.00     0.042 C 
BRANCH  23  28
HETATM   28  O3  UNL     1      -0.642  49.454 -14.218  1.00  0.00    -0.393 OA
HETATM   29  H10 UNL     1      -1.039  49.580 -13.335  1.00  0.00     0.210 HD
ENDBRANCH  23  28
BRANCH  24  30
HETATM   30  O2  UNL     1      -0.447  51.390 -17.296  1.00  0.00    -0.351 OA
BRANCH  30  31
HETATM   31  C4  UNL     1      -0.335  50.737 -18.557  1.00  0.00     0.263 C 
HETATM   32  C3  UNL     1       0.167  51.783 -19.552  1.00  0.00     0.095 C 
HETATM   33  C2  UNL     1      -0.319  51.479 -20.960  1.00  0.00     0.156 C 
HETATM   34  C34 UNL     1      -1.864  51.377 -21.007  1.00  0.00     0.175 C 
HETATM   35  C32 UNL     1      -2.437  51.122 -19.597  1.00  0.00     0.151 C 
HETATM   36  O8  UNL     1      -1.591  50.170 -18.932  1.00  0.00    -0.354 OA
HETATM   37  C33 UNL     1      -3.861  50.580 -19.609  1.00  0.00     0.042 C 
BRANCH  33  38
HETATM   38  O1  UNL     1       0.169  52.537 -21.801  1.00  0.00    -0.388 OA
HETATM   39  C1  UNL     1       1.028  53.446 -21.118  1.00  0.00     0.202 C 
ENDBRANCH  33  38
BRANCH  34  40
HETATM   40  O9  UNL     1      -2.195  50.289 -21.896  1.00  0.00    -0.390 OA
HETATM   41  H56 UNL     1      -2.014  49.473 -21.407  1.00  0.00     0.210 HD
ENDBRANCH  34  40
ENDBRANCH  30  31
ENDBRANCH  24  30
ENDBRANCH  20  21
ENDBRANCH   1  20
BRANCH  15  42
HETATM   42  O6  UNL     1       3.121  57.831  -7.720  1.00  0.00    -0.389 OA
HETATM   43  H39 UNL     1       2.731  58.601  -7.265  1.00  0.00     0.210 HD
ENDBRANCH  15  42
BRANCH  12  44
HETATM   44  C21 UNL     1       5.229  57.839  -4.408  1.00  0.00     0.119 C 
HETATM   45  C22 UNL     1       5.932  57.729  -3.060  1.00  0.00     0.040 C 
BRANCH  44  46
HETATM   46  O5  UNL     1       4.287  58.907  -4.324  1.00  0.00    -0.396 OA
HETATM   47  H34 UNL     1       4.789  59.734  -4.372  1.00  0.00     0.210 HD
ENDBRANCH  44  46
ENDBRANCH  12  44
TORSDOF 10
ENDMDL
MODEL 6
REMARK minimizedAffinity -8.39193821
REMARK CNNscore 0.456707597
REMARK CNNaffinity 6.46168375
REMARK  10 active torsions:
REMARK  status: ('A' for Active; 'I' for Inactive)
REMARK    1  A    between atoms: O1_2  and  C2_3 
REMARK    2  A    between atoms: C4_5  and  O2_6 
REMARK    3  A    between atoms: O2_6  and  C5_7 
REMARK    4  A    between atoms: C6_8  and  O3_9 
REMARK    5  A    between atoms: C8_11  and  O4_12 
REMARK    6  A    between atoms: O4_12  and  C9_13 
REMARK    7  A    between atoms: C20_24  and  C21_25 
REMARK    8  A    between atoms: C21_25  and  O5_27 
REMARK    9  A    between atoms: C25_30  and  O6_31 
REMARK   10  A    between atoms: C34_42  and  O9_43 
ROOT
HETATM    1  C9  UNL     1      -3.998  48.256 -20.837  1.00  0.00     0.046 C 
HETATM    2  C10 UNL     1      -3.505  49.415 -20.377  1.00  0.00     0.011 C 
HETATM    3  C11 UNL     1      -3.140  50.593 -21.259  1.00  0.00     0.019 C 
HETATM    4  C12 UNL     1      -1.664  50.946 -20.992  1.00  0.00     0.010 C 
HETATM    5  C13 UNL     1      -1.084  51.882 -22.043  1.00  0.00     0.009 C 
HETATM    6  C14 UNL     1      -1.027  51.207 -23.433  1.00  0.00     0.025 C 
HETATM    7  C15 UNL     1      -2.172  50.160 -23.615  1.00  0.00     0.001 C 
HETATM    8  C16 UNL     1      -2.386  49.737 -25.078  1.00  0.00     0.007 C 
HETATM    9  C17 UNL     1      -1.219  50.123 -25.984  1.00  0.00     0.013 C 
HETATM   10  C18 UNL     1      -1.007  51.662 -26.048  1.00  0.00    -0.007 C 
HETATM   11  C19 UNL     1      -2.224  52.281 -26.774  1.00  0.00     0.019 C 
HETATM   12  C20 UNL     1       0.343  51.936 -26.824  1.00  0.00     0.025 C 
HETATM   13  C23 UNL     1       1.378  51.988 -25.694  1.00  0.00     0.011 C 
HETATM   14  C24 UNL     1       0.681  52.723 -24.558  1.00  0.00     0.039 C 
HETATM   15  C25 UNL     1      -0.796  52.236 -24.596  1.00  0.00     0.070 C 
HETATM   16  C26 UNL     1      -3.489  50.433 -22.795  1.00  0.00    -0.033 C 
HETATM   17  C27 UNL     1      -4.194  51.728 -23.272  1.00  0.00     0.016 C 
HETATM   18  C28 UNL     1      -4.543  49.295 -22.997  1.00  0.00     0.016 C 
HETATM   19  C29 UNL     1      -4.174  47.991 -22.301  1.00  0.00     0.065 C 
ENDROOT
BRANCH   1  20
HETATM   20  O4  UNL     1      -4.427  47.267 -19.964  1.00  0.00    -0.325 OA
BRANCH  20  21
HETATM   21  C8  UNL     1      -5.648  46.652 -20.447  1.00  0.00     0.269 C 
HETATM   22  C7  UNL     1      -6.098  45.619 -19.410  1.00  0.00     0.095 C 
HETATM   23  C6  UNL     1      -5.818  44.186 -19.846  1.00  0.00     0.154 C 
HETATM   24  C5  UNL     1      -6.447  43.890 -21.224  1.00  0.00     0.182 C 
HETATM   25  C30 UNL     1      -6.439  45.138 -22.146  1.00  0.00     0.152 C 
HETATM   26  O7  UNL     1      -5.458  46.089 -21.743  1.00  0.00    -0.353 OA
HETATM   27  C31 UNL     1      -7.795  45.817 -22.353  1.00  0.00     0.042 C 
BRANCH  23  28
HETATM   28  O3  UNL     1      -4.408  43.936 -19.896  1.00  0.00    -0.393 OA
HETATM   29  H10 UNL     1      -4.002  44.355 -19.113  1.00  0.00     0.210 HD
ENDBRANCH  23  28
BRANCH  24  30
HETATM   30  O2  UNL     1      -7.797  43.416 -21.124  1.00  0.00    -0.351 OA
BRANCH  30  31
HETATM   31  C4  UNL     1      -8.058  42.194 -21.806  1.00  0.00     0.263 C 
HETATM   32  C3  UNL     1      -9.278  41.566 -21.135  1.00  0.00     0.095 C 
HETATM   33  C2  UNL     1      -9.246  40.050 -21.243  1.00  0.00     0.156 C 
HETATM   34  C34 UNL     1      -7.937  39.475 -20.646  1.00  0.00     0.175 C 
HETATM   35  C32 UNL     1      -6.850  40.568 -20.563  1.00  0.00     0.151 C 
HETATM   36  O8  UNL     1      -6.906  41.351 -21.767  1.00  0.00    -0.354 OA
HETATM   37  C33 UNL     1      -5.440  40.011 -20.412  1.00  0.00     0.042 C 
BRANCH  33  38
HETATM   38  O1  UNL     1     -10.405  39.563 -20.549  1.00  0.00    -0.388 OA
HETATM   39  C1  UNL     1     -11.631  39.950 -21.161  1.00  0.00     0.202 C 
ENDBRANCH  33  38
BRANCH  34  40
HETATM   40  O9  UNL     1      -7.511  38.396 -21.505  1.00  0.00    -0.390 OA
HETATM   41  H56 UNL     1      -7.136  38.810 -22.297  1.00  0.00     0.210 HD
ENDBRANCH  34  40
ENDBRANCH  30  31
ENDBRANCH  24  30
ENDBRANCH  20  21
ENDBRANCH   1  20
BRANCH  15  42
HETATM   42  O6  UNL     1      -1.676  53.343 -24.396  1.00  0.00    -0.389 OA
HETATM   43  H39 UNL     1      -1.149  54.159 -24.315  1.00  0.00     0.210 HD
ENDBRANCH  15  42
BRANCH  12  44
HETATM   44  C21 UNL     1       0.377  53.190 -27.738  1.00  0.00     0.119 C 
HETATM   45  C22 UNL     1      -0.064  54.467 -27.032  1.00  0.00     0.040 C 
BRANCH  44  46
HETATM   46  O5  UNL     1      -0.440  53.026 -28.896  1.00  0.00    -0.396 OA
HETATM   47  H34 UNL     1      -0.123  53.657 -29.559  1.00  0.00     0.210 HD
ENDBRANCH  44  46
ENDBRANCH  12  44
TORSDOF 10
ENDMDL
MODEL 7
REMARK minimizedAffinity -8.58752251
REMARK CNNscore 0.387177706
REMARK CNNaffinity 6.67428732
REMARK  10 active torsions:
REMARK  status: ('A' for Active; 'I' for Inactive)
REMARK    1  A    between atoms: O1_2  and  C2_3 
REMARK    2  A    between atoms: C4_5  and  O2_6 
REMARK    3  A    between atoms: O2_6  and  C5_7 
REMARK    4  A    between atoms: C6_8  and  O3_9 
REMARK    5  A    between atoms: C8_11  and  O4_12 
REMARK    6  A    between atoms: O4_12  and  C9_13 
REMARK    7  A    between atoms: C20_24  and  C21_25 
REMARK    8  A    between atoms: C21_25  and  O5_27 
REMARK    9  A    between atoms: C25_30  and  O6_31 
REMARK   10  A    between atoms: C34_42  and  O9_43 
ROOT
HETATM    1  C9  UNL     1      -4.656  49.335 -25.081  1.00  0.00     0.046 C 
HETATM    2  C10 UNL     1      -5.328  50.104 -24.212  1.00  0.00     0.011 C 
HETATM    3  C11 UNL     1      -4.725  50.681 -22.945  1.00  0.00     0.019 C 
HETATM    4  C12 UNL     1      -5.589  50.219 -21.757  1.00  0.00     0.010 C 
HETATM    5  C13 UNL     1      -4.910  50.447 -20.413  1.00  0.00     0.009 C 
HETATM    6  C14 UNL     1      -3.638  49.581 -20.267  1.00  0.00     0.025 C 
HETATM    7  C15 UNL     1      -2.956  49.316 -21.648  1.00  0.00     0.001 C 
HETATM    8  C16 UNL     1      -1.517  48.786 -21.528  1.00  0.00     0.007 C 
HETATM    9  C17 UNL     1      -1.187  48.279 -20.126  1.00  0.00     0.013 C 
HETATM   10  C18 UNL     1      -1.283  49.402 -19.054  1.00  0.00    -0.007 C 
HETATM   11  C19 UNL     1      -0.150  50.418 -19.326  1.00  0.00     0.019 C 
HETATM   12  C20 UNL     1      -1.142  48.728 -17.631  1.00  0.00     0.025 C 
HETATM   13  C23 UNL     1      -2.597  48.440 -17.246  1.00  0.00     0.011 C 
HETATM   14  C24 UNL     1      -3.379  49.651 -17.735  1.00  0.00     0.039 C 
HETATM   15  C25 UNL     1      -2.718  50.052 -19.085  1.00  0.00     0.070 C 
HETATM   16  C26 UNL     1      -3.176  50.424 -22.745  1.00  0.00    -0.033 C 
HETATM   17  C27 UNL     1      -2.509  51.762 -22.340  1.00  0.00     0.016 C 
HETATM   18  C28 UNL     1      -2.510  50.031 -24.105  1.00  0.00     0.016 C 
HETATM   19  C29 UNL     1      -3.238  48.914 -24.841  1.00  0.00     0.065 C 
ENDROOT
BRANCH   1  20
HETATM   20  O4  UNL     1      -5.232  48.944 -26.281  1.00  0.00    -0.325 OA
BRANCH  20  21
HETATM   21  C8  UNL     1      -6.123  47.819 -26.080  1.00  0.00     0.269 C 
HETATM   22  C7  UNL     1      -6.234  47.061 -27.405  1.00  0.00     0.095 C 
HETATM   23  C6  UNL     1      -7.555  47.314 -28.121  1.00  0.00     0.154 C 
HETATM   24  C5  UNL     1      -8.755  46.995 -27.205  1.00  0.00     0.182 C 
HETATM   25  C30 UNL     1      -8.451  47.316 -25.717  1.00  0.00     0.152 C 
HETATM   26  O7  UNL     1      -7.388  48.253 -25.583  1.00  0.00    -0.353 OA
HETATM   27  C31 UNL     1      -8.219  46.103 -24.812  1.00  0.00     0.042 C 
BRANCH  23  28
HETATM   28  O3  UNL     1      -7.639  48.673 -28.568  1.00  0.00    -0.393 OA
HETATM   29  H10 UNL     1      -6.767  48.922 -28.931  1.00  0.00     0.210 HD
ENDBRANCH  23  28
BRANCH  24  30
HETATM   30  O2  UNL     1      -9.166  45.623 -27.292  1.00  0.00    -0.351 OA
BRANCH  30  31
HETATM   31  C4  UNL     1     -10.212  45.366 -28.222  1.00  0.00     0.263 C 
HETATM   32  C3  UNL     1      -9.692  45.780 -29.597  1.00  0.00     0.095 C 
HETATM   33  C2  UNL     1     -10.828  46.225 -30.504  1.00  0.00     0.156 C 
HETATM   34  C34 UNL     1     -11.640  47.376 -29.858  1.00  0.00     0.175 C 
HETATM   35  C32 UNL     1     -11.404  47.419 -28.333  1.00  0.00     0.151 C 
HETATM   36  O8  UNL     1     -11.396  46.070 -27.840  1.00  0.00    -0.354 OA
HETATM   37  C33 UNL     1     -12.468  48.205 -27.576  1.00  0.00     0.042 C 
BRANCH  33  38
HETATM   38  O1  UNL     1     -10.230  46.630 -31.746  1.00  0.00    -0.388 OA
HETATM   39  C1  UNL     1     -10.917  46.131 -32.889  1.00  0.00     0.202 C 
ENDBRANCH  33  38
BRANCH  34  40
HETATM   40  O9  UNL     1     -13.032  47.137 -30.152  1.00  0.00    -0.390 OA
HETATM   41  H56 UNL     1     -13.315  46.418 -29.567  1.00  0.00     0.210 HD
ENDBRANCH  34  40
ENDBRANCH  30  31
ENDBRANCH  24  30
ENDBRANCH  20  21
ENDBRANCH   1  20
BRANCH  15  42
HETATM   42  O6  UNL     1      -2.587  51.472 -19.158  1.00  0.00    -0.389 OA
HETATM   43  H39 UNL     1      -2.913  51.866 -18.327  1.00  0.00     0.210 HD
ENDBRANCH  15  42
BRANCH  12  44
HETATM   44  C21 UNL     1      -0.377  49.541 -16.551  1.00  0.00     0.119 C 
HETATM   45  C22 UNL     1       0.363  50.750 -17.114  1.00  0.00     0.040 C 
BRANCH  44  46
HETATM   46  O5  UNL     1       0.569  48.736 -15.850  1.00  0.00    -0.396 OA
HETATM   47  H34 UNL     1       0.751  49.179 -15.009  1.00  0.00     0.210 HD
ENDBRANCH  44  46
ENDBRANCH  12  44
TORSDOF 10
ENDMDL
MODEL 8
REMARK minimizedAffinity -9.3598814
REMARK CNNscore 0.377337039
REMARK CNNaffinity 7.07581949
REMARK  10 active torsions:
REMARK  status: ('A' for Active; 'I' for Inactive)
REMARK    1  A    between atoms: O1_2  and  C2_3 
REMARK    2  A    between atoms: C4_5  and  O2_6 
REMARK    3  A    between atoms: O2_6  and  C5_7 
REMARK    4  A    between atoms: C6_8  and  O3_9 
REMARK    5  A    between atoms: C8_11  and  O4_12 
REMARK    6  A    between atoms: O4_12  and  C9_13 
REMARK    7  A    between atoms: C20_24  and  C21_25 
REMARK    8  A    between atoms: C21_25  and  O5_27 
REMARK    9  A    between atoms: C25_30  and  O6_31 
REMARK   10  A    between atoms: C34_42  and  O9_43 
ROOT
HETATM    1  C9  UNL     1      -2.990  48.232 -20.510  1.00  0.00     0.046 C 
HETATM    2  C10 UNL     1      -2.419  49.392 -20.154  1.00  0.00     0.011 C 
HETATM    3  C11 UNL     1      -2.298  50.596 -21.069  1.00  0.00     0.019 C 
HETATM    4  C12 UNL     1      -0.808  50.975 -21.159  1.00  0.00     0.010 C 
HETATM    5  C13 UNL     1      -0.516  51.945 -22.295  1.00  0.00     0.009 C 
HETATM    6  C14 UNL     1      -0.788  51.301 -23.674  1.00  0.00     0.025 C 
HETATM    7  C15 UNL     1      -1.926  50.232 -23.600  1.00  0.00     0.001 C 
HETATM    8  C16 UNL     1      -2.482  49.835 -24.977  1.00  0.00     0.007 C 
HETATM    9  C17 UNL     1      -1.577  50.266 -26.129  1.00  0.00     0.013 C 
HETATM   10  C18 UNL     1      -1.412  51.810 -26.204  1.00  0.00    -0.007 C 
HETATM   11  C19 UNL     1      -2.779  52.417 -26.597  1.00  0.00     0.019 C 
HETATM   12  C20 UNL     1      -0.296  52.129 -27.277  1.00  0.00     0.025 C 
HETATM   13  C23 UNL     1       0.982  52.181 -26.431  1.00  0.00     0.011 C 
HETATM   14  C24 UNL     1       0.571  52.877 -25.142  1.00  0.00     0.039 C 
HETATM   15  C25 UNL     1      -0.863  52.358 -24.832  1.00  0.00     0.070 C 
HETATM   16  C26 UNL     1      -3.008  50.460 -22.478  1.00  0.00    -0.033 C 
HETATM   17  C27 UNL     1      -3.829  51.748 -22.736  1.00  0.00     0.016 C 
HETATM   18  C28 UNL     1      -4.061  49.304 -22.447  1.00  0.00     0.016 C 
HETATM   19  C29 UNL     1      -3.513  47.994 -21.895  1.00  0.00     0.065 C 
ENDROOT
BRANCH   1  20
HETATM   20  O4  UNL     1      -3.178  47.216 -19.585  1.00  0.00    -0.325 OA
BRANCH  20  21
HETATM   21  C8  UNL     1      -2.389  47.456 -18.393  1.00  0.00     0.269 C 
HETATM   22  C7  UNL     1      -2.874  46.494 -17.305  1.00  0.00     0.095 C 
HETATM   23  C6  UNL     1      -3.730  47.183 -16.249  1.00  0.00     0.154 C 
HETATM   24  C5  UNL     1      -2.988  48.385 -15.627  1.00  0.00     0.182 C 
HETATM   25  C30 UNL     1      -2.069  49.095 -16.657  1.00  0.00     0.152 C 
HETATM   26  O7  UNL     1      -2.466  48.823 -17.997  1.00  0.00    -0.353 OA
HETATM   27  C31 UNL     1      -0.567  48.856 -16.479  1.00  0.00     0.042 C 
BRANCH  23  28
HETATM   28  O3  UNL     1      -4.974  47.622 -16.808  1.00  0.00    -0.393 OA
HETATM   29  H10 UNL     1      -5.302  46.916 -17.399  1.00  0.00     0.210 HD
ENDBRANCH  23  28
BRANCH  24  30
HETATM   30  O2  UNL     1      -2.189  48.014 -14.495  1.00  0.00    -0.351 OA
BRANCH  30  31
HETATM   31  C4  UNL     1      -2.690  48.451 -13.236  1.00  0.00     0.263 C 
HETATM   32  C3  UNL     1      -3.046  49.928 -13.391  1.00  0.00     0.095 C 
HETATM   33  C2  UNL     1      -2.911  50.669 -12.071  1.00  0.00     0.156 C 
HETATM   34  C34 UNL     1      -1.485  50.509 -11.486  1.00  0.00     0.175 C 
HETATM   35  C32 UNL     1      -0.773  49.291 -12.111  1.00  0.00     0.151 C 
HETATM   36  O8  UNL     1      -1.722  48.217 -12.212  1.00  0.00    -0.354 OA
HETATM   37  C33 UNL     1       0.424  48.806 -11.301  1.00  0.00     0.042 C 
BRANCH  33  38
HETATM   38  O1  UNL     1      -3.224  52.045 -12.336  1.00  0.00    -0.388 OA
HETATM   39  C1  UNL     1      -4.068  52.629 -11.348  1.00  0.00     0.202 C 
ENDBRANCH  33  38
BRANCH  34  40
HETATM   40  O9  UNL     1      -1.622  50.343 -10.059  1.00  0.00    -0.390 OA
HETATM   41  H56 UNL     1      -1.935  49.437  -9.919  1.00  0.00     0.210 HD
ENDBRANCH  34  40
ENDBRANCH  30  31
ENDBRANCH  24  30
ENDBRANCH  20  21
ENDBRANCH   1  20
BRANCH  15  42
HETATM   42  O6  UNL     1      -1.687  53.441 -24.397  1.00  0.00    -0.389 OA
HETATM   43  H39 UNL     1      -1.169  54.267 -24.426  1.00  0.00     0.210 HD
ENDBRANCH  15  42
BRANCH  12  44
HETATM   44  C21 UNL     1      -0.506  53.402 -28.140  1.00  0.00     0.119 C 
HETATM   45  C22 UNL     1      -0.018  54.679 -27.465  1.00  0.00     0.040 C 
BRANCH  44  46
HETATM   46  O5  UNL     1      -1.877  53.587 -28.489  1.00  0.00    -0.396 OA
HETATM   47  H34 UNL     1      -1.896  54.162 -29.269  1.00  0.00     0.210 HD
ENDBRANCH  44  46
ENDBRANCH  12  44
TORSDOF 10
ENDMDL
MODEL 9
REMARK minimizedAffinity -10.0778074
REMARK CNNscore 0.366006643
REMARK CNNaffinity 6.65273666
REMARK  10 active torsions:
REMARK  status: ('A' for Active; 'I' for Inactive)
REMARK    1  A    between atoms: O1_2  and  C2_3 
REMARK    2  A    between atoms: C4_5  and  O2_6 
REMARK    3  A    between atoms: O2_6  and  C5_7 
REMARK    4  A    between atoms: C6_8  and  O3_9 
REMARK    5  A    between atoms: C8_11  and  O4_12 
REMARK    6  A    between atoms: O4_12  and  C9_13 
REMARK    7  A    between atoms: C20_24  and  C21_25 
REMARK    8  A    between atoms: C21_25  and  O5_27 
REMARK    9  A    between atoms: C25_30  and  O6_31 
REMARK   10  A    between atoms: C34_42  and  O9_43 
ROOT
HETATM    1  C9  UNL     1      -4.577  49.093 -20.574  1.00  0.00     0.046 C 
HETATM    2  C10 UNL     1      -3.915  50.212 -20.244  1.00  0.00     0.011 C 
HETATM    3  C11 UNL     1      -3.380  51.212 -21.251  1.00  0.00     0.019 C 
HETATM    4  C12 UNL     1      -1.867  51.369 -21.004  1.00  0.00     0.010 C 
HETATM    5  C13 UNL     1      -1.157  52.080 -22.148  1.00  0.00     0.009 C 
HETATM    6  C14 UNL     1      -1.205  51.247 -23.450  1.00  0.00     0.025 C 
HETATM    7  C15 UNL     1      -2.494  50.367 -23.527  1.00  0.00     0.001 C 
HETATM    8  C16 UNL     1      -2.773  49.813 -24.934  1.00  0.00     0.007 C 
HETATM    9  C17 UNL     1      -1.564  49.914 -25.861  1.00  0.00     0.013 C 
HETATM   10  C18 UNL     1      -1.124  51.386 -26.100  1.00  0.00    -0.007 C 
HETATM   11  C19 UNL     1      -2.237  52.090 -26.910  1.00  0.00     0.019 C 
HETATM   12  C20 UNL     1       0.249  51.363 -26.882  1.00  0.00     0.025 C 
HETATM   13  C23 UNL     1       1.284  51.392 -25.751  1.00  0.00     0.011 C 
HETATM   14  C24 UNL     1       0.708  52.350 -24.717  1.00  0.00     0.039 C 
HETATM   15  C25 UNL     1      -0.825  52.087 -24.720  1.00  0.00     0.070 C 
HETATM   16  C26 UNL     1      -3.753  50.927 -22.763  1.00  0.00    -0.033 C 
HETATM   17  C27 UNL     1      -4.258  52.248 -23.397  1.00  0.00     0.016 C 
HETATM   18  C28 UNL     1      -4.966  49.943 -22.848  1.00  0.00     0.016 C 
HETATM   19  C29 UNL     1      -4.794  48.689 -22.001  1.00  0.00     0.065 C 
ENDROOT
BRANCH   1  20
HETATM   20  O4  UNL     1      -5.146  48.287 -19.600  1.00  0.00    -0.325 OA
BRANCH  20  21
HETATM   21  C8  UNL     1      -6.423  47.766 -20.047  1.00  0.00     0.269 C 
HETATM   22  C7  UNL     1      -7.507  48.775 -19.657  1.00  0.00     0.095 C 
HETATM   23  C6  UNL     1      -8.329  48.321 -18.457  1.00  0.00     0.154 C 
HETATM   24  C5  UNL     1      -8.940  46.924 -18.695  1.00  0.00     0.182 C 
HETATM   25  C30 UNL     1      -8.012  46.024 -19.554  1.00  0.00     0.152 C 
HETATM   26  O7  UNL     1      -6.658  46.466 -19.512  1.00  0.00    -0.353 OA
HETATM   27  C31 UNL     1      -8.461  45.796 -20.999  1.00  0.00     0.042 C 
BRANCH  23  28
HETATM   28  O3  UNL     1      -7.527  48.300 -17.269  1.00  0.00    -0.393 OA
HETATM   29  H10 UNL     1      -6.966  49.099 -17.274  1.00  0.00     0.210 HD
ENDBRANCH  23  28
BRANCH  24  30
HETATM   30  O2  UNL     1     -10.222  46.985 -19.336  1.00  0.00    -0.351 OA
BRANCH  30  31
HETATM   31  C4  UNL     1     -11.161  47.862 -18.723  1.00  0.00     0.263 C 
HETATM   32  C3  UNL     1     -11.774  47.102 -17.549  1.00  0.00     0.095 C 
HETATM   33  C2  UNL     1     -13.190  47.575 -17.267  1.00  0.00     0.156 C 
HETATM   34  C34 UNL     1     -14.083  47.446 -18.527  1.00  0.00     0.175 C 
HETATM   35  C32 UNL     1     -13.217  47.352 -19.800  1.00  0.00     0.151 C 
HETATM   36  O8  UNL     1     -12.134  48.289 -19.678  1.00  0.00    -0.354 OA
HETATM   37  C33 UNL     1     -13.984  47.663 -21.080  1.00  0.00     0.042 C 
BRANCH  33  38
HETATM   38  O1  UNL     1     -13.684  46.772 -16.182  1.00  0.00    -0.388 OA
HETATM   39  C1  UNL     1     -14.246  45.536 -16.609  1.00  0.00     0.202 C 
ENDBRANCH  33  38
BRANCH  34  40
HETATM   40  O9  UNL     1     -14.933  48.611 -18.572  1.00  0.00    -0.390 OA
HETATM   41  H56 UNL     1     -14.374  49.345 -18.869  1.00  0.00     0.210 HD
ENDBRANCH  34  40
ENDBRANCH  30  31
ENDBRANCH  24  30
ENDBRANCH  20  21
ENDBRANCH   1  20
BRANCH  15  42
HETATM   42  O6  UNL     1      -1.530  53.328 -24.663  1.00  0.00    -0.389 OA
HETATM   43  H39 UNL     1      -0.886  54.061 -24.669  1.00  0.00     0.210 HD
ENDBRANCH  15  42
BRANCH  12  44
HETATM   44  C21 UNL     1       0.468  52.483 -27.934  1.00  0.00     0.119 C 
HETATM   45  C22 UNL     1      -0.315  53.757 -27.636  1.00  0.00     0.040 C 
BRANCH  44  46
HETATM   46  O5  UNL     1       0.119  52.053 -29.249  1.00  0.00    -0.396 OA
HETATM   47  H34 UNL     1       0.578  52.637 -29.870  1.00  0.00     0.210 HD
ENDBRANCH  44  46
ENDBRANCH  12  44
TORSDOF 10
ENDMDL
