MODEL 1
REMARK minimizedAffinity -9.99847889
REMARK CNNscore 0.276371777
REMARK CNNaffinity 6.86041975
REMARK  12 active torsions:
REMARK  status: ('A' for Active; 'I' for Inactive)
REMARK    1  A    between atoms: C3_3  and  O1_4 
REMARK    2  A    between atoms: N1_14  and  O2_16 
REMARK    3  A    between atoms: O2_16  and  C13_17 
REMARK    4  A    between atoms: C13_17  and  C14_18 
REMARK       I    between atoms: C14_18  and  N2_20 
REMARK    5  A    between atoms: N2_20  and  C15_21 
REMARK    6  A    between atoms: C15_21  and  C16_22 
REMARK    7  A    between atoms: C15_21  and  C27_38 
REMARK       I    between atoms: C16_22  and  N3_24 
REMARK    8  A    between atoms: N3_24  and  C17_25 
REMARK    9  A    between atoms: C17_25  and  C18_26 
REMARK   10  A    between atoms: C17_25  and  C20_30 
REMARK   11  A    between atoms: C18_26  and  C19_27 
REMARK   12  A    between atoms: C19_27  and  O6_29 
ROOT
HETATM    1  C1  UNL     1       0.182  55.672 -26.804  1.00  0.00     0.015 C 
HETATM    2  C2  UNL     1      -0.091  54.503 -26.864  1.00  0.00    -0.078 C 
HETATM    3  C3  UNL     1      -0.417  53.070 -26.954  1.00  0.00     0.128 C 
HETATM    4  C4  UNL     1       0.843  52.201 -27.015  1.00  0.00     0.052 C 
HETATM    5  C5  UNL     1       0.291  50.804 -26.754  1.00  0.00     0.010 C 
HETATM    6  C6  UNL     1      -0.689  51.017 -25.597  1.00  0.00     0.002 C 
HETATM    7  C7  UNL     1      -1.743  49.907 -25.371  1.00  0.00    -0.004 C 
HETATM    8  C8  UNL     1      -2.377  49.284 -26.625  1.00  0.00     0.010 C 
HETATM    9  C9  UNL     1      -3.353  48.160 -26.272  1.00  0.00     0.035 C 
HETATM   10  C10 UNL     1      -4.370  48.532 -25.215  1.00  0.00    -0.069 C 
HETATM   11  C11 UNL     1      -5.659  48.185 -25.378  1.00  0.00     0.030 C 
HETATM   12  C12 UNL     1      -6.675  48.403 -24.306  1.00  0.00     0.032 C 
HETATM   13  N1  UNL     1      -7.950  48.172 -24.399  1.00  0.00    -0.271 N 
ATOM     14  H1  UNL     1      -8.616  48.338 -23.644  1.00  0.00     0.194 HD
HETATM   15  C30 UNL     1      -6.168  48.874 -22.958  1.00  0.00     0.060 C 
HETATM   16  C31 UNL     1      -5.010  49.842 -23.130  1.00  0.00     0.020 C 
HETATM   17  C32 UNL     1      -3.841  49.256 -23.977  1.00  0.00    -0.016 C 
HETATM   18  C33 UNL     1      -3.096  48.218 -23.095  1.00  0.00     0.020 C 
HETATM   19  C34 UNL     1      -2.842  50.404 -24.397  1.00  0.00     0.002 C 
HETATM   20  C35 UNL     1      -3.548  51.668 -24.958  1.00  0.00     0.007 C 
HETATM   21  C36 UNL     1      -2.742  52.511 -25.951  1.00  0.00     0.014 C 
HETATM   22  C37 UNL     1      -1.220  52.484 -25.733  1.00  0.00     0.003 C 
HETATM   23  C38 UNL     1      -0.893  53.241 -24.416  1.00  0.00     0.020 C 
ENDROOT
BRANCH   3  24
HETATM   24  O1  UNL     1      -1.128  52.855 -28.180  1.00  0.00    -0.377 OA
HETATM   25  H2  UNL     1      -0.664  53.359 -28.869  1.00  0.00     0.211 HD
ENDBRANCH   3  24
BRANCH  13  26
HETATM   26  O2  UNL     1      -8.304  47.668 -25.661  1.00  0.00    -0.271 OA
BRANCH  26  27
HETATM   27  C13 UNL     1      -9.336  48.476 -26.205  1.00  0.00     0.303 C 
BRANCH  27  28
HETATM   28  C14 UNL     1     -10.500  47.625 -26.713  1.00  0.00     0.244 C 
HETATM   29  O3  UNL     1     -10.387  46.467 -27.106  1.00  0.00    -0.271 OA
HETATM   30  N2  UNL     1     -11.716  48.287 -26.671  1.00  0.00    -0.346 N 
HETATM   31  H16 UNL     1     -11.675  49.301 -26.704  1.00  0.00     0.163 HD
BRANCH  30  32
HETATM   32  C15 UNL     1     -12.923  47.701 -27.246  1.00  0.00     0.180 C 
BRANCH  32  33
HETATM   33  C16 UNL     1     -13.564  46.773 -26.188  1.00  0.00     0.241 C 
HETATM   34  O4  UNL     1     -13.129  45.647 -25.956  1.00  0.00    -0.271 OA
HETATM   35  N3  UNL     1     -14.678  47.301 -25.567  1.00  0.00    -0.354 N 
HETATM   36  H18 UNL     1     -15.010  48.213 -25.859  1.00  0.00     0.162 HD
BRANCH  35  37
HETATM   37  C17 UNL     1     -15.452  46.583 -24.541  1.00  0.00     0.098 C 
BRANCH  37  38
HETATM   38  C18 UNL     1     -15.284  47.340 -23.212  1.00  0.00     0.135 C 
BRANCH  38  39
HETATM   39  C19 UNL     1     -13.971  47.065 -22.531  1.00  0.00     0.141 C 
HETATM   40  O5  UNL     1     -12.858  47.057 -23.023  1.00  0.00    -0.650 OA
BRANCH  39  41
HETATM   41  O6  UNL     1     -14.140  46.814 -21.215  1.00  0.00    -0.776 OA
HETATM   42  H22 UNL     1     -13.228  46.685 -20.878  1.00  0.00     0.167 HD
ENDBRANCH  39  41
ENDBRANCH  38  39
ENDBRANCH  37  38
BRANCH  37  43
HETATM   43  C20 UNL     1     -16.931  46.457 -25.019  1.00  0.00     0.014 C 
HETATM   44  C21 UNL     1     -17.972  46.500 -23.899  1.00  0.00     0.033 C 
HETATM   45  C22 UNL     1     -19.395  46.405 -24.446  1.00  0.00     0.169 C 
HETATM   46  O7  UNL     1     -19.466  45.868 -25.763  1.00  0.00    -0.381 OA
HETATM   47  C23 UNL     1     -18.612  44.747 -26.009  1.00  0.00     0.054 C 
HETATM   48  C24 UNL     1     -18.980  43.558 -25.105  1.00  0.00     0.045 C 
HETATM   49  C25 UNL     1     -18.872  44.336 -27.466  1.00  0.00     0.045 C 
HETATM   50  C26 UNL     1     -17.136  45.165 -25.845  1.00  0.00     0.044 C 
ENDBRANCH  37  43
ENDBRANCH  35  37
ENDBRANCH  32  33
BRANCH  32  51
HETATM   51  C27 UNL     1     -12.637  46.943 -28.563  1.00  0.00     0.009 C 
HETATM   52  C28 UNL     1     -12.252  47.867 -29.722  1.00  0.00     0.012 C 
HETATM   53  C29 UNL     1     -13.838  46.081 -28.967  1.00  0.00     0.012 C 
ENDBRANCH  32  51
ENDBRANCH  30  32
ENDBRANCH  27  28
ENDBRANCH  26  27
ENDBRANCH  13  26
TORSDOF 12
ENDMDL
MODEL 2
REMARK minimizedAffinity -9.44469357
REMARK CNNscore 0.260859638
REMARK CNNaffinity 7.3197093
REMARK  12 active torsions:
REMARK  status: ('A' for Active; 'I' for Inactive)
REMARK    1  A    between atoms: C3_3  and  O1_4 
REMARK    2  A    between atoms: N1_14  and  O2_16 
REMARK    3  A    between atoms: O2_16  and  C13_17 
REMARK    4  A    between atoms: C13_17  and  C14_18 
REMARK       I    between atoms: C14_18  and  N2_20 
REMARK    5  A    between atoms: N2_20  and  C15_21 
REMARK    6  A    between atoms: C15_21  and  C16_22 
REMARK    7  A    between atoms: C15_21  and  C27_38 
REMARK       I    between atoms: C16_22  and  N3_24 
REMARK    8  A    between atoms: N3_24  and  C17_25 
REMARK    9  A    between atoms: C17_25  and  C18_26 
REMARK   10  A    between atoms: C17_25  and  C20_30 
REMARK   11  A    between atoms: C18_26  and  C19_27 
REMARK   12  A    between atoms: C19_27  and  O6_29 
ROOT
HETATM    1  C1  UNL     1       3.693  57.852  -7.866  1.00  0.00     0.015 C 
HETATM    2  C2  UNL     1       3.349  56.726  -8.108  1.00  0.00    -0.078 C 
HETATM    3  C3  UNL     1       2.946  55.341  -8.402  1.00  0.00     0.128 C 
HETATM    4  C4  UNL     1       3.245  54.399  -7.232  1.00  0.00     0.052 C 
HETATM    5  C5  UNL     1       2.454  53.151  -7.605  1.00  0.00     0.010 C 
HETATM    6  C6  UNL     1       1.111  53.708  -8.086  1.00  0.00     0.002 C 
HETATM    7  C7  UNL     1       0.238  52.763  -8.947  1.00  0.00    -0.004 C 
HETATM    8  C8  UNL     1       0.968  51.896  -9.986  1.00  0.00     0.010 C 
HETATM    9  C9  UNL     1       0.007  50.963 -10.725  1.00  0.00     0.035 C 
HETATM   10  C10 UNL     1      -1.218  51.654 -11.283  1.00  0.00    -0.069 C 
HETATM   11  C11 UNL     1      -1.637  51.367 -12.529  1.00  0.00     0.030 C 
HETATM   12  C12 UNL     1      -2.915  51.911 -13.076  1.00  0.00     0.032 C 
HETATM   13  N1  UNL     1      -3.361  51.752 -14.286  1.00  0.00    -0.271 N 
ATOM     14  H1  UNL     1      -4.240  52.144 -14.625  1.00  0.00     0.194 HD
HETATM   15  C30 UNL     1      -3.813  52.662 -12.115  1.00  0.00     0.060 C 
HETATM   16  C31 UNL     1      -2.987  53.476 -11.134  1.00  0.00     0.020 C 
HETATM   17  C32 UNL     1      -1.947  52.621 -10.351  1.00  0.00    -0.016 C 
HETATM   18  C33 UNL     1      -2.724  51.783  -9.300  1.00  0.00     0.020 C 
HETATM   19  C34 UNL     1      -0.911  53.559  -9.616  1.00  0.00     0.002 C 
HETATM   20  C35 UNL     1      -0.350  54.692 -10.517  1.00  0.00     0.007 C 
HETATM   21  C36 UNL     1       1.050  55.208 -10.166  1.00  0.00     0.014 C 
HETATM   22  C37 UNL     1       1.409  55.130  -8.673  1.00  0.00     0.003 C 
HETATM   23  C38 UNL     1       0.544  56.164  -7.899  1.00  0.00     0.020 C 
ENDROOT
BRANCH   3  24
HETATM   24  O1  UNL     1       3.725  54.881  -9.514  1.00  0.00    -0.377 OA
HETATM   25  H2  UNL     1       4.640  55.167  -9.356  1.00  0.00     0.211 HD
ENDBRANCH   3  24
BRANCH  13  26
HETATM   26  O2  UNL     1      -2.491  50.979 -15.072  1.00  0.00    -0.271 OA
BRANCH  26  27
HETATM   27  C13 UNL     1      -3.114  50.713 -16.319  1.00  0.00     0.303 C 
BRANCH  27  28
HETATM   28  C14 UNL     1      -2.113  50.154 -17.332  1.00  0.00     0.244 C 
HETATM   29  O3  UNL     1      -0.932  49.931 -17.081  1.00  0.00    -0.271 OA
HETATM   30  N2  UNL     1      -2.678  49.902 -18.571  1.00  0.00    -0.346 N 
HETATM   31  H16 UNL     1      -3.506  50.442 -18.804  1.00  0.00     0.163 HD
BRANCH  30  32
HETATM   32  C15 UNL     1      -1.862  49.503 -19.714  1.00  0.00     0.180 C 
BRANCH  32  33
HETATM   33  C16 UNL     1      -1.784  50.695 -20.695  1.00  0.00     0.241 C 
HETATM   34  O4  UNL     1      -2.723  51.473 -20.857  1.00  0.00    -0.271 OA
HETATM   35  N3  UNL     1      -0.596  50.782 -21.393  1.00  0.00    -0.354 N 
HETATM   36  H18 UNL     1       0.106  50.066 -21.247  1.00  0.00     0.162 HD
BRANCH  35  37
HETATM   37  C17 UNL     1      -0.316  51.829 -22.389  1.00  0.00     0.098 C 
BRANCH  37  38
HETATM   38  C18 UNL     1       1.051  52.447 -22.047  1.00  0.00     0.135 C 
BRANCH  38  39
HETATM   39  C19 UNL     1       0.977  53.510 -20.986  1.00  0.00     0.141 C 
HETATM   40  O5  UNL     1       1.711  54.469 -20.832  1.00  0.00    -0.650 OA
BRANCH  39  41
HETATM   41  O6  UNL     1      -0.063  53.304 -20.151  1.00  0.00    -0.776 OA
HETATM   42  H22 UNL     1      -0.028  54.065 -19.534  1.00  0.00     0.167 HD
ENDBRANCH  39  41
ENDBRANCH  38  39
ENDBRANCH  37  38
BRANCH  37  43
HETATM   43  C20 UNL     1      -0.392  51.203 -23.816  1.00  0.00     0.014 C 
HETATM   44  C21 UNL     1       0.266  52.036 -24.917  1.00  0.00     0.033 C 
HETATM   45  C22 UNL     1       0.181  51.344 -26.277  1.00  0.00     0.169 C 
HETATM   46  O7  UNL     1      -0.828  50.342 -26.345  1.00  0.00    -0.381 OA
HETATM   47  C23 UNL     1      -2.071  50.686 -25.725  1.00  0.00     0.054 C 
HETATM   48  C24 UNL     1      -2.714  51.904 -26.409  1.00  0.00     0.045 C 
HETATM   49  C25 UNL     1      -2.993  49.477 -25.939  1.00  0.00     0.045 C 
HETATM   50  C26 UNL     1      -1.859  50.915 -24.214  1.00  0.00     0.044 C 
ENDBRANCH  37  43
ENDBRANCH  35  37
ENDBRANCH  32  33
BRANCH  32  51
HETATM   51  C27 UNL     1      -2.406  48.234 -20.409  1.00  0.00     0.009 C 
HETATM   52  C28 UNL     1      -1.634  47.859 -21.678  1.00  0.00     0.012 C 
HETATM   53  C29 UNL     1      -3.895  48.391 -20.739  1.00  0.00     0.012 C 
ENDBRANCH  32  51
ENDBRANCH  30  32
ENDBRANCH  27  28
ENDBRANCH  26  27
ENDBRANCH  13  26
TORSDOF 12
ENDMDL
MODEL 3
REMARK minimizedAffinity -9.0142107
REMARK CNNscore 0.2487313
REMARK CNNaffinity 6.65558863
REMARK  12 active torsions:
REMARK  status: ('A' for Active; 'I' for Inactive)
REMARK    1  A    between atoms: C3_3  and  O1_4 
REMARK    2  A    between atoms: N1_14  and  O2_16 
REMARK    3  A    between atoms: O2_16  and  C13_17 
REMARK    4  A    between atoms: C13_17  and  C14_18 
REMARK       I    between atoms: C14_18  and  N2_20 
REMARK    5  A    between atoms: N2_20  and  C15_21 
REMARK    6  A    between atoms: C15_21  and  C16_22 
REMARK    7  A    between atoms: C15_21  and  C27_38 
REMARK       I    between atoms: C16_22  and  N3_24 
REMARK    8  A    between atoms: N3_24  and  C17_25 
REMARK    9  A    between atoms: C17_25  and  C18_26 
REMARK   10  A    between atoms: C17_25  and  C20_30 
REMARK   11  A    between atoms: C18_26  and  C19_27 
REMARK   12  A    between atoms: C19_27  and  O6_29 
ROOT
HETATM    1  C1  UNL     1       0.028  55.193 -26.890  1.00  0.00     0.015 C 
HETATM    2  C2  UNL     1      -0.369  54.058 -26.897  1.00  0.00    -0.078 C 
HETATM    3  C3  UNL     1      -0.848  52.666 -26.923  1.00  0.00     0.128 C 
HETATM    4  C4  UNL     1       0.309  51.667 -27.022  1.00  0.00     0.052 C 
HETATM    5  C5  UNL     1      -0.371  50.344 -26.687  1.00  0.00     0.010 C 
HETATM    6  C6  UNL     1      -1.256  50.691 -25.486  1.00  0.00     0.002 C 
HETATM    7  C7  UNL     1      -2.407  49.706 -25.168  1.00  0.00    -0.004 C 
HETATM    8  C8  UNL     1      -3.172  49.120 -26.366  1.00  0.00     0.010 C 
HETATM    9  C9  UNL     1      -4.238  48.116 -25.925  1.00  0.00     0.035 C 
HETATM   10  C10 UNL     1      -5.150  48.624 -24.829  1.00  0.00    -0.069 C 
HETATM   11  C11 UNL     1      -6.475  48.411 -24.912  1.00  0.00     0.030 C 
HETATM   12  C12 UNL     1      -7.401  48.764 -23.795  1.00  0.00     0.032 C 
HETATM   13  N1  UNL     1      -8.697  48.668 -23.813  1.00  0.00    -0.271 N 
ATOM     14  H1  UNL     1      -9.298  48.924 -23.029  1.00  0.00     0.194 HD
HETATM   15  C30 UNL     1      -6.773  49.215 -22.493  1.00  0.00     0.060 C 
HETATM   16  C31 UNL     1      -5.532  50.049 -22.757  1.00  0.00     0.020 C 
HETATM   17  C32 UNL     1      -4.480  49.320 -23.645  1.00  0.00    -0.016 C 
HETATM   18  C33 UNL     1      -3.799  48.233 -22.770  1.00  0.00     0.020 C 
HETATM   19  C34 UNL     1      -3.392  50.344 -24.155  1.00  0.00     0.002 C 
HETATM   20  C35 UNL     1      -3.992  51.660 -24.719  1.00  0.00     0.007 C 
HETATM   21  C36 UNL     1      -3.158  52.385 -25.781  1.00  0.00     0.014 C 
HETATM   22  C37 UNL     1      -1.638  52.202 -25.643  1.00  0.00     0.003 C 
HETATM   23  C38 UNL     1      -1.160  52.956 -24.370  1.00  0.00     0.020 C 
ENDROOT
BRANCH   3  24
HETATM   24  O1  UNL     1      -1.645  52.495 -28.101  1.00  0.00    -0.377 OA
HETATM   25  H2  UNL     1      -1.170  52.928 -28.830  1.00  0.00     0.211 HD
ENDBRANCH   3  24
BRANCH  13  26
HETATM   26  O2  UNL     1      -9.172  48.170 -25.037  1.00  0.00    -0.271 OA
BRANCH  26  27
HETATM   27  C13 UNL     1      -9.967  47.021 -24.787  1.00  0.00     0.303 C 
BRANCH  27  28
HETATM   28  C14 UNL     1     -11.403  47.222 -25.271  1.00  0.00     0.244 C 
HETATM   29  O3  UNL     1     -11.742  48.075 -26.088  1.00  0.00    -0.271 OA
HETATM   30  N2  UNL     1     -12.297  46.328 -24.707  1.00  0.00    -0.346 N 
HETATM   31  H16 UNL     1     -12.032  45.937 -23.807  1.00  0.00     0.163 HD
BRANCH  30  32
HETATM   32  C15 UNL     1     -13.736  46.447 -24.926  1.00  0.00     0.180 C 
BRANCH  32  33
HETATM   33  C16 UNL     1     -14.382  46.986 -23.630  1.00  0.00     0.241 C 
HETATM   34  O4  UNL     1     -15.071  48.004 -23.616  1.00  0.00    -0.271 OA
HETATM   35  N3  UNL     1     -14.086  46.252 -22.499  1.00  0.00    -0.354 N 
HETATM   36  H18 UNL     1     -13.460  45.460 -22.583  1.00  0.00     0.162 HD
BRANCH  35  37
HETATM   37  C17 UNL     1     -14.583  46.597 -21.156  1.00  0.00     0.098 C 
BRANCH  37  38
HETATM   38  C18 UNL     1     -13.962  47.947 -20.758  1.00  0.00     0.135 C 
BRANCH  38  39
HETATM   39  C19 UNL     1     -13.022  47.849 -19.588  1.00  0.00     0.141 C 
HETATM   40  O5  UNL     1     -11.813  47.712 -19.607  1.00  0.00    -0.650 OA
BRANCH  39  41
HETATM   41  O6  UNL     1     -13.681  47.944 -18.414  1.00  0.00    -0.776 OA
HETATM   42  H22 UNL     1     -12.973  47.901 -17.738  1.00  0.00     0.167 HD
ENDBRANCH  39  41
ENDBRANCH  38  39
ENDBRANCH  37  38
BRANCH  37  43
HETATM   43  C20 UNL     1     -16.143  46.596 -21.179  1.00  0.00     0.014 C 
HETATM   44  C21 UNL     1     -16.804  46.924 -19.840  1.00  0.00     0.033 C 
HETATM   45  C22 UNL     1     -18.328  46.937 -19.949  1.00  0.00     0.169 C 
HETATM   46  O7  UNL     1     -18.825  46.238 -21.086  1.00  0.00    -0.381 OA
HETATM   47  C23 UNL     1     -18.176  44.994 -21.367  1.00  0.00     0.054 C 
HETATM   48  C24 UNL     1     -18.361  43.997 -20.211  1.00  0.00     0.045 C 
HETATM   49  C25 UNL     1     -18.883  44.425 -22.606  1.00  0.00     0.045 C 
HETATM   50  C26 UNL     1     -16.687  45.240 -21.688  1.00  0.00     0.044 C 
ENDBRANCH  37  43
ENDBRANCH  35  37
ENDBRANCH  32  33
BRANCH  32  51
HETATM   51  C27 UNL     1     -14.375  45.108 -25.362  1.00  0.00     0.009 C 
HETATM   52  C28 UNL     1     -13.755  44.527 -26.637  1.00  0.00     0.012 C 
HETATM   53  C29 UNL     1     -15.888  45.262 -25.549  1.00  0.00     0.012 C 
ENDBRANCH  32  51
ENDBRANCH  30  32
ENDBRANCH  27  28
ENDBRANCH  26  27
ENDBRANCH  13  26
TORSDOF 12
ENDMDL
MODEL 4
REMARK minimizedAffinity -9.32017422
REMARK CNNscore 0.214789093
REMARK CNNaffinity 6.81684542
REMARK  12 active torsions:
REMARK  status: ('A' for Active; 'I' for Inactive)
REMARK    1  A    between atoms: C3_3  and  O1_4 
REMARK    2  A    between atoms: N1_14  and  O2_16 
REMARK    3  A    between atoms: O2_16  and  C13_17 
REMARK    4  A    between atoms: C13_17  and  C14_18 
REMARK       I    between atoms: C14_18  and  N2_20 
REMARK    5  A    between atoms: N2_20  and  C15_21 
REMARK    6  A    between atoms: C15_21  and  C16_22 
REMARK    7  A    between atoms: C15_21  and  C27_38 
REMARK       I    between atoms: C16_22  and  N3_24 
REMARK    8  A    between atoms: N3_24  and  C17_25 
REMARK    9  A    between atoms: C17_25  and  C18_26 
REMARK   10  A    between atoms: C17_25  and  C20_30 
REMARK   11  A    between atoms: C18_26  and  C19_27 
REMARK   12  A    between atoms: C19_27  and  O6_29 
ROOT
HETATM    1  C1  UNL     1      -0.766  53.570 -28.069  1.00  0.00     0.015 C 
HETATM    2  C2  UNL     1      -1.437  52.922 -27.311  1.00  0.00    -0.078 C 
HETATM    3  C3  UNL     1      -2.275  52.133 -26.391  1.00  0.00     0.128 C 
HETATM    4  C4  UNL     1      -3.032  51.020 -27.123  1.00  0.00     0.052 C 
HETATM    5  C5  UNL     1      -3.529  50.152 -25.973  1.00  0.00     0.010 C 
HETATM    6  C6  UNL     1      -2.313  50.055 -25.046  1.00  0.00     0.002 C 
HETATM    7  C7  UNL     1      -2.590  49.623 -23.586  1.00  0.00    -0.004 C 
HETATM    8  C8  UNL     1      -3.848  50.202 -22.916  1.00  0.00     0.010 C 
HETATM    9  C9  UNL     1      -4.044  49.652 -21.502  1.00  0.00     0.035 C 
HETATM   10  C10 UNL     1      -2.812  49.740 -20.628  1.00  0.00    -0.069 C 
HETATM   11  C11 UNL     1      -2.925  50.160 -19.356  1.00  0.00     0.030 C 
HETATM   12  C12 UNL     1      -1.769  50.132 -18.411  1.00  0.00     0.032 C 
HETATM   13  N1  UNL     1      -1.763  50.586 -17.193  1.00  0.00    -0.271 N 
ATOM     14  H1  UNL     1      -0.950  50.553 -16.577  1.00  0.00     0.194 HD
HETATM   15  C30 UNL     1      -0.503  49.452 -18.887  1.00  0.00     0.060 C 
HETATM   16  C31 UNL     1      -0.281  49.709 -20.368  1.00  0.00     0.020 C 
HETATM   17  C32 UNL     1      -1.492  49.286 -21.252  1.00  0.00    -0.016 C 
HETATM   18  C33 UNL     1      -1.502  47.736 -21.325  1.00  0.00     0.020 C 
HETATM   19  C34 UNL     1      -1.340  49.881 -22.707  1.00  0.00     0.002 C 
HETATM   20  C35 UNL     1      -0.949  51.383 -22.726  1.00  0.00     0.007 C 
HETATM   21  C36 UNL     1      -1.399  52.186 -23.952  1.00  0.00     0.014 C 
HETATM   22  C37 UNL     1      -1.495  51.374 -25.254  1.00  0.00     0.003 C 
HETATM   23  C38 UNL     1      -0.059  50.986 -25.704  1.00  0.00     0.020 C 
ENDROOT
BRANCH   3  24
HETATM   24  O1  UNL     1      -3.263  53.008 -25.833  1.00  0.00    -0.377 OA
HETATM   25  H2  UNL     1      -3.605  53.551 -26.562  1.00  0.00     0.211 HD
ENDBRANCH   3  24
BRANCH  13  26
HETATM   26  O2  UNL     1      -3.005  51.128 -16.825  1.00  0.00    -0.271 OA
BRANCH  26  27
HETATM   27  C13 UNL     1      -3.097  51.143 -15.409  1.00  0.00     0.303 C 
BRANCH  27  28
HETATM   28  C14 UNL     1      -1.860  50.516 -14.764  1.00  0.00     0.244 C 
HETATM   29  O3  UNL     1      -1.694  49.306 -14.624  1.00  0.00    -0.271 OA
HETATM   30  N2  UNL     1      -0.922  51.452 -14.365  1.00  0.00    -0.346 N 
HETATM   31  H16 UNL     1      -1.275  52.384 -14.168  1.00  0.00     0.163 HD
BRANCH  30  32
HETATM   32  C15 UNL     1       0.261  51.068 -13.599  1.00  0.00     0.180 C 
BRANCH  32  33
HETATM   33  C16 UNL     1       0.372  52.004 -12.374  1.00  0.00     0.241 C 
HETATM   34  O4  UNL     1      -0.148  53.118 -12.351  1.00  0.00    -0.271 OA
HETATM   35  N3  UNL     1       1.132  51.498 -11.339  1.00  0.00    -0.354 N 
HETATM   36  H18 UNL     1       1.579  50.596 -11.459  1.00  0.00     0.162 HD
BRANCH  35  37
HETATM   37  C17 UNL     1       1.383  52.228 -10.084  1.00  0.00     0.098 C 
BRANCH  37  38
HETATM   38  C18 UNL     1       1.453  51.195  -8.947  1.00  0.00     0.135 C 
BRANCH  38  39
HETATM   39  C19 UNL     1       0.541  51.514  -7.794  1.00  0.00     0.141 C 
HETATM   40  O5  UNL     1       0.710  51.268  -6.614  1.00  0.00    -0.650 OA
BRANCH  39  41
HETATM   41  O6  UNL     1      -0.572  52.158  -8.206  1.00  0.00    -0.776 OA
HETATM   42  H22 UNL     1      -1.064  52.339  -7.378  1.00  0.00     0.167 HD
ENDBRANCH  39  41
ENDBRANCH  38  39
ENDBRANCH  37  38
BRANCH  37  43
HETATM   43  C20 UNL     1       2.677  53.084 -10.247  1.00  0.00     0.014 C 
HETATM   44  C21 UNL     1       3.687  52.941  -9.108  1.00  0.00     0.033 C 
HETATM   45  C22 UNL     1       4.939  53.781  -9.354  1.00  0.00     0.169 C 
HETATM   46  O7  UNL     1       4.749  54.825 -10.304  1.00  0.00    -0.381 OA
HETATM   47  C23 UNL     1       3.515  55.539 -10.185  1.00  0.00     0.054 C 
HETATM   48  C24 UNL     1       3.416  56.254  -8.826  1.00  0.00     0.045 C 
HETATM   49  C25 UNL     1       3.544  56.609 -11.286  1.00  0.00     0.045 C 
HETATM   50  C26 UNL     1       2.329  54.581 -10.424  1.00  0.00     0.044 C 
ENDBRANCH  37  43
ENDBRANCH  35  37
ENDBRANCH  32  33
BRANCH  32  51
HETATM   51  C27 UNL     1       1.549  51.101 -14.454  1.00  0.00     0.009 C 
HETATM   52  C28 UNL     1       2.744  51.724 -13.726  1.00  0.00     0.012 C 
HETATM   53  C29 UNL     1       1.307  51.841 -15.774  1.00  0.00     0.012 C 
ENDBRANCH  32  51
ENDBRANCH  30  32
ENDBRANCH  27  28
ENDBRANCH  26  27
ENDBRANCH  13  26
TORSDOF 12
ENDMDL
MODEL 5
REMARK minimizedAffinity -9.21723938
REMARK CNNscore 0.193621397
REMARK CNNaffinity 6.79469299
REMARK  12 active torsions:
REMARK  status: ('A' for Active; 'I' for Inactive)
REMARK    1  A    between atoms: C3_3  and  O1_4 
REMARK    2  A    between atoms: N1_14  and  O2_16 
REMARK    3  A    between atoms: O2_16  and  C13_17 
REMARK    4  A    between atoms: C13_17  and  C14_18 
REMARK       I    between atoms: C14_18  and  N2_20 
REMARK    5  A    between atoms: N2_20  and  C15_21 
REMARK    6  A    between atoms: C15_21  and  C16_22 
REMARK    7  A    between atoms: C15_21  and  C27_38 
REMARK       I    between atoms: C16_22  and  N3_24 
REMARK    8  A    between atoms: N3_24  and  C17_25 
REMARK    9  A    between atoms: C17_25  and  C18_26 
REMARK   10  A    between atoms: C17_25  and  C20_30 
REMARK   11  A    between atoms: C18_26  and  C19_27 
REMARK   12  A    between atoms: C19_27  and  O6_29 
ROOT
HETATM    1  C1  UNL     1       0.108  53.403 -24.423  1.00  0.00     0.015 C 
HETATM    2  C2  UNL     1      -0.418  52.657 -23.641  1.00  0.00    -0.078 C 
HETATM    3  C3  UNL     1      -1.076  51.739 -22.695  1.00  0.00     0.128 C 
HETATM    4  C4  UNL     1      -1.181  50.319 -23.259  1.00  0.00     0.052 C 
HETATM    5  C5  UNL     1      -1.553  49.504 -22.025  1.00  0.00     0.010 C 
HETATM    6  C6  UNL     1      -0.622  50.053 -20.940  1.00  0.00     0.002 C 
HETATM    7  C7  UNL     1      -1.027  49.768 -19.473  1.00  0.00    -0.004 C 
HETATM    8  C8  UNL     1      -2.522  49.871 -19.132  1.00  0.00     0.010 C 
HETATM    9  C9  UNL     1      -2.799  49.506 -17.672  1.00  0.00     0.035 C 
HETATM   10  C10 UNL     1      -1.912  50.220 -16.677  1.00  0.00    -0.069 C 
HETATM   11  C11 UNL     1      -2.448  50.741 -15.558  1.00  0.00     0.030 C 
HETATM   12  C12 UNL     1      -1.601  51.330 -14.479  1.00  0.00     0.032 C 
HETATM   13  N1  UNL     1      -2.030  51.922 -13.405  1.00  0.00    -0.271 N 
ATOM     14  H1  UNL     1      -1.419  52.318 -12.689  1.00  0.00     0.194 HD
HETATM   15  C30 UNL     1      -0.101  51.168 -14.611  1.00  0.00     0.060 C 
HETATM   16  C31 UNL     1       0.323  51.270 -16.065  1.00  0.00     0.020 C 
HETATM   17  C32 UNL     1      -0.417  50.262 -16.993  1.00  0.00    -0.016 C 
HETATM   18  C33 UNL     1       0.172  48.852 -16.719  1.00  0.00     0.020 C 
HETATM   19  C34 UNL     1      -0.188  50.644 -18.508  1.00  0.00     0.002 C 
HETATM   20  C35 UNL     1      -0.396  52.153 -18.807  1.00  0.00     0.007 C 
HETATM   21  C36 UNL     1      -0.837  52.508 -20.231  1.00  0.00     0.014 C 
HETATM   22  C37 UNL     1      -0.335  51.546 -21.320  1.00  0.00     0.003 C 
HETATM   23  C38 UNL     1       1.202  51.720 -21.468  1.00  0.00     0.020 C 
ENDROOT
BRANCH   3  24
HETATM   24  O1  UNL     1      -2.416  52.204 -22.489  1.00  0.00    -0.377 OA
HETATM   25  H2  UNL     1      -2.770  52.443 -23.362  1.00  0.00     0.211 HD
ENDBRANCH   3  24
BRANCH  13  26
HETATM   26  O2  UNL     1      -3.433  51.954 -13.343  1.00  0.00    -0.271 OA
BRANCH  26  27
HETATM   27  C13 UNL     1      -3.839  53.186 -12.770  1.00  0.00     0.303 C 
BRANCH  27  28
HETATM   28  C14 UNL     1      -3.659  53.180 -11.252  1.00  0.00     0.244 C 
HETATM   29  O3  UNL     1      -4.573  53.006 -10.450  1.00  0.00    -0.271 OA
HETATM   30  N2  UNL     1      -2.344  53.374 -10.860  1.00  0.00    -0.346 N 
HETATM   31  H16 UNL     1      -1.750  53.868 -11.518  1.00  0.00     0.163 HD
BRANCH  30  32
HETATM   32  C15 UNL     1      -1.985  53.545  -9.455  1.00  0.00     0.180 C 
BRANCH  32  33
HETATM   33  C16 UNL     1      -1.213  54.876  -9.310  1.00  0.00     0.241 C 
HETATM   34  O4  UNL     1      -1.255  55.755 -10.170  1.00  0.00    -0.271 OA
HETATM   35  N3  UNL     1      -0.450  54.970  -8.163  1.00  0.00    -0.354 N 
HETATM   36  H18 UNL     1      -0.420  54.177  -7.533  1.00  0.00     0.162 HD
BRANCH  35  37
HETATM   37  C17 UNL     1       0.377  56.143  -7.833  1.00  0.00     0.098 C 
BRANCH  37  38
HETATM   38  C18 UNL     1       0.127  56.491  -6.356  1.00  0.00     0.135 C 
BRANCH  38  39
HETATM   39  C19 UNL     1      -0.205  55.293  -5.508  1.00  0.00     0.141 C 
HETATM   40  O5  UNL     1      -1.305  54.893  -5.174  1.00  0.00    -0.650 OA
BRANCH  39  41
HETATM   41  O6  UNL     1       0.909  54.635  -5.123  1.00  0.00    -0.776 OA
HETATM   42  H22 UNL     1       0.570  53.869  -4.614  1.00  0.00     0.167 HD
ENDBRANCH  39  41
ENDBRANCH  38  39
ENDBRANCH  37  38
BRANCH  37  43
HETATM   43  C20 UNL     1       1.866  55.822  -8.168  1.00  0.00     0.014 C 
HETATM   44  C21 UNL     1       2.841  56.973  -7.919  1.00  0.00     0.033 C 
HETATM   45  C22 UNL     1       4.281  56.574  -8.237  1.00  0.00     0.169 C 
HETATM   46  O7  UNL     1       4.383  55.434  -9.085  1.00  0.00    -0.381 OA
HETATM   47  C23 UNL     1       3.457  55.402 -10.175  1.00  0.00     0.054 C 
HETATM   48  C24 UNL     1       3.674  56.590 -11.126  1.00  0.00     0.045 C 
HETATM   49  C25 UNL     1       3.765  54.110 -10.947  1.00  0.00     0.045 C 
HETATM   50  C26 UNL     1       2.012  55.350  -9.634  1.00  0.00     0.044 C 
ENDBRANCH  37  43
ENDBRANCH  35  37
ENDBRANCH  32  33
BRANCH  32  51
HETATM   51  C27 UNL     1      -1.164  52.354  -8.910  1.00  0.00     0.009 C 
HETATM   52  C28 UNL     1      -1.212  52.232  -7.384  1.00  0.00     0.012 C 
HETATM   53  C29 UNL     1       0.294  52.439  -9.376  1.00  0.00     0.012 C 
ENDBRANCH  32  51
ENDBRANCH  30  32
ENDBRANCH  27  28
ENDBRANCH  26  27
ENDBRANCH  13  26
TORSDOF 12
ENDMDL
MODEL 6
REMARK minimizedAffinity -9.52429485
REMARK CNNscore 0.18197526
REMARK CNNaffinity 6.78767252
REMARK  12 active torsions:
REMARK  status: ('A' for Active; 'I' for Inactive)
REMARK    1  A    between atoms: C3_3  and  O1_4 
REMARK    2  A    between atoms: N1_14  and  O2_16 
REMARK    3  A    between atoms: O2_16  and  C13_17 
REMARK    4  A    between atoms: C13_17  and  C14_18 
REMARK       I    between atoms: C14_18  and  N2_20 
REMARK    5  A    between atoms: N2_20  and  C15_21 
REMARK    6  A    between atoms: C15_21  and  C16_22 
REMARK    7  A    between atoms: C15_21  and  C27_38 
REMARK       I    between atoms: C16_22  and  N3_24 
REMARK    8  A    between atoms: N3_24  and  C17_25 
REMARK    9  A    between atoms: C17_25  and  C18_26 
REMARK   10  A    between atoms: C17_25  and  C20_30 
REMARK   11  A    between atoms: C18_26  and  C19_27 
REMARK   12  A    between atoms: C19_27  and  O6_29 
ROOT
HETATM    1  C1  UNL     1       0.363  55.698 -26.067  1.00  0.00     0.015 C 
HETATM    2  C2  UNL     1      -0.005  54.564 -26.221  1.00  0.00    -0.078 C 
HETATM    3  C3  UNL     1      -0.452  53.176 -26.428  1.00  0.00     0.128 C 
HETATM    4  C4  UNL     1       0.697  52.268 -26.877  1.00  0.00     0.052 C 
HETATM    5  C5  UNL     1       0.106  50.875 -26.690  1.00  0.00     0.010 C 
HETATM    6  C6  UNL     1      -0.591  50.962 -25.329  1.00  0.00     0.002 C 
HETATM    7  C7  UNL     1      -1.658  49.881 -25.028  1.00  0.00    -0.004 C 
HETATM    8  C8  UNL     1      -2.586  49.478 -26.186  1.00  0.00     0.010 C 
HETATM    9  C9  UNL     1      -3.549  48.361 -25.782  1.00  0.00     0.035 C 
HETATM   10  C10 UNL     1      -4.291  48.622 -24.489  1.00  0.00    -0.069 C 
HETATM   11  C11 UNL     1      -5.609  48.363 -24.412  1.00  0.00     0.030 C 
HETATM   12  C12 UNL     1      -6.359  48.469 -23.125  1.00  0.00     0.032 C 
HETATM   13  N1  UNL     1      -7.639  48.313 -22.969  1.00  0.00    -0.271 N 
ATOM     14  H1  UNL     1      -8.118  48.398 -22.071  1.00  0.00     0.194 HD
HETATM   15  C30 UNL     1      -5.547  48.714 -21.870  1.00  0.00     0.060 C 
HETATM   16  C31 UNL     1      -4.379  49.641 -22.160  1.00  0.00     0.020 C 
HETATM   17  C32 UNL     1      -3.462  49.131 -23.311  1.00  0.00    -0.016 C 
HETATM   18  C33 UNL     1      -2.631  47.943 -22.758  1.00  0.00     0.020 C 
HETATM   19  C34 UNL     1      -2.488  50.281 -23.782  1.00  0.00     0.002 C 
HETATM   20  C35 UNL     1      -3.196  51.645 -24.003  1.00  0.00     0.007 C 
HETATM   21  C36 UNL     1      -2.552  52.586 -25.026  1.00  0.00     0.014 C 
HETATM   22  C37 UNL     1      -1.025  52.456 -25.150  1.00  0.00     0.003 C 
HETATM   23  C38 UNL     1      -0.373  52.997 -23.847  1.00  0.00     0.020 C 
ENDROOT
BRANCH   3  24
HETATM   24  O1  UNL     1      -1.418  53.176 -27.487  1.00  0.00    -0.377 OA
HETATM   25  H2  UNL     1      -1.071  53.754 -28.187  1.00  0.00     0.211 HD
ENDBRANCH   3  24
BRANCH  13  26
HETATM   26  O2  UNL     1      -8.287  48.016 -24.179  1.00  0.00    -0.271 OA
BRANCH  26  27
HETATM   27  C13 UNL     1      -9.466  47.279 -23.898  1.00  0.00     0.303 C 
BRANCH  27  28
HETATM   28  C14 UNL     1      -9.427  45.897 -24.551  1.00  0.00     0.244 C 
HETATM   29  O3  UNL     1      -8.412  45.211 -24.653  1.00  0.00    -0.271 OA
HETATM   30  N2  UNL     1     -10.665  45.475 -25.008  1.00  0.00    -0.346 N 
HETATM   31  H16 UNL     1     -11.333  46.207 -25.228  1.00  0.00     0.163 HD
BRANCH  30  32
HETATM   32  C15 UNL     1     -10.812  44.251 -25.789  1.00  0.00     0.180 C 
BRANCH  32  33
HETATM   33  C16 UNL     1     -10.929  44.637 -27.281  1.00  0.00     0.241 C 
HETATM   34  O4  UNL     1     -10.790  43.813 -28.184  1.00  0.00    -0.271 OA
HETATM   35  N3  UNL     1     -11.159  45.979 -27.505  1.00  0.00    -0.354 N 
HETATM   36  H18 UNL     1     -11.200  46.605 -26.709  1.00  0.00     0.162 HD
BRANCH  35  37
HETATM   37  C17 UNL     1     -11.288  46.567 -28.849  1.00  0.00     0.098 C 
BRANCH  37  38
HETATM   38  C18 UNL     1     -12.203  47.799 -28.737  1.00  0.00     0.135 C 
BRANCH  38  39
HETATM   39  C19 UNL     1     -12.567  48.143 -27.319  1.00  0.00     0.141 C 
HETATM   40  O5  UNL     1     -13.512  47.736 -26.667  1.00  0.00    -0.650 OA
BRANCH  39  41
HETATM   41  O6  UNL     1     -11.684  49.006 -26.776  1.00  0.00    -0.776 OA
HETATM   42  H22 UNL     1     -12.002  49.128 -25.857  1.00  0.00     0.167 HD
ENDBRANCH  39  41
ENDBRANCH  38  39
ENDBRANCH  37  38
BRANCH  37  43
HETATM   43  C20 UNL     1      -9.864  46.880 -29.403  1.00  0.00     0.014 C 
HETATM   44  C21 UNL     1      -8.955  47.643 -28.439  1.00  0.00     0.033 C 
HETATM   45  C22 UNL     1      -7.570  47.883 -29.037  1.00  0.00     0.169 C 
HETATM   46  O7  UNL     1      -7.533  47.767 -30.456  1.00  0.00    -0.381 OA
HETATM   47  C23 UNL     1      -8.637  48.363 -31.144  1.00  0.00     0.054 C 
HETATM   48  C24 UNL     1      -8.692  49.880 -30.898  1.00  0.00     0.045 C 
HETATM   49  C25 UNL     1      -8.372  48.131 -32.639  1.00  0.00     0.045 C 
HETATM   50  C26 UNL     1      -9.950  47.662 -30.735  1.00  0.00     0.044 C 
ENDBRANCH  37  43
ENDBRANCH  35  37
ENDBRANCH  32  33
BRANCH  32  51
HETATM   51  C27 UNL     1     -12.021  43.404 -25.328  1.00  0.00     0.009 C 
HETATM   52  C28 UNL     1     -11.790  41.895 -25.458  1.00  0.00     0.012 C 
HETATM   53  C29 UNL     1     -13.287  43.799 -26.097  1.00  0.00     0.012 C 
ENDBRANCH  32  51
ENDBRANCH  30  32
ENDBRANCH  27  28
ENDBRANCH  26  27
ENDBRANCH  13  26
TORSDOF 12
ENDMDL
MODEL 7
REMARK minimizedAffinity -9.82268143
REMARK CNNscore 0.154224515
REMARK CNNaffinity 6.66301966
REMARK  12 active torsions:
REMARK  status: ('A' for Active; 'I' for Inactive)
REMARK    1  A    between atoms: C3_3  and  O1_4 
REMARK    2  A    between atoms: N1_14  and  O2_16 
REMARK    3  A    between atoms: O2_16  and  C13_17 
REMARK    4  A    between atoms: C13_17  and  C14_18 
REMARK       I    between atoms: C14_18  and  N2_20 
REMARK    5  A    between atoms: N2_20  and  C15_21 
REMARK    6  A    between atoms: C15_21  and  C16_22 
REMARK    7  A    between atoms: C15_21  and  C27_38 
REMARK       I    between atoms: C16_22  and  N3_24 
REMARK    8  A    between atoms: N3_24  and  C17_25 
REMARK    9  A    between atoms: C17_25  and  C18_26 
REMARK   10  A    between atoms: C17_25  and  C20_30 
REMARK   11  A    between atoms: C18_26  and  C19_27 
REMARK   12  A    between atoms: C19_27  and  O6_29 
ROOT
HETATM    1  C1  UNL     1       0.511  55.666 -25.107  1.00  0.00     0.015 C 
HETATM    2  C2  UNL     1       0.081  54.573 -25.360  1.00  0.00    -0.078 C 
HETATM    3  C3  UNL     1      -0.443  53.236 -25.689  1.00  0.00     0.128 C 
HETATM    4  C4  UNL     1       0.620  52.355 -26.353  1.00  0.00     0.052 C 
HETATM    5  C5  UNL     1      -0.011  50.969 -26.279  1.00  0.00     0.010 C 
HETATM    6  C6  UNL     1      -0.576  50.908 -24.857  1.00  0.00     0.002 C 
HETATM    7  C7  UNL     1      -1.655  49.832 -24.587  1.00  0.00    -0.004 C 
HETATM    8  C8  UNL     1      -2.703  49.606 -25.691  1.00  0.00     0.010 C 
HETATM    9  C9  UNL     1      -3.672  48.479 -25.333  1.00  0.00     0.035 C 
HETATM   10  C10 UNL     1      -4.280  48.600 -23.953  1.00  0.00    -0.069 C 
HETATM   11  C11 UNL     1      -5.595  48.375 -23.780  1.00  0.00     0.030 C 
HETATM   12  C12 UNL     1      -6.218  48.343 -22.424  1.00  0.00     0.032 C 
HETATM   13  N1  UNL     1      -7.484  48.211 -22.164  1.00  0.00    -0.271 N 
ATOM     14  H1  UNL     1      -7.874  48.198 -21.221  1.00  0.00     0.194 HD
HETATM   15  C30 UNL     1      -5.284  48.404 -21.233  1.00  0.00     0.060 C 
HETATM   16  C31 UNL     1      -4.109  49.323 -21.520  1.00  0.00     0.020 C 
HETATM   17  C32 UNL     1      -3.325  48.932 -22.807  1.00  0.00    -0.016 C 
HETATM   18  C33 UNL     1      -2.499  47.658 -22.485  1.00  0.00     0.020 C 
HETATM   19  C34 UNL     1      -2.349  50.100 -23.228  1.00  0.00     0.002 C 
HETATM   20  C35 UNL     1      -3.015  51.502 -23.212  1.00  0.00     0.007 C 
HETATM   21  C36 UNL     1      -2.428  52.543 -24.172  1.00  0.00     0.014 C 
HETATM   22  C37 UNL     1      -0.926  52.382 -24.458  1.00  0.00     0.003 C 
HETATM   23  C38 UNL     1      -0.134  52.735 -23.168  1.00  0.00     0.020 C 
ENDROOT
BRANCH   3  24
HETATM   24  O1  UNL     1      -1.501  53.398 -26.641  1.00  0.00    -0.377 OA
HETATM   25  H2  UNL     1      -1.195  54.047 -27.297  1.00  0.00     0.211 HD
ENDBRANCH   3  24
BRANCH  13  26
HETATM   26  O2  UNL     1      -8.253  48.087 -23.333  1.00  0.00    -0.271 OA
BRANCH  26  27
HETATM   27  C13 UNL     1      -8.214  49.316 -24.040  1.00  0.00     0.303 C 
BRANCH  27  28
HETATM   28  C14 UNL     1      -8.922  49.203 -25.391  1.00  0.00     0.244 C 
HETATM   29  O3  UNL     1     -10.040  49.656 -25.622  1.00  0.00    -0.271 OA
HETATM   30  N2  UNL     1      -8.165  48.549 -26.348  1.00  0.00    -0.346 N 
HETATM   31  H16 UNL     1      -7.464  47.903 -26.000  1.00  0.00     0.163 HD
BRANCH  30  32
HETATM   32  C15 UNL     1      -8.718  48.212 -27.657  1.00  0.00     0.180 C 
BRANCH  32  33
HETATM   33  C16 UNL     1      -9.644  46.985 -27.491  1.00  0.00     0.241 C 
HETATM   34  O4  UNL     1      -9.385  46.070 -26.711  1.00  0.00    -0.271 OA
HETATM   35  N3  UNL     1     -10.749  46.991 -28.318  1.00  0.00    -0.354 N 
HETATM   36  H18 UNL     1     -10.859  47.752 -28.977  1.00  0.00     0.162 HD
BRANCH  35  37
HETATM   37  C17 UNL     1     -11.753  45.913 -28.336  1.00  0.00     0.098 C 
BRANCH  37  38
HETATM   38  C18 UNL     1     -13.125  46.546 -28.043  1.00  0.00     0.135 C 
BRANCH  38  39
HETATM   39  C19 UNL     1     -13.096  47.533 -26.909  1.00  0.00     0.141 C 
HETATM   40  O5  UNL     1     -13.364  47.338 -25.737  1.00  0.00    -0.650 OA
BRANCH  39  41
HETATM   41  O6  UNL     1     -12.707  48.756 -27.327  1.00  0.00    -0.776 OA
HETATM   42  H22 UNL     1     -12.695  49.296 -26.509  1.00  0.00     0.167 HD
ENDBRANCH  39  41
ENDBRANCH  38  39
ENDBRANCH  37  38
BRANCH  37  43
HETATM   43  C20 UNL     1     -11.675  45.173 -29.707  1.00  0.00     0.014 C 
HETATM   44  C21 UNL     1     -10.961  43.821 -29.665  1.00  0.00     0.033 C 
HETATM   45  C22 UNL     1     -10.953  43.142 -31.033  1.00  0.00     0.169 C 
HETATM   46  O7  UNL     1     -11.189  44.037 -32.116  1.00  0.00    -0.381 OA
HETATM   47  C23 UNL     1     -10.512  45.295 -32.024  1.00  0.00     0.054 C 
HETATM   48  C24 UNL     1      -8.986  45.107 -32.025  1.00  0.00     0.045 C 
HETATM   49  C25 UNL     1     -10.899  46.071 -33.291  1.00  0.00     0.045 C 
HETATM   50  C26 UNL     1     -11.000  46.063 -30.777  1.00  0.00     0.044 C 
ENDBRANCH  37  43
ENDBRANCH  35  37
ENDBRANCH  32  33
BRANCH  32  51
HETATM   51  C27 UNL     1      -7.615  47.949 -28.709  1.00  0.00     0.009 C 
HETATM   52  C28 UNL     1      -8.021  48.361 -30.128  1.00  0.00     0.012 C 
HETATM   53  C29 UNL     1      -7.194  46.476 -28.701  1.00  0.00     0.012 C 
ENDBRANCH  32  51
ENDBRANCH  30  32
ENDBRANCH  27  28
ENDBRANCH  26  27
ENDBRANCH  13  26
TORSDOF 12
ENDMDL
MODEL 8
REMARK minimizedAffinity -9.70635509
REMARK CNNscore 0.147892654
REMARK CNNaffinity 6.46763277
REMARK  12 active torsions:
REMARK  status: ('A' for Active; 'I' for Inactive)
REMARK    1  A    between atoms: C3_3  and  O1_4 
REMARK    2  A    between atoms: N1_14  and  O2_16 
REMARK    3  A    between atoms: O2_16  and  C13_17 
REMARK    4  A    between atoms: C13_17  and  C14_18 
REMARK       I    between atoms: C14_18  and  N2_20 
REMARK    5  A    between atoms: N2_20  and  C15_21 
REMARK    6  A    between atoms: C15_21  and  C16_22 
REMARK    7  A    between atoms: C15_21  and  C27_38 
REMARK       I    between atoms: C16_22  and  N3_24 
REMARK    8  A    between atoms: N3_24  and  C17_25 
REMARK    9  A    between atoms: C17_25  and  C18_26 
REMARK   10  A    between atoms: C17_25  and  C20_30 
REMARK   11  A    between atoms: C18_26  and  C19_27 
REMARK   12  A    between atoms: C19_27  and  O6_29 
ROOT
HETATM    1  C1  UNL     1       0.685  55.471 -24.988  1.00  0.00     0.015 C 
HETATM    2  C2  UNL     1       0.218  54.411 -25.309  1.00  0.00    -0.078 C 
HETATM    3  C3  UNL     1      -0.348  53.115 -25.721  1.00  0.00     0.128 C 
HETATM    4  C4  UNL     1       0.736  52.149 -26.208  1.00  0.00     0.052 C 
HETATM    5  C5  UNL     1      -0.003  50.816 -26.240  1.00  0.00     0.010 C 
HETATM    6  C6  UNL     1      -0.791  50.812 -24.926  1.00  0.00     0.002 C 
HETATM    7  C7  UNL     1      -1.979  49.825 -24.836  1.00  0.00    -0.004 C 
HETATM    8  C8  UNL     1      -2.851  49.669 -26.093  1.00  0.00     0.010 C 
HETATM    9  C9  UNL     1      -3.949  48.622 -25.898  1.00  0.00     0.035 C 
HETATM   10  C10 UNL     1      -4.759  48.804 -24.632  1.00  0.00    -0.069 C 
HETATM   11  C11 UNL     1      -6.098  48.681 -24.674  1.00  0.00     0.030 C 
HETATM   12  C12 UNL     1      -6.930  48.711 -23.434  1.00  0.00     0.032 C 
HETATM   13  N1  UNL     1      -8.228  48.677 -23.381  1.00  0.00    -0.271 N 
ATOM     14  H1  UNL     1      -8.763  48.704 -22.513  1.00  0.00     0.194 HD
HETATM   15  C30 UNL     1      -6.197  48.712 -22.109  1.00  0.00     0.060 C 
HETATM   16  C31 UNL     1      -4.924  49.536 -22.202  1.00  0.00     0.020 C 
HETATM   17  C32 UNL     1      -3.976  49.073 -23.348  1.00  0.00    -0.016 C 
HETATM   18  C33 UNL     1      -3.313  47.743 -22.900  1.00  0.00     0.020 C 
HETATM   19  C34 UNL     1      -2.859  50.159 -23.604  1.00  0.00     0.002 C 
HETATM   20  C35 UNL     1      -3.409  51.608 -23.692  1.00  0.00     0.007 C 
HETATM   21  C36 UNL     1      -2.598  52.591 -24.544  1.00  0.00     0.014 C 
HETATM   22  C37 UNL     1      -1.086  52.313 -24.585  1.00  0.00     0.003 C 
HETATM   23  C38 UNL     1      -0.486  52.617 -23.185  1.00  0.00     0.020 C 
ENDROOT
BRANCH   3  24
HETATM   24  O1  UNL     1      -1.224  53.348 -26.830  1.00  0.00    -0.377 OA
HETATM   25  H2  UNL     1      -0.769  53.965 -27.427  1.00  0.00     0.211 HD
ENDBRANCH   3  24
BRANCH  13  26
HETATM   26  O2  UNL     1      -8.807  48.601 -24.658  1.00  0.00    -0.271 OA
BRANCH  26  27
HETATM   27  C13 UNL     1      -9.642  47.455 -24.715  1.00  0.00     0.303 C 
BRANCH  27  28
HETATM   28  C14 UNL     1     -10.918  47.736 -25.509  1.00  0.00     0.244 C 
HETATM   29  O3  UNL     1     -11.089  48.731 -26.210  1.00  0.00    -0.271 OA
HETATM   30  N2  UNL     1     -11.871  46.739 -25.377  1.00  0.00    -0.346 N 
HETATM   31  H16 UNL     1     -11.820  46.181 -24.530  1.00  0.00     0.163 HD
BRANCH  30  32
HETATM   32  C15 UNL     1     -13.211  46.887 -25.937  1.00  0.00     0.180 C 
BRANCH  32  33
HETATM   33  C16 UNL     1     -14.233  46.388 -24.891  1.00  0.00     0.241 C 
HETATM   34  O4  UNL     1     -14.344  45.198 -24.599  1.00  0.00    -0.271 OA
HETATM   35  N3  UNL     1     -15.027  47.380 -24.351  1.00  0.00    -0.354 N 
HETATM   36  H18 UNL     1     -14.916  48.329 -24.689  1.00  0.00     0.162 HD
BRANCH  35  37
HETATM   37  C17 UNL     1     -16.076  47.125 -23.350  1.00  0.00     0.098 C 
BRANCH  37  38
HETATM   38  C18 UNL     1     -17.077  46.130 -23.962  1.00  0.00     0.135 C 
BRANCH  38  39
HETATM   39  C19 UNL     1     -18.482  46.663 -24.030  1.00  0.00     0.141 C 
HETATM   40  O5  UNL     1     -18.990  47.329 -24.913  1.00  0.00    -0.650 OA
BRANCH  39  41
HETATM   41  O6  UNL     1     -19.200  46.305 -22.945  1.00  0.00    -0.776 OA
HETATM   42  H22 UNL     1     -20.091  46.674 -23.115  1.00  0.00     0.167 HD
ENDBRANCH  39  41
ENDBRANCH  38  39
ENDBRANCH  37  38
BRANCH  37  43
HETATM   43  C20 UNL     1     -15.406  46.624 -22.033  1.00  0.00     0.014 C 
HETATM   44  C21 UNL     1     -16.385  46.202 -20.937  1.00  0.00     0.033 C 
HETATM   45  C22 UNL     1     -15.657  45.693 -19.694  1.00  0.00     0.169 C 
HETATM   46  O7  UNL     1     -14.297  46.109 -19.617  1.00  0.00    -0.381 OA
HETATM   47  C23 UNL     1     -14.057  47.471 -19.985  1.00  0.00     0.054 C 
HETATM   48  C24 UNL     1     -14.793  48.439 -19.043  1.00  0.00     0.045 C 
HETATM   49  C25 UNL     1     -12.547  47.691 -19.809  1.00  0.00     0.045 C 
HETATM   50  C26 UNL     1     -14.445  47.693 -21.462  1.00  0.00     0.044 C 
ENDBRANCH  37  43
ENDBRANCH  35  37
ENDBRANCH  32  33
BRANCH  32  51
HETATM   51  C27 UNL     1     -13.370  46.141 -27.282  1.00  0.00     0.009 C 
HETATM   52  C28 UNL     1     -12.913  46.966 -28.490  1.00  0.00     0.012 C 
HETATM   53  C29 UNL     1     -14.820  45.689 -27.486  1.00  0.00     0.012 C 
ENDBRANCH  32  51
ENDBRANCH  30  32
ENDBRANCH  27  28
ENDBRANCH  26  27
ENDBRANCH  13  26
TORSDOF 12
ENDMDL
MODEL 9
REMARK minimizedAffinity -9.50649929
REMARK CNNscore 0.144585401
REMARK CNNaffinity 6.65089846
REMARK  12 active torsions:
REMARK  status: ('A' for Active; 'I' for Inactive)
REMARK    1  A    between atoms: C3_3  and  O1_4 
REMARK    2  A    between atoms: N1_14  and  O2_16 
REMARK    3  A    between atoms: O2_16  and  C13_17 
REMARK    4  A    between atoms: C13_17  and  C14_18 
REMARK       I    between atoms: C14_18  and  N2_20 
REMARK    5  A    between atoms: N2_20  and  C15_21 
REMARK    6  A    between atoms: C15_21  and  C16_22 
REMARK    7  A    between atoms: C15_21  and  C27_38 
REMARK       I    between atoms: C16_22  and  N3_24 
REMARK    8  A    between atoms: N3_24  and  C17_25 
REMARK    9  A    between atoms: C17_25  and  C18_26 
REMARK   10  A    between atoms: C17_25  and  C20_30 
REMARK   11  A    between atoms: C18_26  and  C19_27 
REMARK   12  A    between atoms: C19_27  and  O6_29 
ROOT
HETATM    1  C1  UNL     1       0.171  55.603 -26.619  1.00  0.00     0.015 C 
HETATM    2  C2  UNL     1      -0.112  54.438 -26.713  1.00  0.00    -0.078 C 
HETATM    3  C3  UNL     1      -0.449  53.011 -26.844  1.00  0.00     0.128 C 
HETATM    4  C4  UNL     1       0.800  52.124 -26.801  1.00  0.00     0.052 C 
HETATM    5  C5  UNL     1       0.208  50.734 -26.602  1.00  0.00     0.010 C 
HETATM    6  C6  UNL     1      -0.867  50.952 -25.534  1.00  0.00     0.002 C 
HETATM    7  C7  UNL     1      -1.953  49.856 -25.411  1.00  0.00    -0.004 C 
HETATM    8  C8  UNL     1      -2.482  49.251 -26.723  1.00  0.00     0.010 C 
HETATM    9  C9  UNL     1      -3.500  48.139 -26.467  1.00  0.00     0.035 C 
HETATM   10  C10 UNL     1      -4.601  48.518 -25.501  1.00  0.00    -0.069 C 
HETATM   11  C11 UNL     1      -5.875  48.191 -25.780  1.00  0.00     0.030 C 
HETATM   12  C12 UNL     1      -6.979  48.415 -24.800  1.00  0.00     0.032 C 
HETATM   13  N1  UNL     1      -8.244  48.203 -25.007  1.00  0.00    -0.271 N 
ATOM     14  H1  UNL     1      -8.972  48.373 -24.312  1.00  0.00     0.194 HD
HETATM   15  C30 UNL     1      -6.587  48.869 -23.409  1.00  0.00     0.060 C 
HETATM   16  C31 UNL     1      -5.405  49.821 -23.469  1.00  0.00     0.020 C 
HETATM   17  C32 UNL     1      -4.174  49.224 -24.214  1.00  0.00    -0.016 C 
HETATM   18  C33 UNL     1      -3.525  48.170 -23.279  1.00  0.00     0.020 C 
HETATM   19  C34 UNL     1      -3.127  50.362 -24.535  1.00  0.00     0.002 C 
HETATM   20  C35 UNL     1      -3.763  51.639 -25.145  1.00  0.00     0.007 C 
HETATM   21  C36 UNL     1      -2.860  52.479 -26.055  1.00  0.00     0.014 C 
HETATM   22  C37 UNL     1      -1.364  52.428 -25.704  1.00  0.00     0.003 C 
HETATM   23  C38 UNL     1      -1.145  53.170 -24.357  1.00  0.00     0.020 C 
ENDROOT
BRANCH   3  24
HETATM   24  O1  UNL     1      -1.051  52.815 -28.129  1.00  0.00    -0.377 OA
HETATM   25  H2  UNL     1      -0.521  53.318 -28.770  1.00  0.00     0.211 HD
ENDBRANCH   3  24
BRANCH  13  26
HETATM   26  O2  UNL     1      -8.492  47.713 -26.299  1.00  0.00    -0.271 OA
BRANCH  26  27
HETATM   27  C13 UNL     1      -9.303  46.553 -26.203  1.00  0.00     0.303 C 
BRANCH  27  28
HETATM   28  C14 UNL     1     -10.643  46.865 -25.534  1.00  0.00     0.244 C 
HETATM   29  O3  UNL     1     -11.041  48.000 -25.286  1.00  0.00    -0.271 OA
HETATM   30  N2  UNL     1     -11.384  45.730 -25.246  1.00  0.00    -0.346 N 
HETATM   31  H16 UNL     1     -10.858  44.870 -25.128  1.00  0.00     0.163 HD
BRANCH  30  32
HETATM   32  C15 UNL     1     -12.624  45.805 -24.479  1.00  0.00     0.180 C 
BRANCH  32  33
HETATM   33  C16 UNL     1     -13.747  46.301 -25.417  1.00  0.00     0.241 C 
HETATM   34  O4  UNL     1     -14.016  47.495 -25.542  1.00  0.00    -0.271 OA
HETATM   35  N3  UNL     1     -14.439  45.294 -26.060  1.00  0.00    -0.354 N 
HETATM   36  H18 UNL     1     -14.197  44.332 -25.856  1.00  0.00     0.162 HD
BRANCH  35  37
HETATM   37  C17 UNL     1     -15.557  45.542 -26.985  1.00  0.00     0.098 C 
BRANCH  37  38
HETATM   38  C18 UNL     1     -15.114  45.087 -28.387  1.00  0.00     0.135 C 
BRANCH  38  39
HETATM   39  C19 UNL     1     -13.671  45.387 -28.683  1.00  0.00     0.141 C 
HETATM   40  O5  UNL     1     -12.682  44.842 -28.226  1.00  0.00    -0.650 OA
BRANCH  39  41
HETATM   41  O6  UNL     1     -13.547  46.389 -29.579  1.00  0.00    -0.776 OA
HETATM   42  H22 UNL     1     -12.579  46.470 -29.715  1.00  0.00     0.167 HD
ENDBRANCH  39  41
ENDBRANCH  38  39
ENDBRANCH  37  38
BRANCH  37  43
HETATM   43  C20 UNL     1     -16.827  44.810 -26.451  1.00  0.00     0.014 C 
HETATM   44  C21 UNL     1     -18.018  44.810 -27.410  1.00  0.00     0.033 C 
HETATM   45  C22 UNL     1     -19.209  44.047 -26.833  1.00  0.00     0.169 C 
HETATM   46  O7  UNL     1     -19.153  43.886 -25.419  1.00  0.00    -0.381 OA
HETATM   47  C23 UNL     1     -18.720  45.040 -24.692  1.00  0.00     0.054 C 
HETATM   48  C24 UNL     1     -19.689  46.218 -24.890  1.00  0.00     0.045 C 
HETATM   49  C25 UNL     1     -18.756  44.637 -23.210  1.00  0.00     0.045 C 
HETATM   50  C26 UNL     1     -17.276  45.403 -25.094  1.00  0.00     0.044 C 
ENDBRANCH  37  43
ENDBRANCH  35  37
ENDBRANCH  32  33
BRANCH  32  51
HETATM   51  C27 UNL     1     -12.488  46.709 -23.232  1.00  0.00     0.009 C 
HETATM   52  C28 UNL     1     -11.474  46.185 -22.210  1.00  0.00     0.012 C 
HETATM   53  C29 UNL     1     -13.847  46.909 -22.553  1.00  0.00     0.012 C 
ENDBRANCH  32  51
ENDBRANCH  30  32
ENDBRANCH  27  28
ENDBRANCH  26  27
ENDBRANCH  13  26
TORSDOF 12
ENDMDL
