MODEL 1
REMARK minimizedAffinity -8.85790825
REMARK  2 active torsions:
REMARK  status: ('A' for Active; 'I' for Inactive)
REMARK    1  A    between atoms: C1_2  and  C2_3 
REMARK       I    between atoms: C1_2  and  N3_14 
REMARK    2  A    between atoms: C3_7  and  C4_8 
ROOT
HETATM    1  O1  UNL     1      -4.279  52.458 -22.723  1.00  0.00    -0.266 OA
HETATM    2  C1  UNL     1      -4.139  51.269 -22.424  1.00  0.00     0.272 C 
HETATM    3  N3  UNL     1      -4.159  50.276 -23.415  1.00  0.00    -0.338 N 
HETATM    4  C9  UNL     1      -4.509  48.883 -23.139  1.00  0.00     0.127 C 
HETATM    5  C10 UNL     1      -5.458  48.323 -24.188  1.00  0.00     0.024 C 
HETATM    6  C11 UNL     1      -4.798  48.291 -25.557  1.00  0.00     0.037 C 
HETATM    7  C12 UNL     1      -3.945  49.501 -25.810  1.00  0.00    -0.060 C 
HETATM    8  C13 UNL     1      -2.996  49.501 -26.807  1.00  0.00    -0.015 C 
HETATM    9  C14 UNL     1      -2.152  50.762 -27.199  1.00  0.00     0.031 C 
HETATM   10  C15 UNL     1      -2.956  51.891 -26.625  1.00  0.00     0.019 C 
HETATM   11  C16 UNL     1      -2.834  51.503 -25.137  1.00  0.00     0.031 C 
HETATM   12  C17 UNL     1      -1.738  52.368 -24.599  1.00  0.00     0.124 C 
HETATM   13  N4  UNL     1      -0.520  51.984 -25.419  1.00  0.00    -0.407 N 
HETATM   14  C18 UNL     1       0.347  53.119 -25.702  1.00  0.00     0.117 C 
HETATM   15  C19 UNL     1       1.734  52.651 -26.139  1.00  0.00     0.019 C 
HETATM   16  C20 UNL     1       1.705  51.553 -27.201  1.00  0.00     0.004 C 
HETATM   17  C21 UNL     1       0.298  51.283 -27.718  1.00  0.00     0.026 C 
HETATM   18  C22 UNL     1      -0.681  50.974 -26.566  1.00  0.00     0.086 C 
HETATM   19  C23 UNL     1      -4.097  50.729 -24.804  1.00  0.00     0.122 C 
ENDROOT
BRANCH   2  20
HETATM   20  C2  UNL     1      -3.914  50.893 -21.009  1.00  0.00     0.118 A 
HETATM   21  N1  UNL     1      -4.845  50.343 -20.201  1.00  0.00    -0.295 N 
HETATM   22  N2  UNL     1      -4.194  50.110 -19.051  1.00  0.00    -0.299 N 
ATOM     23  H1  UNL     1      -5.823  50.148 -20.417  1.00  0.00     0.187 HD
HETATM   24  C3  UNL     1      -2.884  50.482 -19.071  1.00  0.00     0.061 A 
HETATM   25  H1  UNL     1      -4.710  49.691 -18.285  1.00  0.00     0.187 HD
HETATM   26  C8  UNL     1      -2.664  50.987 -20.329  1.00  0.00     0.068 A 
BRANCH  24  27
HETATM   27  C4  UNL     1      -1.866  50.347 -17.905  1.00  0.00    -0.001 A 
HETATM   28  C5  UNL     1      -2.186  50.605 -16.591  1.00  0.00     0.063 A 
HETATM   29  S1  UNL     1      -0.852  50.362 -15.541  1.00  0.00    -0.113 SA
HETATM   30  C6  UNL     1       0.160  49.917 -16.844  1.00  0.00     0.050 A 
HETATM   31  C7  UNL     1      -0.505  49.946 -18.051  1.00  0.00     0.021 A 
ENDBRANCH  24  27
ENDBRANCH   2  20
TORSDOF 2
ENDMDL
MODEL 2
REMARK minimizedAffinity -8.8312254
REMARK  2 active torsions:
REMARK  status: ('A' for Active; 'I' for Inactive)
REMARK    1  A    between atoms: C1_2  and  C2_3 
REMARK       I    between atoms: C1_2  and  N3_14 
REMARK    2  A    between atoms: C3_7  and  C4_8 
ROOT
HETATM    1  O1  UNL     1      -3.098  52.003 -19.974  1.00  0.00    -0.266 OA
HETATM    2  C1  UNL     1      -2.095  51.294 -19.861  1.00  0.00     0.272 C 
HETATM    3  N3  UNL     1      -2.089  49.981 -20.358  1.00  0.00    -0.338 N 
HETATM    4  C9  UNL     1      -1.198  48.941 -19.845  1.00  0.00     0.127 C 
HETATM    5  C10 UNL     1      -1.934  47.626 -19.632  1.00  0.00     0.024 C 
HETATM    6  C11 UNL     1      -2.454  47.074 -20.949  1.00  0.00     0.037 C 
HETATM    7  C12 UNL     1      -2.981  48.151 -21.854  1.00  0.00    -0.060 C 
HETATM    8  C13 UNL     1      -3.156  47.921 -23.200  1.00  0.00    -0.015 C 
HETATM    9  C14 UNL     1      -3.805  48.960 -24.178  1.00  0.00     0.031 C 
HETATM   10  C15 UNL     1      -4.538  49.879 -23.248  1.00  0.00     0.019 C 
HETATM   11  C16 UNL     1      -3.316  50.428 -22.484  1.00  0.00     0.031 C 
HETATM   12  C17 UNL     1      -3.022  51.749 -23.123  1.00  0.00     0.124 C 
HETATM   13  N4  UNL     1      -2.719  51.407 -24.570  1.00  0.00    -0.407 N 
HETATM   14  C18 UNL     1      -3.210  52.415 -25.500  1.00  0.00     0.117 C 
HETATM   15  C19 UNL     1      -2.539  52.271 -26.865  1.00  0.00     0.019 C 
HETATM   16  C20 UNL     1      -2.514  50.837 -27.390  1.00  0.00     0.004 C 
HETATM   17  C21 UNL     1      -3.317  49.885 -26.512  1.00  0.00     0.026 C 
HETATM   18  C22 UNL     1      -2.864  49.951 -25.039  1.00  0.00     0.086 C 
HETATM   19  C23 UNL     1      -3.207  49.596 -21.219  1.00  0.00     0.122 C 
ENDROOT
BRANCH   2  20
HETATM   20  C2  UNL     1      -0.877  51.846 -19.225  1.00  0.00     0.118 A 
HETATM   21  N1  UNL     1      -0.210  52.937 -19.657  1.00  0.00    -0.295 N 
HETATM   22  N2  UNL     1       0.771  53.108 -18.757  1.00  0.00    -0.299 N 
ATOM     23  H1  UNL     1      -0.408  53.504 -20.482  1.00  0.00     0.187 HD
HETATM   24  C3  UNL     1       0.774  52.180 -17.759  1.00  0.00     0.061 A 
HETATM   25  H1  UNL     1       1.409  53.885 -18.886  1.00  0.00     0.187 HD
HETATM   26  C8  UNL     1      -0.287  51.350 -18.025  1.00  0.00     0.068 A 
BRANCH  24  27
HETATM   27  C4  UNL     1       1.773  52.103 -16.572  1.00  0.00    -0.001 A 
HETATM   28  C5  UNL     1       1.453  51.549 -15.352  1.00  0.00     0.063 A 
HETATM   29  S1  UNL     1       2.766  51.609 -14.251  1.00  0.00    -0.113 SA
HETATM   30  C6  UNL     1       3.765  52.383 -15.402  1.00  0.00     0.050 A 
HETATM   31  C7  UNL     1       3.115  52.585 -16.600  1.00  0.00     0.021 A 
ENDBRANCH  24  27
ENDBRANCH   2  20
TORSDOF 2
ENDMDL
MODEL 3
REMARK minimizedAffinity -8.81381607
REMARK  2 active torsions:
REMARK  status: ('A' for Active; 'I' for Inactive)
REMARK    1  A    between atoms: C1_2  and  C2_3 
REMARK       I    between atoms: C1_2  and  N3_14 
REMARK    2  A    between atoms: C3_7  and  C4_8 
ROOT
HETATM    1  O1  UNL     1      -2.806  51.728 -21.292  1.00  0.00    -0.266 OA
HETATM    2  C1  UNL     1      -2.738  50.495 -21.288  1.00  0.00     0.272 C 
HETATM    3  N3  UNL     1      -3.267  49.748 -22.352  1.00  0.00    -0.338 N 
HETATM    4  C9  UNL     1      -3.685  48.353 -22.212  1.00  0.00     0.127 C 
HETATM    5  C10 UNL     1      -5.025  48.099 -22.886  1.00  0.00     0.024 C 
HETATM    6  C11 UNL     1      -4.933  48.327 -24.386  1.00  0.00     0.037 C 
HETATM    7  C12 UNL     1      -4.071  49.506 -24.734  1.00  0.00    -0.060 C 
HETATM    8  C13 UNL     1      -3.570  49.664 -26.007  1.00  0.00    -0.015 C 
HETATM    9  C14 UNL     1      -2.760  50.925 -26.467  1.00  0.00     0.031 C 
HETATM   10  C15 UNL     1      -3.123  51.948 -25.433  1.00  0.00     0.019 C 
HETATM   11  C16 UNL     1      -2.515  51.236 -24.208  1.00  0.00     0.031 C 
HETATM   12  C17 UNL     1      -1.185  51.891 -23.999  1.00  0.00     0.124 C 
HETATM   13  N4  UNL     1      -0.427  51.620 -25.285  1.00  0.00    -0.407 N 
HETATM   14  C18 UNL     1       0.426  52.732 -25.680  1.00  0.00     0.117 C 
HETATM   15  C19 UNL     1       1.468  52.284 -26.703  1.00  0.00     0.019 C 
HETATM   16  C20 UNL     1       0.891  51.450 -27.845  1.00  0.00     0.004 C 
HETATM   17  C21 UNL     1      -0.631  51.390 -27.806  1.00  0.00     0.026 C 
HETATM   18  C22 UNL     1      -1.145  50.899 -26.437  1.00  0.00     0.086 C 
HETATM   19  C23 UNL     1      -3.661  50.490 -23.549  1.00  0.00     0.122 C 
ENDROOT
BRANCH   2  20
HETATM   20  C2  UNL     1      -2.060  49.804 -20.167  1.00  0.00     0.118 A 
HETATM   21  N1  UNL     1      -1.871  48.470 -20.087  1.00  0.00    -0.295 N 
HETATM   22  N2  UNL     1      -1.168  48.300 -18.957  1.00  0.00    -0.299 N 
ATOM     23  H1  UNL     1      -2.190  47.754 -20.739  1.00  0.00     0.187 HD
HETATM   24  C3  UNL     1      -0.890  49.459 -18.297  1.00  0.00     0.061 A 
HETATM   25  H1  UNL     1      -0.908  47.356 -18.692  1.00  0.00     0.187 HD
HETATM   26  C8  UNL     1      -1.447  50.457 -19.058  1.00  0.00     0.068 A 
BRANCH  24  27
HETATM   27  C4  UNL     1      -0.098  49.600 -16.967  1.00  0.00    -0.001 A 
HETATM   28  C5  UNL     1       0.014  48.583 -16.046  1.00  0.00     0.063 A 
HETATM   29  S1  UNL     1       0.951  49.044 -14.686  1.00  0.00    -0.113 SA
HETATM   30  C6  UNL     1       1.203  50.609 -15.324  1.00  0.00     0.050 A 
HETATM   31  C7  UNL     1       0.592  50.775 -16.548  1.00  0.00     0.021 A 
ENDBRANCH  24  27
ENDBRANCH   2  20
TORSDOF 2
ENDMDL
MODEL 4
REMARK minimizedAffinity -8.59964752
REMARK  2 active torsions:
REMARK  status: ('A' for Active; 'I' for Inactive)
REMARK    1  A    between atoms: C1_2  and  C2_3 
REMARK       I    between atoms: C1_2  and  N3_14 
REMARK    2  A    between atoms: C3_7  and  C4_8 
ROOT
HETATM    1  O1  UNL     1      -2.526  51.580 -19.506  1.00  0.00    -0.266 OA
HETATM    2  C1  UNL     1      -2.212  50.392 -19.391  1.00  0.00     0.272 C 
HETATM    3  N3  UNL     1      -2.671  49.440 -20.315  1.00  0.00    -0.338 N 
HETATM    4  C9  UNL     1      -2.788  48.017 -19.998  1.00  0.00     0.127 C 
HETATM    5  C10 UNL     1      -4.103  47.437 -20.495  1.00  0.00     0.024 C 
HETATM    6  C11 UNL     1      -4.189  47.503 -22.012  1.00  0.00     0.037 C 
HETATM    7  C12 UNL     1      -3.613  48.776 -22.563  1.00  0.00    -0.060 C 
HETATM    8  C13 UNL     1      -3.266  48.879 -23.891  1.00  0.00    -0.015 C 
HETATM    9  C14 UNL     1      -2.768  50.208 -24.555  1.00  0.00     0.031 C 
HETATM   10  C15 UNL     1      -3.237  51.257 -23.592  1.00  0.00     0.019 C 
HETATM   11  C16 UNL     1      -2.395  50.819 -22.375  1.00  0.00     0.031 C 
HETATM   12  C17 UNL     1      -1.210  51.734 -22.375  1.00  0.00     0.124 C 
HETATM   13  N4  UNL     1      -0.528  51.465 -23.703  1.00  0.00    -0.407 N 
HETATM   14  C18 UNL     1       0.049  52.665 -24.292  1.00  0.00     0.117 C 
HETATM   15  C19 UNL     1       1.067  52.308 -25.373  1.00  0.00     0.019 C 
HETATM   16  C20 UNL     1       0.571  51.254 -26.361  1.00  0.00     0.004 C 
HETATM   17  C21 UNL     1      -0.898  50.911 -26.153  1.00  0.00     0.026 C 
HETATM   18  C22 UNL     1      -1.184  50.493 -24.696  1.00  0.00     0.086 C 
HETATM   19  C23 UNL     1      -3.307  49.950 -21.528  1.00  0.00     0.122 C 
ENDROOT
BRANCH   2  20
HETATM   20  C2  UNL     1      -1.315  49.976 -18.288  1.00  0.00     0.118 A 
HETATM   21  N1  UNL     1      -1.117  48.700 -17.897  1.00  0.00    -0.295 N 
HETATM   22  N2  UNL     1      -0.192  48.786 -16.928  1.00  0.00    -0.299 N 
ATOM     23  H1  UNL     1      -1.568  47.858 -18.257  1.00  0.00     0.187 HD
HETATM   24  C3  UNL     1       0.221  50.059 -16.670  1.00  0.00     0.061 A 
HETATM   25  H1  UNL     1       0.115  47.930 -16.481  1.00  0.00     0.187 HD
HETATM   26  C8  UNL     1      -0.480  50.857 -17.540  1.00  0.00     0.068 A 
BRANCH  24  27
HETATM   27  C4  UNL     1       1.275  50.493 -15.614  1.00  0.00    -0.001 A 
HETATM   28  C5  UNL     1       1.512  49.790 -14.453  1.00  0.00     0.063 A 
HETATM   29  S1  UNL     1       2.734  50.518 -13.496  1.00  0.00    -0.113 SA
HETATM   30  C6  UNL     1       2.945  51.780 -14.630  1.00  0.00     0.050 A 
HETATM   31  C7  UNL     1       2.108  51.646 -15.716  1.00  0.00     0.021 A 
ENDBRANCH  24  27
ENDBRANCH   2  20
TORSDOF 2
ENDMDL
MODEL 5
REMARK minimizedAffinity -8.4574852
REMARK  2 active torsions:
REMARK  status: ('A' for Active; 'I' for Inactive)
REMARK    1  A    between atoms: C1_2  and  C2_3 
REMARK       I    between atoms: C1_2  and  N3_14 
REMARK    2  A    between atoms: C3_7  and  C4_8 
ROOT
HETATM    1  O1  UNL     1      -4.279  51.401 -21.787  1.00  0.00    -0.266 OA
HETATM    2  C1  UNL     1      -3.508  50.813 -22.551  1.00  0.00     0.272 C 
HETATM    3  N3  UNL     1      -2.141  51.129 -22.570  1.00  0.00    -0.338 N 
HETATM    4  C9  UNL     1      -1.285  50.884 -23.729  1.00  0.00     0.127 C 
HETATM    5  C10 UNL     1      -0.382  52.074 -24.023  1.00  0.00     0.024 C 
HETATM    6  C11 UNL     1       0.583  52.322 -22.875  1.00  0.00     0.037 C 
HETATM    7  C12 UNL     1      -0.058  52.112 -21.533  1.00  0.00    -0.060 C 
HETATM    8  C13 UNL     1       0.710  51.931 -20.404  1.00  0.00    -0.015 C 
HETATM    9  C14 UNL     1       0.111  51.820 -18.960  1.00  0.00     0.031 C 
HETATM   10  C15 UNL     1      -1.254  52.420 -19.119  1.00  0.00     0.019 C 
HETATM   11  C16 UNL     1      -1.827  51.384 -20.108  1.00  0.00     0.031 C 
HETATM   12  C17 UNL     1      -2.634  50.447 -19.264  1.00  0.00     0.124 C 
HETATM   13  N4  UNL     1      -1.627  49.856 -18.294  1.00  0.00    -0.407 N 
HETATM   14  C18 UNL     1      -2.189  49.633 -16.969  1.00  0.00     0.117 C 
HETATM   15  C19 UNL     1      -1.318  48.671 -16.162  1.00  0.00     0.019 C 
HETATM   16  C20 UNL     1       0.172  49.007 -16.206  1.00  0.00     0.004 C 
HETATM   17  C21 UNL     1       0.447  50.330 -16.908  1.00  0.00     0.026 C 
HETATM   18  C22 UNL     1      -0.178  50.366 -18.318  1.00  0.00     0.086 C 
HETATM   19  C23 UNL     1      -1.646  51.983 -21.491  1.00  0.00     0.122 C 
ENDROOT
BRANCH   2  20
HETATM   20  C2  UNL     1      -4.028  49.740 -23.430  1.00  0.00     0.118 A 
HETATM   21  N1  UNL     1      -4.458  48.535 -23.001  1.00  0.00    -0.295 N 
HETATM   22  N2  UNL     1      -4.896  47.921 -24.112  1.00  0.00    -0.299 N 
ATOM     23  H1  UNL     1      -4.453  48.172 -22.048  1.00  0.00     0.187 HD
HETATM   24  C3  UNL     1      -4.771  48.670 -25.243  1.00  0.00     0.061 A 
HETATM   25  H1  UNL     1      -5.271  46.983 -24.025  1.00  0.00     0.187 HD
HETATM   26  C8  UNL     1      -4.219  49.860 -24.838  1.00  0.00     0.068 A 
BRANCH  24  27
HETATM   27  C4  UNL     1      -5.183  48.249 -26.681  1.00  0.00    -0.001 A 
HETATM   28  C5  UNL     1      -6.371  47.614 -26.970  1.00  0.00     0.063 A 
HETATM   29  S1  UNL     1      -6.536  47.283 -28.644  1.00  0.00    -0.113 SA
HETATM   30  C6  UNL     1      -5.014  47.983 -28.987  1.00  0.00     0.050 A 
HETATM   31  C7  UNL     1      -4.397  48.463 -27.852  1.00  0.00     0.021 A 
ENDBRANCH  24  27
ENDBRANCH   2  20
TORSDOF 2
ENDMDL
MODEL 6
REMARK minimizedAffinity -8.40093899
REMARK  2 active torsions:
REMARK  status: ('A' for Active; 'I' for Inactive)
REMARK    1  A    between atoms: C1_2  and  C2_3 
REMARK       I    between atoms: C1_2  and  N3_14 
REMARK    2  A    between atoms: C3_7  and  C4_8 
ROOT
HETATM    1  O1  UNL     1      -4.759  51.930 -22.909  1.00  0.00    -0.266 OA
HETATM    2  C1  UNL     1      -4.709  50.705 -22.767  1.00  0.00     0.272 C 
HETATM    3  N3  UNL     1      -4.597  49.860 -23.882  1.00  0.00    -0.338 N 
HETATM    4  C9  UNL     1      -5.033  48.465 -23.869  1.00  0.00     0.127 C 
HETATM    5  C10 UNL     1      -5.813  48.107 -25.125  1.00  0.00     0.024 C 
HETATM    6  C11 UNL     1      -4.938  48.227 -26.363  1.00  0.00     0.037 C 
HETATM    7  C12 UNL     1      -4.016  49.411 -26.300  1.00  0.00    -0.060 C 
HETATM    8  C13 UNL     1      -2.916  49.495 -27.123  1.00  0.00    -0.015 C 
HETATM    9  C14 UNL     1      -1.979  50.750 -27.188  1.00  0.00     0.031 C 
HETATM   10  C15 UNL     1      -2.829  51.831 -26.593  1.00  0.00     0.019 C 
HETATM   11  C16 UNL     1      -2.968  51.236 -25.177  1.00  0.00     0.031 C 
HETATM   12  C17 UNL     1      -1.948  51.958 -24.352  1.00  0.00     0.124 C 
HETATM   13  N4  UNL     1      -0.624  51.623 -25.015  1.00  0.00    -0.407 N 
HETATM   14  C18 UNL     1       0.314  52.736 -24.989  1.00  0.00     0.117 C 
HETATM   15  C19 UNL     1       1.738  52.256 -25.264  1.00  0.00     0.019 C 
HETATM   16  C20 UNL     1       1.850  51.318 -26.465  1.00  0.00     0.004 C 
HETATM   17  C21 UNL     1       0.539  51.200 -27.231  1.00  0.00     0.026 C 
HETATM   18  C22 UNL     1      -0.626  50.791 -26.306  1.00  0.00     0.086 C 
HETATM   19  C23 UNL     1      -4.292  50.496 -25.164  1.00  0.00     0.122 C 
ENDROOT
BRANCH   2  20
HETATM   20  C2  UNL     1      -4.733  50.126 -21.404  1.00  0.00     0.118 A 
HETATM   21  N1  UNL     1      -3.767  50.299 -20.478  1.00  0.00    -0.295 N 
HETATM   22  N2  UNL     1      -4.230  49.664 -19.389  1.00  0.00    -0.299 N 
ATOM     23  H1  UNL     1      -2.885  50.800 -20.581  1.00  0.00     0.187 HD
HETATM   24  C3  UNL     1      -5.452  49.086 -19.564  1.00  0.00     0.061 A 
HETATM   25  H1  UNL     1      -3.656  49.664 -18.554  1.00  0.00     0.187 HD
HETATM   26  C8  UNL     1      -5.813  49.372 -20.857  1.00  0.00     0.068 A 
BRANCH  24  27
HETATM   27  C4  UNL     1      -6.255  48.283 -18.503  1.00  0.00    -0.001 A 
HETATM   28  C5  UNL     1      -5.713  47.250 -17.771  1.00  0.00     0.063 A 
HETATM   29  S1  UNL     1      -6.847  46.566 -16.682  1.00  0.00    -0.113 SA
HETATM   30  C6  UNL     1      -8.069  47.647 -17.192  1.00  0.00     0.050 A 
HETATM   31  C7  UNL     1      -7.621  48.513 -18.166  1.00  0.00     0.021 A 
ENDBRANCH  24  27
ENDBRANCH   2  20
TORSDOF 2
ENDMDL
MODEL 7
REMARK minimizedAffinity -8.29687405
REMARK  2 active torsions:
REMARK  status: ('A' for Active; 'I' for Inactive)
REMARK    1  A    between atoms: C1_2  and  C2_3 
REMARK       I    between atoms: C1_2  and  N3_14 
REMARK    2  A    between atoms: C3_7  and  C4_8 
ROOT
HETATM    1  O1  UNL     1      -2.879  51.303 -21.653  1.00  0.00    -0.266 OA
HETATM    2  C1  UNL     1      -2.940  50.080 -21.803  1.00  0.00     0.272 C 
HETATM    3  N3  UNL     1      -3.396  49.530 -23.012  1.00  0.00    -0.338 N 
HETATM    4  C9  UNL     1      -3.972  48.190 -23.108  1.00  0.00     0.127 C 
HETATM    5  C10 UNL     1      -5.228  48.178 -23.967  1.00  0.00     0.024 C 
HETATM    6  C11 UNL     1      -4.910  48.567 -25.402  1.00  0.00     0.037 C 
HETATM    7  C12 UNL     1      -3.891  49.666 -25.485  1.00  0.00    -0.060 C 
HETATM    8  C13 UNL     1      -3.209  49.910 -26.656  1.00  0.00    -0.015 C 
HETATM    9  C14 UNL     1      -2.217  51.109 -26.845  1.00  0.00     0.031 C 
HETATM   10  C15 UNL     1      -2.607  52.042 -25.738  1.00  0.00     0.019 C 
HETATM   11  C16 UNL     1      -2.248  51.123 -24.552  1.00  0.00     0.031 C 
HETATM   12  C17 UNL     1      -0.898  51.585 -24.099  1.00  0.00     0.124 C 
HETATM   13  N4  UNL     1      -0.006  51.376 -25.309  1.00  0.00    -0.407 N 
HETATM   14  C18 UNL     1       1.004  52.416 -25.447  1.00  0.00     0.117 C 
HETATM   15  C19 UNL     1       2.123  51.968 -26.386  1.00  0.00     0.019 C 
HETATM   16  C20 UNL     1       1.622  51.349 -27.689  1.00  0.00     0.004 C 
HETATM   17  C21 UNL     1       0.111  51.468 -27.843  1.00  0.00     0.026 C 
HETATM   18  C22 UNL     1      -0.633  50.886 -26.623  1.00  0.00     0.086 C 
HETATM   19  C23 UNL     1      -3.544  50.449 -24.140  1.00  0.00     0.122 C 
ENDROOT
BRANCH   2  20
HETATM   20  C2  UNL     1      -2.496  49.186 -20.709  1.00  0.00     0.118 A 
HETATM   21  N1  UNL     1      -1.255  48.670 -20.592  1.00  0.00    -0.295 N 
HETATM   22  N2  UNL     1      -1.284  47.988 -19.437  1.00  0.00    -0.299 N 
ATOM     23  H1  UNL     1      -0.471  48.776 -21.236  1.00  0.00     0.187 HD
HETATM   24  C3  UNL     1      -2.485  48.035 -18.796  1.00  0.00     0.061 A 
HETATM   25  H1  UNL     1      -0.440  47.508 -19.142  1.00  0.00     0.187 HD
HETATM   26  C8  UNL     1      -3.294  48.811 -19.588  1.00  0.00     0.068 A 
BRANCH  24  27
HETATM   27  C4  UNL     1      -2.840  47.353 -17.445  1.00  0.00    -0.001 A 
HETATM   28  C5  UNL     1      -2.775  48.002 -16.233  1.00  0.00     0.063 A 
HETATM   29  S1  UNL     1      -3.231  46.985 -14.930  1.00  0.00    -0.113 SA
HETATM   30  C6  UNL     1      -3.511  45.670 -15.985  1.00  0.00     0.050 A 
HETATM   31  C7  UNL     1      -3.268  46.000 -17.301  1.00  0.00     0.021 A 
ENDBRANCH  24  27
ENDBRANCH   2  20
TORSDOF 2
ENDMDL
MODEL 8
REMARK minimizedAffinity -8.29496956
REMARK  2 active torsions:
REMARK  status: ('A' for Active; 'I' for Inactive)
REMARK    1  A    between atoms: C1_2  and  C2_3 
REMARK       I    between atoms: C1_2  and  N3_14 
REMARK    2  A    between atoms: C3_7  and  C4_8 
ROOT
HETATM    1  O1  UNL     1      -2.382  48.097 -23.457  1.00  0.00    -0.266 OA
HETATM    2  C1  UNL     1      -3.334  48.838 -23.720  1.00  0.00     0.272 C 
HETATM    3  N3  UNL     1      -4.014  49.517 -22.698  1.00  0.00    -0.338 N 
HETATM    4  C9  UNL     1      -5.397  49.975 -22.831  1.00  0.00     0.127 C 
HETATM    5  C10 UNL     1      -6.215  49.662 -21.587  1.00  0.00     0.024 C 
HETATM    6  C11 UNL     1      -5.676  50.408 -20.378  1.00  0.00     0.037 C 
HETATM    7  C12 UNL     1      -4.175  50.460 -20.359  1.00  0.00    -0.060 C 
HETATM    8  C13 UNL     1      -3.508  51.373 -19.574  1.00  0.00    -0.015 C 
HETATM    9  C14 UNL     1      -1.949  51.408 -19.421  1.00  0.00     0.031 C 
HETATM   10  C15 UNL     1      -1.540  50.039 -19.875  1.00  0.00     0.019 C 
HETATM   11  C16 UNL     1      -2.021  50.148 -21.337  1.00  0.00     0.031 C 
HETATM   12  C17 UNL     1      -0.792  50.481 -22.125  1.00  0.00     0.124 C 
HETATM   13  N4  UNL     1      -0.324  51.805 -21.548  1.00  0.00    -0.407 N 
HETATM   14  C18 UNL     1       1.127  51.914 -21.499  1.00  0.00     0.117 C 
HETATM   15  C19 UNL     1       1.559  53.369 -21.326  1.00  0.00     0.019 C 
HETATM   16  C20 UNL     1       0.799  54.110 -20.229  1.00  0.00     0.004 C 
HETATM   17  C21 UNL     1      -0.110  53.186 -19.429  1.00  0.00     0.026 C 
HETATM   18  C22 UNL     1      -1.071  52.401 -20.345  1.00  0.00     0.086 C 
HETATM   19  C23 UNL     1      -3.396  49.507 -21.373  1.00  0.00     0.122 C 
ENDROOT
BRANCH   2  20
HETATM   20  C2  UNL     1      -3.737  49.035 -25.131  1.00  0.00     0.118 A 
HETATM   21  N1  UNL     1      -3.330  50.057 -25.912  1.00  0.00    -0.295 N 
HETATM   22  N2  UNL     1      -3.878  49.802 -27.110  1.00  0.00    -0.299 N 
ATOM     23  H1  UNL     1      -2.738  50.846 -25.651  1.00  0.00     0.187 HD
HETATM   24  C3  UNL     1      -4.623  48.662 -27.146  1.00  0.00     0.061 A 
HETATM   25  H1  UNL     1      -3.701  50.454 -27.867  1.00  0.00     0.187 HD
HETATM   26  C8  UNL     1      -4.548  48.133 -25.882  1.00  0.00     0.068 A 
BRANCH  24  27
HETATM   27  C4  UNL     1      -5.383  48.092 -28.376  1.00  0.00    -0.001 A 
HETATM   28  C5  UNL     1      -6.438  47.213 -28.270  1.00  0.00     0.063 A 
HETATM   29  S1  UNL     1      -7.067  46.771 -29.802  1.00  0.00    -0.113 SA
HETATM   30  C6  UNL     1      -5.926  47.750 -30.613  1.00  0.00     0.050 A 
HETATM   31  C7  UNL     1      -5.088  48.405 -29.736  1.00  0.00     0.021 A 
ENDBRANCH  24  27
ENDBRANCH   2  20
TORSDOF 2
ENDMDL
MODEL 9
REMARK minimizedAffinity -8.26971626
REMARK  2 active torsions:
REMARK  status: ('A' for Active; 'I' for Inactive)
REMARK    1  A    between atoms: C1_2  and  C2_3 
REMARK       I    between atoms: C1_2  and  N3_14 
REMARK    2  A    between atoms: C3_7  and  C4_8 
ROOT
HETATM    1  O1  UNL     1      -4.047  51.844 -21.726  1.00  0.00    -0.266 OA
HETATM    2  C1  UNL     1      -2.848  51.699 -21.983  1.00  0.00     0.272 C 
HETATM    3  N3  UNL     1      -1.956  51.249 -20.998  1.00  0.00    -0.338 N 
HETATM    4  C9  UNL     1      -0.521  51.527 -21.039  1.00  0.00     0.127 C 
HETATM    5  C10 UNL     1       0.007  51.960 -19.679  1.00  0.00     0.024 C 
HETATM    6  C11 UNL     1      -0.142  50.845 -18.657  1.00  0.00     0.037 C 
HETATM    7  C12 UNL     1      -1.431  50.092 -18.814  1.00  0.00    -0.060 C 
HETATM    8  C13 UNL     1      -1.598  48.849 -18.247  1.00  0.00    -0.015 C 
HETATM    9  C14 UNL     1      -2.951  48.058 -18.276  1.00  0.00     0.031 C 
HETATM   10  C15 UNL     1      -3.955  49.130 -18.574  1.00  0.00     0.019 C 
HETATM   11  C16 UNL     1      -3.438  49.523 -19.974  1.00  0.00     0.031 C 
HETATM   12  C17 UNL     1      -4.328  48.799 -20.933  1.00  0.00     0.124 C 
HETATM   13  N4  UNL     1      -4.117  47.332 -20.607  1.00  0.00    -0.407 N 
HETATM   14  C18 UNL     1      -5.336  46.546 -20.738  1.00  0.00     0.117 C 
HETATM   15  C19 UNL     1      -5.018  45.054 -20.824  1.00  0.00     0.019 C 
HETATM   16  C20 UNL     1      -4.027  44.575 -19.764  1.00  0.00     0.004 C 
HETATM   17  C21 UNL     1      -3.702  45.658 -18.744  1.00  0.00     0.026 C 
HETATM   18  C22 UNL     1      -3.212  46.953 -19.425  1.00  0.00     0.086 C 
HETATM   19  C23 UNL     1      -2.543  50.731 -19.763  1.00  0.00     0.122 C 
ENDROOT
BRANCH   2  20
HETATM   20  C2  UNL     1      -2.358  51.970 -23.353  1.00  0.00     0.118 A 
HETATM   21  N1  UNL     1      -3.021  52.693 -24.280  1.00  0.00    -0.295 N 
HETATM   22  N2  UNL     1      -2.188  52.735 -25.331  1.00  0.00    -0.299 N 
ATOM     23  H1  UNL     1      -3.947  53.113 -24.199  1.00  0.00     0.187 HD
HETATM   24  C3  UNL     1      -1.013  52.074 -25.133  1.00  0.00     0.061 A 
HETATM   25  H1  UNL     1      -2.487  53.237 -26.160  1.00  0.00     0.187 HD
HETATM   26  C8  UNL     1      -1.084  51.572 -23.857  1.00  0.00     0.068 A 
BRANCH  24  27
HETATM   27  C4  UNL     1       0.154  51.938 -26.150  1.00  0.00    -0.001 A 
HETATM   28  C5  UNL     1       1.465  51.744 -25.771  1.00  0.00     0.063 A 
HETATM   29  S1  UNL     1       2.516  51.630 -27.121  1.00  0.00    -0.113 SA
HETATM   30  C6  UNL     1       1.221  51.845 -28.215  1.00  0.00     0.050 A 
HETATM   31  C7  UNL     1       0.014  51.995 -27.568  1.00  0.00     0.021 A 
ENDBRANCH  24  27
ENDBRANCH   2  20
TORSDOF 2
ENDMDL
