MODEL 1
REMARK minimizedAffinity -8.02342987
REMARK  7 active torsions:
REMARK  status: ('A' for Active; 'I' for Inactive)
REMARK    1  A    between atoms: C3_3  and  C5_5 
REMARK    2  A    between atoms: C6_6  and  C7_7 
REMARK    3  A    between atoms: C8_8  and  C9_9 
REMARK    4  A    between atoms: C10_10  and  C12_12 
REMARK    5  A    between atoms: C12_12  and  C13_14 
REMARK    6  A    between atoms: C13_14  and  C15_16 
REMARK    7  A    between atoms: C15_16  and  O2_17 
ROOT
HETATM    1  C5  UNL     1      -1.928   7.336  15.365  1.00  0.00     0.058 C 
HETATM    2  C6  UNL     1      -1.650   5.991  14.595  1.00  0.00     0.024 C 
HETATM    3  C16 UNL     1      -0.892   6.237  13.261  1.00  0.00     0.003 C 
HETATM    4  C17 UNL     1      -0.703   4.947  12.430  1.00  0.00     0.041 C 
HETATM    5  C18 UNL     1       0.115   5.186  11.196  1.00  0.00     0.157 A 
HETATM    6  O3  UNL     1       1.535   5.095  11.415  1.00  0.00    -0.370 OA
HETATM    7  C19 UNL     1       1.024   6.389  11.074  1.00  0.00     0.084 A 
HETATM    8  C20 UNL     1       1.447   6.858   9.719  1.00  0.00     0.049 C 
HETATM    9  C21 UNL     1       1.083   7.394  12.191  1.00  0.00     0.048 C 
HETATM   10  C22 UNL     1       0.503   6.866  13.516  1.00  0.00     0.025 C 
HETATM   11  C23 UNL     1       0.493   7.952  14.561  1.00  0.00     0.162 A 
HETATM   12  O4  UNL     1       0.500   7.409  15.897  1.00  0.00    -0.368 OA
HETATM   13  C24 UNL     1      -0.658   8.166  15.521  1.00  0.00     0.092 A 
HETATM   14  C25 UNL     1      -0.753   9.454  16.289  1.00  0.00     0.049 C 
ENDROOT
BRANCH   2  15
HETATM   15  C7  UNL     1      -2.919   5.181  14.394  1.00  0.00    -0.021 C 
HETATM   16  C8  UNL     1      -3.749   5.343  13.351  1.00  0.00    -0.003 C 
BRANCH  16  17
HETATM   17  C9  UNL     1      -4.952   4.554  13.187  1.00  0.00     0.010 C 
HETATM   18  C10 UNL     1      -5.214   3.698  12.183  1.00  0.00    -0.016 C 
HETATM   19  C11 UNL     1      -4.310   3.359  11.029  1.00  0.00     0.052 C 
BRANCH  18  20
HETATM   20  C12 UNL     1      -6.513   2.930  12.167  1.00  0.00     0.161 C 
HETATM   21  O1  UNL     1      -6.542   1.860  11.553  1.00  0.00    -0.292 OA
BRANCH  20  22
HETATM   22  C13 UNL     1      -7.737   3.464  12.926  1.00  0.00     0.080 C 
HETATM   23  C14 UNL     1      -7.476   3.562  14.431  1.00  0.00     0.020 C 
BRANCH  22  24
HETATM   24  C15 UNL     1      -8.164   4.823  12.355  1.00  0.00     0.176 C 
BRANCH  24  25
HETATM   25  O2  UNL     1      -8.989   5.532  13.273  1.00  0.00    -0.400 OA
HETATM   26  H22 UNL     1      -8.743   6.473  13.211  1.00  0.00     0.209 HD
ENDBRANCH  24  25
ENDBRANCH  22  24
ENDBRANCH  20  22
ENDBRANCH  18  20
ENDBRANCH  16  17
ENDBRANCH   2  15
BRANCH   1  27
HETATM   27  C3  UNL     1      -3.132   8.146  14.826  1.00  0.00    -0.080 C 
HETATM   28  C2  UNL     1      -4.321   8.185  15.464  1.00  0.00    -0.028 C 
HETATM   29  C1  UNL     1      -5.566   8.914  15.062  1.00  0.00     0.036 C 
HETATM   30  C4  UNL     1      -2.872   8.810  13.494  1.00  0.00     0.043 C 
ENDBRANCH   1  27
TORSDOF 7
ENDMDL
MODEL 2
REMARK minimizedAffinity -7.98151255
REMARK  7 active torsions:
REMARK  status: ('A' for Active; 'I' for Inactive)
REMARK    1  A    between atoms: C3_3  and  C5_5 
REMARK    2  A    between atoms: C6_6  and  C7_7 
REMARK    3  A    between atoms: C8_8  and  C9_9 
REMARK    4  A    between atoms: C10_10  and  C12_12 
REMARK    5  A    between atoms: C12_12  and  C13_14 
REMARK    6  A    between atoms: C13_14  and  C15_16 
REMARK    7  A    between atoms: C15_16  and  O2_17 
ROOT
HETATM    1  C5  UNL     1       0.512   6.792  14.205  1.00  0.00     0.058 C 
HETATM    2  C6  UNL     1       1.032   5.752  13.144  1.00  0.00     0.024 C 
HETATM    3  C16 UNL     1       1.550   6.451  11.856  1.00  0.00     0.003 C 
HETATM    4  C17 UNL     1       1.963   5.449  10.753  1.00  0.00     0.041 C 
HETATM    5  C18 UNL     1       2.552   6.138   9.558  1.00  0.00     0.157 A 
HETATM    6  O3  UNL     1       3.964   6.392   9.672  1.00  0.00    -0.370 OA
HETATM    7  C19 UNL     1       3.110   7.541   9.653  1.00  0.00     0.084 A 
HETATM    8  C20 UNL     1       3.248   8.365   8.413  1.00  0.00     0.049 C 
HETATM    9  C21 UNL     1       3.039   8.284  10.958  1.00  0.00     0.048 C 
HETATM   10  C22 UNL     1       2.761   7.369  12.165  1.00  0.00     0.025 C 
HETATM   11  C23 UNL     1       2.596   8.183  13.422  1.00  0.00     0.162 A 
HETATM   12  O4  UNL     1       2.888   7.409  14.604  1.00  0.00    -0.368 OA
HETATM   13  C24 UNL     1       1.542   7.886  14.468  1.00  0.00     0.092 A 
HETATM   14  C25 UNL     1       1.214   8.923  15.505  1.00  0.00     0.049 C 
ENDROOT
BRANCH   2  15
HETATM   15  C7  UNL     1      -0.007   4.686  12.840  1.00  0.00    -0.021 C 
HETATM   16  C8  UNL     1      -0.883   4.767  11.825  1.00  0.00    -0.003 C 
BRANCH  16  17
HETATM   17  C9  UNL     1      -1.862   3.733  11.561  1.00  0.00     0.010 C 
HETATM   18  C10 UNL     1      -3.043   3.574  12.187  1.00  0.00    -0.016 C 
HETATM   19  C11 UNL     1      -3.610   4.442  13.276  1.00  0.00     0.052 C 
BRANCH  18  20
HETATM   20  C12 UNL     1      -3.966   2.452  11.778  1.00  0.00     0.161 C 
HETATM   21  O1  UNL     1      -3.492   1.315  11.700  1.00  0.00    -0.292 OA
BRANCH  20  22
HETATM   22  C13 UNL     1      -5.451   2.732  11.507  1.00  0.00     0.080 C 
HETATM   23  C14 UNL     1      -6.017   3.785  12.462  1.00  0.00     0.020 C 
BRANCH  22  24
HETATM   24  C15 UNL     1      -5.654   3.153  10.045  1.00  0.00     0.176 C 
BRANCH  24  25
HETATM   25  O2  UNL     1      -4.409   3.284   9.368  1.00  0.00    -0.400 OA
HETATM   26  H22 UNL     1      -4.539   2.949   8.462  1.00  0.00     0.209 HD
ENDBRANCH  24  25
ENDBRANCH  22  24
ENDBRANCH  20  22
ENDBRANCH  18  20
ENDBRANCH  16  17
ENDBRANCH   2  15
BRANCH   1  27
HETATM   27  C3  UNL     1      -0.908   7.339  13.924  1.00  0.00    -0.080 C 
HETATM   28  C2  UNL     1      -1.184   8.123  12.860  1.00  0.00    -0.028 C 
HETATM   29  C1  UNL     1      -2.497   8.724  12.466  1.00  0.00     0.036 C 
HETATM   30  C4  UNL     1      -1.920   6.980  14.986  1.00  0.00     0.043 C 
ENDBRANCH   1  27
TORSDOF 7
ENDMDL
MODEL 3
REMARK minimizedAffinity -7.86115313
REMARK  7 active torsions:
REMARK  status: ('A' for Active; 'I' for Inactive)
REMARK    1  A    between atoms: C3_3  and  C5_5 
REMARK    2  A    between atoms: C6_6  and  C7_7 
REMARK    3  A    between atoms: C8_8  and  C9_9 
REMARK    4  A    between atoms: C10_10  and  C12_12 
REMARK    5  A    between atoms: C12_12  and  C13_14 
REMARK    6  A    between atoms: C13_14  and  C15_16 
REMARK    7  A    between atoms: C15_16  and  O2_17 
ROOT
HETATM    1  C5  UNL     1      -0.841   7.242  14.238  1.00  0.00     0.058 C 
HETATM    2  C6  UNL     1      -0.468   6.112  13.207  1.00  0.00     0.024 C 
HETATM    3  C16 UNL     1       0.495   6.632  12.104  1.00  0.00     0.003 C 
HETATM    4  C17 UNL     1       0.789   5.574  11.015  1.00  0.00     0.041 C 
HETATM    5  C18 UNL     1       1.796   6.060  10.015  1.00  0.00     0.157 A 
HETATM    6  O3  UNL     1       3.162   5.838  10.413  1.00  0.00    -0.370 OA
HETATM    7  C19 UNL     1       2.734   7.203  10.333  1.00  0.00     0.084 A 
HETATM    8  C20 UNL     1       3.374   7.963   9.216  1.00  0.00     0.049 C 
HETATM    9  C21 UNL     1       2.634   7.901  11.661  1.00  0.00     0.048 C 
HETATM   10  C22 UNL     1       1.842   7.100  12.712  1.00  0.00     0.025 C 
HETATM   11  C23 UNL     1       1.688   7.898  13.981  1.00  0.00     0.162 A 
HETATM   12  O4  UNL     1       1.474   7.046  15.125  1.00  0.00    -0.368 OA
HETATM   13  C24 UNL     1       0.403   7.937  14.782  1.00  0.00     0.092 A 
HETATM   14  C25 UNL     1       0.212   9.002  15.824  1.00  0.00     0.049 C 
ENDROOT
BRANCH   2  15
HETATM   15  C7  UNL     1      -1.704   5.448  12.625  1.00  0.00    -0.021 C 
HETATM   16  C8  UNL     1      -2.527   4.655  13.330  1.00  0.00    -0.003 C 
BRANCH  16  17
HETATM   17  C9  UNL     1      -3.699   4.037  12.746  1.00  0.00     0.010 C 
HETATM   18  C10 UNL     1      -4.950   4.533  12.753  1.00  0.00    -0.016 C 
HETATM   19  C11 UNL     1      -5.397   5.841  13.346  1.00  0.00     0.052 C 
BRANCH  18  20
HETATM   20  C12 UNL     1      -6.065   3.773  12.078  1.00  0.00     0.161 C 
HETATM   21  O1  UNL     1      -5.823   3.238  10.993  1.00  0.00    -0.292 OA
BRANCH  20  22
HETATM   22  C13 UNL     1      -7.439   3.651  12.754  1.00  0.00     0.080 C 
HETATM   23  C14 UNL     1      -7.317   3.522  14.274  1.00  0.00     0.020 C 
BRANCH  22  24
HETATM   24  C15 UNL     1      -8.325   4.846  12.376  1.00  0.00     0.176 C 
BRANCH  24  25
HETATM   25  O2  UNL     1      -9.007   5.363  13.513  1.00  0.00    -0.400 OA
HETATM   26  H22 UNL     1      -9.024   6.333  13.420  1.00  0.00     0.209 HD
ENDBRANCH  24  25
ENDBRANCH  22  24
ENDBRANCH  20  22
ENDBRANCH  18  20
ENDBRANCH  16  17
ENDBRANCH   2  15
BRANCH   1  27
HETATM   27  C3  UNL     1      -1.929   8.226  13.744  1.00  0.00    -0.080 C 
HETATM   28  C2  UNL     1      -3.167   8.263  14.282  1.00  0.00    -0.028 C 
HETATM   29  C1  UNL     1      -4.315   9.149  13.908  1.00  0.00     0.036 C 
HETATM   30  C4  UNL     1      -1.501   9.069  12.566  1.00  0.00     0.043 C 
ENDBRANCH   1  27
TORSDOF 7
ENDMDL
MODEL 4
REMARK minimizedAffinity -7.84572458
REMARK  7 active torsions:
REMARK  status: ('A' for Active; 'I' for Inactive)
REMARK    1  A    between atoms: C3_3  and  C5_5 
REMARK    2  A    between atoms: C6_6  and  C7_7 
REMARK    3  A    between atoms: C8_8  and  C9_9 
REMARK    4  A    between atoms: C10_10  and  C12_12 
REMARK    5  A    between atoms: C12_12  and  C13_14 
REMARK    6  A    between atoms: C13_14  and  C15_16 
REMARK    7  A    between atoms: C15_16  and  O2_17 
ROOT
HETATM    1  C5  UNL     1      -0.011   7.541  15.420  1.00  0.00     0.058 C 
HETATM    2  C6  UNL     1      -0.212   6.304  14.467  1.00  0.00     0.024 C 
HETATM    3  C16 UNL     1       0.315   6.588  13.033  1.00  0.00     0.003 C 
HETATM    4  C17 UNL     1       0.030   5.432  12.047  1.00  0.00     0.041 C 
HETATM    5  C18 UNL     1       0.632   5.681  10.697  1.00  0.00     0.157 A 
HETATM    6  O3  UNL     1       2.004   5.261  10.587  1.00  0.00    -0.370 OA
HETATM    7  C19 UNL     1       1.761   6.670  10.508  1.00  0.00     0.084 A 
HETATM    8  C20 UNL     1       2.020   7.243   9.152  1.00  0.00     0.049 C 
HETATM    9  C21 UNL     1       2.269   7.454  11.686  1.00  0.00     0.048 C 
HETATM   10  C22 UNL     1       1.842   6.862  13.042  1.00  0.00     0.025 C 
HETATM   11  C23 UNL     1       2.290   7.750  14.174  1.00  0.00     0.162 A 
HETATM   12  O4  UNL     1       2.420   7.017  15.410  1.00  0.00    -0.368 OA
HETATM   13  C24 UNL     1       1.426   8.051  15.381  1.00  0.00     0.092 A 
HETATM   14  C25 UNL     1       1.789   9.194  16.285  1.00  0.00     0.049 C 
ENDROOT
BRANCH   2  15
HETATM   15  C7  UNL     1      -1.652   5.821  14.464  1.00  0.00    -0.021 C 
HETATM   16  C8  UNL     1      -2.542   6.136  13.509  1.00  0.00    -0.003 C 
BRANCH  16  17
HETATM   17  C9  UNL     1      -3.909   5.658  13.533  1.00  0.00     0.010 C 
HETATM   18  C10 UNL     1      -4.365   4.515  12.989  1.00  0.00    -0.016 C 
HETATM   19  C11 UNL     1      -3.556   3.480  12.258  1.00  0.00     0.052 C 
BRANCH  18  20
HETATM   20  C12 UNL     1      -5.823   4.148  13.120  1.00  0.00     0.161 C 
HETATM   21  O1  UNL     1      -6.462   4.651  14.049  1.00  0.00    -0.292 OA
BRANCH  20  22
HETATM   22  C13 UNL     1      -6.479   3.206  12.100  1.00  0.00     0.080 C 
HETATM   23  C14 UNL     1      -5.477   2.206  11.520  1.00  0.00     0.020 C 
BRANCH  22  24
HETATM   24  C15 UNL     1      -7.671   2.479  12.738  1.00  0.00     0.176 C 
BRANCH  24  25
HETATM   25  O2  UNL     1      -8.729   3.384  13.035  1.00  0.00    -0.400 OA
HETATM   26  H22 UNL     1      -9.564   2.920  12.843  1.00  0.00     0.209 HD
ENDBRANCH  24  25
ENDBRANCH  22  24
ENDBRANCH  20  22
ENDBRANCH  18  20
ENDBRANCH  16  17
ENDBRANCH   2  15
BRANCH   1  27
HETATM   27  C3  UNL     1      -1.066   8.660  15.248  1.00  0.00    -0.080 C 
HETATM   28  C2  UNL     1      -2.063   8.857  16.138  1.00  0.00    -0.028 C 
HETATM   29  C1  UNL     1      -3.150   9.887  16.102  1.00  0.00     0.036 C 
HETATM   30  C4  UNL     1      -0.921   9.444  13.965  1.00  0.00     0.043 C 
ENDBRANCH   1  27
TORSDOF 7
ENDMDL
MODEL 5
REMARK minimizedAffinity -7.72612047
REMARK  7 active torsions:
REMARK  status: ('A' for Active; 'I' for Inactive)
REMARK    1  A    between atoms: C3_3  and  C5_5 
REMARK    2  A    between atoms: C6_6  and  C7_7 
REMARK    3  A    between atoms: C8_8  and  C9_9 
REMARK    4  A    between atoms: C10_10  and  C12_12 
REMARK    5  A    between atoms: C12_12  and  C13_14 
REMARK    6  A    between atoms: C13_14  and  C15_16 
REMARK    7  A    between atoms: C15_16  and  O2_17 
ROOT
HETATM    1  C5  UNL     1      -0.363   7.670  15.496  1.00  0.00     0.058 C 
HETATM    2  C6  UNL     1      -0.636   6.345  14.690  1.00  0.00     0.024 C 
HETATM    3  C16 UNL     1      -0.065   6.421  13.247  1.00  0.00     0.003 C 
HETATM    4  C17 UNL     1      -0.415   5.178  12.396  1.00  0.00     0.041 C 
HETATM    5  C18 UNL     1       0.226   5.224  11.041  1.00  0.00     0.157 A 
HETATM    6  O3  UNL     1       1.567   4.701  11.015  1.00  0.00    -0.370 OA
HETATM    7  C19 UNL     1       1.426   6.104  10.766  1.00  0.00     0.084 A 
HETATM    8  C20 UNL     1       1.747   6.494   9.359  1.00  0.00     0.049 C 
HETATM    9  C21 UNL     1       1.968   6.986  11.857  1.00  0.00     0.048 C 
HETATM   10  C22 UNL     1       1.477   6.589  13.261  1.00  0.00     0.025 C 
HETATM   11  C23 UNL     1       1.967   7.572  14.293  1.00  0.00     0.162 A 
HETATM   12  O4  UNL     1       2.024   6.983  15.608  1.00  0.00    -0.368 OA
HETATM   13  C24 UNL     1       1.107   8.072  15.434  1.00  0.00     0.092 A 
HETATM   14  C25 UNL     1       1.535   9.287  16.207  1.00  0.00     0.049 C 
ENDROOT
BRANCH   2  15
HETATM   15  C7  UNL     1      -2.106   5.965  14.708  1.00  0.00    -0.021 C 
HETATM   16  C8  UNL     1      -2.976   6.307  13.743  1.00  0.00    -0.003 C 
BRANCH  16  17
HETATM   17  C9  UNL     1      -4.373   5.929  13.788  1.00  0.00     0.010 C 
HETATM   18  C10 UNL     1      -4.910   4.800  13.290  1.00  0.00    -0.016 C 
HETATM   19  C11 UNL     1      -4.178   3.682  12.600  1.00  0.00     0.052 C 
BRANCH  18  20
HETATM   20  C12 UNL     1      -6.390   4.541  13.437  1.00  0.00     0.161 C 
HETATM   21  O1  UNL     1      -6.802   3.403  13.197  1.00  0.00    -0.292 OA
BRANCH  20  22
HETATM   22  C13 UNL     1      -7.328   5.662  13.906  1.00  0.00     0.080 C 
HETATM   23  C14 UNL     1      -8.645   5.667  13.126  1.00  0.00     0.020 C 
BRANCH  22  24
HETATM   24  C15 UNL     1      -7.586   5.542  15.414  1.00  0.00     0.176 C 
BRANCH  24  25
HETATM   25  O2  UNL     1      -7.931   4.209  15.775  1.00  0.00    -0.400 OA
HETATM   26  H22 UNL     1      -7.509   4.027  16.634  1.00  0.00     0.209 HD
ENDBRANCH  24  25
ENDBRANCH  22  24
ENDBRANCH  20  22
ENDBRANCH  18  20
ENDBRANCH  16  17
ENDBRANCH   2  15
BRANCH   1  27
HETATM   27  C3  UNL     1      -1.334   8.830  15.169  1.00  0.00    -0.080 C 
HETATM   28  C2  UNL     1      -2.339   9.188  15.996  1.00  0.00    -0.028 C 
HETATM   29  C1  UNL     1      -3.351  10.276  15.811  1.00  0.00     0.036 C 
HETATM   30  C4  UNL     1      -1.098   9.459  13.815  1.00  0.00     0.043 C 
ENDBRANCH   1  27
TORSDOF 7
ENDMDL
MODEL 6
REMARK minimizedAffinity -7.69313049
REMARK  7 active torsions:
REMARK  status: ('A' for Active; 'I' for Inactive)
REMARK    1  A    between atoms: C3_3  and  C5_5 
REMARK    2  A    between atoms: C6_6  and  C7_7 
REMARK    3  A    between atoms: C8_8  and  C9_9 
REMARK    4  A    between atoms: C10_10  and  C12_12 
REMARK    5  A    between atoms: C12_12  and  C13_14 
REMARK    6  A    between atoms: C13_14  and  C15_16 
REMARK    7  A    between atoms: C15_16  and  O2_17 
ROOT
HETATM    1  C5  UNL     1       0.591   6.911  14.265  1.00  0.00     0.058 C 
HETATM    2  C6  UNL     1       1.037   5.846  13.194  1.00  0.00     0.024 C 
HETATM    3  C16 UNL     1       1.562   6.517  11.895  1.00  0.00     0.003 C 
HETATM    4  C17 UNL     1       1.903   5.496  10.785  1.00  0.00     0.041 C 
HETATM    5  C18 UNL     1       2.499   6.155   9.577  1.00  0.00     0.157 A 
HETATM    6  O3  UNL     1       3.924   6.339   9.661  1.00  0.00    -0.370 OA
HETATM    7  C19 UNL     1       3.126   7.529   9.658  1.00  0.00     0.084 A 
HETATM    8  C20 UNL     1       3.278   8.344   8.414  1.00  0.00     0.049 C 
HETATM    9  C21 UNL     1       3.119   8.275  10.963  1.00  0.00     0.048 C 
HETATM   10  C22 UNL     1       2.823   7.375  12.177  1.00  0.00     0.025 C 
HETATM   11  C23 UNL     1       2.724   8.198  13.436  1.00  0.00     0.162 A 
HETATM   12  O4  UNL     1       3.002   7.412  14.613  1.00  0.00    -0.368 OA
HETATM   13  C24 UNL     1       1.679   7.954  14.504  1.00  0.00     0.092 A 
HETATM   14  C25 UNL     1       1.423   9.006  15.546  1.00  0.00     0.049 C 
ENDROOT
BRANCH   2  15
HETATM   15  C7  UNL     1      -0.059   4.832  12.915  1.00  0.00    -0.021 C 
HETATM   16  C8  UNL     1      -0.732   4.762  11.755  1.00  0.00    -0.003 C 
BRANCH  16  17
HETATM   17  C9  UNL     1      -1.771   3.783  11.518  1.00  0.00     0.010 C 
HETATM   18  C10 UNL     1      -3.034   3.831  11.982  1.00  0.00    -0.016 C 
HETATM   19  C11 UNL     1      -3.643   4.917  12.826  1.00  0.00     0.052 C 
BRANCH  18  20
HETATM   20  C12 UNL     1      -4.009   2.736  11.626  1.00  0.00     0.161 C 
HETATM   21  O1  UNL     1      -3.628   1.567  11.738  1.00  0.00    -0.292 OA
BRANCH  20  22
HETATM   22  C13 UNL     1      -5.435   3.085  11.177  1.00  0.00     0.080 C 
HETATM   23  C14 UNL     1      -5.581   3.040   9.654  1.00  0.00     0.020 C 
BRANCH  22  24
HETATM   24  C15 UNL     1      -6.448   2.149  11.851  1.00  0.00     0.176 C 
BRANCH  24  25
HETATM   25  O2  UNL     1      -6.486   0.880  11.208  1.00  0.00    -0.400 OA
HETATM   26  H22 UNL     1      -6.596   0.208  11.906  1.00  0.00     0.209 HD
ENDBRANCH  24  25
ENDBRANCH  22  24
ENDBRANCH  20  22
ENDBRANCH  18  20
ENDBRANCH  16  17
ENDBRANCH   2  15
BRANCH   1  27
HETATM   27  C3  UNL     1      -0.807   7.526  14.012  1.00  0.00    -0.080 C 
HETATM   28  C2  UNL     1      -1.846   7.327  14.851  1.00  0.00    -0.028 C 
HETATM   29  C1  UNL     1      -3.245   7.848  14.736  1.00  0.00     0.036 C 
HETATM   30  C4  UNL     1      -0.911   8.290  12.714  1.00  0.00     0.043 C 
ENDBRANCH   1  27
TORSDOF 7
ENDMDL
MODEL 7
REMARK minimizedAffinity -7.69293022
REMARK  7 active torsions:
REMARK  status: ('A' for Active; 'I' for Inactive)
REMARK    1  A    between atoms: C3_3  and  C5_5 
REMARK    2  A    between atoms: C6_6  and  C7_7 
REMARK    3  A    between atoms: C8_8  and  C9_9 
REMARK    4  A    between atoms: C10_10  and  C12_12 
REMARK    5  A    between atoms: C12_12  and  C13_14 
REMARK    6  A    between atoms: C13_14  and  C15_16 
REMARK    7  A    between atoms: C15_16  and  O2_17 
ROOT
HETATM    1  C5  UNL     1      -0.922   6.657  11.714  1.00  0.00     0.058 C 
HETATM    2  C6  UNL     1      -1.657   7.389  12.899  1.00  0.00     0.024 C 
HETATM    3  C16 UNL     1      -0.661   7.851  13.999  1.00  0.00     0.003 C 
HETATM    4  C17 UNL     1      -1.366   8.473  15.226  1.00  0.00     0.041 C 
HETATM    5  C18 UNL     1      -0.386   9.002  16.230  1.00  0.00     0.157 A 
HETATM    6  O3  UNL     1       0.049  10.348  15.964  1.00  0.00    -0.370 OA
HETATM    7  C19 UNL     1       1.041   9.322  15.846  1.00  0.00     0.084 A 
HETATM    8  C20 UNL     1       2.093   9.387  16.907  1.00  0.00     0.049 C 
HETATM    9  C21 UNL     1       1.508   9.069  14.439  1.00  0.00     0.048 C 
HETATM   10  C22 UNL     1       0.353   8.883  13.439  1.00  0.00     0.025 C 
HETATM   11  C23 UNL     1       0.884   8.527  12.074  1.00  0.00     0.162 A 
HETATM   12  O4  UNL     1      -0.045   8.881  11.029  1.00  0.00    -0.368 OA
HETATM   13  C24 UNL     1       0.244   7.484  11.182  1.00  0.00     0.092 A 
HETATM   14  C25 UNL     1       1.008   6.943  10.008  1.00  0.00     0.049 C 
ENDROOT
BRANCH   2  15
HETATM   15  C7  UNL     1      -2.790   6.550  13.466  1.00  0.00    -0.021 C 
HETATM   16  C8  UNL     1      -4.010   6.472  12.910  1.00  0.00    -0.003 C 
BRANCH  16  17
HETATM   17  C9  UNL     1      -5.069   5.662  13.474  1.00  0.00     0.010 C 
HETATM   18  C10 UNL     1      -6.169   6.113  14.106  1.00  0.00    -0.016 C 
HETATM   19  C11 UNL     1      -6.545   7.549  14.345  1.00  0.00     0.052 C 
BRANCH  18  20
HETATM   20  C12 UNL     1      -7.196   5.134  14.621  1.00  0.00     0.161 C 
HETATM   21  O1  UNL     1      -7.342   5.043  15.843  1.00  0.00    -0.292 OA
BRANCH  20  22
HETATM   22  C13 UNL     1      -8.046   4.315  13.639  1.00  0.00     0.080 C 
HETATM   23  C14 UNL     1      -8.318   5.083  12.343  1.00  0.00     0.020 C 
BRANCH  22  24
HETATM   24  C15 UNL     1      -7.368   2.969  13.345  1.00  0.00     0.176 C 
BRANCH  24  25
HETATM   25  O2  UNL     1      -8.243   2.094  12.642  1.00  0.00    -0.400 OA
HETATM   26  H22 UNL     1      -7.701   1.609  11.992  1.00  0.00     0.209 HD
ENDBRANCH  24  25
ENDBRANCH  22  24
ENDBRANCH  20  22
ENDBRANCH  18  20
ENDBRANCH  16  17
ENDBRANCH   2  15
BRANCH   1  27
HETATM   27  C3  UNL     1      -0.550   5.183  12.004  1.00  0.00    -0.080 C 
HETATM   28  C2  UNL     1      -1.127   4.151  11.352  1.00  0.00    -0.028 C 
HETATM   29  C1  UNL     1      -0.875   2.685  11.528  1.00  0.00     0.036 C 
HETATM   30  C4  UNL     1       0.446   5.015  13.127  1.00  0.00     0.043 C 
ENDBRANCH   1  27
TORSDOF 7
ENDMDL
MODEL 8
REMARK minimizedAffinity -7.51594591
REMARK  7 active torsions:
REMARK  status: ('A' for Active; 'I' for Inactive)
REMARK    1  A    between atoms: C3_3  and  C5_5 
REMARK    2  A    between atoms: C6_6  and  C7_7 
REMARK    3  A    between atoms: C8_8  and  C9_9 
REMARK    4  A    between atoms: C10_10  and  C12_12 
REMARK    5  A    between atoms: C12_12  and  C13_14 
REMARK    6  A    between atoms: C13_14  and  C15_16 
REMARK    7  A    between atoms: C15_16  and  O2_17 
ROOT
HETATM    1  C5  UNL     1      -2.862   7.957  13.692  1.00  0.00     0.058 C 
HETATM    2  C6  UNL     1      -2.962   6.832  12.594  1.00  0.00     0.024 C 
HETATM    3  C16 UNL     1      -4.012   5.750  12.970  1.00  0.00     0.003 C 
HETATM    4  C17 UNL     1      -4.053   4.576  11.965  1.00  0.00     0.041 C 
HETATM    5  C18 UNL     1      -5.138   3.593  12.290  1.00  0.00     0.157 A 
HETATM    6  O3  UNL     1      -6.420   3.939  11.735  1.00  0.00    -0.370 OA
HETATM    7  C19 UNL     1      -6.312   3.976  13.162  1.00  0.00     0.084 A 
HETATM    8  C20 UNL     1      -7.102   2.906  13.846  1.00  0.00     0.049 C 
HETATM    9  C21 UNL     1      -6.381   5.356  13.755  1.00  0.00     0.048 C 
HETATM   10  C22 UNL     1      -5.435   6.360  13.071  1.00  0.00     0.025 C 
HETATM   11  C23 UNL     1      -5.472   7.691  13.778  1.00  0.00     0.162 A 
HETATM   12  O4  UNL     1      -5.077   8.771  12.907  1.00  0.00    -0.368 OA
HETATM   13  C24 UNL     1      -4.235   8.523  14.041  1.00  0.00     0.092 A 
HETATM   14  C25 UNL     1      -4.296   9.649  15.034  1.00  0.00     0.049 C 
ENDROOT
BRANCH   2  15
HETATM   15  C7  UNL     1      -1.605   6.230  12.276  1.00  0.00    -0.021 C 
HETATM   16  C8  UNL     1      -0.688   6.827  11.497  1.00  0.00    -0.003 C 
BRANCH  16  17
HETATM   17  C9  UNL     1       0.599   6.227  11.213  1.00  0.00     0.010 C 
HETATM   18  C10 UNL     1       1.348   6.429  10.114  1.00  0.00    -0.016 C 
HETATM   19  C11 UNL     1       1.025   7.332   8.956  1.00  0.00     0.052 C 
BRANCH  18  20
HETATM   20  C12 UNL     1       2.685   5.741   9.977  1.00  0.00     0.161 C 
HETATM   21  O1  UNL     1       2.712   4.511  10.078  1.00  0.00    -0.292 OA
BRANCH  20  22
HETATM   22  C13 UNL     1       3.951   6.560   9.686  1.00  0.00     0.080 C 
HETATM   23  C14 UNL     1       3.619   7.993   9.266  1.00  0.00     0.020 C 
BRANCH  22  24
HETATM   24  C15 UNL     1       4.882   6.550  10.907  1.00  0.00     0.176 C 
BRANCH  24  25
HETATM   25  O2  UNL     1       4.159   6.290  12.105  1.00  0.00    -0.400 OA
HETATM   26  H22 UNL     1       4.723   5.722  12.662  1.00  0.00     0.209 HD
ENDBRANCH  24  25
ENDBRANCH  22  24
ENDBRANCH  20  22
ENDBRANCH  18  20
ENDBRANCH  16  17
ENDBRANCH   2  15
BRANCH   1  27
HETATM   27  C3  UNL     1      -2.023   7.567  14.933  1.00  0.00    -0.080 C 
HETATM   28  C2  UNL     1      -0.732   7.937  15.078  1.00  0.00    -0.028 C 
HETATM   29  C1  UNL     1       0.199   7.633  16.210  1.00  0.00     0.036 C 
HETATM   30  C4  UNL     1      -2.755   6.678  15.910  1.00  0.00     0.043 C 
ENDBRANCH   1  27
TORSDOF 7
ENDMDL
MODEL 9
REMARK minimizedAffinity -7.3451519
REMARK  7 active torsions:
REMARK  status: ('A' for Active; 'I' for Inactive)
REMARK    1  A    between atoms: C3_3  and  C5_5 
REMARK    2  A    between atoms: C6_6  and  C7_7 
REMARK    3  A    between atoms: C8_8  and  C9_9 
REMARK    4  A    between atoms: C10_10  and  C12_12 
REMARK    5  A    between atoms: C12_12  and  C13_14 
REMARK    6  A    between atoms: C13_14  and  C15_16 
REMARK    7  A    between atoms: C15_16  and  O2_17 
ROOT
HETATM    1  C5  UNL     1      -2.526   7.419  12.736  1.00  0.00     0.058 C 
HETATM    2  C6  UNL     1      -3.313   8.681  13.253  1.00  0.00     0.024 C 
HETATM    3  C16 UNL     1      -2.820   9.134  14.656  1.00  0.00     0.003 C 
HETATM    4  C17 UNL     1      -3.649  10.302  15.237  1.00  0.00     0.041 C 
HETATM    5  C18 UNL     1      -3.098  10.788  16.544  1.00  0.00     0.157 A 
HETATM    6  O3  UNL     1      -2.056  11.771  16.405  1.00  0.00    -0.370 OA
HETATM    7  C19 UNL     1      -1.670  10.506  16.951  1.00  0.00     0.084 A 
HETATM    8  C20 UNL     1      -1.287  10.572  18.395  1.00  0.00     0.049 C 
HETATM    9  C21 UNL     1      -0.788   9.684  16.052  1.00  0.00     0.048 C 
HETATM   10  C22 UNL     1      -1.330   9.561  14.615  1.00  0.00     0.025 C 
HETATM   11  C23 UNL     1      -0.460   8.641  13.797  1.00  0.00     0.162 A 
HETATM   12  O4  UNL     1      -0.571   8.916  12.385  1.00  0.00    -0.368 OA
HETATM   13  C24 UNL     1      -1.017   7.624  12.823  1.00  0.00     0.092 A 
HETATM   14  C25 UNL     1      -0.130   6.527  12.309  1.00  0.00     0.049 C 
ENDROOT
BRANCH   2  15
HETATM   15  C7  UNL     1      -4.816   8.466  13.214  1.00  0.00    -0.021 C 
HETATM   16  C8  UNL     1      -5.522   7.949  14.233  1.00  0.00    -0.003 C 
BRANCH  16  17
HETATM   17  C9  UNL     1      -6.955   7.757  14.166  1.00  0.00     0.010 C 
HETATM   18  C10 UNL     1      -7.625   6.630  14.470  1.00  0.00    -0.016 C 
HETATM   19  C11 UNL     1      -7.035   5.338  14.964  1.00  0.00     0.052 C 
BRANCH  18  20
HETATM   20  C12 UNL     1      -9.130   6.598  14.368  1.00  0.00     0.161 C 
HETATM   21  O1  UNL     1      -9.782   6.947  15.356  1.00  0.00    -0.292 OA
BRANCH  20  22
HETATM   22  C13 UNL     1      -9.808   6.175  13.056  1.00  0.00     0.080 C 
HETATM   23  C14 UNL     1     -10.825   7.214  12.579  1.00  0.00     0.020 C 
BRANCH  22  24
HETATM   24  C15 UNL     1      -8.751   5.908  11.975  1.00  0.00     0.176 C 
BRANCH  24  25
HETATM   25  O2  UNL     1      -9.275   6.140  10.672  1.00  0.00    -0.400 OA
HETATM   26  H22 UNL     1      -8.563   6.550  10.147  1.00  0.00     0.209 HD
ENDBRANCH  24  25
ENDBRANCH  22  24
ENDBRANCH  20  22
ENDBRANCH  18  20
ENDBRANCH  16  17
ENDBRANCH   2  15
BRANCH   1  27
HETATM   27  C3  UNL     1      -3.002   6.076  13.341  1.00  0.00    -0.080 C 
HETATM   28  C2  UNL     1      -3.712   5.175  12.630  1.00  0.00    -0.028 C 
HETATM   29  C1  UNL     1      -4.240   3.847  13.079  1.00  0.00     0.036 C 
HETATM   30  C4  UNL     1      -2.666   5.914  14.804  1.00  0.00     0.043 C 
ENDBRANCH   1  27
TORSDOF 7
ENDMDL
