MODEL 1
REMARK minimizedAffinity -10.6798067
REMARK  4 active torsions:
REMARK  status: ('A' for Active; 'I' for Inactive)
REMARK    1  A    between atoms: C4_4  and  O1_5 
REMARK    2  A    between atoms: C4_4  and  C5_6 
REMARK    3  A    between atoms: C5_6  and  C6_7 
REMARK    4  A    between atoms: C6_7  and  C8_9 
ROOT
HETATM    1  C8  UNL     1      -0.813  50.771 -22.261  1.00  0.00    -0.001 C 
HETATM    2  C9  UNL     1      -0.992  50.837 -20.719  1.00  0.00     0.007 C 
HETATM    3  C10 UNL     1      -2.337  50.127 -20.399  1.00  0.00     0.015 C 
HETATM    4  C11 UNL     1      -2.744  49.439 -21.721  1.00  0.00    -0.013 C 
HETATM    5  C12 UNL     1      -1.957  48.081 -21.770  1.00  0.00     0.021 C 
HETATM    6  C13 UNL     1      -4.210  49.054 -21.959  1.00  0.00    -0.070 C 
HETATM    7  C14 UNL     1      -4.915  48.419 -21.004  1.00  0.00    -0.022 C 
HETATM    8  C15 UNL     1      -6.182  47.666 -21.272  1.00  0.00     0.034 C 
HETATM    9  C16 UNL     1      -6.282  47.260 -22.760  1.00  0.00     0.013 C 
HETATM   10  C17 UNL     1      -7.461  46.265 -23.057  1.00  0.00     0.018 C 
HETATM   11  C18 UNL     1      -7.097  44.875 -22.474  1.00  0.00     0.023 C 
HETATM   12  C19 UNL     1      -8.822  46.656 -22.459  1.00  0.00     0.023 C 
HETATM   13  C20 UNL     1      -7.649  46.096 -24.573  1.00  0.00     0.135 C 
HETATM   14  O2  UNL     1      -7.939  45.012 -25.083  1.00  0.00    -0.297 OA
HETATM   15  C21 UNL     1      -7.579  47.332 -25.433  1.00  0.00     0.080 C 
HETATM   16  C22 UNL     1      -6.296  48.097 -25.149  1.00  0.00     0.017 C 
HETATM   17  C23 UNL     1      -6.152  48.529 -23.671  1.00  0.00    -0.031 C 
HETATM   18  C24 UNL     1      -7.246  49.594 -23.367  1.00  0.00     0.016 C 
HETATM   19  C25 UNL     1      -4.754  49.251 -23.390  1.00  0.00     0.024 C 
HETATM   20  C26 UNL     1      -3.626  49.047 -24.428  1.00  0.00     0.010 C 
HETATM   21  C27 UNL     1      -2.366  49.923 -24.185  1.00  0.00     0.011 C 
HETATM   22  C28 UNL     1      -2.267  50.515 -22.762  1.00  0.00    -0.029 C 
HETATM   23  C29 UNL     1      -3.101  51.831 -22.661  1.00  0.00     0.016 C 
ENDROOT
BRANCH   1  24
HETATM   24  C6  UNL     1       0.111  51.846 -22.911  1.00  0.00    -0.008 C 
HETATM   25  C7  UNL     1       0.679  52.735 -21.789  1.00  0.00     0.010 C 
BRANCH  24  26
HETATM   26  C5  UNL     1      -0.506  52.696 -24.051  1.00  0.00     0.078 C 
BRANCH  26  27
HETATM   27  C4  UNL     1       0.467  53.221 -25.126  1.00  0.00     0.191 A 
HETATM   28  C3  UNL     1      -0.043  52.990 -26.497  1.00  0.00     0.054 A 
HETATM   29  C2  UNL     1       0.765  52.170 -27.168  1.00  0.00     0.015 A 
HETATM   30  C1  UNL     1       0.674  51.639 -28.542  1.00  0.00     0.054 C 
HETATM   31  C30 UNL     1       1.864  51.838 -26.255  1.00  0.00     0.291 A 
HETATM   32  O3  UNL     1       1.693  52.503 -25.082  1.00  0.00    -0.276 OA
HETATM   33  O4  UNL     1       2.791  51.093 -26.516  1.00  0.00    -0.260 OA
BRANCH  27  34
HETATM   34  O1  UNL     1       0.686  54.608 -24.957  1.00  0.00    -0.362 OA
HETATM   35  H5  UNL     1       1.159  54.919 -25.746  1.00  0.00     0.213 HD
ENDBRANCH  27  34
ENDBRANCH  26  27
ENDBRANCH  24  26
ENDBRANCH   1  24
TORSDOF 4
ENDMDL
MODEL 2
REMARK minimizedAffinity -10.3433542
REMARK  4 active torsions:
REMARK  status: ('A' for Active; 'I' for Inactive)
REMARK    1  A    between atoms: C4_4  and  O1_5 
REMARK    2  A    between atoms: C4_4  and  C5_6 
REMARK    3  A    between atoms: C5_6  and  C6_7 
REMARK    4  A    between atoms: C6_7  and  C8_9 
ROOT
HETATM    1  C8  UNL     1      -1.357  48.966 -18.308  1.00  0.00    -0.001 C 
HETATM    2  C9  UNL     1      -2.505  47.993 -18.692  1.00  0.00     0.007 C 
HETATM    3  C10 UNL     1      -2.816  48.245 -20.193  1.00  0.00     0.015 C 
HETATM    4  C11 UNL     1      -1.662  49.144 -20.690  1.00  0.00    -0.013 C 
HETATM    5  C12 UNL     1      -0.467  48.182 -21.025  1.00  0.00     0.021 C 
HETATM    6  C13 UNL     1      -1.848  49.995 -21.952  1.00  0.00    -0.070 C 
HETATM    7  C14 UNL     1      -2.376  49.459 -23.068  1.00  0.00    -0.022 C 
HETATM    8  C15 UNL     1      -2.233  50.070 -24.428  1.00  0.00     0.034 C 
HETATM    9  C16 UNL     1      -1.021  51.026 -24.483  1.00  0.00     0.013 C 
HETATM   10  C17 UNL     1      -0.673  51.510 -25.937  1.00  0.00     0.018 C 
HETATM   11  C18 UNL     1      -0.052  50.324 -26.720  1.00  0.00     0.023 C 
HETATM   12  C19 UNL     1      -1.863  52.017 -26.767  1.00  0.00     0.023 C 
HETATM   13  C20 UNL     1       0.375  52.633 -25.890  1.00  0.00     0.135 C 
HETATM   14  O2  UNL     1       1.277  52.725 -26.725  1.00  0.00    -0.297 OA
HETATM   15  C21 UNL     1       0.210  53.707 -24.846  1.00  0.00     0.080 C 
HETATM   16  C22 UNL     1       0.056  53.081 -23.469  1.00  0.00     0.017 C 
HETATM   17  C23 UNL     1      -1.148  52.116 -23.363  1.00  0.00    -0.031 C 
HETATM   18  C24 UNL     1      -2.454  52.953 -23.494  1.00  0.00     0.016 C 
HETATM   19  C25 UNL     1      -1.228  51.408 -21.932  1.00  0.00     0.024 C 
HETATM   20  C26 UNL     1       0.048  51.425 -21.059  1.00  0.00     0.010 C 
HETATM   21  C27 UNL     1      -0.158  50.886 -19.616  1.00  0.00     0.011 C 
HETATM   22  C28 UNL     1      -1.443  50.050 -19.425  1.00  0.00    -0.029 C 
HETATM   23  C29 UNL     1      -2.665  50.986 -19.161  1.00  0.00     0.016 C 
ENDROOT
BRANCH   1  24
HETATM   24  C6  UNL     1      -1.221  49.338 -16.799  1.00  0.00    -0.008 C 
HETATM   25  C7  UNL     1      -1.929  50.686 -16.570  1.00  0.00     0.010 C 
BRANCH  24  26
HETATM   26  C5  UNL     1       0.213  49.342 -16.212  1.00  0.00     0.078 C 
BRANCH  26  27
HETATM   27  C4  UNL     1       0.595  50.549 -15.330  1.00  0.00     0.191 A 
HETATM   28  C3  UNL     1       1.194  51.647 -16.121  1.00  0.00     0.054 A 
HETATM   29  C2  UNL     1       2.452  51.867 -15.745  1.00  0.00     0.015 A 
HETATM   30  C1  UNL     1       3.452  52.834 -16.240  1.00  0.00     0.054 C 
HETATM   31  C30 UNL     1       2.730  50.917 -14.662  1.00  0.00     0.291 A 
HETATM   32  O3  UNL     1       1.612  50.187 -14.405  1.00  0.00    -0.276 OA
HETATM   33  O4  UNL     1       3.792  50.811 -14.078  1.00  0.00    -0.260 OA
BRANCH  27  34
HETATM   34  O1  UNL     1      -0.546  51.048 -14.659  1.00  0.00    -0.362 OA
HETATM   35  H5  UNL     1      -0.292  51.896 -14.261  1.00  0.00     0.213 HD
ENDBRANCH  27  34
ENDBRANCH  26  27
ENDBRANCH  24  26
ENDBRANCH   1  24
TORSDOF 4
ENDMDL
MODEL 3
REMARK minimizedAffinity -10.1587572
REMARK  4 active torsions:
REMARK  status: ('A' for Active; 'I' for Inactive)
REMARK    1  A    between atoms: C4_4  and  O1_5 
REMARK    2  A    between atoms: C4_4  and  C5_6 
REMARK    3  A    between atoms: C5_6  and  C6_7 
REMARK    4  A    between atoms: C6_7  and  C8_9 
ROOT
HETATM    1  C8  UNL     1      -1.682  51.117 -22.275  1.00  0.00    -0.001 C 
HETATM    2  C9  UNL     1      -2.749  49.991 -22.365  1.00  0.00     0.007 C 
HETATM    3  C10 UNL     1      -2.992  49.494 -20.914  1.00  0.00     0.015 C 
HETATM    4  C11 UNL     1      -2.275  50.529 -20.017  1.00  0.00    -0.013 C 
HETATM    5  C12 UNL     1      -3.271  51.731 -19.849  1.00  0.00     0.021 C 
HETATM    6  C13 UNL     1      -1.872  50.148 -18.587  1.00  0.00    -0.070 C 
HETATM    7  C14 UNL     1      -2.744  49.527 -17.772  1.00  0.00    -0.022 C 
HETATM    8  C15 UNL     1      -2.594  49.475 -16.283  1.00  0.00     0.034 C 
HETATM    9  C16 UNL     1      -1.682  50.615 -15.776  1.00  0.00     0.013 C 
HETATM   10  C17 UNL     1      -1.678  50.763 -14.212  1.00  0.00     0.018 C 
HETATM   11  C18 UNL     1      -3.040  51.357 -13.766  1.00  0.00     0.023 C 
HETATM   12  C19 UNL     1      -1.483  49.458 -13.425  1.00  0.00     0.023 C 
HETATM   13  C20 UNL     1      -0.580  51.743 -13.771  1.00  0.00     0.135 C 
HETATM   14  O2  UNL     1      -0.740  52.536 -12.841  1.00  0.00    -0.297 OA
HETATM   15  C21 UNL     1       0.767  51.638 -14.440  1.00  0.00     0.080 C 
HETATM   16  C22 UNL     1       0.608  51.681 -15.951  1.00  0.00     0.017 C 
HETATM   17  C23 UNL     1      -0.296  50.555 -16.507  1.00  0.00    -0.031 C 
HETATM   18  C24 UNL     1       0.432  49.197 -16.289  1.00  0.00     0.016 C 
HETATM   19  C25 UNL     1      -0.514  50.683 -18.084  1.00  0.00     0.024 C 
HETATM   20  C26 UNL     1      -0.198  52.049 -18.738  1.00  0.00     0.010 C 
HETATM   21  C27 UNL     1      -0.255  52.043 -20.291  1.00  0.00     0.011 C 
HETATM   22  C28 UNL     1      -1.010  50.840 -20.896  1.00  0.00    -0.029 C 
HETATM   23  C29 UNL     1      -0.062  49.604 -21.009  1.00  0.00     0.016 C 
ENDROOT
BRANCH   1  24
HETATM   24  C6  UNL     1      -0.849  51.406 -23.562  1.00  0.00    -0.008 C 
HETATM   25  C7  UNL     1       0.125  52.559 -23.255  1.00  0.00     0.010 C 
BRANCH  24  26
HETATM   26  C5  UNL     1      -1.649  51.669 -24.863  1.00  0.00     0.078 C 
BRANCH  26  27
HETATM   27  C4  UNL     1      -1.081  51.054 -26.159  1.00  0.00     0.191 A 
HETATM   28  C3  UNL     1       0.376  50.810 -26.066  1.00  0.00     0.054 A 
HETATM   29  C2  UNL     1       1.035  51.546 -26.958  1.00  0.00     0.015 A 
HETATM   30  C1  UNL     1       2.480  51.660 -27.237  1.00  0.00     0.054 C 
HETATM   31  C30 UNL     1       0.019  52.304 -27.697  1.00  0.00     0.291 A 
HETATM   32  O3  UNL     1      -1.216  51.963 -27.243  1.00  0.00    -0.276 OA
HETATM   33  O4  UNL     1       0.249  53.102 -28.587  1.00  0.00    -0.260 OA
BRANCH  27  34
HETATM   34  O1  UNL     1      -1.724  49.827 -26.444  1.00  0.00    -0.362 OA
HETATM   35  H5  UNL     1      -1.223  49.403 -27.158  1.00  0.00     0.213 HD
ENDBRANCH  27  34
ENDBRANCH  26  27
ENDBRANCH  24  26
ENDBRANCH   1  24
TORSDOF 4
ENDMDL
MODEL 4
REMARK minimizedAffinity -10.1033707
REMARK  4 active torsions:
REMARK  status: ('A' for Active; 'I' for Inactive)
REMARK    1  A    between atoms: C4_4  and  O1_5 
REMARK    2  A    between atoms: C4_4  and  C5_6 
REMARK    3  A    between atoms: C5_6  and  C6_7 
REMARK    4  A    between atoms: C6_7  and  C8_9 
ROOT
HETATM    1  C8  UNL     1      -0.221  51.212 -21.855  1.00  0.00    -0.001 C 
HETATM    2  C9  UNL     1      -0.083  51.378 -20.317  1.00  0.00     0.007 C 
HETATM    3  C10 UNL     1      -1.245  50.568 -19.678  1.00  0.00     0.015 C 
HETATM    4  C11 UNL     1      -1.839  49.745 -20.842  1.00  0.00    -0.013 C 
HETATM    5  C12 UNL     1      -0.934  48.470 -20.986  1.00  0.00     0.021 C 
HETATM    6  C13 UNL     1      -3.270  49.203 -20.739  1.00  0.00    -0.070 C 
HETATM    7  C14 UNL     1      -3.688  48.578 -19.623  1.00  0.00    -0.022 C 
HETATM    8  C15 UNL     1      -4.892  47.689 -19.572  1.00  0.00     0.034 C 
HETATM    9  C16 UNL     1      -5.253  47.162 -20.979  1.00  0.00     0.013 C 
HETATM   10  C17 UNL     1      -6.351  46.039 -20.962  1.00  0.00     0.018 C 
HETATM   11  C18 UNL     1      -5.723  44.738 -20.396  1.00  0.00     0.023 C 
HETATM   12  C19 UNL     1      -7.592  46.341 -20.108  1.00  0.00     0.023 C 
HETATM   13  C20 UNL     1      -6.829  45.737 -22.391  1.00  0.00     0.135 C 
HETATM   14  O2  UNL     1      -7.097  44.594 -22.767  1.00  0.00    -0.297 OA
HETATM   15  C21 UNL     1      -7.076  46.905 -23.311  1.00  0.00     0.080 C 
HETATM   16  C22 UNL     1      -5.855  47.809 -23.352  1.00  0.00     0.017 C 
HETATM   17  C23 UNL     1      -5.455  48.365 -21.965  1.00  0.00    -0.031 C 
HETATM   18  C24 UNL     1      -6.573  49.339 -21.491  1.00  0.00     0.016 C 
HETATM   19  C25 UNL     1      -4.118  49.237 -22.028  1.00  0.00     0.024 C 
HETATM   20  C26 UNL     1      -3.215  49.064 -23.272  1.00  0.00     0.010 C 
HETATM   21  C27 UNL     1      -2.037  50.074 -23.352  1.00  0.00     0.011 C 
HETATM   22  C28 UNL     1      -1.710  50.779 -22.018  1.00  0.00    -0.029 C 
HETATM   23  C29 UNL     1      -2.645  52.013 -21.812  1.00  0.00     0.016 C 
ENDROOT
BRANCH   1  24
HETATM   24  C6  UNL     1       0.424  52.319 -22.746  1.00  0.00    -0.008 C 
HETATM   25  C7  UNL     1       0.952  53.433 -21.822  1.00  0.00     0.010 C 
BRANCH  24  26
HETATM   26  C5  UNL     1      -0.456  52.894 -23.884  1.00  0.00     0.078 C 
BRANCH  26  27
HETATM   27  C4  UNL     1       0.284  53.411 -25.135  1.00  0.00     0.191 A 
HETATM   28  C3  UNL     1      -0.356  52.950 -26.388  1.00  0.00     0.054 A 
HETATM   29  C2  UNL     1       0.472  52.170 -27.081  1.00  0.00     0.015 A 
HETATM   30  C1  UNL     1       0.287  51.470 -28.367  1.00  0.00     0.054 C 
HETATM   31  C30 UNL     1       1.715  52.099 -26.306  1.00  0.00     0.291 A 
HETATM   32  O3  UNL     1       1.598  52.872 -25.194  1.00  0.00    -0.276 OA
HETATM   33  O4  UNL     1       2.702  51.459 -26.621  1.00  0.00    -0.260 OA
BRANCH  27  34
HETATM   34  O1  UNL     1       0.314  54.825 -25.141  1.00  0.00    -0.362 OA
HETATM   35  H5  UNL     1       0.631  55.098 -26.016  1.00  0.00     0.213 HD
ENDBRANCH  27  34
ENDBRANCH  26  27
ENDBRANCH  24  26
ENDBRANCH   1  24
TORSDOF 4
ENDMDL
MODEL 5
REMARK minimizedAffinity -10.05478
REMARK  4 active torsions:
REMARK  status: ('A' for Active; 'I' for Inactive)
REMARK    1  A    between atoms: C4_4  and  O1_5 
REMARK    2  A    between atoms: C4_4  and  C5_6 
REMARK    3  A    between atoms: C5_6  and  C6_7 
REMARK    4  A    between atoms: C6_7  and  C8_9 
ROOT
HETATM    1  C8  UNL     1      -2.393  51.069 -22.980  1.00  0.00    -0.001 C 
HETATM    2  C9  UNL     1      -2.745  51.252 -21.478  1.00  0.00     0.007 C 
HETATM    3  C10 UNL     1      -3.997  50.374 -21.206  1.00  0.00     0.015 C 
HETATM    4  C11 UNL     1      -4.156  49.508 -22.475  1.00  0.00    -0.013 C 
HETATM    5  C12 UNL     1      -3.177  48.292 -22.302  1.00  0.00     0.021 C 
HETATM    6  C13 UNL     1      -5.515  48.877 -22.802  1.00  0.00    -0.070 C 
HETATM    7  C14 UNL     1      -6.218  48.234 -21.852  1.00  0.00    -0.022 C 
HETATM    8  C15 UNL     1      -7.325  47.269 -22.150  1.00  0.00     0.034 C 
HETATM    9  C16 UNL     1      -7.204  46.712 -23.587  1.00  0.00     0.013 C 
HETATM   10  C17 UNL     1      -8.186  45.522 -23.879  1.00  0.00     0.018 C 
HETATM   11  C18 UNL     1      -7.688  44.267 -23.114  1.00  0.00     0.023 C 
HETATM   12  C19 UNL     1      -9.646  45.750 -23.454  1.00  0.00     0.023 C 
HETATM   13  C20 UNL     1      -8.183  45.182 -25.378  1.00  0.00     0.135 C 
HETATM   14  O2  UNL     1      -8.255  44.022 -25.789  1.00  0.00    -0.297 OA
HETATM   15  C21 UNL     1      -8.203  46.326 -26.358  1.00  0.00     0.080 C 
HETATM   16  C22 UNL     1      -7.084  47.305 -26.045  1.00  0.00     0.017 C 
HETATM   17  C23 UNL     1      -7.164  47.894 -24.617  1.00  0.00    -0.031 C 
HETATM   18  C24 UNL     1      -8.428  48.798 -24.534  1.00  0.00     0.016 C 
HETATM   19  C25 UNL     1      -5.925  48.849 -24.290  1.00  0.00     0.024 C 
HETATM   20  C26 UNL     1      -4.675  48.726 -25.192  1.00  0.00     0.010 C 
HETATM   21  C27 UNL     1      -3.590  49.808 -24.933  1.00  0.00     0.011 C 
HETATM   22  C28 UNL     1      -3.732  50.541 -23.581  1.00  0.00    -0.029 C 
HETATM   23  C29 UNL     1      -4.756  51.714 -23.703  1.00  0.00     0.016 C 
ENDROOT
BRANCH   1  24
HETATM   24  C6  UNL     1      -1.572  52.208 -23.658  1.00  0.00    -0.008 C 
HETATM   25  C7  UNL     1      -2.272  52.588 -24.976  1.00  0.00     0.010 C 
BRANCH  24  26
HETATM   26  C5  UNL     1      -0.061  51.941 -23.875  1.00  0.00     0.078 C 
BRANCH  26  27
HETATM   27  C4  UNL     1       0.638  52.772 -24.971  1.00  0.00     0.191 A 
HETATM   28  C3  UNL     1      -0.041  52.645 -26.280  1.00  0.00     0.054 A 
HETATM   29  C2  UNL     1       0.765  52.080 -27.177  1.00  0.00     0.015 A 
HETATM   30  C1  UNL     1       0.541  51.735 -28.594  1.00  0.00     0.054 C 
HETATM   31  C30 UNL     1       2.034  51.824 -26.485  1.00  0.00     0.291 A 
HETATM   32  O3  UNL     1       1.950  52.281 -25.207  1.00  0.00    -0.276 OA
HETATM   33  O4  UNL     1       3.011  51.298 -26.985  1.00  0.00    -0.260 OA
BRANCH  27  34
HETATM   34  O1  UNL     1       0.665  54.139 -24.610  1.00  0.00    -0.362 OA
HETATM   35  H5  UNL     1       0.953  54.633 -25.394  1.00  0.00     0.213 HD
ENDBRANCH  27  34
ENDBRANCH  26  27
ENDBRANCH  24  26
ENDBRANCH   1  24
TORSDOF 4
ENDMDL
MODEL 6
REMARK minimizedAffinity -10.0177116
REMARK  4 active torsions:
REMARK  status: ('A' for Active; 'I' for Inactive)
REMARK    1  A    between atoms: C4_4  and  O1_5 
REMARK    2  A    between atoms: C4_4  and  C5_6 
REMARK    3  A    between atoms: C5_6  and  C6_7 
REMARK    4  A    between atoms: C6_7  and  C8_9 
ROOT
HETATM    1  C8  UNL     1       0.262  51.940 -23.832  1.00  0.00    -0.001 C 
HETATM    2  C9  UNL     1       0.605  53.440 -23.620  1.00  0.00     0.007 C 
HETATM    3  C10 UNL     1       0.620  53.678 -22.084  1.00  0.00     0.015 C 
HETATM    4  C11 UNL     1       0.564  52.263 -21.465  1.00  0.00    -0.013 C 
HETATM    5  C12 UNL     1       2.039  51.723 -21.469  1.00  0.00     0.021 C 
HETATM    6  C13 UNL     1       0.082  52.083 -20.020  1.00  0.00    -0.070 C 
HETATM    7  C14 UNL     1       0.550  52.875 -19.038  1.00  0.00    -0.022 C 
HETATM    8  C15 UNL     1       0.455  52.534 -17.582  1.00  0.00     0.034 C 
HETATM    9  C16 UNL     1       0.268  51.013 -17.379  1.00  0.00     0.013 C 
HETATM   10  C17 UNL     1       0.403  50.563 -15.880  1.00  0.00     0.018 C 
HETATM   11  C18 UNL     1       1.895  50.658 -15.465  1.00  0.00     0.023 C 
HETATM   12  C19 UNL     1      -0.396  51.396 -14.866  1.00  0.00     0.023 C 
HETATM   13  C20 UNL     1      -0.028  49.096 -15.722  1.00  0.00     0.135 C 
HETATM   14  O2  UNL     1       0.550  48.319 -14.959  1.00  0.00    -0.297 OA
HETATM   15  C21 UNL     1      -1.267  48.644 -16.451  1.00  0.00     0.080 C 
HETATM   16  C22 UNL     1      -1.169  49.001 -17.925  1.00  0.00     0.017 C 
HETATM   17  C23 UNL     1      -0.985  50.516 -18.180  1.00  0.00    -0.031 C 
HETATM   18  C24 UNL     1      -2.292  51.244 -17.750  1.00  0.00     0.016 C 
HETATM   19  C25 UNL     1      -0.795  50.846 -19.732  1.00  0.00     0.024 C 
HETATM   20  C26 UNL     1      -0.401  49.677 -20.665  1.00  0.00     0.010 C 
HETATM   21  C27 UNL     1      -0.417  50.032 -22.178  1.00  0.00     0.011 C 
HETATM   22  C28 UNL     1      -0.402  51.547 -22.476  1.00  0.00    -0.029 C 
HETATM   23  C29 UNL     1      -1.850  52.129 -22.409  1.00  0.00     0.016 C 
ENDROOT
BRANCH   1  24
HETATM   24  C6  UNL     1      -0.361  51.544 -25.206  1.00  0.00    -0.008 C 
HETATM   25  C7  UNL     1       0.788  51.217 -26.178  1.00  0.00     0.010 C 
BRANCH  24  26
HETATM   26  C5  UNL     1      -1.363  52.549 -25.829  1.00  0.00     0.078 C 
BRANCH  26  27
HETATM   27  C4  UNL     1      -2.789  52.026 -26.097  1.00  0.00     0.191 A 
HETATM   28  C3  UNL     1      -3.001  50.676 -25.527  1.00  0.00     0.054 A 
HETATM   29  C2  UNL     1      -3.251  49.792 -26.490  1.00  0.00     0.015 A 
HETATM   30  C1  UNL     1      -3.510  48.340 -26.424  1.00  0.00     0.054 C 
HETATM   31  C30 UNL     1      -3.229  50.541 -27.752  1.00  0.00     0.291 A 
HETATM   32  O3  UNL     1      -3.004  51.856 -27.492  1.00  0.00    -0.276 OA
HETATM   33  O4  UNL     1      -3.401  50.059 -28.856  1.00  0.00    -0.260 OA
BRANCH  27  34
HETATM   34  O1  UNL     1      -3.748  52.904 -25.540  1.00  0.00    -0.362 OA
HETATM   35  H5  UNL     1      -4.605  52.452 -25.583  1.00  0.00     0.213 HD
ENDBRANCH  27  34
ENDBRANCH  26  27
ENDBRANCH  24  26
ENDBRANCH   1  24
TORSDOF 4
ENDMDL
MODEL 7
REMARK minimizedAffinity -9.86115074
REMARK  4 active torsions:
REMARK  status: ('A' for Active; 'I' for Inactive)
REMARK    1  A    between atoms: C4_4  and  O1_5 
REMARK    2  A    between atoms: C4_4  and  C5_6 
REMARK    3  A    between atoms: C5_6  and  C6_7 
REMARK    4  A    between atoms: C6_7  and  C8_9 
ROOT
HETATM    1  C8  UNL     1      -1.239  50.013 -22.007  1.00  0.00    -0.001 C 
HETATM    2  C9  UNL     1      -1.059  49.804 -20.479  1.00  0.00     0.007 C 
HETATM    3  C10 UNL     1      -2.218  48.876 -20.019  1.00  0.00     0.015 C 
HETATM    4  C11 UNL     1      -2.855  48.362 -21.329  1.00  0.00    -0.013 C 
HETATM    5  C12 UNL     1      -1.975  47.149 -21.799  1.00  0.00     0.021 C 
HETATM    6  C13 UNL     1      -4.292  47.825 -21.317  1.00  0.00    -0.070 C 
HETATM    7  C14 UNL     1      -4.691  46.955 -20.371  1.00  0.00    -0.022 C 
HETATM    8  C15 UNL     1      -5.908  46.091 -20.500  1.00  0.00     0.034 C 
HETATM    9  C16 UNL     1      -6.314  45.921 -21.982  1.00  0.00     0.013 C 
HETATM   10  C17 UNL     1      -7.429  44.837 -22.202  1.00  0.00     0.018 C 
HETATM   11  C18 UNL     1      -6.808  43.433 -21.982  1.00  0.00     0.023 C 
HETATM   12  C19 UNL     1      -8.643  44.938 -21.265  1.00  0.00     0.023 C 
HETATM   13  C20 UNL     1      -7.949  44.892 -23.648  1.00  0.00     0.135 C 
HETATM   14  O2  UNL     1      -8.245  43.875 -24.279  1.00  0.00    -0.297 OA
HETATM   15  C21 UNL     1      -8.200  46.248 -24.254  1.00  0.00     0.080 C 
HETATM   16  C22 UNL     1      -6.965  47.124 -24.112  1.00  0.00     0.017 C 
HETATM   17  C23 UNL     1      -6.521  47.327 -22.644  1.00  0.00    -0.031 C 
HETATM   18  C24 UNL     1      -7.610  48.170 -21.919  1.00  0.00     0.016 C 
HETATM   19  C25 UNL     1      -5.172  48.176 -22.536  1.00  0.00     0.024 C 
HETATM   20  C26 UNL     1      -4.304  48.297 -23.810  1.00  0.00     0.010 C 
HETATM   21  C27 UNL     1      -3.111  49.285 -23.681  1.00  0.00     0.011 C 
HETATM   22  C28 UNL     1      -2.739  49.646 -22.226  1.00  0.00    -0.029 C 
HETATM   23  C29 UNL     1      -3.648  50.804 -21.704  1.00  0.00     0.016 C 
ENDROOT
BRANCH   1  24
HETATM   24  C6  UNL     1      -0.599  51.294 -22.625  1.00  0.00    -0.008 C 
HETATM   25  C7  UNL     1       0.434  51.846 -21.626  1.00  0.00     0.010 C 
BRANCH  24  26
HETATM   26  C5  UNL     1      -1.577  52.400 -23.099  1.00  0.00     0.078 C 
BRANCH  26  27
HETATM   27  C4  UNL     1      -1.740  52.571 -24.623  1.00  0.00     0.191 A 
HETATM   28  C3  UNL     1      -1.056  51.496 -25.378  1.00  0.00     0.054 A 
HETATM   29  C2  UNL     1      -0.081  51.998 -26.133  1.00  0.00     0.015 A 
HETATM   30  C1  UNL     1       0.877  51.333 -27.039  1.00  0.00     0.054 C 
HETATM   31  C30 UNL     1      -0.094  53.448 -25.913  1.00  0.00     0.291 A 
HETATM   32  O3  UNL     1      -1.106  53.765 -25.061  1.00  0.00    -0.276 OA
HETATM   33  O4  UNL     1       0.672  54.242 -26.426  1.00  0.00    -0.260 OA
BRANCH  27  34
HETATM   34  O1  UNL     1      -3.109  52.566 -24.975  1.00  0.00    -0.362 OA
HETATM   35  H5  UNL     1      -3.153  52.503 -25.943  1.00  0.00     0.213 HD
ENDBRANCH  27  34
ENDBRANCH  26  27
ENDBRANCH  24  26
ENDBRANCH   1  24
TORSDOF 4
ENDMDL
MODEL 8
REMARK minimizedAffinity -9.7953825
REMARK  4 active torsions:
REMARK  status: ('A' for Active; 'I' for Inactive)
REMARK    1  A    between atoms: C4_4  and  O1_5 
REMARK    2  A    between atoms: C4_4  and  C5_6 
REMARK    3  A    between atoms: C5_6  and  C6_7 
REMARK    4  A    between atoms: C6_7  and  C8_9 
ROOT
HETATM    1  C8  UNL     1      -2.574  51.182 -25.004  1.00  0.00    -0.001 C 
HETATM    2  C9  UNL     1      -3.368  52.439 -24.555  1.00  0.00     0.007 C 
HETATM    3  C10 UNL     1      -4.021  52.087 -23.190  1.00  0.00     0.015 C 
HETATM    4  C11 UNL     1      -3.361  50.755 -22.769  1.00  0.00    -0.013 C 
HETATM    5  C12 UNL     1      -1.993  51.135 -22.098  1.00  0.00     0.021 C 
HETATM    6  C13 UNL     1      -4.060  49.847 -21.750  1.00  0.00    -0.070 C 
HETATM    7  C14 UNL     1      -4.570  50.357 -20.614  1.00  0.00    -0.022 C 
HETATM    8  C15 UNL     1      -4.903  49.529 -19.410  1.00  0.00     0.034 C 
HETATM    9  C16 UNL     1      -4.126  48.193 -19.422  1.00  0.00     0.013 C 
HETATM   10  C17 UNL     1      -4.243  47.391 -18.077  1.00  0.00     0.018 C 
HETATM   11  C18 UNL     1      -3.411  48.119 -16.989  1.00  0.00     0.023 C 
HETATM   12  C19 UNL     1      -5.668  47.240 -17.520  1.00  0.00     0.023 C 
HETATM   13  C20 UNL     1      -3.655  45.981 -18.243  1.00  0.00     0.135 C 
HETATM   14  O2  UNL     1      -3.012  45.427 -17.348  1.00  0.00    -0.297 OA
HETATM   15  C21 UNL     1      -3.981  45.227 -19.506  1.00  0.00     0.080 C 
HETATM   16  C22 UNL     1      -3.651  46.074 -20.723  1.00  0.00     0.017 C 
HETATM   17  C23 UNL     1      -4.408  47.423 -20.758  1.00  0.00    -0.031 C 
HETATM   18  C24 UNL     1      -5.922  47.125 -20.964  1.00  0.00     0.016 C 
HETATM   19  C25 UNL     1      -3.972  48.326 -22.002  1.00  0.00     0.024 C 
HETATM   20  C26 UNL     1      -2.639  47.974 -22.704  1.00  0.00     0.010 C 
HETATM   21  C27 UNL     1      -2.374  48.772 -24.010  1.00  0.00     0.011 C 
HETATM   22  C28 UNL     1      -3.234  50.045 -24.165  1.00  0.00    -0.029 C 
HETATM   23  C29 UNL     1      -4.631  49.688 -24.764  1.00  0.00     0.016 C 
ENDROOT
BRANCH   1  24
HETATM   24  C6  UNL     1      -2.295  51.031 -26.531  1.00  0.00    -0.008 C 
HETATM   25  C7  UNL     1      -0.951  50.298 -26.703  1.00  0.00     0.010 C 
BRANCH  24  26
HETATM   26  C5  UNL     1      -2.347  52.327 -27.378  1.00  0.00     0.078 C 
BRANCH  26  27
HETATM   27  C4  UNL     1      -1.082  53.210 -27.370  1.00  0.00     0.191 A 
HETATM   28  C3  UNL     1       0.083  52.513 -27.962  1.00  0.00     0.054 A 
HETATM   29  C2  UNL     1       1.044  52.348 -27.054  1.00  0.00     0.015 A 
HETATM   30  C1  UNL     1       2.369  51.707 -27.158  1.00  0.00     0.054 C 
HETATM   31  C30 UNL     1       0.546  52.953 -25.814  1.00  0.00     0.291 A 
HETATM   32  O3  UNL     1      -0.681  53.493 -26.036  1.00  0.00    -0.276 OA
HETATM   33  O4  UNL     1       1.148  52.979 -24.756  1.00  0.00    -0.260 OA
BRANCH  27  34
HETATM   34  O1  UNL     1      -1.308  54.402 -28.096  1.00  0.00    -0.362 OA
HETATM   35  H5  UNL     1      -0.447  54.835 -28.207  1.00  0.00     0.213 HD
ENDBRANCH  27  34
ENDBRANCH  26  27
ENDBRANCH  24  26
ENDBRANCH   1  24
TORSDOF 4
ENDMDL
MODEL 9
REMARK minimizedAffinity -9.78265095
REMARK  4 active torsions:
REMARK  status: ('A' for Active; 'I' for Inactive)
REMARK    1  A    between atoms: C4_4  and  O1_5 
REMARK    2  A    between atoms: C4_4  and  C5_6 
REMARK    3  A    between atoms: C5_6  and  C6_7 
REMARK    4  A    between atoms: C6_7  and  C8_9 
ROOT
HETATM    1  C8  UNL     1      -2.249  50.853 -24.252  1.00  0.00    -0.001 C 
HETATM    2  C9  UNL     1      -2.323  51.243 -22.751  1.00  0.00     0.007 C 
HETATM    3  C10 UNL     1      -3.507  50.443 -22.142  1.00  0.00     0.015 C 
HETATM    4  C11 UNL     1      -3.894  49.420 -23.233  1.00  0.00    -0.013 C 
HETATM    5  C12 UNL     1      -2.902  48.212 -23.075  1.00  0.00     0.021 C 
HETATM    6  C13 UNL     1      -5.291  48.786 -23.222  1.00  0.00    -0.070 C 
HETATM    7  C14 UNL     1      -5.811  48.294 -22.083  1.00  0.00    -0.022 C 
HETATM    8  C15 UNL     1      -6.955  47.328 -22.044  1.00  0.00     0.034 C 
HETATM    9  C16 UNL     1      -7.098  46.582 -23.390  1.00  0.00     0.013 C 
HETATM   10  C17 UNL     1      -8.119  45.389 -23.337  1.00  0.00     0.018 C 
HETATM   11  C18 UNL     1      -7.492  44.235 -22.511  1.00  0.00     0.023 C 
HETATM   12  C19 UNL     1      -9.477  45.710 -22.693  1.00  0.00     0.023 C 
HETATM   13  C20 UNL     1      -8.388  44.852 -24.752  1.00  0.00     0.135 C 
HETATM   14  O2  UNL     1      -8.535  43.650 -24.982  1.00  0.00    -0.297 OA
HETATM   15  C21 UNL     1      -8.583  45.856 -25.859  1.00  0.00     0.080 C 
HETATM   16  C22 UNL     1      -7.425  46.839 -25.888  1.00  0.00     0.017 C 
HETATM   17  C23 UNL     1      -7.243  47.614 -24.561  1.00  0.00    -0.031 C 
HETATM   18  C24 UNL     1      -8.470  48.554 -24.376  1.00  0.00     0.016 C 
HETATM   19  C25 UNL     1      -5.964  48.572 -24.594  1.00  0.00     0.024 C 
HETATM   20  C26 UNL     1      -4.898  48.297 -25.681  1.00  0.00     0.010 C 
HETATM   21  C27 UNL     1      -3.783  49.375 -25.769  1.00  0.00     0.011 C 
HETATM   22  C28 UNL     1      -3.676  50.285 -24.526  1.00  0.00    -0.029 C 
HETATM   23  C29 UNL     1      -4.703  51.457 -24.621  1.00  0.00     0.016 C 
ENDROOT
BRANCH   1  24
HETATM   24  C6  UNL     1      -1.562  51.870 -25.215  1.00  0.00    -0.008 C 
HETATM   25  C7  UNL     1      -0.582  51.094 -26.114  1.00  0.00     0.010 C 
BRANCH  24  26
HETATM   26  C5  UNL     1      -0.881  53.097 -24.557  1.00  0.00     0.078 C 
BRANCH  26  27
HETATM   27  C4  UNL     1       0.533  52.875 -23.980  1.00  0.00     0.191 A 
HETATM   28  C3  UNL     1       0.498  52.143 -22.694  1.00  0.00     0.054 A 
HETATM   29  C2  UNL     1       0.977  52.900 -21.708  1.00  0.00     0.015 A 
HETATM   30  C1  UNL     1       1.131  52.622 -20.266  1.00  0.00     0.054 C 
HETATM   31  C30 UNL     1       1.366  54.175 -22.321  1.00  0.00     0.291 A 
HETATM   32  O3  UNL     1       1.140  54.119 -23.660  1.00  0.00    -0.276 OA
HETATM   33  O4  UNL     1       1.832  55.127 -21.722  1.00  0.00    -0.260 OA
BRANCH  27  34
HETATM   34  O1  UNL     1       1.327  52.142 -24.892  1.00  0.00    -0.362 OA
HETATM   35  H5  UNL     1       2.135  51.884 -24.421  1.00  0.00     0.213 HD
ENDBRANCH  27  34
ENDBRANCH  26  27
ENDBRANCH  24  26
ENDBRANCH   1  24
TORSDOF 4
ENDMDL
