MODEL 1
REMARK minimizedAffinity -8.33664417
REMARK CNNscore 0.723912179
REMARK CNNaffinity 7.07603025
REMARK  9 active torsions:
REMARK  status: ('A' for Active; 'I' for Inactive)
REMARK    1  A    between atoms: C2_2  and  C3_3 
REMARK    2  A    between atoms: C3_3  and  C5_5 
REMARK    3  A    between atoms: C5_5  and  C6_6 
REMARK    4  A    between atoms: C6_6  and  O2_8 
REMARK    5  A    between atoms: O2_8  and  C7_9 
REMARK    6  A    between atoms: C7_9  and  C8_10 
REMARK    7  A    between atoms: C20_22  and  O3_23 
REMARK    8  A    between atoms: C20_22  and  C21_24 
REMARK    9  A    between atoms: C21_24  and  O4_25 
ROOT
HETATM    1  C8  UNL     1      -2.010   7.798  13.237  1.00  0.00    -0.018 C 
HETATM    2  C9  UNL     1      -2.374   8.790  12.093  1.00  0.00     0.018 C 
HETATM    3  C10 UNL     1      -1.805   8.642  14.520  1.00  0.00     0.012 C 
HETATM    4  C11 UNL     1      -3.077   9.178  15.171  1.00  0.00     0.002 C 
HETATM    5  C12 UNL     1      -4.341   8.366  14.904  1.00  0.00     0.010 C 
HETATM    6  C13 UNL     1      -4.104   6.863  14.635  1.00  0.00    -0.032 C 
HETATM    7  C14 UNL     1      -3.382   6.246  15.874  1.00  0.00     0.016 C 
HETATM    8  C15 UNL     1      -3.190   6.739  13.365  1.00  0.00     0.005 C 
HETATM    9  C16 UNL     1      -2.800   5.254  13.139  1.00  0.00     0.007 C 
HETATM   10  C17 UNL     1      -3.965   4.269  13.342  1.00  0.00     0.006 C 
HETATM   11  C18 UNL     1      -5.308   4.984  13.240  1.00  0.00    -0.002 C 
HETATM   12  C19 UNL     1      -6.498   4.019  13.143  1.00  0.00     0.045 C 
HETATM   13  C20 UNL     1      -7.822   4.801  13.017  1.00  0.00     0.083 C 
HETATM   14  C22 UNL     1      -7.871   5.980  14.028  1.00  0.00     0.023 C 
HETATM   15  C23 UNL     1      -7.647   5.505  15.470  1.00  0.00     0.008 C 
HETATM   16  C24 UNL     1      -6.125   5.509  15.664  1.00  0.00     0.011 C 
HETATM   17  C25 UNL     1      -5.491   6.089  14.360  1.00  0.00    -0.029 C 
HETATM   18  C26 UNL     1      -6.684   6.948  13.861  1.00  0.00     0.018 C 
ENDROOT
BRANCH   1  19
HETATM   19  C7  UNL     1      -0.650   7.144  12.856  1.00  0.00     0.188 C 
BRANCH  19  20
HETATM   20  O2  UNL     1      -0.811   6.282  11.717  1.00  0.00    -0.321 OA
BRANCH  20  21
HETATM   21  C6  UNL     1       0.314   6.110  10.972  1.00  0.00     0.259 C 
HETATM   22  O1  UNL     1       0.845   5.032  10.737  1.00  0.00    -0.265 OA
BRANCH  21  23
HETATM   23  C5  UNL     1       0.862   7.436  10.505  1.00  0.00     0.115 C 
BRANCH  23  24
HETATM   24  C3  UNL     1       0.581   7.741   9.024  1.00  0.00    -0.010 C 
HETATM   25  C4  UNL     1      -0.468   8.852   8.916  1.00  0.00     0.010 C 
BRANCH  24  26
HETATM   26  C2  UNL     1       1.846   8.076   8.206  1.00  0.00     0.000 C 
HETATM   27  C1  UNL     1       1.981   7.342   6.880  1.00  0.00     0.005 C 
ENDBRANCH  24  26
ENDBRANCH  23  24
ENDBRANCH  21  23
ENDBRANCH  20  21
ENDBRANCH  19  20
ENDBRANCH   1  19
BRANCH  13  28
HETATM   28  O3  UNL     1      -8.927   3.913  13.280  1.00  0.00    -0.387 OA
HETATM   29  H34 UNL     1      -8.730   3.402  14.082  1.00  0.00     0.210 HD
ENDBRANCH  13  28
BRANCH  13  30
HETATM   30  C21 UNL     1      -8.044   5.279  11.561  1.00  0.00     0.202 C 
BRANCH  30  31
HETATM   31  O4  UNL     1      -9.228   6.074  11.482  1.00  0.00    -0.398 OA
HETATM   32  H37 UNL     1      -9.890   5.574  12.003  1.00  0.00     0.209 HD
ENDBRANCH  30  31
ENDBRANCH  13  30
TORSDOF 9
ENDMDL
MODEL 2
REMARK minimizedAffinity -8.31733894
REMARK CNNscore 0.696884513
REMARK CNNaffinity 6.81492996
REMARK  9 active torsions:
REMARK  status: ('A' for Active; 'I' for Inactive)
REMARK    1  A    between atoms: C2_2  and  C3_3 
REMARK    2  A    between atoms: C3_3  and  C5_5 
REMARK    3  A    between atoms: C5_5  and  C6_6 
REMARK    4  A    between atoms: C6_6  and  O2_8 
REMARK    5  A    between atoms: O2_8  and  C7_9 
REMARK    6  A    between atoms: C7_9  and  C8_10 
REMARK    7  A    between atoms: C20_22  and  O3_23 
REMARK    8  A    between atoms: C20_22  and  C21_24 
REMARK    9  A    between atoms: C21_24  and  O4_25 
ROOT
HETATM    1  C8  UNL     1      -2.070   7.907  13.182  1.00  0.00    -0.018 C 
HETATM    2  C9  UNL     1      -2.485   8.923  12.077  1.00  0.00     0.018 C 
HETATM    3  C10 UNL     1      -1.848   8.717  14.483  1.00  0.00     0.012 C 
HETATM    4  C11 UNL     1      -3.113   9.205  15.183  1.00  0.00     0.002 C 
HETATM    5  C12 UNL     1      -4.366   8.374  14.924  1.00  0.00     0.010 C 
HETATM    6  C13 UNL     1      -4.106   6.885  14.605  1.00  0.00    -0.032 C 
HETATM    7  C14 UNL     1      -3.338   6.248  15.806  1.00  0.00     0.016 C 
HETATM    8  C15 UNL     1      -3.223   6.818  13.308  1.00  0.00     0.005 C 
HETATM    9  C16 UNL     1      -2.807   5.349  13.027  1.00  0.00     0.007 C 
HETATM   10  C17 UNL     1      -3.945   4.333  13.231  1.00  0.00     0.006 C 
HETATM   11  C18 UNL     1      -5.306   5.022  13.186  1.00  0.00    -0.002 C 
HETATM   12  C19 UNL     1      -6.477   4.034  13.091  1.00  0.00     0.045 C 
HETATM   13  C20 UNL     1      -7.821   4.790  13.023  1.00  0.00     0.083 C 
HETATM   14  C22 UNL     1      -7.867   5.937  14.070  1.00  0.00     0.023 C 
HETATM   15  C23 UNL     1      -7.595   5.425  15.490  1.00  0.00     0.008 C 
HETATM   16  C24 UNL     1      -6.068   5.457  15.645  1.00  0.00     0.011 C 
HETATM   17  C25 UNL     1      -5.483   6.089  14.342  1.00  0.00    -0.029 C 
HETATM   18  C26 UNL     1      -6.706   6.936  13.901  1.00  0.00     0.018 C 
ENDROOT
BRANCH   1  19
HETATM   19  C7  UNL     1      -0.707   7.294  12.745  1.00  0.00     0.188 C 
BRANCH  19  20
HETATM   20  O2  UNL     1      -0.523   7.440  11.327  1.00  0.00    -0.321 OA
BRANCH  20  21
HETATM   21  C6  UNL     1       0.576   8.155  10.966  1.00  0.00     0.259 C 
HETATM   22  O1  UNL     1       1.282   8.796  11.734  1.00  0.00    -0.265 OA
BRANCH  21  23
HETATM   23  C5  UNL     1       0.790   8.102   9.473  1.00  0.00     0.115 C 
BRANCH  23  24
HETATM   24  C3  UNL     1       2.238   7.782   9.063  1.00  0.00    -0.010 C 
HETATM   25  C4  UNL     1       2.572   6.334   9.434  1.00  0.00     0.010 C 
BRANCH  24  26
HETATM   26  C2  UNL     1       2.542   8.070   7.577  1.00  0.00     0.000 C 
HETATM   27  C1  UNL     1       1.819   7.179   6.577  1.00  0.00     0.005 C 
ENDBRANCH  24  26
ENDBRANCH  23  24
ENDBRANCH  21  23
ENDBRANCH  20  21
ENDBRANCH  19  20
ENDBRANCH   1  19
BRANCH  13  28
HETATM   28  O3  UNL     1      -8.898   3.871  13.288  1.00  0.00    -0.387 OA
HETATM   29  H34 UNL     1      -8.669   3.340  14.069  1.00  0.00     0.210 HD
ENDBRANCH  13  28
BRANCH  13  30
HETATM   30  C21 UNL     1      -8.091   5.306  11.588  1.00  0.00     0.202 C 
BRANCH  30  31
HETATM   31  O4  UNL     1      -9.299   6.068  11.562  1.00  0.00    -0.398 OA
HETATM   32  H37 UNL     1      -9.933   5.534  12.082  1.00  0.00     0.209 HD
ENDBRANCH  30  31
ENDBRANCH  13  30
TORSDOF 9
ENDMDL
MODEL 3
REMARK minimizedAffinity -5.69363737
REMARK CNNscore 0.667524636
REMARK CNNaffinity 5.9196105
REMARK  9 active torsions:
REMARK  status: ('A' for Active; 'I' for Inactive)
REMARK    1  A    between atoms: C2_2  and  C3_3 
REMARK    2  A    between atoms: C3_3  and  C5_5 
REMARK    3  A    between atoms: C5_5  and  C6_6 
REMARK    4  A    between atoms: C6_6  and  O2_8 
REMARK    5  A    between atoms: O2_8  and  C7_9 
REMARK    6  A    between atoms: C7_9  and  C8_10 
REMARK    7  A    between atoms: C20_22  and  O3_23 
REMARK    8  A    between atoms: C20_22  and  C21_24 
REMARK    9  A    between atoms: C21_24  and  O4_25 
ROOT
HETATM    1  C8  UNL     1      13.735  -4.922   4.457  1.00  0.00    -0.018 C 
HETATM    2  C9  UNL     1      12.891  -4.431   3.244  1.00  0.00     0.018 C 
HETATM    3  C10 UNL     1      12.938  -4.566   5.737  1.00  0.00     0.012 C 
HETATM    4  C11 UNL     1      11.721  -5.440   6.025  1.00  0.00     0.002 C 
HETATM    5  C12 UNL     1      11.778  -6.851   5.446  1.00  0.00     0.010 C 
HETATM    6  C13 UNL     1      13.201  -7.425   5.270  1.00  0.00    -0.032 C 
HETATM    7  C14 UNL     1      13.905  -7.441   6.664  1.00  0.00     0.016 C 
HETATM    8  C15 UNL     1      13.982  -6.484   4.286  1.00  0.00     0.005 C 
HETATM    9  C16 UNL     1      15.464  -6.933   4.190  1.00  0.00     0.007 C 
HETATM   10  C17 UNL     1      15.645  -8.459   4.095  1.00  0.00     0.006 C 
HETATM   11  C18 UNL     1      14.356  -9.132   3.634  1.00  0.00    -0.002 C 
HETATM   12  C19 UNL     1      14.554 -10.604   3.242  1.00  0.00     0.045 C 
HETATM   13  C20 UNL     1      13.224 -11.221   2.763  1.00  0.00     0.083 C 
HETATM   14  C22 UNL     1      12.056 -10.829   3.709  1.00  0.00     0.023 C 
HETATM   15  C23 UNL     1      12.347 -11.214   5.166  1.00  0.00     0.008 C 
HETATM   16  C24 UNL     1      13.113 -10.020   5.752  1.00  0.00     0.011 C 
HETATM   17  C25 UNL     1      13.163  -8.914   4.651  1.00  0.00    -0.029 C 
HETATM   18  C26 UNL     1      11.895  -9.303   3.845  1.00  0.00     0.018 C 
ENDROOT
BRANCH   1  19
HETATM   19  C7  UNL     1      15.055  -4.098   4.455  1.00  0.00     0.188 C 
BRANCH  19  20
HETATM   20  O2  UNL     1      14.898  -2.895   5.227  1.00  0.00    -0.321 OA
BRANCH  20  21
HETATM   21  C6  UNL     1      15.766  -1.898   4.909  1.00  0.00     0.259 C 
HETATM   22  O1  UNL     1      16.093  -0.985   5.656  1.00  0.00    -0.265 OA
BRANCH  21  23
HETATM   23  C5  UNL     1      16.244  -2.031   3.484  1.00  0.00     0.115 C 
BRANCH  23  24
HETATM   24  C3  UNL     1      15.599  -1.026   2.514  1.00  0.00    -0.010 C 
HETATM   25  C4  UNL     1      14.247  -0.568   3.069  1.00  0.00     0.010 C 
BRANCH  24  26
HETATM   26  C2  UNL     1      16.504   0.176   2.168  1.00  0.00     0.000 C 
HETATM   27  C1  UNL     1      16.299   1.417   3.023  1.00  0.00     0.005 C 
ENDBRANCH  24  26
ENDBRANCH  23  24
ENDBRANCH  21  23
ENDBRANCH  20  21
ENDBRANCH  19  20
ENDBRANCH   1  19
BRANCH  13  28
HETATM   28  O3  UNL     1      13.346 -12.656   2.739  1.00  0.00    -0.387 OA
HETATM   29  H34 UNL     1      13.753 -12.947   3.572  1.00  0.00     0.210 HD
ENDBRANCH  13  28
BRANCH  13  30
HETATM   30  C21 UNL     1      12.932 -10.830   1.293  1.00  0.00     0.202 C 
BRANCH  30  31
HETATM   31  O4  UNL     1      12.294  -9.553   1.244  1.00  0.00    -0.398 OA
HETATM   32  H37 UNL     1      11.613  -9.596   1.947  1.00  0.00     0.209 HD
ENDBRANCH  30  31
ENDBRANCH  13  30
TORSDOF 9
ENDMDL
MODEL 4
REMARK minimizedAffinity -7.14840698
REMARK CNNscore 0.577355742
REMARK CNNaffinity 6.94557905
REMARK  9 active torsions:
REMARK  status: ('A' for Active; 'I' for Inactive)
REMARK    1  A    between atoms: C2_2  and  C3_3 
REMARK    2  A    between atoms: C3_3  and  C5_5 
REMARK    3  A    between atoms: C5_5  and  C6_6 
REMARK    4  A    between atoms: C6_6  and  O2_8 
REMARK    5  A    between atoms: O2_8  and  C7_9 
REMARK    6  A    between atoms: C7_9  and  C8_10 
REMARK    7  A    between atoms: C20_22  and  O3_23 
REMARK    8  A    between atoms: C20_22  and  C21_24 
REMARK    9  A    between atoms: C21_24  and  O4_25 
ROOT
HETATM    1  C8  UNL     1      -3.688   8.197  13.961  1.00  0.00    -0.018 C 
HETATM    2  C9  UNL     1      -3.801   8.987  12.624  1.00  0.00     0.018 C 
HETATM    3  C10 UNL     1      -4.665   8.859  14.964  1.00  0.00     0.012 C 
HETATM    4  C11 UNL     1      -6.146   8.572  14.734  1.00  0.00     0.002 C 
HETATM    5  C12 UNL     1      -6.454   7.262  14.015  1.00  0.00     0.010 C 
HETATM    6  C13 UNL     1      -5.405   6.147  14.215  1.00  0.00    -0.032 C 
HETATM    7  C14 UNL     1      -5.286   5.848  15.743  1.00  0.00     0.016 C 
HETATM    8  C15 UNL     1      -4.033   6.672  13.664  1.00  0.00     0.005 C 
HETATM    9  C16 UNL     1      -2.910   5.647  13.976  1.00  0.00     0.007 C 
HETATM   10  C17 UNL     1      -3.323   4.184  13.733  1.00  0.00     0.006 C 
HETATM   11  C18 UNL     1      -4.531   4.104  12.805  1.00  0.00    -0.002 C 
HETATM   12  C19 UNL     1      -4.806   2.682  12.297  1.00  0.00     0.045 C 
HETATM   13  C20 UNL     1      -6.021   2.671  11.346  1.00  0.00     0.083 C 
HETATM   14  C22 UNL     1      -7.188   3.519  11.924  1.00  0.00     0.023 C 
HETATM   15  C23 UNL     1      -7.587   3.056  13.331  1.00  0.00     0.008 C 
HETATM   16  C24 UNL     1      -6.664   3.826  14.286  1.00  0.00     0.011 C 
HETATM   17  C25 UNL     1      -5.811   4.806  13.418  1.00  0.00    -0.029 C 
HETATM   18  C26 UNL     1      -6.772   4.974  12.211  1.00  0.00     0.018 C 
ENDROOT
BRANCH   1  19
HETATM   19  C7  UNL     1      -2.236   8.396  14.485  1.00  0.00     0.188 C 
BRANCH  19  20
HETATM   20  O2  UNL     1      -1.297   7.728  13.626  1.00  0.00    -0.321 OA
BRANCH  20  21
HETATM   21  C6  UNL     1      -0.407   8.549  13.008  1.00  0.00     0.259 C 
HETATM   22  O1  UNL     1       0.340   9.334  13.577  1.00  0.00    -0.265 OA
BRANCH  21  23
HETATM   23  C5  UNL     1      -0.492   8.408  11.507  1.00  0.00     0.115 C 
BRANCH  23  24
HETATM   24  C3  UNL     1       0.416   7.308  10.932  1.00  0.00    -0.010 C 
HETATM   25  C4  UNL     1      -0.270   5.946  11.074  1.00  0.00     0.010 C 
BRANCH  24  26
HETATM   26  C2  UNL     1       0.863   7.566   9.478  1.00  0.00     0.000 C 
HETATM   27  C1  UNL     1      -0.040   8.486   8.669  1.00  0.00     0.005 C 
ENDBRANCH  24  26
ENDBRANCH  23  24
ENDBRANCH  21  23
ENDBRANCH  20  21
ENDBRANCH  19  20
ENDBRANCH   1  19
BRANCH  13  28
HETATM   28  O3  UNL     1      -6.472   1.315  11.165  1.00  0.00    -0.387 OA
HETATM   29  H34 UNL     1      -6.523   0.886  12.035  1.00  0.00     0.210 HD
ENDBRANCH  13  28
BRANCH  13  30
HETATM   30  C21 UNL     1      -5.614   3.140   9.927  1.00  0.00     0.202 C 
BRANCH  30  31
HETATM   31  O4  UNL     1      -4.190   3.175   9.813  1.00  0.00    -0.398 OA
HETATM   32  H37 UNL     1      -3.892   3.606  10.640  1.00  0.00     0.209 HD
ENDBRANCH  30  31
ENDBRANCH  13  30
TORSDOF 9
ENDMDL
MODEL 5
REMARK minimizedAffinity -7.48943806
REMARK CNNscore 0.575085759
REMARK CNNaffinity 6.698071
REMARK  9 active torsions:
REMARK  status: ('A' for Active; 'I' for Inactive)
REMARK    1  A    between atoms: C2_2  and  C3_3 
REMARK    2  A    between atoms: C3_3  and  C5_5 
REMARK    3  A    between atoms: C5_5  and  C6_6 
REMARK    4  A    between atoms: C6_6  and  O2_8 
REMARK    5  A    between atoms: O2_8  and  C7_9 
REMARK    6  A    between atoms: C7_9  and  C8_10 
REMARK    7  A    between atoms: C20_22  and  O3_23 
REMARK    8  A    between atoms: C20_22  and  C21_24 
REMARK    9  A    between atoms: C21_24  and  O4_25 
ROOT
HETATM    1  C8  UNL     1       0.500   7.841  13.647  1.00  0.00    -0.018 C 
HETATM    2  C9  UNL     1       0.783   8.276  15.116  1.00  0.00     0.018 C 
HETATM    3  C10 UNL     1       1.171   6.460  13.446  1.00  0.00     0.012 C 
HETATM    4  C11 UNL     1       0.464   5.278  14.102  1.00  0.00     0.002 C 
HETATM    5  C12 UNL     1      -1.037   5.449  14.313  1.00  0.00     0.010 C 
HETATM    6  C13 UNL     1      -1.734   6.389  13.305  1.00  0.00    -0.032 C 
HETATM    7  C14 UNL     1      -1.505   5.829  11.866  1.00  0.00     0.016 C 
HETATM    8  C15 UNL     1      -1.076   7.809  13.438  1.00  0.00     0.005 C 
HETATM    9  C16 UNL     1      -1.638   8.755  12.343  1.00  0.00     0.007 C 
HETATM   10  C17 UNL     1      -3.158   8.632  12.137  1.00  0.00     0.006 C 
HETATM   11  C18 UNL     1      -3.822   7.990  13.351  1.00  0.00    -0.002 C 
HETATM   12  C19 UNL     1      -5.353   8.105  13.330  1.00  0.00     0.045 C 
HETATM   13  C20 UNL     1      -5.963   7.461  14.592  1.00  0.00     0.083 C 
HETATM   14  C22 UNL     1      -5.301   6.087  14.891  1.00  0.00     0.023 C 
HETATM   15  C23 UNL     1      -5.391   5.137  13.690  1.00  0.00     0.008 C 
HETATM   16  C24 UNL     1      -4.157   5.452  12.834  1.00  0.00     0.011 C 
HETATM   17  C25 UNL     1      -3.312   6.513  13.608  1.00  0.00    -0.029 C 
HETATM   18  C26 UNL     1      -3.773   6.194  15.056  1.00  0.00     0.018 C 
ENDROOT
BRANCH   1  19
HETATM   19  C7  UNL     1       1.211   8.873  12.724  1.00  0.00     0.188 C 
BRANCH  19  20
HETATM   20  O2  UNL     1       1.951   8.197  11.693  1.00  0.00    -0.321 OA
BRANCH  20  21
HETATM   21  C6  UNL     1       1.302   8.095  10.502  1.00  0.00     0.259 C 
HETATM   22  O1  UNL     1       0.533   8.930  10.045  1.00  0.00    -0.265 OA
BRANCH  21  23
HETATM   23  C5  UNL     1       1.614   6.781   9.827  1.00  0.00     0.115 C 
BRANCH  23  24
HETATM   24  C3  UNL     1       2.751   6.865   8.795  1.00  0.00    -0.010 C 
HETATM   25  C4  UNL     1       3.126   5.457   8.324  1.00  0.00     0.010 C 
BRANCH  24  26
HETATM   26  C2  UNL     1       2.444   7.797   7.603  1.00  0.00     0.000 C 
HETATM   27  C1  UNL     1       1.770   7.133   6.411  1.00  0.00     0.005 C 
ENDBRANCH  24  26
ENDBRANCH  23  24
ENDBRANCH  21  23
ENDBRANCH  20  21
ENDBRANCH  19  20
ENDBRANCH   1  19
BRANCH  13  28
HETATM   28  O3  UNL     1      -7.377   7.265  14.392  1.00  0.00    -0.387 OA
HETATM   29  H34 UNL     1      -7.514   6.864  13.517  1.00  0.00     0.210 HD
ENDBRANCH  13  28
BRANCH  13  30
HETATM   30  C21 UNL     1      -5.870   8.423  15.802  1.00  0.00     0.202 C 
BRANCH  30  31
HETATM   31  O4  UNL     1      -5.796   9.775  15.347  1.00  0.00    -0.398 OA
HETATM   32  H37 UNL     1      -5.147   9.748  14.615  1.00  0.00     0.209 HD
ENDBRANCH  30  31
ENDBRANCH  13  30
TORSDOF 9
ENDMDL
MODEL 6
REMARK minimizedAffinity -5.99250126
REMARK CNNscore 0.460994959
REMARK CNNaffinity 5.64962244
REMARK  9 active torsions:
REMARK  status: ('A' for Active; 'I' for Inactive)
REMARK    1  A    between atoms: C2_2  and  C3_3 
REMARK    2  A    between atoms: C3_3  and  C5_5 
REMARK    3  A    between atoms: C5_5  and  C6_6 
REMARK    4  A    between atoms: C6_6  and  O2_8 
REMARK    5  A    between atoms: O2_8  and  C7_9 
REMARK    6  A    between atoms: C7_9  and  C8_10 
REMARK    7  A    between atoms: C20_22  and  O3_23 
REMARK    8  A    between atoms: C20_22  and  C21_24 
REMARK    9  A    between atoms: C21_24  and  O4_25 
ROOT
HETATM    1  C8  UNL     1     -17.753   4.287  13.688  1.00  0.00    -0.018 C 
HETATM    2  C9  UNL     1     -18.269   3.977  12.251  1.00  0.00     0.018 C 
HETATM    3  C10 UNL     1     -18.976   4.749  14.519  1.00  0.00     0.012 C 
HETATM    4  C11 UNL     1     -19.950   3.649  14.932  1.00  0.00     0.002 C 
HETATM    5  C12 UNL     1     -19.348   2.251  15.044  1.00  0.00     0.010 C 
HETATM    6  C13 UNL     1     -17.845   2.216  15.395  1.00  0.00    -0.032 C 
HETATM    7  C14 UNL     1     -17.638   2.946  16.759  1.00  0.00     0.016 C 
HETATM    8  C15 UNL     1     -17.067   2.970  14.260  1.00  0.00     0.005 C 
HETATM    9  C16 UNL     1     -15.567   3.093  14.638  1.00  0.00     0.007 C 
HETATM   10  C17 UNL     1     -14.975   1.810  15.248  1.00  0.00     0.006 C 
HETATM   11  C18 UNL     1     -15.830   0.596  14.902  1.00  0.00    -0.002 C 
HETATM   12  C19 UNL     1     -15.143  -0.737  15.230  1.00  0.00     0.045 C 
HETATM   13  C20 UNL     1     -16.046  -1.925  14.834  1.00  0.00     0.083 C 
HETATM   14  C22 UNL     1     -17.512  -1.685  15.288  1.00  0.00     0.023 C 
HETATM   15  C23 UNL     1     -17.605  -1.401  16.793  1.00  0.00     0.008 C 
HETATM   16  C24 UNL     1     -17.401   0.114  16.931  1.00  0.00     0.011 C 
HETATM   17  C25 UNL     1     -17.297   0.702  15.488  1.00  0.00    -0.029 C 
HETATM   18  C26 UNL     1     -18.099  -0.380  14.717  1.00  0.00     0.018 C 
ENDROOT
BRANCH   1  19
HETATM   19  C7  UNL     1     -16.762   5.481  13.567  1.00  0.00     0.188 C 
BRANCH  19  20
HETATM   20  O2  UNL     1     -16.800   6.032  12.239  1.00  0.00    -0.321 OA
BRANCH  20  21
HETATM   21  C6  UNL     1     -15.879   7.003  12.001  1.00  0.00     0.259 C 
HETATM   22  O1  UNL     1     -15.926   7.806  11.078  1.00  0.00    -0.265 OA
BRANCH  21  23
HETATM   23  C5  UNL     1     -14.748   6.933  12.998  1.00  0.00     0.115 C 
BRANCH  23  24
HETATM   24  C3  UNL     1     -13.743   8.091  12.882  1.00  0.00    -0.010 C 
HETATM   25  C4  UNL     1     -14.149   9.225  13.828  1.00  0.00     0.010 C 
BRANCH  24  26
HETATM   26  C2  UNL     1     -12.275   7.667  13.106  1.00  0.00     0.000 C 
HETATM   27  C1  UNL     1     -12.056   6.613  14.182  1.00  0.00     0.005 C 
ENDBRANCH  24  26
ENDBRANCH  23  24
ENDBRANCH  21  23
ENDBRANCH  20  21
ENDBRANCH  19  20
ENDBRANCH   1  19
BRANCH  13  28
HETATM   28  O3  UNL     1     -15.553  -3.126  15.458  1.00  0.00    -0.387 OA
HETATM   29  H34 UNL     1     -15.368  -2.937  16.393  1.00  0.00     0.210 HD
ENDBRANCH  13  28
BRANCH  13  30
HETATM   30  C21 UNL     1     -15.950  -2.207  13.314  1.00  0.00     0.202 C 
BRANCH  30  31
HETATM   31  O4  UNL     1     -14.635  -1.910  12.844  1.00  0.00    -0.398 OA
HETATM   32  H37 UNL     1     -14.418  -1.050  13.257  1.00  0.00     0.209 HD
ENDBRANCH  30  31
ENDBRANCH  13  30
TORSDOF 9
ENDMDL
MODEL 7
REMARK minimizedAffinity -6.89446211
REMARK CNNscore 0.448118091
REMARK CNNaffinity 6.57191849
REMARK  9 active torsions:
REMARK  status: ('A' for Active; 'I' for Inactive)
REMARK    1  A    between atoms: C2_2  and  C3_3 
REMARK    2  A    between atoms: C3_3  and  C5_5 
REMARK    3  A    between atoms: C5_5  and  C6_6 
REMARK    4  A    between atoms: C6_6  and  O2_8 
REMARK    5  A    between atoms: O2_8  and  C7_9 
REMARK    6  A    between atoms: C7_9  and  C8_10 
REMARK    7  A    between atoms: C20_22  and  O3_23 
REMARK    8  A    between atoms: C20_22  and  C21_24 
REMARK    9  A    between atoms: C21_24  and  O4_25 
ROOT
HETATM    1  C8  UNL     1      -0.127   7.853  11.961  1.00  0.00    -0.018 C 
HETATM    2  C9  UNL     1      -0.601   8.390  10.579  1.00  0.00     0.018 C 
HETATM    3  C10 UNL     1       0.052   9.080  12.889  1.00  0.00     0.012 C 
HETATM    4  C11 UNL     1      -1.237   9.718  13.399  1.00  0.00     0.002 C 
HETATM    5  C12 UNL     1      -2.442   8.784  13.478  1.00  0.00     0.010 C 
HETATM    6  C13 UNL     1      -2.098   7.295  13.698  1.00  0.00    -0.032 C 
HETATM    7  C14 UNL     1      -1.292   7.164  15.029  1.00  0.00     0.016 C 
HETATM    8  C15 UNL     1      -1.216   6.820  12.489  1.00  0.00     0.005 C 
HETATM    9  C16 UNL     1      -0.718   5.371  12.735  1.00  0.00     0.007 C 
HETATM   10  C17 UNL     1      -1.796   4.434  13.309  1.00  0.00     0.006 C 
HETATM   11  C18 UNL     1      -3.194   4.990  13.054  1.00  0.00    -0.002 C 
HETATM   12  C19 UNL     1      -4.307   3.973  13.339  1.00  0.00     0.045 C 
HETATM   13  C20 UNL     1      -5.692   4.584  13.039  1.00  0.00     0.083 C 
HETATM   14  C22 UNL     1      -5.801   6.023  13.615  1.00  0.00     0.023 C 
HETATM   15  C23 UNL     1      -5.497   6.061  15.119  1.00  0.00     0.008 C 
HETATM   16  C24 UNL     1      -3.974   6.226  15.218  1.00  0.00     0.011 C 
HETATM   17  C25 UNL     1      -3.428   6.386  13.764  1.00  0.00    -0.029 C 
HETATM   18  C26 UNL     1      -4.699   6.957  13.079  1.00  0.00     0.018 C 
ENDROOT
BRANCH   1  19
HETATM   19  C7  UNL     1       1.268   7.198  11.739  1.00  0.00     0.188 C 
BRANCH  19  20
HETATM   20  O2  UNL     1       2.272   8.209  11.549  1.00  0.00    -0.321 OA
BRANCH  20  21
HETATM   21  C6  UNL     1       3.473   7.743  11.114  1.00  0.00     0.259 C 
HETATM   22  O1  UNL     1       4.186   6.957  11.725  1.00  0.00    -0.265 OA
BRANCH  21  23
HETATM   23  C5  UNL     1       3.847   8.363   9.790  1.00  0.00     0.115 C 
BRANCH  23  24
HETATM   24  C3  UNL     1       3.330   7.583   8.569  1.00  0.00    -0.010 C 
HETATM   25  C4  UNL     1       3.119   6.114   8.946  1.00  0.00     0.010 C 
BRANCH  24  26
HETATM   26  C2  UNL     1       2.062   8.191   7.932  1.00  0.00     0.000 C 
HETATM   27  C1  UNL     1       1.454   7.389   6.790  1.00  0.00     0.005 C 
ENDBRANCH  24  26
ENDBRANCH  23  24
ENDBRANCH  21  23
ENDBRANCH  20  21
ENDBRANCH  19  20
ENDBRANCH   1  19
BRANCH  13  28
HETATM   28  O3  UNL     1      -6.715   3.763  13.635  1.00  0.00    -0.387 OA
HETATM   29  H34 UNL     1      -6.454   3.555  14.547  1.00  0.00     0.210 HD
ENDBRANCH  13  28
BRANCH  13  30
HETATM   30  C21 UNL     1      -5.994   4.545  11.521  1.00  0.00     0.202 C 
BRANCH  30  31
HETATM   31  O4  UNL     1      -5.777   3.228  11.013  1.00  0.00    -0.398 OA
HETATM   32  H37 UNL     1      -4.926   2.953  11.411  1.00  0.00     0.209 HD
ENDBRANCH  30  31
ENDBRANCH  13  30
TORSDOF 9
ENDMDL
MODEL 8
REMARK minimizedAffinity -7.65758705
REMARK CNNscore 0.443242043
REMARK CNNaffinity 6.5985446
REMARK  9 active torsions:
REMARK  status: ('A' for Active; 'I' for Inactive)
REMARK    1  A    between atoms: C2_2  and  C3_3 
REMARK    2  A    between atoms: C3_3  and  C5_5 
REMARK    3  A    between atoms: C5_5  and  C6_6 
REMARK    4  A    between atoms: C6_6  and  O2_8 
REMARK    5  A    between atoms: O2_8  and  C7_9 
REMARK    6  A    between atoms: C7_9  and  C8_10 
REMARK    7  A    between atoms: C20_22  and  O3_23 
REMARK    8  A    between atoms: C20_22  and  C21_24 
REMARK    9  A    between atoms: C21_24  and  O4_25 
ROOT
HETATM    1  C8  UNL     1      -1.790   7.986  14.581  1.00  0.00    -0.018 C 
HETATM    2  C9  UNL     1      -1.581   8.365  16.077  1.00  0.00     0.018 C 
HETATM    3  C10 UNL     1      -0.908   6.744  14.301  1.00  0.00     0.012 C 
HETATM    4  C11 UNL     1      -1.419   5.425  14.873  1.00  0.00     0.002 C 
HETATM    5  C12 UNL     1      -2.929   5.343  15.078  1.00  0.00     0.010 C 
HETATM    6  C13 UNL     1      -3.764   6.224  14.123  1.00  0.00    -0.032 C 
HETATM    7  C14 UNL     1      -3.448   5.800  12.654  1.00  0.00     0.016 C 
HETATM    8  C15 UNL     1      -3.341   7.718  14.352  1.00  0.00     0.005 C 
HETATM    9  C16 UNL     1      -4.044   8.632  13.313  1.00  0.00     0.007 C 
HETATM   10  C17 UNL     1      -5.525   8.284  13.082  1.00  0.00     0.006 C 
HETATM   11  C18 UNL     1      -6.081   7.468  14.245  1.00  0.00    -0.002 C 
HETATM   12  C19 UNL     1      -7.610   7.341  14.214  1.00  0.00     0.045 C 
HETATM   13  C20 UNL     1      -8.112   6.529  15.426  1.00  0.00     0.083 C 
HETATM   14  C22 UNL     1      -7.241   5.261  15.645  1.00  0.00     0.023 C 
HETATM   15  C23 UNL     1      -7.177   4.387  14.386  1.00  0.00     0.008 C 
HETATM   16  C24 UNL     1      -6.008   4.948  13.565  1.00  0.00     0.011 C 
HETATM   17  C25 UNL     1      -5.343   6.077  14.415  1.00  0.00    -0.029 C 
HETATM   18  C26 UNL     1      -5.750   5.597  15.834  1.00  0.00     0.018 C 
ENDROOT
BRANCH   1  19
HETATM   19  C7  UNL     1      -1.250   9.174  13.733  1.00  0.00     0.188 C 
BRANCH  19  20
HETATM   20  O2  UNL     1      -0.162   8.741  12.899  1.00  0.00    -0.321 OA
BRANCH  20  21
HETATM   21  C6  UNL     1      -0.480   8.584  11.586  1.00  0.00     0.259 C 
HETATM   22  O1  UNL     1      -1.412   9.137  11.016  1.00  0.00    -0.265 OA
BRANCH  21  23
HETATM   23  C5  UNL     1       0.441   7.591  10.921  1.00  0.00     0.115 C 
BRANCH  23  24
HETATM   24  C3  UNL     1       0.465   7.693   9.387  1.00  0.00    -0.010 C 
HETATM   25  C4  UNL     1      -0.443   8.839   8.931  1.00  0.00     0.010 C 
BRANCH  24  26
HETATM   26  C2  UNL     1       1.884   7.827   8.793  1.00  0.00     0.000 C 
HETATM   27  C1  UNL     1       2.272   6.761   7.778  1.00  0.00     0.005 C 
ENDBRANCH  24  26
ENDBRANCH  23  24
ENDBRANCH  21  23
ENDBRANCH  20  21
ENDBRANCH  19  20
ENDBRANCH   1  19
BRANCH  13  28
HETATM   28  O3  UNL     1      -9.477   6.125  15.197  1.00  0.00    -0.387 OA
HETATM   29  H34 UNL     1      -9.547   5.765  14.298  1.00  0.00     0.210 HD
ENDBRANCH  13  28
BRANCH  13  30
HETATM   30  C21 UNL     1      -8.174   7.414  16.695  1.00  0.00     0.202 C 
BRANCH  30  31
HETATM   31  O4  UNL     1      -9.517   7.843  16.927  1.00  0.00    -0.398 OA
HETATM   32  H37 UNL     1      -9.837   8.124  16.045  1.00  0.00     0.209 HD
ENDBRANCH  30  31
ENDBRANCH  13  30
TORSDOF 9
ENDMDL
MODEL 9
REMARK minimizedAffinity -6.24465227
REMARK CNNscore 0.43121016
REMARK CNNaffinity 5.71495295
REMARK  9 active torsions:
REMARK  status: ('A' for Active; 'I' for Inactive)
REMARK    1  A    between atoms: C2_2  and  C3_3 
REMARK    2  A    between atoms: C3_3  and  C5_5 
REMARK    3  A    between atoms: C5_5  and  C6_6 
REMARK    4  A    between atoms: C6_6  and  O2_8 
REMARK    5  A    between atoms: O2_8  and  C7_9 
REMARK    6  A    between atoms: C7_9  and  C8_10 
REMARK    7  A    between atoms: C20_22  and  O3_23 
REMARK    8  A    between atoms: C20_22  and  C21_24 
REMARK    9  A    between atoms: C21_24  and  O4_25 
ROOT
HETATM    1  C8  UNL     1      10.352  13.220  19.665  1.00  0.00    -0.018 C 
HETATM    2  C9  UNL     1      11.508  12.345  20.231  1.00  0.00     0.018 C 
HETATM    3  C10 UNL     1      10.995  14.510  19.098  1.00  0.00     0.012 C 
HETATM    4  C11 UNL     1      11.738  14.353  17.775  1.00  0.00     0.002 C 
HETATM    5  C12 UNL     1      11.264  13.202  16.892  1.00  0.00     0.010 C 
HETATM    6  C13 UNL     1       9.782  12.809  17.073  1.00  0.00    -0.032 C 
HETATM    7  C14 UNL     1       8.897  14.057  16.762  1.00  0.00     0.016 C 
HETATM    8  C15 UNL     1       9.580  12.368  18.566  1.00  0.00     0.005 C 
HETATM    9  C16 UNL     1       8.075  12.104  18.840  1.00  0.00     0.007 C 
HETATM   10  C17 UNL     1       7.366  11.334  17.712  1.00  0.00     0.006 C 
HETATM   11  C18 UNL     1       8.374  10.598  16.836  1.00  0.00    -0.002 C 
HETATM   12  C19 UNL     1       7.718   9.589  15.883  1.00  0.00     0.045 C 
HETATM   13  C20 UNL     1       8.789   8.861  15.043  1.00  0.00     0.083 C 
HETATM   14  C22 UNL     1       9.841   9.864  14.494  1.00  0.00     0.023 C 
HETATM   15  C23 UNL     1       9.187  10.995  13.690  1.00  0.00     0.008 C 
HETATM   16  C24 UNL     1       8.826  12.069  14.725  1.00  0.00     0.011 C 
HETATM   17  C25 UNL     1       9.374  11.585  16.106  1.00  0.00    -0.029 C 
HETATM   18  C26 UNL     1      10.527  10.670  15.613  1.00  0.00     0.018 C 
ENDROOT
BRANCH   1  19
HETATM   19  C7  UNL     1       9.447  13.611  20.871  1.00  0.00     0.188 C 
BRANCH  19  20
HETATM   20  O2  UNL     1       9.828  12.871  22.044  1.00  0.00    -0.321 OA
BRANCH  20  21
HETATM   21  C6  UNL     1       8.952  12.959  23.080  1.00  0.00     0.259 C 
HETATM   22  O1  UNL     1       9.025  13.765  23.998  1.00  0.00    -0.265 OA
BRANCH  21  23
HETATM   23  C5  UNL     1       7.890  11.890  22.982  1.00  0.00     0.115 C 
BRANCH  23  24
HETATM   24  C3  UNL     1       6.454  12.425  23.101  1.00  0.00    -0.010 C 
HETATM   25  C4  UNL     1       6.205  13.480  22.019  1.00  0.00     0.010 C 
BRANCH  24  26
HETATM   26  C2  UNL     1       5.373  11.323  23.074  1.00  0.00     0.000 C 
HETATM   27  C1  UNL     1       3.953  11.805  22.812  1.00  0.00     0.005 C 
ENDBRANCH  24  26
ENDBRANCH  23  24
ENDBRANCH  21  23
ENDBRANCH  20  21
ENDBRANCH  19  20
ENDBRANCH   1  19
BRANCH  13  28
HETATM   28  O3  UNL     1       8.154   8.195  13.934  1.00  0.00    -0.387 OA
HETATM   29  H34 UNL     1       7.534   8.814  13.515  1.00  0.00     0.210 HD
ENDBRANCH  13  28
BRANCH  13  30
HETATM   30  C21 UNL     1       9.448   7.721  15.858  1.00  0.00     0.202 C 
BRANCH  30  31
HETATM   31  O4  UNL     1       8.727   7.509  17.073  1.00  0.00    -0.398 OA
HETATM   32  H37 UNL     1       8.567   8.410  17.420  1.00  0.00     0.209 HD
ENDBRANCH  30  31
ENDBRANCH  13  30
TORSDOF 9
ENDMDL
