MODEL 1
REMARK minimizedAffinity -7.45355034
REMARK CNNscore 0.524843216
REMARK CNNaffinity 6.47401571
REMARK  4 active torsions:
REMARK  status: ('A' for Active; 'I' for Inactive)
REMARK    1  A    between atoms: C4_4  and  C5_5 
REMARK    2  A    between atoms: C5_5  and  C6_7 
REMARK    3  A    between atoms: C6_7  and  C7_8 
REMARK    4  A    between atoms: C7_8  and  C9_10 
ROOT
HETATM    1  C9  UNL     1       0.194  11.488  19.373  1.00  0.00    -0.002 C 
HETATM    2  C10 UNL     1      -0.819  12.643  19.633  1.00  0.00     0.006 C 
HETATM    3  C11 UNL     1      -1.795  12.686  18.440  1.00  0.00     0.011 C 
HETATM    4  C12 UNL     1      -1.534  11.379  17.676  1.00  0.00    -0.032 C 
HETATM    5  C13 UNL     1      -2.342  10.258  18.420  1.00  0.00     0.016 C 
HETATM    6  C14 UNL     1      -1.934  11.367  16.160  1.00  0.00     0.004 C 
HETATM    7  C15 UNL     1      -3.424  11.733  15.945  1.00  0.00     0.007 C 
HETATM    8  C16 UNL     1      -4.297  10.780  15.132  1.00  0.00     0.007 C 
HETATM    9  C17 UNL     1      -3.983   9.304  15.409  1.00  0.00     0.010 C 
HETATM   10  C18 UNL     1      -4.913   8.299  14.652  1.00  0.00     0.018 C 
HETATM   11  C19 UNL     1      -4.792   8.390  13.122  1.00  0.00     0.023 C 
HETATM   12  C20 UNL     1      -6.387   8.512  15.052  1.00  0.00     0.023 C 
HETATM   13  C21 UNL     1      -4.536   6.866  15.058  1.00  0.00     0.135 C 
HETATM   14  O2  UNL     1      -5.231   5.895  14.750  1.00  0.00    -0.297 OA
HETATM   15  C22 UNL     1      -3.294   6.676  15.891  1.00  0.00     0.080 C 
HETATM   16  C23 UNL     1      -2.153   7.501  15.321  1.00  0.00     0.018 C 
HETATM   17  C24 UNL     1      -2.500   8.978  15.165  1.00  0.00    -0.026 A 
HETATM   18  C25 UNL     1      -1.776   9.749  14.078  1.00  0.00     0.021 A 
HETATM   19  C26 UNL     1      -1.444  10.042  15.523  1.00  0.00    -0.027 A 
HETATM   20  C27 UNL     1       0.021   9.695  15.834  1.00  0.00     0.011 C 
HETATM   21  C28 UNL     1       0.435   9.864  17.302  1.00  0.00     0.011 C 
HETATM   22  C29 UNL     1       0.033  11.247  17.840  1.00  0.00    -0.032 C 
HETATM   23  C30 UNL     1       0.850  12.336  17.079  1.00  0.00     0.016 C 
ENDROOT
BRANCH   1  24
HETATM   24  C7  UNL     1       1.592  11.786  19.986  1.00  0.00    -0.007 C 
HETATM   25  C8  UNL     1       2.168  13.131  19.531  1.00  0.00     0.011 C 
BRANCH  24  26
HETATM   26  C6  UNL     1       2.621  10.662  19.711  1.00  0.00     0.087 C 
BRANCH  26  27
HETATM   27  C5  UNL     1       3.777  10.610  20.699  1.00  0.00     0.149 C 
HETATM   28  O1  UNL     1       4.951  10.565  20.335  1.00  0.00    -0.293 OA
BRANCH  27  29
HETATM   29  C4  UNL     1       3.488  10.728  22.151  1.00  0.00     0.052 C 
HETATM   30  C2  UNL     1       2.929   9.778  22.921  1.00  0.00    -0.084 C 
HETATM   31  C1  UNL     1       2.696  10.035  24.384  1.00  0.00     0.043 C 
HETATM   32  C3  UNL     1       2.532   8.405  22.457  1.00  0.00     0.043 C 
ENDBRANCH  27  29
ENDBRANCH  26  27
ENDBRANCH  24  26
ENDBRANCH   1  24
TORSDOF 4
ENDMDL
MODEL 2
REMARK minimizedAffinity -6.37643862
REMARK CNNscore 0.504611433
REMARK CNNaffinity 6.42123842
REMARK  4 active torsions:
REMARK  status: ('A' for Active; 'I' for Inactive)
REMARK    1  A    between atoms: C4_4  and  C5_5 
REMARK    2  A    between atoms: C5_5  and  C6_7 
REMARK    3  A    between atoms: C6_7  and  C7_8 
REMARK    4  A    between atoms: C7_8  and  C9_10 
ROOT
HETATM    1  C9  UNL     1     -12.927   8.587  21.371  1.00  0.00    -0.002 C 
HETATM    2  C10 UNL     1     -13.201   9.592  22.531  1.00  0.00     0.006 C 
HETATM    3  C11 UNL     1     -13.931   8.824  23.651  1.00  0.00     0.011 C 
HETATM    4  C12 UNL     1     -13.790   7.344  23.266  1.00  0.00    -0.032 C 
HETATM    5  C13 UNL     1     -12.368   6.891  23.751  1.00  0.00     0.016 C 
HETATM    6  C14 UNL     1     -14.860   6.365  23.858  1.00  0.00     0.004 C 
HETATM    7  C15 UNL     1     -14.921   6.431  25.405  1.00  0.00     0.007 C 
HETATM    8  C16 UNL     1     -14.783   5.131  26.195  1.00  0.00     0.007 C 
HETATM    9  C17 UNL     1     -13.751   4.173  25.587  1.00  0.00     0.010 C 
HETATM   10  C18 UNL     1     -13.526   2.865  26.414  1.00  0.00     0.018 C 
HETATM   11  C19 UNL     1     -14.783   1.987  26.521  1.00  0.00     0.023 C 
HETATM   12  C20 UNL     1     -13.026   3.197  27.835  1.00  0.00     0.023 C 
HETATM   13  C21 UNL     1     -12.434   2.024  25.735  1.00  0.00     0.135 C 
HETATM   14  O2  UNL     1     -11.936   1.037  26.279  1.00  0.00    -0.297 OA
HETATM   15  C22 UNL     1     -11.950   2.467  24.377  1.00  0.00     0.080 C 
HETATM   16  C23 UNL     1     -13.133   2.818  23.491  1.00  0.00     0.018 C 
HETATM   17  C24 UNL     1     -14.066   3.851  24.116  1.00  0.00    -0.026 A 
HETATM   18  C25 UNL     1     -15.523   3.813  23.696  1.00  0.00     0.021 A 
HETATM   19  C26 UNL     1     -14.660   4.963  23.230  1.00  0.00    -0.027 A 
HETATM   20  C27 UNL     1     -14.532   4.970  21.698  1.00  0.00     0.011 C 
HETATM   21  C28 UNL     1     -13.596   6.042  21.126  1.00  0.00     0.011 C 
HETATM   22  C29 UNL     1     -13.925   7.432  21.693  1.00  0.00    -0.032 C 
HETATM   23  C30 UNL     1     -15.343   7.851  21.195  1.00  0.00     0.016 C 
ENDROOT
BRANCH   1  24
HETATM   24  C7  UNL     1     -12.940   9.282  19.980  1.00  0.00    -0.007 C 
HETATM   25  C8  UNL     1     -14.033   8.740  19.053  1.00  0.00     0.011 C 
BRANCH  24  26
HETATM   26  C6  UNL     1     -11.570   9.213  19.261  1.00  0.00     0.087 C 
BRANCH  26  27
HETATM   27  C5  UNL     1     -11.256  10.416  18.385  1.00  0.00     0.149 C 
HETATM   28  O1  UNL     1     -10.754  11.444  18.836  1.00  0.00    -0.293 OA
BRANCH  27  29
HETATM   29  C4  UNL     1     -11.460  10.311  16.918  1.00  0.00     0.052 C 
HETATM   30  C2  UNL     1     -10.768   9.518  16.083  1.00  0.00    -0.084 C 
HETATM   31  C1  UNL     1     -11.083   9.513  14.612  1.00  0.00     0.043 C 
HETATM   32  C3  UNL     1      -9.685   8.559  16.491  1.00  0.00     0.043 C 
ENDBRANCH  27  29
ENDBRANCH  26  27
ENDBRANCH  24  26
ENDBRANCH   1  24
TORSDOF 4
ENDMDL
MODEL 3
REMARK minimizedAffinity -6.65842056
REMARK CNNscore 0.48752144
REMARK CNNaffinity 6.49771166
REMARK  4 active torsions:
REMARK  status: ('A' for Active; 'I' for Inactive)
REMARK    1  A    between atoms: C4_4  and  C5_5 
REMARK    2  A    between atoms: C5_5  and  C6_7 
REMARK    3  A    between atoms: C6_7  and  C7_8 
REMARK    4  A    between atoms: C7_8  and  C9_10 
ROOT
HETATM    1  C9  UNL     1     -13.720   8.799  21.889  1.00  0.00    -0.002 C 
HETATM    2  C10 UNL     1     -14.097   9.604  23.170  1.00  0.00     0.006 C 
HETATM    3  C11 UNL     1     -14.683   8.609  24.191  1.00  0.00     0.011 C 
HETATM    4  C12 UNL     1     -14.350   7.222  23.621  1.00  0.00    -0.032 C 
HETATM    5  C13 UNL     1     -12.866   6.917  24.029  1.00  0.00     0.016 C 
HETATM    6  C14 UNL     1     -15.259   6.038  24.096  1.00  0.00     0.004 C 
HETATM    7  C15 UNL     1     -15.284   5.903  25.639  1.00  0.00     0.007 C 
HETATM    8  C16 UNL     1     -14.947   4.547  26.257  1.00  0.00     0.007 C 
HETATM    9  C17 UNL     1     -13.811   3.826  25.521  1.00  0.00     0.010 C 
HETATM   10  C18 UNL     1     -13.385   2.470  26.175  1.00  0.00     0.018 C 
HETATM   11  C19 UNL     1     -14.506   1.418  26.182  1.00  0.00     0.023 C 
HETATM   12  C20 UNL     1     -12.895   2.690  27.620  1.00  0.00     0.023 C 
HETATM   13  C21 UNL     1     -12.208   1.880  25.383  1.00  0.00     0.135 C 
HETATM   14  O2  UNL     1     -11.563   0.913  25.792  1.00  0.00    -0.297 OA
HETATM   15  C22 UNL     1     -11.827   2.551  24.087  1.00  0.00     0.080 C 
HETATM   16  C23 UNL     1     -13.071   2.840  23.265  1.00  0.00     0.018 C 
HETATM   17  C24 UNL     1     -14.119   3.647  24.026  1.00  0.00    -0.026 A 
HETATM   18  C25 UNL     1     -15.569   3.457  23.620  1.00  0.00     0.021 A 
HETATM   19  C26 UNL     1     -14.886   4.766  23.293  1.00  0.00    -0.027 A 
HETATM   20  C27 UNL     1     -14.802   4.980  21.773  1.00  0.00     0.011 C 
HETATM   21  C28 UNL     1     -14.039   6.236  21.331  1.00  0.00     0.011 C 
HETATM   22  C29 UNL     1     -14.541   7.485  22.073  1.00  0.00    -0.032 C 
HETATM   23  C30 UNL     1     -16.016   7.759  21.647  1.00  0.00     0.016 C 
ENDROOT
BRANCH   1  24
HETATM   24  C7  UNL     1     -13.867   9.651  20.598  1.00  0.00    -0.007 C 
HETATM   25  C8  UNL     1     -13.671   8.834  19.317  1.00  0.00     0.011 C 
BRANCH  24  26
HETATM   26  C6  UNL     1     -12.925  10.880  20.577  1.00  0.00     0.087 C 
BRANCH  26  27
HETATM   27  C5  UNL     1     -11.458  10.554  20.808  1.00  0.00     0.149 C 
HETATM   28  O1  UNL     1     -11.066   9.411  21.038  1.00  0.00    -0.293 OA
BRANCH  27  29
HETATM   29  C4  UNL     1     -10.447  11.630  20.645  1.00  0.00     0.052 C 
HETATM   30  C2  UNL     1      -9.754  12.215  21.638  1.00  0.00    -0.084 C 
HETATM   31  C1  UNL     1      -8.756  13.296  21.325  1.00  0.00     0.043 C 
HETATM   32  C3  UNL     1      -9.849  11.855  23.093  1.00  0.00     0.043 C 
ENDBRANCH  27  29
ENDBRANCH  26  27
ENDBRANCH  24  26
ENDBRANCH   1  24
TORSDOF 4
ENDMDL
MODEL 4
REMARK minimizedAffinity -9.19867706
REMARK CNNscore 0.483806044
REMARK CNNaffinity 7.03009081
REMARK  4 active torsions:
REMARK  status: ('A' for Active; 'I' for Inactive)
REMARK    1  A    between atoms: C4_4  and  C5_5 
REMARK    2  A    between atoms: C5_5  and  C6_7 
REMARK    3  A    between atoms: C6_7  and  C7_8 
REMARK    4  A    between atoms: C7_8  and  C9_10 
ROOT
HETATM    1  C9  UNL     1      -6.235   7.130  13.845  1.00  0.00    -0.002 C 
HETATM    2  C10 UNL     1      -6.217   8.494  14.599  1.00  0.00     0.006 C 
HETATM    3  C11 UNL     1      -4.773   8.747  15.075  1.00  0.00     0.011 C 
HETATM    4  C12 UNL     1      -3.928   7.701  14.331  1.00  0.00    -0.032 C 
HETATM    5  C13 UNL     1      -3.660   8.282  12.898  1.00  0.00     0.016 C 
HETATM    6  C14 UNL     1      -2.556   7.320  14.985  1.00  0.00     0.004 C 
HETATM    7  C15 UNL     1      -1.653   8.558  15.214  1.00  0.00     0.007 C 
HETATM    8  C16 UNL     1      -0.232   8.535  14.655  1.00  0.00     0.007 C 
HETATM    9  C17 UNL     1      -0.146   7.865  13.279  1.00  0.00     0.010 C 
HETATM   10  C18 UNL     1       1.282   7.894  12.641  1.00  0.00     0.018 C 
HETATM   11  C19 UNL     1       2.332   7.125  13.459  1.00  0.00     0.023 C 
HETATM   12  C20 UNL     1       1.764   9.346  12.448  1.00  0.00     0.023 C 
HETATM   13  C21 UNL     1       1.222   7.248  11.248  1.00  0.00     0.135 C 
HETATM   14  O2  UNL     1       2.167   7.308  10.458  1.00  0.00    -0.297 OA
HETATM   15  C22 UNL     1      -0.058   6.560  10.848  1.00  0.00     0.080 C 
HETATM   16  C23 UNL     1      -0.554   5.682  11.984  1.00  0.00     0.018 C 
HETATM   17  C24 UNL     1      -0.713   6.436  13.301  1.00  0.00    -0.026 A 
HETATM   18  C25 UNL     1      -0.563   5.634  14.581  1.00  0.00     0.021 A 
HETATM   19  C26 UNL     1      -1.933   6.142  14.195  1.00  0.00    -0.027 A 
HETATM   20  C27 UNL     1      -2.900   4.975  13.934  1.00  0.00     0.011 C 
HETATM   21  C28 UNL     1      -4.295   5.380  13.441  1.00  0.00     0.011 C 
HETATM   22  C29 UNL     1      -4.913   6.464  14.339  1.00  0.00    -0.032 C 
HETATM   23  C30 UNL     1      -5.164   5.856  15.754  1.00  0.00     0.016 C 
ENDROOT
BRANCH   1  24
HETATM   24  C7  UNL     1      -7.596   6.395  13.996  1.00  0.00    -0.007 C 
HETATM   25  C8  UNL     1      -7.604   5.380  15.143  1.00  0.00     0.011 C 
BRANCH  24  26
HETATM   26  C6  UNL     1      -8.054   5.702  12.688  1.00  0.00     0.087 C 
BRANCH  26  27
HETATM   27  C5  UNL     1      -7.744   4.215  12.621  1.00  0.00     0.149 C 
HETATM   28  O1  UNL     1      -8.590   3.355  12.864  1.00  0.00    -0.293 OA
BRANCH  27  29
HETATM   29  C4  UNL     1      -6.408   3.779  12.141  1.00  0.00     0.052 C 
HETATM   30  C2  UNL     1      -6.041   2.512  11.882  1.00  0.00    -0.084 C 
HETATM   31  C1  UNL     1      -4.648   2.214  11.397  1.00  0.00     0.043 C 
HETATM   32  C3  UNL     1      -6.934   1.308  11.992  1.00  0.00     0.043 C 
ENDBRANCH  27  29
ENDBRANCH  26  27
ENDBRANCH  24  26
ENDBRANCH   1  24
TORSDOF 4
ENDMDL
MODEL 5
REMARK minimizedAffinity -6.63754225
REMARK CNNscore 0.357767433
REMARK CNNaffinity 5.70419931
REMARK  4 active torsions:
REMARK  status: ('A' for Active; 'I' for Inactive)
REMARK    1  A    between atoms: C4_4  and  C5_5 
REMARK    2  A    between atoms: C5_5  and  C6_7 
REMARK    3  A    between atoms: C6_7  and  C7_8 
REMARK    4  A    between atoms: C7_8  and  C9_10 
ROOT
HETATM    1  C9  UNL     1     -11.475  -2.137  -5.510  1.00  0.00    -0.002 C 
HETATM    2  C10 UNL     1     -10.347  -2.375  -4.461  1.00  0.00     0.006 C 
HETATM    3  C11 UNL     1      -9.016  -1.928  -5.097  1.00  0.00     0.011 C 
HETATM    4  C12 UNL     1      -9.426  -1.158  -6.361  1.00  0.00    -0.032 C 
HETATM    5  C13 UNL     1      -9.802   0.293  -5.895  1.00  0.00     0.016 C 
HETATM    6  C14 UNL     1      -8.351  -1.061  -7.497  1.00  0.00     0.004 C 
HETATM    7  C15 UNL     1      -7.023  -0.440  -6.994  1.00  0.00     0.007 C 
HETATM    8  C16 UNL     1      -6.447   0.756  -7.749  1.00  0.00     0.007 C 
HETATM    9  C17 UNL     1      -7.528   1.735  -8.224  1.00  0.00     0.010 C 
HETATM   10  C18 UNL     1      -6.968   3.012  -8.932  1.00  0.00     0.018 C 
HETATM   11  C19 UNL     1      -6.197   2.705 -10.226  1.00  0.00     0.023 C 
HETATM   12  C20 UNL     1      -6.051   3.807  -7.979  1.00  0.00     0.023 C 
HETATM   13  C21 UNL     1      -8.140   3.933  -9.304  1.00  0.00     0.135 C 
HETATM   14  O2  UNL     1      -7.965   5.086  -9.704  1.00  0.00    -0.297 OA
HETATM   15  C22 UNL     1      -9.538   3.397  -9.126  1.00  0.00     0.080 C 
HETATM   16  C23 UNL     1      -9.630   1.987  -9.683  1.00  0.00     0.018 C 
HETATM   17  C24 UNL     1      -8.588   1.040  -9.094  1.00  0.00    -0.026 A 
HETATM   18  C25 UNL     1      -8.142  -0.124  -9.958  1.00  0.00     0.021 A 
HETATM   19  C26 UNL     1      -8.997  -0.405  -8.743  1.00  0.00    -0.027 A 
HETATM   20  C27 UNL     1     -10.349  -1.013  -9.149  1.00  0.00     0.011 C 
HETATM   21  C28 UNL     1     -11.332  -1.247  -7.994  1.00  0.00     0.011 C 
HETATM   22  C29 UNL     1     -10.667  -2.012  -6.839  1.00  0.00    -0.032 C 
HETATM   23  C30 UNL     1     -10.304  -3.446  -7.334  1.00  0.00     0.016 C 
ENDROOT
BRANCH   1  24
HETATM   24  C7  UNL     1     -12.626  -3.173  -5.377  1.00  0.00    -0.007 C 
HETATM   25  C8  UNL     1     -12.195  -4.596  -5.745  1.00  0.00     0.011 C 
BRANCH  24  26
HETATM   26  C6  UNL     1     -13.882  -2.785  -6.196  1.00  0.00     0.087 C 
BRANCH  26  27
HETATM   27  C5  UNL     1     -15.173  -3.430  -5.716  1.00  0.00     0.149 C 
HETATM   28  O1  UNL     1     -15.374  -3.697  -4.532  1.00  0.00    -0.293 OA
BRANCH  27  29
HETATM   29  C4  UNL     1     -16.274  -3.647  -6.689  1.00  0.00     0.052 C 
HETATM   30  C2  UNL     1     -16.381  -4.685  -7.537  1.00  0.00    -0.084 C 
HETATM   31  C1  UNL     1     -17.557  -4.778  -8.470  1.00  0.00     0.043 C 
HETATM   32  C3  UNL     1     -15.423  -5.838  -7.624  1.00  0.00     0.043 C 
ENDBRANCH  27  29
ENDBRANCH  26  27
ENDBRANCH  24  26
ENDBRANCH   1  24
TORSDOF 4
ENDMDL
MODEL 6
REMARK minimizedAffinity -8.49759102
REMARK CNNscore 0.323679149
REMARK CNNaffinity 6.45637751
REMARK  4 active torsions:
REMARK  status: ('A' for Active; 'I' for Inactive)
REMARK    1  A    between atoms: C4_4  and  C5_5 
REMARK    2  A    between atoms: C5_5  and  C6_7 
REMARK    3  A    between atoms: C6_7  and  C7_8 
REMARK    4  A    between atoms: C7_8  and  C9_10 
ROOT
HETATM    1  C9  UNL     1      -5.440   6.089  14.576  1.00  0.00    -0.002 C 
HETATM    2  C10 UNL     1      -4.326   5.362  13.763  1.00  0.00     0.006 C 
HETATM    3  C11 UNL     1      -3.151   6.346  13.598  1.00  0.00     0.011 C 
HETATM    4  C12 UNL     1      -3.464   7.494  14.569  1.00  0.00    -0.032 C 
HETATM    5  C13 UNL     1      -2.993   7.019  15.989  1.00  0.00     0.016 C 
HETATM    6  C14 UNL     1      -2.795   8.876  14.252  1.00  0.00     0.004 C 
HETATM    7  C15 UNL     1      -1.252   8.770  14.152  1.00  0.00     0.007 C 
HETATM    8  C16 UNL     1      -0.401   9.707  15.006  1.00  0.00     0.007 C 
HETATM    9  C17 UNL     1      -0.987   9.930  16.406  1.00  0.00     0.010 C 
HETATM   10  C18 UNL     1      -0.100  10.822  17.336  1.00  0.00     0.018 C 
HETATM   11  C19 UNL     1       0.083  12.256  16.813  1.00  0.00     0.023 C 
HETATM   12  C20 UNL     1       1.289  10.183  17.542  1.00  0.00     0.023 C 
HETATM   13  C21 UNL     1      -0.763  10.919  18.718  1.00  0.00     0.135 C 
HETATM   14  O2  UNL     1      -0.182  11.408  19.690  1.00  0.00    -0.297 OA
HETATM   15  C22 UNL     1      -2.153  10.355  18.871  1.00  0.00     0.080 C 
HETATM   16  C23 UNL     1      -3.026  10.798  17.709  1.00  0.00     0.018 C 
HETATM   17  C24 UNL     1      -2.430  10.456  16.347  1.00  0.00    -0.026 A 
HETATM   18  C25 UNL     1      -2.811  11.349  15.180  1.00  0.00     0.021 A 
HETATM   19  C26 UNL     1      -3.357   9.940  15.228  1.00  0.00    -0.027 A 
HETATM   20  C27 UNL     1      -4.890   9.947  15.342  1.00  0.00     0.011 C 
HETATM   21  C28 UNL     1      -5.539   8.565  15.495  1.00  0.00     0.011 C 
HETATM   22  C29 UNL     1      -5.035   7.588  14.421  1.00  0.00    -0.032 C 
HETATM   23  C30 UNL     1      -5.517   8.090  13.025  1.00  0.00     0.016 C 
ENDROOT
BRANCH   1  24
HETATM   24  C7  UNL     1      -6.864   5.608  14.177  1.00  0.00    -0.007 C 
HETATM   25  C8  UNL     1      -7.973   6.296  14.979  1.00  0.00     0.011 C 
BRANCH  24  26
HETATM   26  C6  UNL     1      -7.030   4.072  14.278  1.00  0.00     0.087 C 
BRANCH  26  27
HETATM   27  C5  UNL     1      -7.344   3.383  12.959  1.00  0.00     0.149 C 
HETATM   28  O1  UNL     1      -8.308   2.631  12.823  1.00  0.00    -0.293 OA
BRANCH  27  29
HETATM   29  C4  UNL     1      -6.528   3.713  11.762  1.00  0.00     0.052 C 
HETATM   30  C2  UNL     1      -5.692   2.874  11.126  1.00  0.00    -0.084 C 
HETATM   31  C1  UNL     1      -4.926   3.345   9.920  1.00  0.00     0.043 C 
HETATM   32  C3  UNL     1      -5.463   1.434  11.488  1.00  0.00     0.043 C 
ENDBRANCH  27  29
ENDBRANCH  26  27
ENDBRANCH  24  26
ENDBRANCH   1  24
TORSDOF 4
ENDMDL
MODEL 7
REMARK minimizedAffinity -8.47727585
REMARK CNNscore 0.317695469
REMARK CNNaffinity 6.77998018
REMARK  4 active torsions:
REMARK  status: ('A' for Active; 'I' for Inactive)
REMARK    1  A    between atoms: C4_4  and  C5_5 
REMARK    2  A    between atoms: C5_5  and  C6_7 
REMARK    3  A    between atoms: C6_7  and  C7_8 
REMARK    4  A    between atoms: C7_8  and  C9_10 
ROOT
HETATM    1  C9  UNL     1      -4.569   7.948  13.571  1.00  0.00    -0.002 C 
HETATM    2  C10 UNL     1      -4.293   9.212  14.441  1.00  0.00     0.006 C 
HETATM    3  C11 UNL     1      -2.783   9.244  14.752  1.00  0.00     0.011 C 
HETATM    4  C12 UNL     1      -2.169   8.197  13.812  1.00  0.00    -0.032 C 
HETATM    5  C13 UNL     1      -1.995   8.895  12.417  1.00  0.00     0.016 C 
HETATM    6  C14 UNL     1      -0.790   7.593  14.248  1.00  0.00     0.004 C 
HETATM    7  C15 UNL     1       0.282   8.687  14.476  1.00  0.00     0.007 C 
HETATM    8  C16 UNL     1       1.616   8.563  13.742  1.00  0.00     0.007 C 
HETATM    9  C17 UNL     1       1.459   8.040  12.308  1.00  0.00     0.010 C 
HETATM   10  C18 UNL     1       2.796   7.976  11.500  1.00  0.00     0.018 C 
HETATM   11  C19 UNL     1       3.827   7.008  12.103  1.00  0.00     0.023 C 
HETATM   12  C20 UNL     1       3.432   9.376  11.385  1.00  0.00     0.023 C 
HETATM   13  C21 UNL     1       2.496   7.496  10.072  1.00  0.00     0.135 C 
HETATM   14  O2  UNL     1       3.344   7.533   9.178  1.00  0.00    -0.297 OA
HETATM   15  C22 UNL     1       1.101   7.007   9.775  1.00  0.00     0.080 C 
HETATM   16  C23 UNL     1       0.631   6.072  10.876  1.00  0.00     0.018 C 
HETATM   17  C24 UNL     1       0.722   6.692  12.268  1.00  0.00    -0.026 A 
HETATM   18  C25 UNL     1       0.915   5.744  13.437  1.00  0.00     0.021 A 
HETATM   19  C26 UNL     1      -0.416   6.444  13.278  1.00  0.00    -0.027 A 
HETATM   20  C27 UNL     1      -1.546   5.430  13.033  1.00  0.00     0.011 C 
HETATM   21  C28 UNL     1      -2.926   6.043  12.761  1.00  0.00     0.011 C 
HETATM   22  C29 UNL     1      -3.295   7.086  13.829  1.00  0.00    -0.032 C 
HETATM   23  C30 UNL     1      -3.457   6.361  15.200  1.00  0.00     0.016 C 
ENDROOT
BRANCH   1  24
HETATM   24  C7  UNL     1      -5.987   7.362  13.823  1.00  0.00    -0.007 C 
HETATM   25  C8  UNL     1      -6.618   7.866  15.125  1.00  0.00     0.011 C 
BRANCH  24  26
HETATM   26  C6  UNL     1      -6.010   5.814  13.802  1.00  0.00     0.087 C 
BRANCH  26  27
HETATM   27  C5  UNL     1      -7.276   5.210  13.216  1.00  0.00     0.149 C 
HETATM   28  O1  UNL     1      -7.266   4.171  12.557  1.00  0.00    -0.293 OA
BRANCH  27  29
HETATM   29  C4  UNL     1      -8.586   5.830  13.540  1.00  0.00     0.052 C 
HETATM   30  C2  UNL     1      -9.460   6.332  12.651  1.00  0.00    -0.084 C 
HETATM   31  C1  UNL     1     -10.756   6.932  13.122  1.00  0.00     0.043 C 
HETATM   32  C3  UNL     1      -9.286   6.318  11.158  1.00  0.00     0.043 C 
ENDBRANCH  27  29
ENDBRANCH  26  27
ENDBRANCH  24  26
ENDBRANCH   1  24
TORSDOF 4
ENDMDL
MODEL 8
REMARK minimizedAffinity -6.4891715
REMARK CNNscore 0.313639104
REMARK CNNaffinity 6.11700583
REMARK  4 active torsions:
REMARK  status: ('A' for Active; 'I' for Inactive)
REMARK    1  A    between atoms: C4_4  and  C5_5 
REMARK    2  A    between atoms: C5_5  and  C6_7 
REMARK    3  A    between atoms: C6_7  and  C7_8 
REMARK    4  A    between atoms: C7_8  and  C9_10 
ROOT
HETATM    1  C9  UNL     1      -4.942  13.312  18.476  1.00  0.00    -0.002 C 
HETATM    2  C10 UNL     1      -4.859  14.385  17.347  1.00  0.00     0.006 C 
HETATM    3  C11 UNL     1      -3.730  13.963  16.385  1.00  0.00     0.011 C 
HETATM    4  C12 UNL     1      -3.396  12.518  16.785  1.00  0.00    -0.032 C 
HETATM    5  C13 UNL     1      -4.464  11.604  16.088  1.00  0.00     0.016 C 
HETATM    6  C14 UNL     1      -1.966  12.003  16.404  1.00  0.00     0.004 C 
HETATM    7  C15 UNL     1      -1.681  12.134  14.887  1.00  0.00     0.007 C 
HETATM    8  C16 UNL     1      -1.216  10.896  14.123  1.00  0.00     0.007 C 
HETATM    9  C17 UNL     1      -1.924   9.615  14.583  1.00  0.00     0.010 C 
HETATM   10  C18 UNL     1      -1.530   8.339  13.769  1.00  0.00     0.018 C 
HETATM   11  C19 UNL     1      -0.043   7.969  13.895  1.00  0.00     0.023 C 
HETATM   12  C20 UNL     1      -1.877   8.515  12.276  1.00  0.00     0.023 C 
HETATM   13  C21 UNL     1      -2.346   7.144  14.285  1.00  0.00     0.135 C 
HETATM   14  O2  UNL     1      -2.364   6.061  13.696  1.00  0.00    -0.297 OA
HETATM   15  C22 UNL     1      -3.171   7.343  15.531  1.00  0.00     0.080 C 
HETATM   16  C23 UNL     1      -2.352   8.064  16.588  1.00  0.00     0.018 C 
HETATM   17  C24 UNL     1      -1.760   9.380  16.094  1.00  0.00    -0.026 A 
HETATM   18  C25 UNL     1      -0.474   9.850  16.747  1.00  0.00     0.021 A 
HETATM   19  C26 UNL     1      -1.753  10.603  17.033  1.00  0.00    -0.027 A 
HETATM   20  C27 UNL     1      -2.124  10.515  18.522  1.00  0.00     0.011 C 
HETATM   21  C28 UNL     1      -3.460  11.166  18.902  1.00  0.00     0.011 C 
HETATM   22  C29 UNL     1      -3.560  12.599  18.356  1.00  0.00    -0.032 C 
HETATM   23  C30 UNL     1      -2.485  13.479  19.066  1.00  0.00     0.016 C 
ENDROOT
BRANCH   1  24
HETATM   24  C7  UNL     1      -5.404  13.922  19.829  1.00  0.00    -0.007 C 
HETATM   25  C8  UNL     1      -5.495  12.884  20.952  1.00  0.00     0.011 C 
BRANCH  24  26
HETATM   26  C6  UNL     1      -6.749  14.683  19.718  1.00  0.00     0.087 C 
BRANCH  26  27
HETATM   27  C5  UNL     1      -7.977  13.840  20.020  1.00  0.00     0.149 C 
HETATM   28  O1  UNL     1      -8.661  13.333  19.132  1.00  0.00    -0.293 OA
BRANCH  27  29
HETATM   29  C4  UNL     1      -8.304  13.524  21.434  1.00  0.00     0.052 C 
HETATM   30  C2  UNL     1      -9.273  12.690  21.850  1.00  0.00    -0.084 C 
HETATM   31  C1  UNL     1      -9.492  12.462  23.320  1.00  0.00     0.043 C 
HETATM   32  C3  UNL     1     -10.177  11.892  20.954  1.00  0.00     0.043 C 
ENDBRANCH  27  29
ENDBRANCH  26  27
ENDBRANCH  24  26
ENDBRANCH   1  24
TORSDOF 4
ENDMDL
MODEL 9
REMARK minimizedAffinity -8.25564861
REMARK CNNscore 0.289150029
REMARK CNNaffinity 6.69248009
REMARK  4 active torsions:
REMARK  status: ('A' for Active; 'I' for Inactive)
REMARK    1  A    between atoms: C4_4  and  C5_5 
REMARK    2  A    between atoms: C5_5  and  C6_7 
REMARK    3  A    between atoms: C6_7  and  C7_8 
REMARK    4  A    between atoms: C7_8  and  C9_10 
ROOT
HETATM    1  C9  UNL     1       1.351   7.015  14.019  1.00  0.00    -0.002 C 
HETATM    2  C10 UNL     1       1.446   7.509  15.495  1.00  0.00     0.006 C 
HETATM    3  C11 UNL     1       0.055   8.035  15.902  1.00  0.00     0.011 C 
HETATM    4  C12 UNL     1      -0.886   7.556  14.786  1.00  0.00    -0.032 C 
HETATM    5  C13 UNL     1      -1.246   6.065  15.117  1.00  0.00     0.016 C 
HETATM    6  C14 UNL     1      -2.213   8.367  14.599  1.00  0.00     0.004 C 
HETATM    7  C15 UNL     1      -3.047   8.433  15.904  1.00  0.00     0.007 C 
HETATM    8  C16 UNL     1      -4.509   7.992  15.856  1.00  0.00     0.007 C 
HETATM    9  C17 UNL     1      -4.732   6.770  14.957  1.00  0.00     0.010 C 
HETATM   10  C18 UNL     1      -6.204   6.242  14.947  1.00  0.00     0.018 C 
HETATM   11  C19 UNL     1      -7.213   7.260  14.391  1.00  0.00     0.023 C 
HETATM   12  C20 UNL     1      -6.645   5.826  16.365  1.00  0.00     0.023 C 
HETATM   13  C21 UNL     1      -6.282   4.989  14.063  1.00  0.00     0.135 C 
HETATM   14  O2  UNL     1      -7.284   4.272  14.030  1.00  0.00    -0.297 OA
HETATM   15  C22 UNL     1      -5.065   4.628  13.249  1.00  0.00     0.080 C 
HETATM   16  C23 UNL     1      -4.512   5.864  12.561  1.00  0.00     0.018 C 
HETATM   17  C24 UNL     1      -4.220   7.008  13.527  1.00  0.00    -0.026 A 
HETATM   18  C25 UNL     1      -4.296   8.419  12.974  1.00  0.00     0.021 A 
HETATM   19  C26 UNL     1      -2.943   7.850  13.334  1.00  0.00    -0.027 A 
HETATM   20  C27 UNL     1      -2.045   7.734  12.090  1.00  0.00     0.011 C 
HETATM   21  C28 UNL     1      -0.680   7.076  12.329  1.00  0.00     0.011 C 
HETATM   22  C29 UNL     1       0.049   7.716  13.521  1.00  0.00    -0.032 C 
HETATM   23  C30 UNL     1       0.390   9.195  13.161  1.00  0.00     0.016 C 
ENDROOT
BRANCH   1  24
HETATM   24  C7  UNL     1       2.691   7.196  13.253  1.00  0.00    -0.007 C 
HETATM   25  C8  UNL     1       3.651   8.166  13.950  1.00  0.00     0.011 C 
BRANCH  24  26
HETATM   26  C6  UNL     1       2.489   7.636  11.782  1.00  0.00     0.087 C 
BRANCH  26  27
HETATM   27  C5  UNL     1       3.318   6.860  10.772  1.00  0.00     0.149 C 
HETATM   28  O1  UNL     1       4.447   6.444  11.027  1.00  0.00    -0.293 OA
BRANCH  27  29
HETATM   29  C4  UNL     1       2.706   6.493   9.469  1.00  0.00     0.052 C 
HETATM   30  C2  UNL     1       2.673   7.266   8.370  1.00  0.00    -0.084 C 
HETATM   31  C1  UNL     1       2.018   6.764   7.113  1.00  0.00     0.043 C 
HETATM   32  C3  UNL     1       3.289   8.632   8.249  1.00  0.00     0.043 C 
ENDBRANCH  27  29
ENDBRANCH  26  27
ENDBRANCH  24  26
ENDBRANCH   1  24
TORSDOF 4
ENDMDL
