MODEL 1
REMARK minimizedAffinity -7.52990294
REMARK  6 active torsions:
REMARK  status: ('A' for Active; 'I' for Inactive)
REMARK    1  A    between atoms: C9_10  and  C10_11 
REMARK    2  A    between atoms: C11_13  and  O3_14 
REMARK    3  A    between atoms: C12_15  and  C13_16 
REMARK    4  A    between atoms: C14_18  and  O5_19 
REMARK    5  A    between atoms: C16_21  and  C17_22 
REMARK    6  A    between atoms: C17_22  and  C18_23 
ROOT
HETATM    1  C1  UNL     1       0.004  53.488 -19.385  1.00  0.00     0.043 C 
HETATM    2  C2  UNL     1      -0.052  52.008 -19.672  1.00  0.00    -0.087 C 
HETATM    3  C3  UNL     1      -0.315  51.143 -18.673  1.00  0.00    -0.024 C 
HETATM    4  C4  UNL     1      -0.410  49.653 -18.761  1.00  0.00     0.030 C 
HETATM    5  C5  UNL     1      -1.827  49.105 -18.589  1.00  0.00     0.042 C 
HETATM    6  C6  UNL     1      -2.979  49.606 -19.519  1.00  0.00     0.069 C 
HETATM    7  C7  UNL     1      -3.434  51.015 -19.066  1.00  0.00     0.047 C 
HETATM    8  O1  UNL     1      -4.090  48.738 -19.104  1.00  0.00    -0.338 OA
HETATM    9  C8  UNL     1      -5.088  48.558 -20.017  1.00  0.00     0.095 A 
HETATM   10  C9  UNL     1      -6.421  48.584 -19.594  1.00  0.00     0.070 A 
HETATM   11  C11 UNL     1      -7.455  48.439 -20.532  1.00  0.00     0.097 A 
HETATM   12  C12 UNL     1      -7.144  48.234 -21.880  1.00  0.00     0.069 A 
HETATM   13  C14 UNL     1      -5.800  48.164 -22.283  1.00  0.00     0.091 A 
HETATM   14  C15 UNL     1      -4.765  48.311 -21.350  1.00  0.00     0.015 A 
HETATM   15  C16 UNL     1      -3.304  48.251 -21.717  1.00  0.00     0.032 C 
HETATM   16  C21 UNL     1      -2.610  49.495 -21.067  1.00  0.00     0.034 C 
HETATM   17  C22 UNL     1      -2.988  50.747 -21.860  1.00  0.00     0.006 A 
HETATM   18  C23 UNL     1      -2.100  51.951 -22.213  1.00  0.00    -0.001 A 
HETATM   19  C24 UNL     1      -0.620  52.235 -22.181  1.00  0.00     0.010 C 
HETATM   20  C25 UNL     1       0.242  51.599 -21.099  1.00  0.00     0.034 C 
HETATM   21  C26 UNL     1      -2.606  51.005 -23.310  1.00  0.00    -0.039 A 
HETATM   22  C27 UNL     1      -3.685  51.533 -24.228  1.00  0.00     0.015 C 
HETATM   23  C28 UNL     1      -1.641  50.085 -24.027  1.00  0.00     0.015 C 
ENDROOT
BRANCH  15  24
HETATM   24  C17 UNL     1      -2.590  46.931 -21.331  1.00  0.00     0.014 C 
BRANCH  24  25
HETATM   25  C18 UNL     1      -3.525  45.774 -20.901  1.00  0.00    -0.022 C 
HETATM   26  C19 UNL     1      -4.869  45.827 -21.637  1.00  0.00     0.009 C 
HETATM   27  C20 UNL     1      -3.787  45.847 -19.391  1.00  0.00     0.009 C 
ENDBRANCH  24  25
ENDBRANCH  15  24
BRANCH  13  28
HETATM   28  O5  UNL     1      -5.451  47.953 -23.594  1.00  0.00    -0.359 OA
HETATM   29  H15 UNL     1      -6.272  47.954 -24.138  1.00  0.00     0.217 HD
ENDBRANCH  13  28
BRANCH  10  30
HETATM   30  C10 UNL     1      -6.724  48.789 -18.165  1.00  0.00     0.275 C 
HETATM   31  O2  UNL     1      -7.852  49.119 -17.815  1.00  0.00    -0.301 OA
ENDBRANCH  10  30
BRANCH  12  32
HETATM   32  C13 UNL     1      -8.236  48.104 -22.869  1.00  0.00     0.275 C 
HETATM   33  O4  UNL     1      -8.320  48.888 -23.811  1.00  0.00    -0.301 OA
ENDBRANCH  12  32
BRANCH  11  34
HETATM   34  O3  UNL     1      -8.778  48.494 -20.165  1.00  0.00    -0.359 OA
HETATM   35  H13 UNL     1      -8.833  48.638 -19.187  1.00  0.00     0.217 HD
ENDBRANCH  11  34
TORSDOF 6
ENDMDL
MODEL 2
REMARK minimizedAffinity -7.29373598
REMARK  6 active torsions:
REMARK  status: ('A' for Active; 'I' for Inactive)
REMARK    1  A    between atoms: C9_10  and  C10_11 
REMARK    2  A    between atoms: C11_13  and  O3_14 
REMARK    3  A    between atoms: C12_15  and  C13_16 
REMARK    4  A    between atoms: C14_18  and  O5_19 
REMARK    5  A    between atoms: C16_21  and  C17_22 
REMARK    6  A    between atoms: C17_22  and  C18_23 
ROOT
HETATM    1  C1  UNL     1      -0.637  51.859 -24.169  1.00  0.00     0.043 C 
HETATM    2  C2  UNL     1      -1.869  51.913 -23.300  1.00  0.00    -0.087 C 
HETATM    3  C3  UNL     1      -3.016  52.414 -23.799  1.00  0.00    -0.024 C 
HETATM    4  C4  UNL     1      -4.331  52.550 -23.097  1.00  0.00     0.030 C 
HETATM    5  C5  UNL     1      -5.414  51.598 -23.607  1.00  0.00     0.042 C 
HETATM    6  C6  UNL     1      -5.157  50.056 -23.621  1.00  0.00     0.069 C 
HETATM    7  C7  UNL     1      -4.234  49.695 -24.811  1.00  0.00     0.047 C 
HETATM    8  O1  UNL     1      -6.470  49.544 -24.040  1.00  0.00    -0.338 OA
HETATM    9  C8  UNL     1      -6.754  48.256 -23.691  1.00  0.00     0.095 A 
HETATM   10  C9  UNL     1      -7.374  47.413 -24.618  1.00  0.00     0.070 A 
HETATM   11  C11 UNL     1      -7.635  46.075 -24.281  1.00  0.00     0.097 A 
HETATM   12  C12 UNL     1      -7.303  45.604 -23.007  1.00  0.00     0.069 A 
HETATM   13  C14 UNL     1      -6.724  46.476 -22.070  1.00  0.00     0.091 A 
HETATM   14  C15 UNL     1      -6.459  47.811 -22.403  1.00  0.00     0.015 A 
HETATM   15  C16 UNL     1      -5.834  48.796 -21.448  1.00  0.00     0.032 C 
HETATM   16  C21 UNL     1      -4.664  49.503 -22.209  1.00  0.00     0.034 C 
HETATM   17  C22 UNL     1      -3.489  48.531 -22.328  1.00  0.00     0.006 A 
HETATM   18  C23 UNL     1      -1.987  48.839 -22.208  1.00  0.00    -0.001 A 
HETATM   19  C24 UNL     1      -1.170  50.003 -21.709  1.00  0.00     0.010 C 
HETATM   20  C25 UNL     1      -1.700  51.420 -21.880  1.00  0.00     0.034 C 
HETATM   21  C26 UNL     1      -2.695  47.980 -21.153  1.00  0.00    -0.039 A 
HETATM   22  C27 UNL     1      -2.391  46.499 -21.157  1.00  0.00     0.015 C 
HETATM   23  C28 UNL     1      -2.916  48.518 -19.755  1.00  0.00     0.015 C 
ENDROOT
BRANCH  15  24
HETATM   24  C17 UNL     1      -6.821  49.822 -20.835  1.00  0.00     0.014 C 
BRANCH  24  25
HETATM   25  C18 UNL     1      -7.439  49.415 -19.474  1.00  0.00    -0.022 C 
HETATM   26  C19 UNL     1      -6.444  48.628 -18.612  1.00  0.00     0.009 C 
HETATM   27  C20 UNL     1      -8.684  48.549 -19.704  1.00  0.00     0.009 C 
ENDBRANCH  24  25
ENDBRANCH  15  24
BRANCH  13  28
HETATM   28  O5  UNL     1      -6.393  46.057 -20.805  1.00  0.00    -0.359 OA
HETATM   29  H15 UNL     1      -6.556  45.088 -20.746  1.00  0.00     0.217 HD
ENDBRANCH  13  28
BRANCH  10  30
HETATM   30  C10 UNL     1      -7.726  47.936 -25.952  1.00  0.00     0.275 C 
HETATM   31  O2  UNL     1      -7.223  47.446 -26.958  1.00  0.00    -0.301 OA
ENDBRANCH  10  30
BRANCH  12  32
HETATM   32  C13 UNL     1      -7.559  44.188 -22.663  1.00  0.00     0.275 C 
HETATM   33  O4  UNL     1      -6.635  43.454 -22.322  1.00  0.00    -0.301 OA
ENDBRANCH  12  32
BRANCH  11  34
HETATM   34  O3  UNL     1      -8.210  45.203 -25.174  1.00  0.00    -0.359 OA
HETATM   35  H13 UNL     1      -8.388  45.684 -26.021  1.00  0.00     0.217 HD
ENDBRANCH  11  34
TORSDOF 6
ENDMDL
MODEL 3
REMARK minimizedAffinity -7.18967962
REMARK  6 active torsions:
REMARK  status: ('A' for Active; 'I' for Inactive)
REMARK    1  A    between atoms: C9_10  and  C10_11 
REMARK    2  A    between atoms: C11_13  and  O3_14 
REMARK    3  A    between atoms: C12_15  and  C13_16 
REMARK    4  A    between atoms: C14_18  and  O5_19 
REMARK    5  A    between atoms: C16_21  and  C17_22 
REMARK    6  A    between atoms: C17_22  and  C18_23 
ROOT
HETATM    1  C1  UNL     1      -0.290  48.768 -16.458  1.00  0.00     0.043 C 
HETATM    2  C2  UNL     1      -1.365  49.520 -17.206  1.00  0.00    -0.087 C 
HETATM    3  C3  UNL     1      -1.311  50.864 -17.280  1.00  0.00    -0.024 C 
HETATM    4  C4  UNL     1      -2.275  51.776 -17.970  1.00  0.00     0.030 C 
HETATM    5  C5  UNL     1      -1.717  52.442 -19.228  1.00  0.00     0.042 C 
HETATM    6  C6  UNL     1      -1.141  51.566 -20.387  1.00  0.00     0.069 C 
HETATM    7  C7  UNL     1       0.266  51.051 -19.997  1.00  0.00     0.047 C 
HETATM    8  O1  UNL     1      -0.861  52.582 -21.411  1.00  0.00    -0.338 OA
HETATM    9  C8  UNL     1      -0.815  52.142 -22.702  1.00  0.00     0.095 A 
HETATM   10  C9  UNL     1       0.188  52.613 -23.555  1.00  0.00     0.070 A 
HETATM   11  C11 UNL     1       0.265  52.136 -24.873  1.00  0.00     0.097 A 
HETATM   12  C12 UNL     1      -0.683  51.217 -25.334  1.00  0.00     0.069 A 
HETATM   13  C14 UNL     1      -1.713  50.788 -24.480  1.00  0.00     0.091 A 
HETATM   14  C15 UNL     1      -1.792  51.260 -23.162  1.00  0.00     0.015 A 
HETATM   15  C16 UNL     1      -2.867  50.837 -22.193  1.00  0.00     0.032 C 
HETATM   16  C21 UNL     1      -2.155  50.430 -20.860  1.00  0.00     0.034 C 
HETATM   17  C22 UNL     1      -1.480  49.071 -21.051  1.00  0.00     0.006 A 
HETATM   18  C23 UNL     1      -1.378  47.912 -20.046  1.00  0.00    -0.001 A 
HETATM   19  C24 UNL     1      -2.052  47.562 -18.744  1.00  0.00     0.010 C 
HETATM   20  C25 UNL     1      -2.474  48.676 -17.796  1.00  0.00     0.034 C 
HETATM   21  C26 UNL     1      -2.213  47.767 -21.325  1.00  0.00    -0.039 A 
HETATM   22  C27 UNL     1      -1.656  46.874 -22.411  1.00  0.00     0.015 C 
HETATM   23  C28 UNL     1      -3.723  47.702 -21.246  1.00  0.00     0.015 C 
ENDROOT
BRANCH  15  24
HETATM   24  C17 UNL     1      -3.976  51.891 -21.952  1.00  0.00     0.014 C 
BRANCH  24  25
HETATM   25  C18 UNL     1      -5.244  51.731 -22.825  1.00  0.00    -0.022 C 
HETATM   26  C19 UNL     1      -5.643  50.259 -22.981  1.00  0.00     0.009 C 
HETATM   27  C20 UNL     1      -4.998  52.324 -24.218  1.00  0.00     0.009 C 
ENDBRANCH  24  25
ENDBRANCH  15  24
BRANCH  13  28
HETATM   28  O5  UNL     1      -2.670  49.896 -24.895  1.00  0.00    -0.359 OA
HETATM   29  H15 UNL     1      -2.438  49.592 -25.803  1.00  0.00     0.217 HD
ENDBRANCH  13  28
BRANCH  10  30
HETATM   30  C10 UNL     1       1.169  53.591 -23.049  1.00  0.00     0.275 C 
HETATM   31  O2  UNL     1       1.378  54.630 -23.667  1.00  0.00    -0.301 OA
ENDBRANCH  10  30
BRANCH  12  32
HETATM   32  C13 UNL     1      -0.585  50.699 -26.716  1.00  0.00     0.275 C 
HETATM   33  O4  UNL     1      -1.542  50.783 -27.482  1.00  0.00    -0.301 OA
ENDBRANCH  12  32
BRANCH  11  34
HETATM   34  O3  UNL     1       1.255  52.545 -25.733  1.00  0.00    -0.359 OA
HETATM   35  H13 UNL     1       1.839  53.192 -25.264  1.00  0.00     0.217 HD
ENDBRANCH  11  34
TORSDOF 6
ENDMDL
MODEL 4
REMARK minimizedAffinity -7.1091876
REMARK  6 active torsions:
REMARK  status: ('A' for Active; 'I' for Inactive)
REMARK    1  A    between atoms: C9_10  and  C10_11 
REMARK    2  A    between atoms: C11_13  and  O3_14 
REMARK    3  A    between atoms: C12_15  and  C13_16 
REMARK    4  A    between atoms: C14_18  and  O5_19 
REMARK    5  A    between atoms: C16_21  and  C17_22 
REMARK    6  A    between atoms: C17_22  and  C18_23 
ROOT
HETATM    1  C1  UNL     1      -0.487  48.745 -16.606  1.00  0.00     0.043 C 
HETATM    2  C2  UNL     1      -1.702  49.382 -17.234  1.00  0.00    -0.087 C 
HETATM    3  C3  UNL     1      -1.656  50.673 -17.617  1.00  0.00    -0.024 C 
HETATM    4  C4  UNL     1      -2.749  51.474 -18.251  1.00  0.00     0.030 C 
HETATM    5  C5  UNL     1      -2.501  51.819 -19.720  1.00  0.00     0.042 C 
HETATM    6  C6  UNL     1      -2.224  50.681 -20.756  1.00  0.00     0.069 C 
HETATM    7  C7  UNL     1      -0.769  50.177 -20.595  1.00  0.00     0.047 C 
HETATM    8  O1  UNL     1      -2.186  51.436 -22.017  1.00  0.00    -0.338 OA
HETATM    9  C8  UNL     1      -2.453  50.727 -23.152  1.00  0.00     0.095 A 
HETATM   10  C9  UNL     1      -1.677  50.942 -24.296  1.00  0.00     0.070 A 
HETATM   11  C11 UNL     1      -1.919  50.190 -25.456  1.00  0.00     0.097 A 
HETATM   12  C12 UNL     1      -2.957  49.253 -25.470  1.00  0.00     0.069 A 
HETATM   13  C14 UNL     1      -3.758  49.081 -24.328  1.00  0.00     0.091 A 
HETATM   14  C15 UNL     1      -3.518  49.828 -23.167  1.00  0.00     0.015 A 
HETATM   15  C16 UNL     1      -4.335  49.689 -21.908  1.00  0.00     0.032 C 
HETATM   16  C21 UNL     1      -3.331  49.534 -20.717  1.00  0.00     0.034 C 
HETATM   17  C22 UNL     1      -2.731  48.128 -20.751  1.00  0.00     0.006 A 
HETATM   18  C23 UNL     1      -2.404  47.207 -19.564  1.00  0.00    -0.001 A 
HETATM   19  C24 UNL     1      -2.751  47.186 -18.098  1.00  0.00     0.010 C 
HETATM   20  C25 UNL     1      -2.927  48.501 -17.351  1.00  0.00     0.034 C 
HETATM   21  C26 UNL     1      -3.520  46.842 -20.552  1.00  0.00    -0.039 A 
HETATM   22  C27 UNL     1      -3.244  45.705 -21.510  1.00  0.00     0.015 C 
HETATM   23  C28 UNL     1      -4.969  46.888 -20.115  1.00  0.00     0.015 C 
ENDROOT
BRANCH  15  24
HETATM   24  C17 UNL     1      -5.346  50.836 -21.659  1.00  0.00     0.014 C 
BRANCH  24  25
HETATM   25  C18 UNL     1      -6.802  50.388 -21.379  1.00  0.00    -0.022 C 
HETATM   26  C19 UNL     1      -6.943  49.754 -19.989  1.00  0.00     0.009 C 
HETATM   27  C20 UNL     1      -7.245  49.366 -22.433  1.00  0.00     0.009 C 
ENDBRANCH  24  25
ENDBRANCH  15  24
BRANCH  13  28
HETATM   28  O5  UNL     1      -4.794  48.181 -24.304  1.00  0.00    -0.359 OA
HETATM   29  H15 UNL     1      -4.786  47.676 -25.149  1.00  0.00     0.217 HD
ENDBRANCH  13  28
BRANCH  10  30
HETATM   30  C10 UNL     1      -0.595  51.945 -24.260  1.00  0.00     0.275 C 
HETATM   31  O2  UNL     1       0.293  51.862 -23.419  1.00  0.00    -0.301 OA
ENDBRANCH  10  30
BRANCH  12  32
HETATM   32  C13 UNL     1      -3.195  48.446 -26.687  1.00  0.00     0.275 C 
HETATM   33  O4  UNL     1      -3.316  48.991 -27.781  1.00  0.00    -0.301 OA
ENDBRANCH  12  32
BRANCH  11  34
HETATM   34  O3  UNL     1      -1.159  50.344 -26.589  1.00  0.00    -0.359 OA
HETATM   35  H13 UNL     1      -0.475  51.041 -26.423  1.00  0.00     0.217 HD
ENDBRANCH  11  34
TORSDOF 6
ENDMDL
MODEL 5
REMARK minimizedAffinity -6.89805508
REMARK  6 active torsions:
REMARK  status: ('A' for Active; 'I' for Inactive)
REMARK    1  A    between atoms: C9_10  and  C10_11 
REMARK    2  A    between atoms: C11_13  and  O3_14 
REMARK    3  A    between atoms: C12_15  and  C13_16 
REMARK    4  A    between atoms: C14_18  and  O5_19 
REMARK    5  A    between atoms: C16_21  and  C17_22 
REMARK    6  A    between atoms: C17_22  and  C18_23 
ROOT
HETATM    1  C1  UNL     1       2.780  58.479  -5.679  1.00  0.00     0.043 C 
HETATM    2  C2  UNL     1       2.991  56.989  -5.794  1.00  0.00    -0.087 C 
HETATM    3  C3  UNL     1       2.066  56.143  -5.299  1.00  0.00    -0.024 C 
HETATM    4  C4  UNL     1       2.097  54.648  -5.318  1.00  0.00     0.030 C 
HETATM    5  C5  UNL     1       1.073  54.012  -6.259  1.00  0.00     0.042 C 
HETATM    6  C6  UNL     1       1.053  54.402  -7.773  1.00  0.00     0.069 C 
HETATM    7  C7  UNL     1       0.392  55.792  -7.940  1.00  0.00     0.047 C 
HETATM    8  O1  UNL     1       0.041  53.476  -8.301  1.00  0.00    -0.338 OA
HETATM    9  C8  UNL     1       0.116  53.197  -9.634  1.00  0.00     0.095 A 
HETATM   10  C9  UNL     1      -1.057  53.148 -10.394  1.00  0.00     0.070 A 
HETATM   11  C11 UNL     1      -0.986  52.901 -11.774  1.00  0.00     0.097 A 
HETATM   12  C12 UNL     1       0.256  52.671 -12.374  1.00  0.00     0.069 A 
HETATM   13  C14 UNL     1       1.422  52.677 -11.590  1.00  0.00     0.091 A 
HETATM   14  C15 UNL     1       1.356  52.926 -10.212  1.00  0.00     0.015 A 
HETATM   15  C16 UNL     1       2.567  52.953  -9.315  1.00  0.00     0.032 C 
HETATM   16  C21 UNL     1       2.485  54.262  -8.461  1.00  0.00     0.034 C 
HETATM   17  C22 UNL     1       2.838  55.457  -9.348  1.00  0.00     0.006 A 
HETATM   18  C23 UNL     1       3.655  56.706  -8.977  1.00  0.00    -0.001 A 
HETATM   19  C24 UNL     1       4.565  57.089  -7.838  1.00  0.00     0.010 C 
HETATM   20  C25 UNL     1       4.286  56.551  -6.442  1.00  0.00     0.034 C 
HETATM   21  C26 UNL     1       4.197  55.690  -9.992  1.00  0.00    -0.039 A 
HETATM   22  C27 UNL     1       4.212  56.112 -11.444  1.00  0.00     0.015 C 
HETATM   23  C28 UNL     1       5.378  54.812  -9.635  1.00  0.00     0.015 C 
ENDROOT
BRANCH  15  24
HETATM   24  C17 UNL     1       2.742  51.698  -8.423  1.00  0.00     0.014 C 
BRANCH  24  25
HETATM   25  C18 UNL     1       4.097  50.963  -8.572  1.00  0.00    -0.022 C 
HETATM   26  C19 UNL     1       5.022  51.231  -7.378  1.00  0.00     0.009 C 
HETATM   27  C20 UNL     1       4.803  51.423  -9.854  1.00  0.00     0.009 C 
ENDBRANCH  24  25
ENDBRANCH  15  24
BRANCH  13  28
HETATM   28  O5  UNL     1       2.659  52.445 -12.136  1.00  0.00    -0.359 OA
HETATM   29  H15 UNL     1       2.559  52.372 -13.113  1.00  0.00     0.217 HD
ENDBRANCH  13  28
BRANCH  10  30
HETATM   30  C10 UNL     1      -2.357  53.382  -9.736  1.00  0.00     0.275 C 
HETATM   31  O2  UNL     1      -3.169  54.154 -10.235  1.00  0.00    -0.301 OA
ENDBRANCH  10  30
BRANCH  12  32
HETATM   32  C13 UNL     1       0.329  52.433 -13.832  1.00  0.00     0.275 C 
HETATM   33  O4  UNL     1       1.019  51.520 -14.280  1.00  0.00    -0.301 OA
ENDBRANCH  12  32
BRANCH  11  34
HETATM   34  O3  UNL     1      -2.110  52.880 -12.564  1.00  0.00    -0.359 OA
HETATM   35  H13 UNL     1      -2.903  53.053 -11.997  1.00  0.00     0.217 HD
ENDBRANCH  11  34
TORSDOF 6
ENDMDL
MODEL 6
REMARK minimizedAffinity -6.78190041
REMARK  6 active torsions:
REMARK  status: ('A' for Active; 'I' for Inactive)
REMARK    1  A    between atoms: C9_10  and  C10_11 
REMARK    2  A    between atoms: C11_13  and  O3_14 
REMARK    3  A    between atoms: C12_15  and  C13_16 
REMARK    4  A    between atoms: C14_18  and  O5_19 
REMARK    5  A    between atoms: C16_21  and  C17_22 
REMARK    6  A    between atoms: C17_22  and  C18_23 
ROOT
HETATM    1  C1  UNL     1      -7.800  43.322 -25.207  1.00  0.00     0.043 C 
HETATM    2  C2  UNL     1      -8.598  44.503 -25.704  1.00  0.00    -0.087 C 
HETATM    3  C3  UNL     1      -8.048  45.732 -25.695  1.00  0.00    -0.024 C 
HETATM    4  C4  UNL     1      -8.676  47.014 -26.143  1.00  0.00     0.030 C 
HETATM    5  C5  UNL     1      -8.082  47.586 -27.431  1.00  0.00     0.042 C 
HETATM    6  C6  UNL     1      -8.043  46.716 -28.729  1.00  0.00     0.069 C 
HETATM    7  C7  UNL     1      -6.899  45.679 -28.624  1.00  0.00     0.047 C 
HETATM    8  O1  UNL     1      -7.538  47.683 -29.714  1.00  0.00    -0.338 OA
HETATM    9  C8  UNL     1      -7.837  47.426 -31.020  1.00  0.00     0.095 A 
HETATM   10  C9  UNL     1      -6.855  47.604 -32.000  1.00  0.00     0.070 A 
HETATM   11  C11 UNL     1      -7.142  47.305 -33.341  1.00  0.00     0.097 A 
HETATM   12  C12 UNL     1      -8.421  46.861 -33.693  1.00  0.00     0.069 A 
HETATM   13  C14 UNL     1      -9.411  46.731 -32.705  1.00  0.00     0.091 A 
HETATM   14  C15 UNL     1      -9.128  47.027 -31.364  1.00  0.00     0.015 A 
HETATM   15  C16 UNL     1     -10.142  46.904 -30.256  1.00  0.00     0.032 C 
HETATM   16  C21 UNL     1      -9.466  46.099 -29.096  1.00  0.00     0.034 C 
HETATM   17  C22 UNL     1      -9.390  44.623 -29.494  1.00  0.00     0.006 A 
HETATM   18  C23 UNL     1      -9.603  43.388 -28.603  1.00  0.00    -0.001 A 
HETATM   19  C24 UNL     1     -10.177  43.144 -27.231  1.00  0.00     0.010 C 
HETATM   20  C25 UNL     1     -10.013  44.204 -26.150  1.00  0.00     0.034 C 
HETATM   21  C26 UNL     1     -10.594  43.723 -29.725  1.00  0.00    -0.039 A 
HETATM   22  C27 UNL     1     -10.570  42.835 -30.949  1.00  0.00     0.015 C 
HETATM   23  C28 UNL     1     -11.990  44.203 -29.391  1.00  0.00     0.015 C 
ENDROOT
BRANCH  15  24
HETATM   24  C17 UNL     1     -10.723  48.250 -29.755  1.00  0.00     0.014 C 
BRANCH  24  25
HETATM   25  C18 UNL     1     -12.174  48.186 -29.217  1.00  0.00    -0.022 C 
HETATM   26  C19 UNL     1     -12.218  47.721 -27.756  1.00  0.00     0.009 C 
HETATM   27  C20 UNL     1     -13.004  47.215 -30.067  1.00  0.00     0.009 C 
ENDBRANCH  24  25
ENDBRANCH  15  24
BRANCH  13  28
HETATM   28  O5  UNL     1     -10.682  46.311 -33.009  1.00  0.00    -0.359 OA
HETATM   29  H15 UNL     1     -10.707  46.062 -33.962  1.00  0.00     0.217 HD
ENDBRANCH  13  28
BRANCH  10  30
HETATM   30  C10 UNL     1      -5.516  48.084 -31.605  1.00  0.00     0.275 C 
HETATM   31  O2  UNL     1      -4.543  47.346 -31.708  1.00  0.00    -0.301 OA
ENDBRANCH  10  30
BRANCH  12  32
HETATM   32  C13 UNL     1      -8.714  46.525 -35.103  1.00  0.00     0.275 C 
HETATM   33  O4  UNL     1      -8.544  47.358 -35.990  1.00  0.00    -0.301 OA
ENDBRANCH  12  32
BRANCH  11  34
HETATM   34  O3  UNL     1      -6.197  47.431 -34.329  1.00  0.00    -0.359 OA
HETATM   35  H13 UNL     1      -5.353  47.756 -33.925  1.00  0.00     0.217 HD
ENDBRANCH  11  34
TORSDOF 6
ENDMDL
MODEL 7
REMARK minimizedAffinity -6.75298023
REMARK  6 active torsions:
REMARK  status: ('A' for Active; 'I' for Inactive)
REMARK    1  A    between atoms: C9_10  and  C10_11 
REMARK    2  A    between atoms: C11_13  and  O3_14 
REMARK    3  A    between atoms: C12_15  and  C13_16 
REMARK    4  A    between atoms: C14_18  and  O5_19 
REMARK    5  A    between atoms: C16_21  and  C17_22 
REMARK    6  A    between atoms: C17_22  and  C18_23 
ROOT
HETATM    1  C1  UNL     1     -11.453  45.604 -27.221  1.00  0.00     0.043 C 
HETATM    2  C2  UNL     1     -10.274  45.047 -27.981  1.00  0.00    -0.087 C 
HETATM    3  C3  UNL     1     -10.398  43.883 -28.647  1.00  0.00    -0.024 C 
HETATM    4  C4  UNL     1      -9.351  43.177 -29.449  1.00  0.00     0.030 C 
HETATM    5  C5  UNL     1      -9.603  43.191 -30.957  1.00  0.00     0.042 C 
HETATM    6  C6  UNL     1      -9.792  44.550 -31.706  1.00  0.00     0.069 C 
HETATM    7  C7  UNL     1     -11.213  45.099 -31.432  1.00  0.00     0.047 C 
HETATM    8  O1  UNL     1      -9.862  44.106 -33.106  1.00  0.00    -0.338 OA
HETATM    9  C8  UNL     1      -9.536  45.035 -34.050  1.00  0.00     0.095 A 
HETATM   10  C9  UNL     1     -10.309  45.137 -35.211  1.00  0.00     0.070 A 
HETATM   11  C11 UNL     1     -10.004  46.116 -36.170  1.00  0.00     0.097 A 
HETATM   12  C12 UNL     1      -8.907  46.961 -35.974  1.00  0.00     0.069 A 
HETATM   13  C14 UNL     1      -8.112  46.816 -34.824  1.00  0.00     0.091 A 
HETATM   14  C15 UNL     1      -8.414  45.841 -33.863  1.00  0.00     0.015 A 
HETATM   15  C16 UNL     1      -7.606  45.637 -32.607  1.00  0.00     0.032 C 
HETATM   16  C21 UNL     1      -8.613  45.583 -31.411  1.00  0.00     0.034 C 
HETATM   17  C22 UNL     1      -9.120  46.997 -31.122  1.00  0.00     0.006 A 
HETATM   18  C23 UNL     1      -9.402  47.644 -29.756  1.00  0.00    -0.001 A 
HETATM   19  C24 UNL     1      -9.073  47.307 -28.324  1.00  0.00     0.010 C 
HETATM   20  C25 UNL     1      -8.993  45.849 -27.896  1.00  0.00     0.034 C 
HETATM   21  C26 UNL     1      -8.252  48.149 -30.637  1.00  0.00    -0.039 A 
HETATM   22  C27 UNL     1      -8.441  49.489 -31.310  1.00  0.00     0.015 C 
HETATM   23  C28 UNL     1      -6.815  47.909 -30.225  1.00  0.00     0.015 C 
ENDROOT
BRANCH  15  24
HETATM   24  C17 UNL     1      -6.675  44.399 -32.628  1.00  0.00     0.014 C 
BRANCH  24  25
HETATM   25  C18 UNL     1      -5.222  44.654 -32.157  1.00  0.00    -0.022 C 
HETATM   26  C19 UNL     1      -4.662  45.963 -32.729  1.00  0.00     0.009 C 
HETATM   27  C20 UNL     1      -4.318  43.497 -32.601  1.00  0.00     0.009 C 
ENDBRANCH  24  25
ENDBRANCH  15  24
BRANCH  13  28
HETATM   28  O5  UNL     1      -7.020  47.616 -34.598  1.00  0.00    -0.359 OA
HETATM   29  H15 UNL     1      -6.983  48.300 -35.306  1.00  0.00     0.217 HD
ENDBRANCH  13  28
BRANCH  10  30
HETATM   30  C10 UNL     1     -11.454  44.226 -35.402  1.00  0.00     0.275 C 
HETATM   31  O2  UNL     1     -12.467  44.360 -34.724  1.00  0.00    -0.301 OA
ENDBRANCH  10  30
BRANCH  12  32
HETATM   32  C13 UNL     1      -8.602  48.006 -36.975  1.00  0.00     0.275 C 
HETATM   33  O4  UNL     1      -9.486  48.756 -37.381  1.00  0.00    -0.301 OA
ENDBRANCH  12  32
BRANCH  11  34
HETATM   34  O3  UNL     1     -10.758  46.274 -37.308  1.00  0.00    -0.359 OA
HETATM   35  H13 UNL     1     -11.488  45.605 -37.303  1.00  0.00     0.217 HD
ENDBRANCH  11  34
TORSDOF 6
ENDMDL
MODEL 8
REMARK minimizedAffinity -6.70091009
REMARK  6 active torsions:
REMARK  status: ('A' for Active; 'I' for Inactive)
REMARK    1  A    between atoms: C9_10  and  C10_11 
REMARK    2  A    between atoms: C11_13  and  O3_14 
REMARK    3  A    between atoms: C12_15  and  C13_16 
REMARK    4  A    between atoms: C14_18  and  O5_19 
REMARK    5  A    between atoms: C16_21  and  C17_22 
REMARK    6  A    between atoms: C17_22  and  C18_23 
ROOT
HETATM    1  C1  UNL     1       0.240  45.371 -13.773  1.00  0.00     0.043 C 
HETATM    2  C2  UNL     1       0.446  46.670 -14.513  1.00  0.00    -0.087 C 
HETATM    3  C3  UNL     1      -0.605  47.286 -15.087  1.00  0.00    -0.024 C 
HETATM    4  C4  UNL     1      -0.599  48.568 -15.858  1.00  0.00     0.030 C 
HETATM    5  C5  UNL     1      -1.279  49.734 -15.138  1.00  0.00     0.042 C 
HETATM    6  C6  UNL     1      -0.805  50.156 -13.710  1.00  0.00     0.069 C 
HETATM    7  C7  UNL     1      -1.349  49.151 -12.666  1.00  0.00     0.047 C 
HETATM    8  O1  UNL     1      -1.612  51.362 -13.478  1.00  0.00    -0.338 OA
HETATM    9  C8  UNL     1      -1.119  52.252 -12.569  1.00  0.00     0.095 A 
HETATM   10  C9  UNL     1      -1.987  52.848 -11.648  1.00  0.00     0.070 A 
HETATM   11  C11 UNL     1      -1.482  53.735 -10.685  1.00  0.00     0.097 A 
HETATM   12  C12 UNL     1      -0.117  54.043 -10.673  1.00  0.00     0.069 A 
HETATM   13  C14 UNL     1       0.735  53.472 -11.633  1.00  0.00     0.091 A 
HETATM   14  C15 UNL     1       0.235  52.584 -12.596  1.00  0.00     0.015 A 
HETATM   15  C16 UNL     1       1.094  51.933 -13.650  1.00  0.00     0.032 C 
HETATM   16  C21 UNL     1       0.769  50.402 -13.635  1.00  0.00     0.034 C 
HETATM   17  C22 UNL     1       1.412  49.769 -12.400  1.00  0.00     0.006 A 
HETATM   18  C23 UNL     1       2.092  48.395 -12.283  1.00  0.00    -0.001 A 
HETATM   19  C24 UNL     1       2.595  47.364 -13.260  1.00  0.00     0.010 C 
HETATM   20  C25 UNL     1       1.872  47.171 -14.586  1.00  0.00     0.034 C 
HETATM   21  C26 UNL     1       2.910  49.686 -12.146  1.00  0.00    -0.039 A 
HETATM   22  C27 UNL     1       3.399  50.044 -10.761  1.00  0.00     0.015 C 
HETATM   23  C28 UNL     1       3.896  50.080 -13.225  1.00  0.00     0.015 C 
ENDROOT
BRANCH  15  24
HETATM   24  C17 UNL     1       0.949  52.535 -15.070  1.00  0.00     0.014 C 
BRANCH  24  25
HETATM   25  C18 UNL     1       1.767  51.827 -16.177  1.00  0.00    -0.022 C 
HETATM   26  C19 UNL     1       3.213  52.335 -16.227  1.00  0.00     0.009 C 
HETATM   27  C20 UNL     1       1.114  52.066 -17.544  1.00  0.00     0.009 C 
ENDBRANCH  24  25
ENDBRANCH  15  24
BRANCH  13  28
HETATM   28  O5  UNL     1       2.077  53.756 -11.665  1.00  0.00    -0.359 OA
HETATM   29  H15 UNL     1       2.294  54.319 -10.887  1.00  0.00     0.217 HD
ENDBRANCH  13  28
BRANCH  10  30
HETATM   30  C10 UNL     1      -3.424  52.517 -11.687  1.00  0.00     0.275 C 
HETATM   31  O2  UNL     1      -4.249  53.387 -11.942  1.00  0.00    -0.301 OA
ENDBRANCH  10  30
BRANCH  12  32
HETATM   32  C13 UNL     1       0.415  54.960  -9.642  1.00  0.00     0.275 C 
HETATM   33  O4  UNL     1      -0.223  55.180  -8.615  1.00  0.00    -0.301 OA
ENDBRANCH  12  32
BRANCH  11  34
HETATM   34  O3  UNL     1      -2.293  54.315  -9.740  1.00  0.00    -0.359 OA
HETATM   35  H13 UNL     1      -3.222  54.004  -9.881  1.00  0.00     0.217 HD
ENDBRANCH  11  34
TORSDOF 6
ENDMDL
MODEL 9
REMARK minimizedAffinity -6.60261011
REMARK  6 active torsions:
REMARK  status: ('A' for Active; 'I' for Inactive)
REMARK    1  A    between atoms: C9_10  and  C10_11 
REMARK    2  A    between atoms: C11_13  and  O3_14 
REMARK    3  A    between atoms: C12_15  and  C13_16 
REMARK    4  A    between atoms: C14_18  and  O5_19 
REMARK    5  A    between atoms: C16_21  and  C17_22 
REMARK    6  A    between atoms: C17_22  and  C18_23 
ROOT
HETATM    1  C1  UNL     1      -4.885  50.876 -10.427  1.00  0.00     0.043 C 
HETATM    2  C2  UNL     1      -3.830  49.904 -10.897  1.00  0.00    -0.087 C 
HETATM    3  C3  UNL     1      -4.063  49.137 -11.979  1.00  0.00    -0.024 C 
HETATM    4  C4  UNL     1      -3.148  48.124 -12.591  1.00  0.00     0.030 C 
HETATM    5  C5  UNL     1      -2.575  48.536 -13.948  1.00  0.00     0.042 C 
HETATM    6  C6  UNL     1      -1.790  49.880 -14.090  1.00  0.00     0.069 C 
HETATM    7  C7  UNL     1      -2.789  51.063 -14.117  1.00  0.00     0.047 C 
HETATM    8  O1  UNL     1      -1.320  49.799 -15.480  1.00  0.00    -0.338 OA
HETATM    9  C8  UNL     1      -0.218  50.543 -15.789  1.00  0.00     0.095 A 
HETATM   10  C9  UNL     1      -0.182  51.253 -16.993  1.00  0.00     0.070 A 
HETATM   11  C11 UNL     1       0.930  52.051 -17.301  1.00  0.00     0.097 A 
HETATM   12  C12 UNL     1       2.012  52.104 -16.415  1.00  0.00     0.069 A 
HETATM   13  C14 UNL     1       1.981  51.349 -15.231  1.00  0.00     0.091 A 
HETATM   14  C15 UNL     1       0.871  50.552 -14.919  1.00  0.00     0.015 A 
HETATM   15  C16 UNL     1       0.772  49.723 -13.664  1.00  0.00     0.032 C 
HETATM   16  C21 UNL     1      -0.621  50.025 -13.016  1.00  0.00     0.034 C 
HETATM   17  C22 UNL     1      -0.577  51.408 -12.366  1.00  0.00     0.006 A 
HETATM   18  C23 UNL     1      -1.218  51.855 -11.041  1.00  0.00    -0.001 A 
HETATM   19  C24 UNL     1      -1.823  51.150  -9.854  1.00  0.00     0.010 C 
HETATM   20  C25 UNL     1      -2.570  49.840 -10.061  1.00  0.00     0.034 C 
HETATM   21  C26 UNL     1       0.308  51.788 -11.189  1.00  0.00    -0.039 A 
HETATM   22  C27 UNL     1       1.048  53.104 -11.274  1.00  0.00     0.015 C 
HETATM   23  C28 UNL     1       1.100  50.731 -10.449  1.00  0.00     0.015 C 
ENDROOT
BRANCH  15  24
HETATM   24  C17 UNL     1       0.989  48.203 -13.871  1.00  0.00     0.014 C 
BRANCH  24  25
HETATM   25  C18 UNL     1       2.433  47.701 -13.626  1.00  0.00    -0.022 C 
HETATM   26  C19 UNL     1       2.726  46.412 -14.405  1.00  0.00     0.009 C 
HETATM   27  C20 UNL     1       2.647  47.431 -12.131  1.00  0.00     0.009 C 
ENDBRANCH  24  25
ENDBRANCH  15  24
BRANCH  13  28
HETATM   28  O5  UNL     1       3.025  51.363 -14.340  1.00  0.00    -0.359 OA
HETATM   29  H15 UNL     1       3.687  52.024 -14.647  1.00  0.00     0.217 HD
ENDBRANCH  13  28
BRANCH  10  30
HETATM   30  C10 UNL     1      -1.330  51.171 -17.917  1.00  0.00     0.275 C 
HETATM   31  O2  UNL     1      -2.409  51.662 -17.604  1.00  0.00    -0.301 OA
ENDBRANCH  10  30
BRANCH  12  32
HETATM   32  C13 UNL     1       3.173  52.964 -16.732  1.00  0.00     0.275 C 
HETATM   33  O4  UNL     1       4.060  53.142 -15.900  1.00  0.00    -0.301 OA
ENDBRANCH  12  32
BRANCH  11  34
HETATM   34  O3  UNL     1       0.992  52.792 -18.456  1.00  0.00    -0.359 OA
HETATM   35  H13 UNL     1       0.161  52.646 -18.974  1.00  0.00     0.217 HD
ENDBRANCH  11  34
TORSDOF 6
ENDMDL
