MODEL 1
REMARK minimizedAffinity -10.0203609
REMARK CNNscore 0.493862033
REMARK CNNaffinity 7.31100988
REMARK  7 active torsions:
REMARK  status: ('A' for Active; 'I' for Inactive)
REMARK    1  A    between atoms: C4_4  and  C5_5 
REMARK    2  A    between atoms: C5_5  and  C6_6 
REMARK    3  A    between atoms: C6_6  and  C7_7 
REMARK    4  A    between atoms: C7_7  and  C9_9 
REMARK    5  A    between atoms: C18_18  and  O1_19 
REMARK    6  A    between atoms: O1_19  and  C19_20 
REMARK    7  A    between atoms: C19_20  and  C20_22 
ROOT
HETATM    1  C9  UNL     1       1.995   6.967  12.350  1.00  0.00    -0.002 C 
HETATM    2  C10 UNL     1       1.947   8.491  12.062  1.00  0.00     0.006 C 
HETATM    3  C11 UNL     1       0.501   8.957  12.280  1.00  0.00     0.010 C 
HETATM    4  C12 UNL     1      -0.206   7.735  12.856  1.00  0.00     0.023 C 
HETATM    5  C13 UNL     1      -1.710   7.642  12.823  1.00  0.00    -0.070 C 
HETATM    6  C14 UNL     1      -2.534   8.690  12.664  1.00  0.00     0.004 C 
HETATM    7  C15 UNL     1      -3.964   8.557  12.782  1.00  0.00     0.004 C 
HETATM    8  C16 UNL     1      -4.534   7.453  13.297  1.00  0.00    -0.069 C 
HETATM    9  C17 UNL     1      -5.963   7.474  13.778  1.00  0.00     0.067 C 
HETATM   10  C18 UNL     1      -5.990   7.345  15.310  1.00  0.00     0.136 C 
HETATM   11  C26 UNL     1      -5.131   6.172  15.811  1.00  0.00     0.034 C 
HETATM   12  C27 UNL     1      -3.721   6.134  15.196  1.00  0.00     0.017 C 
HETATM   13  C28 UNL     1      -3.727   6.197  13.647  1.00  0.00    -0.013 C 
HETATM   14  C29 UNL     1      -4.416   4.928  13.078  1.00  0.00     0.021 C 
HETATM   15  C30 UNL     1      -2.281   6.241  13.009  1.00  0.00     0.027 C 
HETATM   16  C31 UNL     1      -1.240   5.331  13.696  1.00  0.00     0.011 C 
HETATM   17  C32 UNL     1       0.099   5.238  12.927  1.00  0.00     0.011 C 
HETATM   18  C33 UNL     1       0.499   6.533  12.172  1.00  0.00    -0.033 C 
HETATM   19  C34 UNL     1       0.144   6.404  10.667  1.00  0.00     0.016 C 
ENDROOT
BRANCH  10  20
HETATM   20  O1  UNL     1      -7.365   7.134  15.692  1.00  0.00    -0.312 OA
BRANCH  20  21
HETATM   21  C19 UNL     1      -8.104   6.334  14.883  1.00  0.00     0.293 C 
HETATM   22  O2  UNL     1      -7.854   5.175  14.594  1.00  0.00    -0.259 OA
BRANCH  21  23
HETATM   23  C20 UNL     1      -9.285   7.074  14.364  1.00  0.00     0.039 A 
HETATM   24  C21 UNL     1      -9.639   8.280  14.987  1.00  0.00     0.017 A 
HETATM   25  C22 UNL     1     -10.742   9.009  14.536  1.00  0.00     0.001 A 
HETATM   26  C23 UNL     1     -11.495   8.540  13.459  1.00  0.00     0.000 A 
HETATM   27  C24 UNL     1     -11.149   7.342  12.832  1.00  0.00     0.001 A 
HETATM   28  C25 UNL     1     -10.047   6.610  13.282  1.00  0.00     0.017 A 
ENDBRANCH  21  23
ENDBRANCH  20  21
ENDBRANCH  10  20
BRANCH   1  29
HETATM   29  C7  UNL     1       3.094   6.224  11.533  1.00  0.00    -0.014 C 
HETATM   30  C8  UNL     1       4.196   7.184  11.057  1.00  0.00     0.010 C 
BRANCH  29  31
HETATM   31  C6  UNL     1       2.532   5.505  10.272  1.00  0.00     0.008 C 
BRANCH  31  32
HETATM   32  C5  UNL     1       3.428   5.587   9.027  1.00  0.00     0.028 C 
BRANCH  32  33
HETATM   33  C4  UNL     1       2.619   5.958   7.812  1.00  0.00    -0.025 C 
HETATM   34  C2  UNL     1       2.256   7.188   7.395  1.00  0.00    -0.091 C 
HETATM   35  C1  UNL     1       1.415   7.358   6.156  1.00  0.00     0.042 C 
HETATM   36  C3  UNL     1       2.613   8.482   8.072  1.00  0.00     0.042 C 
ENDBRANCH  32  33
ENDBRANCH  31  32
ENDBRANCH  29  31
ENDBRANCH   1  29
TORSDOF 7
ENDMDL
MODEL 2
REMARK minimizedAffinity -9.51078033
REMARK CNNscore 0.370881706
REMARK CNNaffinity 7.09414101
REMARK  7 active torsions:
REMARK  status: ('A' for Active; 'I' for Inactive)
REMARK    1  A    between atoms: C4_4  and  C5_5 
REMARK    2  A    between atoms: C5_5  and  C6_6 
REMARK    3  A    between atoms: C6_6  and  C7_7 
REMARK    4  A    between atoms: C7_7  and  C9_9 
REMARK    5  A    between atoms: C18_18  and  O1_19 
REMARK    6  A    between atoms: O1_19  and  C19_20 
REMARK    7  A    between atoms: C19_20  and  C20_22 
ROOT
HETATM    1  C9  UNL     1      -7.305   5.228  15.009  1.00  0.00    -0.002 C 
HETATM    2  C10 UNL     1      -7.661   3.957  14.195  1.00  0.00     0.006 C 
HETATM    3  C11 UNL     1      -6.468   3.643  13.282  1.00  0.00     0.010 C 
HETATM    4  C12 UNL     1      -5.391   4.630  13.717  1.00  0.00     0.023 C 
HETATM    5  C13 UNL     1      -4.226   4.931  12.810  1.00  0.00    -0.070 C 
HETATM    6  C14 UNL     1      -3.831   4.148  11.793  1.00  0.00     0.004 C 
HETATM    7  C15 UNL     1      -2.625   4.417  11.051  1.00  0.00     0.004 C 
HETATM    8  C16 UNL     1      -1.709   5.302  11.482  1.00  0.00    -0.069 C 
HETATM    9  C17 UNL     1      -0.305   5.289  10.933  1.00  0.00     0.067 C 
HETATM   10  C18 UNL     1       0.670   4.817  12.025  1.00  0.00     0.136 C 
HETATM   11  C26 UNL     1       0.474   5.577  13.348  1.00  0.00     0.034 C 
HETATM   12  C27 UNL     1      -0.995   5.659  13.800  1.00  0.00     0.017 C 
HETATM   13  C28 UNL     1      -1.943   6.203  12.701  1.00  0.00    -0.013 C 
HETATM   14  C29 UNL     1      -1.572   7.674  12.374  1.00  0.00     0.021 C 
HETATM   15  C30 UNL     1      -3.466   6.213  13.128  1.00  0.00     0.027 C 
HETATM   16  C31 UNL     1      -3.728   6.637  14.589  1.00  0.00     0.011 C 
HETATM   17  C32 UNL     1      -5.227   6.838  14.912  1.00  0.00     0.011 C 
HETATM   18  C33 UNL     1      -6.186   5.895  14.138  1.00  0.00    -0.033 C 
HETATM   19  C34 UNL     1      -6.808   6.643  12.930  1.00  0.00     0.016 C 
ENDROOT
BRANCH  10  20
HETATM   20  O1  UNL     1       2.004   5.048  11.529  1.00  0.00    -0.312 OA
BRANCH  20  21
HETATM   21  C19 UNL     1       2.367   6.342  11.341  1.00  0.00     0.293 C 
HETATM   22  O2  UNL     1       2.768   7.109  12.202  1.00  0.00    -0.259 OA
BRANCH  21  23
HETATM   23  C20 UNL     1       2.196   6.724   9.914  1.00  0.00     0.039 A 
HETATM   24  C21 UNL     1       1.482   7.896   9.622  1.00  0.00     0.017 A 
HETATM   25  C22 UNL     1       1.293   8.295   8.297  1.00  0.00     0.001 A 
HETATM   26  C23 UNL     1       1.819   7.528   7.257  1.00  0.00     0.000 A 
HETATM   27  C24 UNL     1       2.532   6.362   7.538  1.00  0.00     0.001 A 
HETATM   28  C25 UNL     1       2.721   5.960   8.862  1.00  0.00     0.017 A 
ENDBRANCH  21  23
ENDBRANCH  20  21
ENDBRANCH  10  20
BRANCH   1  29
HETATM   29  C7  UNL     1      -8.553   6.073  15.402  1.00  0.00    -0.014 C 
HETATM   30  C8  UNL     1      -9.487   6.299  14.203  1.00  0.00     0.010 C 
BRANCH  29  31
HETATM   31  C6  UNL     1      -8.184   7.474  15.970  1.00  0.00     0.008 C 
BRANCH  31  32
HETATM   32  C5  UNL     1      -9.384   8.357  16.345  1.00  0.00     0.028 C 
BRANCH  32  33
HETATM   33  C4  UNL     1      -9.381   9.630  15.539  1.00  0.00    -0.025 C 
HETATM   34  C2  UNL     1      -9.939  10.816  15.853  1.00  0.00    -0.091 C 
HETATM   35  C1  UNL     1      -9.853  11.979  14.897  1.00  0.00     0.042 C 
HETATM   36  C3  UNL     1     -10.686  11.124  17.122  1.00  0.00     0.042 C 
ENDBRANCH  32  33
ENDBRANCH  31  32
ENDBRANCH  29  31
ENDBRANCH   1  29
TORSDOF 7
ENDMDL
MODEL 3
REMARK minimizedAffinity -9.90658665
REMARK CNNscore 0.33703059
REMARK CNNaffinity 7.06670904
REMARK  7 active torsions:
REMARK  status: ('A' for Active; 'I' for Inactive)
REMARK    1  A    between atoms: C4_4  and  C5_5 
REMARK    2  A    between atoms: C5_5  and  C6_6 
REMARK    3  A    between atoms: C6_6  and  C7_7 
REMARK    4  A    between atoms: C7_7  and  C9_9 
REMARK    5  A    between atoms: C18_18  and  O1_19 
REMARK    6  A    between atoms: O1_19  and  C19_20 
REMARK    7  A    between atoms: C19_20  and  C20_22 
ROOT
HETATM    1  C9  UNL     1      -6.131   6.211  13.416  1.00  0.00    -0.002 C 
HETATM    2  C10 UNL     1      -6.255   7.756  13.375  1.00  0.00     0.006 C 
HETATM    3  C11 UNL     1      -4.838   8.330  13.239  1.00  0.00     0.010 C 
HETATM    4  C12 UNL     1      -3.955   7.106  13.028  1.00  0.00     0.023 C 
HETATM    5  C13 UNL     1      -2.468   7.194  13.262  1.00  0.00    -0.070 C 
HETATM    6  C14 UNL     1      -1.768   8.339  13.292  1.00  0.00     0.004 C 
HETATM    7  C15 UNL     1      -0.330   8.348  13.379  1.00  0.00     0.004 C 
HETATM    8  C16 UNL     1       0.401   7.236  13.186  1.00  0.00    -0.069 C 
HETATM    9  C17 UNL     1       1.876   7.322  12.888  1.00  0.00     0.067 C 
HETATM   10  C18 UNL     1       2.132   6.892  11.434  1.00  0.00     0.136 C 
HETATM   11  C26 UNL     1       1.457   5.553  11.095  1.00  0.00     0.034 C 
HETATM   12  C27 UNL     1      -0.018   5.479  11.528  1.00  0.00     0.017 C 
HETATM   13  C28 UNL     1      -0.237   5.851  13.017  1.00  0.00    -0.013 C 
HETATM   14  C29 UNL     1       0.470   4.808  13.924  1.00  0.00     0.021 C 
HETATM   15  C30 UNL     1      -1.758   5.858  13.450  1.00  0.00     0.027 C 
HETATM   16  C31 UNL     1      -2.608   4.716  12.853  1.00  0.00     0.011 C 
HETATM   17  C32 UNL     1      -4.030   4.628  13.456  1.00  0.00     0.011 C 
HETATM   18  C33 UNL     1      -4.644   5.994  13.863  1.00  0.00    -0.033 C 
HETATM   19  C34 UNL     1      -4.497   6.211  15.392  1.00  0.00     0.016 C 
ENDROOT
BRANCH  10  20
HETATM   20  O1  UNL     1       3.560   6.766  11.275  1.00  0.00    -0.312 OA
BRANCH  20  21
HETATM   21  C19 UNL     1       3.993   6.115  10.168  1.00  0.00     0.293 C 
HETATM   22  O2  UNL     1       4.829   5.225  10.137  1.00  0.00    -0.259 OA
BRANCH  21  23
HETATM   23  C20 UNL     1       3.314   6.646   8.956  1.00  0.00     0.039 A 
HETATM   24  C21 UNL     1       3.200   8.037   8.816  1.00  0.00     0.017 A 
HETATM   25  C22 UNL     1       2.568   8.583   7.696  1.00  0.00     0.001 A 
HETATM   26  C23 UNL     1       2.050   7.744   6.709  1.00  0.00     0.000 A 
HETATM   27  C24 UNL     1       2.161   6.359   6.840  1.00  0.00     0.001 A 
HETATM   28  C25 UNL     1       2.791   5.810   7.959  1.00  0.00     0.017 A 
ENDBRANCH  21  23
ENDBRANCH  20  21
ENDBRANCH  10  20
BRANCH   1  29
HETATM   29  C7  UNL     1      -7.267   5.527  14.234  1.00  0.00    -0.014 C 
HETATM   30  C8  UNL     1      -7.747   4.229  13.565  1.00  0.00     0.010 C 
BRANCH  29  31
HETATM   31  C6  UNL     1      -8.514   6.438  14.421  1.00  0.00     0.008 C 
BRANCH  31  32
HETATM   32  C5  UNL     1      -9.576   6.318  13.318  1.00  0.00     0.028 C 
BRANCH  32  33
HETATM   33  C4  UNL     1     -10.678   7.324  13.526  1.00  0.00    -0.025 C 
HETATM   34  C2  UNL     1     -10.642   8.461  14.247  1.00  0.00    -0.091 C 
HETATM   35  C1  UNL     1     -11.866   9.335  14.359  1.00  0.00     0.042 C 
HETATM   36  C3  UNL     1      -9.450   8.984  15.001  1.00  0.00     0.042 C 
ENDBRANCH  32  33
ENDBRANCH  31  32
ENDBRANCH  29  31
ENDBRANCH   1  29
TORSDOF 7
ENDMDL
MODEL 4
REMARK minimizedAffinity -10.3530941
REMARK CNNscore 0.306843787
REMARK CNNaffinity 6.87124777
REMARK  7 active torsions:
REMARK  status: ('A' for Active; 'I' for Inactive)
REMARK    1  A    between atoms: C4_4  and  C5_5 
REMARK    2  A    between atoms: C5_5  and  C6_6 
REMARK    3  A    between atoms: C6_6  and  C7_7 
REMARK    4  A    between atoms: C7_7  and  C9_9 
REMARK    5  A    between atoms: C18_18  and  O1_19 
REMARK    6  A    between atoms: O1_19  and  C19_20 
REMARK    7  A    between atoms: C19_20  and  C20_22 
ROOT
HETATM    1  C9  UNL     1      -5.048   7.466  14.737  1.00  0.00    -0.002 C 
HETATM    2  C10 UNL     1      -4.736   6.300  15.712  1.00  0.00     0.006 C 
HETATM    3  C11 UNL     1      -3.296   5.844  15.441  1.00  0.00     0.010 C 
HETATM    4  C12 UNL     1      -2.758   6.866  14.447  1.00  0.00     0.023 C 
HETATM    5  C13 UNL     1      -1.538   6.551  13.619  1.00  0.00    -0.070 C 
HETATM    6  C14 UNL     1      -0.642   5.596  13.916  1.00  0.00     0.004 C 
HETATM    7  C15 UNL     1       0.576   5.436  13.164  1.00  0.00     0.004 C 
HETATM    8  C16 UNL     1       1.003   6.371  12.297  1.00  0.00    -0.069 C 
HETATM    9  C17 UNL     1       2.434   6.391  11.825  1.00  0.00     0.067 C 
HETATM   10  C18 UNL     1       3.152   7.619  12.411  1.00  0.00     0.136 C 
HETATM   11  C26 UNL     1       2.356   8.917  12.194  1.00  0.00     0.034 C 
HETATM   12  C27 UNL     1       0.872   8.803  12.584  1.00  0.00     0.017 C 
HETATM   13  C28 UNL     1       0.157   7.596  11.924  1.00  0.00    -0.013 C 
HETATM   14  C29 UNL     1       0.123   7.789  10.385  1.00  0.00     0.021 C 
HETATM   15  C30 UNL     1      -1.346   7.422  12.383  1.00  0.00     0.027 C 
HETATM   16  C31 UNL     1      -2.135   8.740  12.535  1.00  0.00     0.011 C 
HETATM   17  C32 UNL     1      -3.647   8.527  12.780  1.00  0.00     0.011 C 
HETATM   18  C33 UNL     1      -3.996   7.254  13.595  1.00  0.00    -0.033 C 
HETATM   19  C34 UNL     1      -4.448   6.117  12.641  1.00  0.00     0.016 C 
ENDROOT
BRANCH  10  20
HETATM   20  O1  UNL     1       4.428   7.719  11.747  1.00  0.00    -0.312 OA
BRANCH  20  21
HETATM   21  C19 UNL     1       4.678   6.813  10.770  1.00  0.00     0.293 C 
HETATM   22  O2  UNL     1       5.470   5.886  10.833  1.00  0.00    -0.259 OA
BRANCH  21  23
HETATM   23  C20 UNL     1       3.851   7.107   9.568  1.00  0.00     0.039 A 
HETATM   24  C21 UNL     1       3.817   8.427   9.094  1.00  0.00     0.017 A 
HETATM   25  C22 UNL     1       3.054   8.752   7.970  1.00  0.00     0.001 A 
HETATM   26  C23 UNL     1       2.323   7.761   7.313  1.00  0.00     0.000 A 
HETATM   27  C24 UNL     1       2.353   6.446   7.777  1.00  0.00     0.001 A 
HETATM   28  C25 UNL     1       3.114   6.118   8.902  1.00  0.00     0.017 A 
ENDBRANCH  21  23
ENDBRANCH  20  21
ENDBRANCH  10  20
BRANCH   1  29
HETATM   29  C7  UNL     1      -6.556   7.562  14.359  1.00  0.00    -0.014 C 
HETATM   30  C8  UNL     1      -7.315   8.523  15.287  1.00  0.00     0.010 C 
BRANCH  29  31
HETATM   31  C6  UNL     1      -7.286   6.189  14.421  1.00  0.00     0.008 C 
BRANCH  31  32
HETATM   32  C5  UNL     1      -8.050   5.805  13.145  1.00  0.00     0.028 C 
BRANCH  32  33
HETATM   33  C4  UNL     1      -8.208   4.310  13.047  1.00  0.00    -0.025 C 
HETATM   34  C2  UNL     1      -7.254   3.384  12.829  1.00  0.00    -0.091 C 
HETATM   35  C1  UNL     1      -7.613   1.922  12.737  1.00  0.00     0.042 C 
HETATM   36  C3  UNL     1      -5.787   3.663  12.651  1.00  0.00     0.042 C 
ENDBRANCH  32  33
ENDBRANCH  31  32
ENDBRANCH  29  31
ENDBRANCH   1  29
TORSDOF 7
ENDMDL
MODEL 5
REMARK minimizedAffinity -9.81092548
REMARK CNNscore 0.292842299
REMARK CNNaffinity 7.06455278
REMARK  7 active torsions:
REMARK  status: ('A' for Active; 'I' for Inactive)
REMARK    1  A    between atoms: C4_4  and  C5_5 
REMARK    2  A    between atoms: C5_5  and  C6_6 
REMARK    3  A    between atoms: C6_6  and  C7_7 
REMARK    4  A    between atoms: C7_7  and  C9_9 
REMARK    5  A    between atoms: C18_18  and  O1_19 
REMARK    6  A    between atoms: O1_19  and  C19_20 
REMARK    7  A    between atoms: C19_20  and  C20_22 
ROOT
HETATM    1  C9  UNL     1       0.857   6.851  11.716  1.00  0.00    -0.002 C 
HETATM    2  C10 UNL     1       0.818   5.622  10.771  1.00  0.00     0.006 C 
HETATM    3  C11 UNL     1      -0.556   4.957  10.933  1.00  0.00     0.010 C 
HETATM    4  C12 UNL     1      -1.334   5.913  11.828  1.00  0.00     0.023 C 
HETATM    5  C13 UNL     1      -2.565   5.439  12.557  1.00  0.00    -0.070 C 
HETATM    6  C14 UNL     1      -3.274   4.349  12.225  1.00  0.00     0.004 C 
HETATM    7  C15 UNL     1      -4.520   4.026  12.873  1.00  0.00     0.004 C 
HETATM    8  C16 UNL     1      -5.163   4.910  13.655  1.00  0.00    -0.069 C 
HETATM    9  C17 UNL     1      -6.619   4.723  13.998  1.00  0.00     0.067 C 
HETATM   10  C18 UNL     1      -7.455   5.807  13.296  1.00  0.00     0.136 C 
HETATM   11  C26 UNL     1      -6.888   7.218  13.524  1.00  0.00     0.034 C 
HETATM   12  C27 UNL     1      -5.374   7.323  13.273  1.00  0.00     0.017 C 
HETATM   13  C28 UNL     1      -4.551   6.261  14.047  1.00  0.00    -0.013 C 
HETATM   14  C29 UNL     1      -4.692   6.504  15.573  1.00  0.00     0.021 C 
HETATM   15  C30 UNL     1      -3.002   6.308  13.732  1.00  0.00     0.027 C 
HETATM   16  C31 UNL     1      -2.410   7.727  13.592  1.00  0.00     0.011 C 
HETATM   17  C32 UNL     1      -0.867   7.742  13.492  1.00  0.00     0.011 C 
HETATM   18  C33 UNL     1      -0.255   6.514  12.769  1.00  0.00    -0.033 C 
HETATM   19  C34 UNL     1       0.272   5.490  13.809  1.00  0.00     0.016 C 
ENDROOT
BRANCH  10  20
HETATM   20  O1  UNL     1      -8.789   5.729  13.838  1.00  0.00    -0.312 OA
BRANCH  20  21
HETATM   21  C19 UNL     1      -9.079   6.570  14.862  1.00  0.00     0.293 C 
HETATM   22  O2  UNL     1      -8.685   6.466  16.012  1.00  0.00    -0.259 OA
BRANCH  21  23
HETATM   23  C20 UNL     1      -9.977   7.660  14.396  1.00  0.00     0.039 A 
HETATM   24  C21 UNL     1      -9.862   8.920  15.002  1.00  0.00     0.017 A 
HETATM   25  C22 UNL     1     -10.685   9.974  14.600  1.00  0.00     0.001 A 
HETATM   26  C23 UNL     1     -11.626   9.777  13.588  1.00  0.00     0.000 A 
HETATM   27  C24 UNL     1     -11.746   8.528  12.978  1.00  0.00     0.001 A 
HETATM   28  C25 UNL     1     -10.925   7.471  13.379  1.00  0.00     0.017 A 
ENDBRANCH  21  23
ENDBRANCH  20  21
ENDBRANCH  10  20
BRANCH   1  29
HETATM   29  C7  UNL     1       2.291   7.190  12.222  1.00  0.00    -0.014 C 
HETATM   30  C8  UNL     1       2.420   8.670  12.615  1.00  0.00     0.010 C 
BRANCH  29  31
HETATM   31  C6  UNL     1       3.394   6.895  11.164  1.00  0.00     0.008 C 
BRANCH  31  32
HETATM   32  C5  UNL     1       3.590   7.995  10.110  1.00  0.00     0.028 C 
BRANCH  32  33
HETATM   33  C4  UNL     1       3.253   7.482   8.735  1.00  0.00    -0.025 C 
HETATM   34  C2  UNL     1       2.116   7.661   8.034  1.00  0.00    -0.091 C 
HETATM   35  C1  UNL     1       1.952   7.042   6.669  1.00  0.00     0.042 C 
HETATM   36  C3  UNL     1       0.920   8.450   8.492  1.00  0.00     0.042 C 
ENDBRANCH  32  33
ENDBRANCH  31  32
ENDBRANCH  29  31
ENDBRANCH   1  29
TORSDOF 7
ENDMDL
MODEL 6
REMARK minimizedAffinity -7.24791622
REMARK CNNscore 0.261286288
REMARK CNNaffinity 6.27347326
REMARK  7 active torsions:
REMARK  status: ('A' for Active; 'I' for Inactive)
REMARK    1  A    between atoms: C4_4  and  C5_5 
REMARK    2  A    between atoms: C5_5  and  C6_6 
REMARK    3  A    between atoms: C6_6  and  C7_7 
REMARK    4  A    between atoms: C7_7  and  C9_9 
REMARK    5  A    between atoms: C18_18  and  O1_19 
REMARK    6  A    between atoms: O1_19  and  C19_20 
REMARK    7  A    between atoms: C19_20  and  C20_22 
ROOT
HETATM    1  C9  UNL     1     -14.665   4.024  24.661  1.00  0.00    -0.002 C 
HETATM    2  C10 UNL     1     -14.860   3.412  23.249  1.00  0.00     0.006 C 
HETATM    3  C11 UNL     1     -14.470   4.483  22.222  1.00  0.00     0.010 C 
HETATM    4  C12 UNL     1     -13.895   5.617  23.062  1.00  0.00     0.023 C 
HETATM    5  C13 UNL     1     -13.778   7.006  22.485  1.00  0.00    -0.070 C 
HETATM    6  C14 UNL     1     -13.793   7.289  21.173  1.00  0.00     0.004 C 
HETATM    7  C15 UNL     1     -13.537   8.618  20.680  1.00  0.00     0.004 C 
HETATM    8  C16 UNL     1     -13.029   9.582  21.468  1.00  0.00    -0.069 C 
HETATM    9  C17 UNL     1     -12.404  10.818  20.872  1.00  0.00     0.067 C 
HETATM   10  C18 UNL     1     -10.886  10.796  21.121  1.00  0.00     0.136 C 
HETATM   11  C26 UNL     1     -10.542  10.514  22.593  1.00  0.00     0.034 C 
HETATM   12  C27 UNL     1     -11.300   9.311  23.184  1.00  0.00     0.017 C 
HETATM   13  C28 UNL     1     -12.834   9.394  22.977  1.00  0.00    -0.013 C 
HETATM   14  C29 UNL     1     -13.399  10.610  23.758  1.00  0.00     0.021 C 
HETATM   15  C30 UNL     1     -13.613   8.124  23.508  1.00  0.00     0.027 C 
HETATM   16  C31 UNL     1     -13.088   7.551  24.842  1.00  0.00     0.011 C 
HETATM   17  C32 UNL     1     -13.994   6.447  25.435  1.00  0.00     0.011 C 
HETATM   18  C33 UNL     1     -14.713   5.566  24.380  1.00  0.00    -0.033 C 
HETATM   19  C34 UNL     1     -16.178   6.041  24.197  1.00  0.00     0.016 C 
ENDROOT
BRANCH  10  20
HETATM   20  O1  UNL     1     -10.378  12.093  20.747  1.00  0.00    -0.312 OA
BRANCH  20  21
HETATM   21  C19 UNL     1      -9.937  12.887  21.754  1.00  0.00     0.293 C 
HETATM   22  O2  UNL     1     -10.623  13.378  22.637  1.00  0.00    -0.259 OA
BRANCH  21  23
HETATM   23  C20 UNL     1      -8.470  13.103  21.637  1.00  0.00     0.039 A 
HETATM   24  C21 UNL     1      -7.939  13.382  20.370  1.00  0.00     0.017 A 
HETATM   25  C22 UNL     1      -6.568  13.591  20.210  1.00  0.00     0.001 A 
HETATM   26  C23 UNL     1      -5.719  13.525  21.315  1.00  0.00     0.000 A 
HETATM   27  C24 UNL     1      -6.239  13.251  22.581  1.00  0.00     0.001 A 
HETATM   28  C25 UNL     1      -7.610  13.040  22.744  1.00  0.00     0.017 A 
ENDBRANCH  21  23
ENDBRANCH  20  21
ENDBRANCH  10  20
BRANCH   1  29
HETATM   29  C7  UNL     1     -15.630   3.426  25.727  1.00  0.00    -0.014 C 
HETATM   30  C8  UNL     1     -16.396   4.524  26.481  1.00  0.00     0.010 C 
BRANCH  29  31
HETATM   31  C6  UNL     1     -14.897   2.559  26.792  1.00  0.00     0.008 C 
BRANCH  31  32
HETATM   32  C5  UNL     1     -13.384   2.799  26.891  1.00  0.00     0.028 C 
BRANCH  32  33
HETATM   33  C4  UNL     1     -12.621   1.649  26.287  1.00  0.00    -0.025 C 
HETATM   34  C2  UNL     1     -11.846   1.652  25.184  1.00  0.00    -0.091 C 
HETATM   35  C1  UNL     1     -11.177   0.384  24.716  1.00  0.00     0.042 C 
HETATM   36  C3  UNL     1     -11.561   2.847  24.316  1.00  0.00     0.042 C 
ENDBRANCH  32  33
ENDBRANCH  31  32
ENDBRANCH  29  31
ENDBRANCH   1  29
TORSDOF 7
ENDMDL
MODEL 7
REMARK minimizedAffinity -9.04658985
REMARK CNNscore 0.258924603
REMARK CNNaffinity 6.87026072
REMARK  7 active torsions:
REMARK  status: ('A' for Active; 'I' for Inactive)
REMARK    1  A    between atoms: C4_4  and  C5_5 
REMARK    2  A    between atoms: C5_5  and  C6_6 
REMARK    3  A    between atoms: C6_6  and  C7_7 
REMARK    4  A    between atoms: C7_7  and  C9_9 
REMARK    5  A    between atoms: C18_18  and  O1_19 
REMARK    6  A    between atoms: O1_19  and  C19_20 
REMARK    7  A    between atoms: C19_20  and  C20_22 
ROOT
HETATM    1  C9  UNL     1       1.038   7.621  13.917  1.00  0.00    -0.002 C 
HETATM    2  C10 UNL     1       0.850   9.101  13.495  1.00  0.00     0.006 C 
HETATM    3  C11 UNL     1      -0.658   9.359  13.373  1.00  0.00     0.010 C 
HETATM    4  C12 UNL     1      -1.302   8.081  13.896  1.00  0.00     0.023 C 
HETATM    5  C13 UNL     1      -2.738   7.765  13.567  1.00  0.00    -0.070 C 
HETATM    6  C14 UNL     1      -3.641   8.668  13.153  1.00  0.00     0.004 C 
HETATM    7  C15 UNL     1      -5.033   8.331  12.989  1.00  0.00     0.004 C 
HETATM    8  C16 UNL     1      -5.548   7.186  13.471  1.00  0.00    -0.069 C 
HETATM    9  C17 UNL     1      -7.036   7.022  13.648  1.00  0.00     0.067 C 
HETATM   10  C18 UNL     1      -7.372   6.977  15.148  1.00  0.00     0.136 C 
HETATM   11  C26 UNL     1      -6.492   5.975  15.913  1.00  0.00     0.034 C 
HETATM   12  C27 UNL     1      -4.990   6.112  15.603  1.00  0.00     0.017 C 
HETATM   13  C28 UNL     1      -4.674   6.085  14.086  1.00  0.00    -0.013 C 
HETATM   14  C29 UNL     1      -5.050   4.698  13.500  1.00  0.00     0.021 C 
HETATM   15  C30 UNL     1      -3.144   6.307  13.754  1.00  0.00     0.027 C 
HETATM   16  C31 UNL     1      -2.162   5.601  14.714  1.00  0.00     0.011 C 
HETATM   17  C32 UNL     1      -0.690   5.665  14.244  1.00  0.00     0.011 C 
HETATM   18  C33 UNL     1      -0.313   6.960  13.477  1.00  0.00    -0.033 C 
HETATM   19  C34 UNL     1      -0.319   6.695  11.949  1.00  0.00     0.016 C 
ENDROOT
BRANCH  10  20
HETATM   20  O1  UNL     1      -8.756   6.586  15.259  1.00  0.00    -0.312 OA
BRANCH  20  21
HETATM   21  C19 UNL     1      -9.616   7.523  15.732  1.00  0.00     0.293 C 
HETATM   22  O2  UNL     1      -9.558   8.066  16.823  1.00  0.00    -0.259 OA
BRANCH  21  23
HETATM   23  C20 UNL     1     -10.680   7.801  14.730  1.00  0.00     0.039 A 
HETATM   24  C21 UNL     1     -11.579   6.772  14.414  1.00  0.00     0.017 A 
HETATM   25  C22 UNL     1     -12.593   6.986  13.478  1.00  0.00     0.001 A 
HETATM   26  C23 UNL     1     -12.717   8.228  12.855  1.00  0.00     0.000 A 
HETATM   27  C24 UNL     1     -11.828   9.258  13.165  1.00  0.00     0.001 A 
HETATM   28  C25 UNL     1     -10.811   9.047  14.100  1.00  0.00     0.017 A 
ENDBRANCH  21  23
ENDBRANCH  20  21
ENDBRANCH  10  20
BRANCH   1  29
HETATM   29  C7  UNL     1       2.376   7.004  13.408  1.00  0.00    -0.014 C 
HETATM   30  C8  UNL     1       3.574   7.916  13.710  1.00  0.00     0.010 C 
BRANCH  29  31
HETATM   31  C6  UNL     1       2.375   6.733  11.876  1.00  0.00     0.008 C 
BRANCH  31  32
HETATM   32  C5  UNL     1       3.579   7.310  11.117  1.00  0.00     0.028 C 
BRANCH  32  33
HETATM   33  C4  UNL     1       3.140   7.942   9.821  1.00  0.00    -0.025 C 
HETATM   34  C2  UNL     1       2.859   7.335   8.651  1.00  0.00    -0.091 C 
HETATM   35  C1  UNL     1       2.456   8.146   7.446  1.00  0.00     0.042 C 
HETATM   36  C3  UNL     1       2.910   5.853   8.399  1.00  0.00     0.042 C 
ENDBRANCH  32  33
ENDBRANCH  31  32
ENDBRANCH  29  31
ENDBRANCH   1  29
TORSDOF 7
ENDMDL
MODEL 8
REMARK minimizedAffinity -9.54748344
REMARK CNNscore 0.232231662
REMARK CNNaffinity 6.27043962
REMARK  7 active torsions:
REMARK  status: ('A' for Active; 'I' for Inactive)
REMARK    1  A    between atoms: C4_4  and  C5_5 
REMARK    2  A    between atoms: C5_5  and  C6_6 
REMARK    3  A    between atoms: C6_6  and  C7_7 
REMARK    4  A    between atoms: C7_7  and  C9_9 
REMARK    5  A    between atoms: C18_18  and  O1_19 
REMARK    6  A    between atoms: O1_19  and  C19_20 
REMARK    7  A    between atoms: C19_20  and  C20_22 
ROOT
HETATM    1  C9  UNL     1      -5.447   6.766  14.832  1.00  0.00    -0.002 C 
HETATM    2  C10 UNL     1      -4.508   5.561  14.562  1.00  0.00     0.006 C 
HETATM    3  C11 UNL     1      -3.089   5.980  14.969  1.00  0.00     0.010 C 
HETATM    4  C12 UNL     1      -3.273   7.343  15.625  1.00  0.00     0.023 C 
HETATM    5  C13 UNL     1      -2.096   8.272  15.788  1.00  0.00    -0.070 C 
HETATM    6  C14 UNL     1      -0.811   7.887  15.743  1.00  0.00     0.004 C 
HETATM    7  C15 UNL     1       0.265   8.796  16.046  1.00  0.00     0.004 C 
HETATM    8  C16 UNL     1       0.045   9.990  16.625  1.00  0.00    -0.069 C 
HETATM    9  C17 UNL     1       1.167  10.746  17.288  1.00  0.00     0.067 C 
HETATM   10  C18 UNL     1       0.947  10.761  18.811  1.00  0.00     0.136 C 
HETATM   11  C26 UNL     1      -0.476  11.204  19.189  1.00  0.00     0.034 C 
HETATM   12  C27 UNL     1      -1.579  10.482  18.395  1.00  0.00     0.017 C 
HETATM   13  C28 UNL     1      -1.367  10.542  16.861  1.00  0.00    -0.013 C 
HETATM   14  C29 UNL     1      -1.466  12.014  16.379  1.00  0.00     0.021 C 
HETATM   15  C30 UNL     1      -2.450   9.733  16.040  1.00  0.00     0.027 C 
HETATM   16  C31 UNL     1      -3.891   9.846  16.580  1.00  0.00     0.011 C 
HETATM   17  C32 UNL     1      -4.950   9.219  15.643  1.00  0.00     0.011 C 
HETATM   18  C33 UNL     1      -4.456   7.981  14.849  1.00  0.00    -0.033 C 
HETATM   19  C34 UNL     1      -4.074   8.392  13.403  1.00  0.00     0.016 C 
ENDROOT
BRANCH  10  20
HETATM   20  O1  UNL     1       1.905  11.684  19.367  1.00  0.00    -0.312 OA
BRANCH  20  21
HETATM   21  C19 UNL     1       3.108  11.171  19.724  1.00  0.00     0.293 C 
HETATM   22  O2  UNL     1       4.091  11.078  19.008  1.00  0.00    -0.259 OA
BRANCH  21  23
HETATM   23  C20 UNL     1       3.073  10.707  21.137  1.00  0.00     0.039 A 
HETATM   24  C21 UNL     1       2.673   9.387  21.393  1.00  0.00     0.017 A 
HETATM   25  C22 UNL     1       2.623   8.907  22.703  1.00  0.00     0.001 A 
HETATM   26  C23 UNL     1       2.975   9.740  23.765  1.00  0.00     0.000 A 
HETATM   27  C24 UNL     1       3.376  11.054  23.520  1.00  0.00     0.001 A 
HETATM   28  C25 UNL     1       3.426  11.538  22.211  1.00  0.00     0.017 A 
ENDBRANCH  21  23
ENDBRANCH  20  21
ENDBRANCH  10  20
BRANCH   1  29
HETATM   29  C7  UNL     1      -6.675   6.813  13.875  1.00  0.00    -0.014 C 
HETATM   30  C8  UNL     1      -7.999   6.895  14.652  1.00  0.00     0.010 C 
BRANCH  29  31
HETATM   31  C6  UNL     1      -6.765   5.572  12.940  1.00  0.00     0.008 C 
BRANCH  31  32
HETATM   32  C5  UNL     1      -7.182   4.267  13.635  1.00  0.00     0.028 C 
BRANCH  32  33
HETATM   33  C4  UNL     1      -7.118   3.108  12.675  1.00  0.00    -0.025 C 
HETATM   34  C2  UNL     1      -6.040   2.614  12.035  1.00  0.00    -0.091 C 
HETATM   35  C1  UNL     1      -6.180   1.453  11.084  1.00  0.00     0.042 C 
HETATM   36  C3  UNL     1      -4.632   3.125  12.169  1.00  0.00     0.042 C 
ENDBRANCH  32  33
ENDBRANCH  31  32
ENDBRANCH  29  31
ENDBRANCH   1  29
TORSDOF 7
ENDMDL
MODEL 9
REMARK minimizedAffinity -7.42000675
REMARK CNNscore 0.221701726
REMARK CNNaffinity 6.17270231
REMARK  7 active torsions:
REMARK  status: ('A' for Active; 'I' for Inactive)
REMARK    1  A    between atoms: C4_4  and  C5_5 
REMARK    2  A    between atoms: C5_5  and  C6_6 
REMARK    3  A    between atoms: C6_6  and  C7_7 
REMARK    4  A    between atoms: C7_7  and  C9_9 
REMARK    5  A    between atoms: C18_18  and  O1_19 
REMARK    6  A    between atoms: O1_19  and  C19_20 
REMARK    7  A    between atoms: C19_20  and  C20_22 
ROOT
HETATM    1  C9  UNL     1      -3.852  13.033  17.357  1.00  0.00    -0.002 C 
HETATM    2  C10 UNL     1      -2.503  13.625  17.842  1.00  0.00     0.006 C 
HETATM    3  C11 UNL     1      -1.393  12.655  17.418  1.00  0.00     0.010 C 
HETATM    4  C12 UNL     1      -2.105  11.624  16.550  1.00  0.00     0.023 C 
HETATM    5  C13 UNL     1      -1.464  10.287  16.278  1.00  0.00    -0.070 C 
HETATM    6  C14 UNL     1      -0.155  10.027  16.422  1.00  0.00     0.004 C 
HETATM    7  C15 UNL     1       0.420   8.771  16.012  1.00  0.00     0.004 C 
HETATM    8  C16 UNL     1      -0.257   7.896  15.247  1.00  0.00    -0.069 C 
HETATM    9  C17 UNL     1       0.464   6.798  14.507  1.00  0.00     0.067 C 
HETATM   10  C18 UNL     1       0.413   7.079  12.995  1.00  0.00     0.136 C 
HETATM   11  C26 UNL     1      -1.012   7.392  12.509  1.00  0.00     0.034 C 
HETATM   12  C27 UNL     1      -1.743   8.435  13.373  1.00  0.00     0.017 C 
HETATM   13  C28 UNL     1      -1.735   8.091  14.884  1.00  0.00    -0.013 C 
HETATM   14  C29 UNL     1      -2.534   6.782  15.125  1.00  0.00     0.021 C 
HETATM   15  C30 UNL     1      -2.411   9.197  15.789  1.00  0.00     0.027 C 
HETATM   16  C31 UNL     1      -3.688   9.831  15.194  1.00  0.00     0.011 C 
HETATM   17  C32 UNL     1      -4.437  10.751  16.186  1.00  0.00     0.011 C 
HETATM   18  C33 UNL     1      -3.519  11.511  17.180  1.00  0.00    -0.033 C 
HETATM   19  C34 UNL     1      -3.509  10.792  18.554  1.00  0.00     0.016 C 
ENDROOT
BRANCH  10  20
HETATM   20  O1  UNL     1       0.901   5.896  12.329  1.00  0.00    -0.312 OA
BRANCH  20  21
HETATM   21  C19 UNL     1       0.471   5.693  11.059  1.00  0.00     0.293 C 
HETATM   22  O2  UNL     1      -0.395   4.907  10.710  1.00  0.00    -0.259 OA
BRANCH  21  23
HETATM   23  C20 UNL     1       1.221   6.563  10.114  1.00  0.00     0.039 A 
HETATM   24  C21 UNL     1       2.617   6.439  10.063  1.00  0.00     0.017 A 
HETATM   25  C22 UNL     1       3.364   7.236   9.193  1.00  0.00     0.001 A 
HETATM   26  C23 UNL     1       2.721   8.159   8.368  1.00  0.00     0.000 A 
HETATM   27  C24 UNL     1       1.333   8.288   8.411  1.00  0.00     0.001 A 
HETATM   28  C25 UNL     1       0.583   7.493   9.281  1.00  0.00     0.017 A 
ENDBRANCH  21  23
ENDBRANCH  20  21
ENDBRANCH  10  20
BRANCH   1  29
HETATM   29  C7  UNL     1      -5.058  13.437  18.258  1.00  0.00    -0.014 C 
HETATM   30  C8  UNL     1      -6.254  13.921  17.423  1.00  0.00     0.010 C 
BRANCH  29  31
HETATM   31  C6  UNL     1      -4.710  14.570  19.266  1.00  0.00     0.008 C 
BRANCH  31  32
HETATM   32  C5  UNL     1      -4.673  14.137  20.739  1.00  0.00     0.028 C 
BRANCH  32  33
HETATM   33  C4  UNL     1      -5.936  13.404  21.111  1.00  0.00    -0.025 C 
HETATM   34  C2  UNL     1      -7.104  13.921  21.540  1.00  0.00    -0.091 C 
HETATM   35  C1  UNL     1      -8.258  13.016  21.891  1.00  0.00     0.042 C 
HETATM   36  C3  UNL     1      -7.400  15.384  21.722  1.00  0.00     0.042 C 
ENDBRANCH  32  33
ENDBRANCH  31  32
ENDBRANCH  29  31
ENDBRANCH   1  29
TORSDOF 7
ENDMDL
