MODEL 1
REMARK minimizedAffinity -10.2357826
REMARK CNNscore 0.709947348
REMARK CNNaffinity 7.50181389
REMARK  13 active torsions:
REMARK  status: ('A' for Active; 'I' for Inactive)
REMARK    1  A    between atoms: C2_2  and  C3_3 
REMARK    2  A    between atoms: C2_2  and  C26_30 
REMARK    3  A    between atoms: C4_4  and  C5_5 
REMARK    4  A    between atoms: C5_5  and  C7_7 
REMARK    5  A    between atoms: C9_9  and  O1_10 
REMARK    6  A    between atoms: C20_21  and  O2_22 
REMARK    7  A    between atoms: C23_25  and  O3_26 
REMARK    8  A    between atoms: C25_28  and  O4_29 
REMARK    9  A    between atoms: C26_30  and  C28_32 
REMARK       I    between atoms: C28_32  and  N1_34 
REMARK   10  A    between atoms: N1_34  and  C29_35 
REMARK   11  A    between atoms: C29_35  and  C30_36 
REMARK   12  A    between atoms: C30_36  and  O6_37 
REMARK   13  A    between atoms: O6_37  and  S1_38 
ROOT
HETATM    1  C7  UNL     1      -5.255   5.786  13.720  1.00  0.00     0.005 C 
HETATM    2  C8  UNL     1      -6.015   4.509  13.256  1.00  0.00     0.038 C 
HETATM    3  C9  UNL     1      -7.516   4.841  13.355  1.00  0.00     0.126 C 
HETATM    4  C10 UNL     1      -7.560   6.299  13.808  1.00  0.00     0.059 C 
HETATM    5  C11 UNL     1      -6.277   6.472  14.685  1.00  0.00    -0.015 C 
HETATM    6  C12 UNL     1      -6.290   5.771  16.060  1.00  0.00     0.018 C 
HETATM    7  C13 UNL     1      -6.099   7.987  14.908  1.00  0.00     0.123 A 
HETATM    8  C14 UNL     1      -7.354   8.634  15.532  1.00  0.00     0.122 A 
HETATM    9  C15 UNL     1      -8.633   8.389  14.689  1.00  0.00     0.046 C 
HETATM   10  C16 UNL     1      -9.916   9.154  15.203  1.00  0.00    -0.030 C 
HETATM   11  C17 UNL     1     -10.275   8.743  16.653  1.00  0.00     0.016 C 
HETATM   12  C18 UNL     1      -9.651  10.698  15.201  1.00  0.00     0.012 C 
HETATM   13  C19 UNL     1     -10.769  11.554  14.590  1.00  0.00     0.032 C 
HETATM   14  C20 UNL     1     -12.172  11.069  14.931  1.00  0.00     0.118 C 
HETATM   15  C21 UNL     1     -12.390   9.587  14.602  1.00  0.00     0.039 C 
HETATM   16  C22 UNL     1     -11.090   8.850  14.218  1.00  0.00     0.025 C 
HETATM   17  C23 UNL     1     -11.320   7.345  14.004  1.00  0.00     0.126 C 
HETATM   18  C24 UNL     1     -10.052   6.666  13.479  1.00  0.00     0.071 C 
HETATM   19  C25 UNL     1      -8.856   6.864  14.421  1.00  0.00     0.073 C 
HETATM   20 NA1  UNL     1      -5.322   7.493  14.813  1.00  0.00    -0.420 Na
ATOM     21  HA1 UNL     1      -4.464   6.980  14.609  1.00  0.00     0.153 HD
ENDROOT
BRANCH   1  22
HETATM   22  C5  UNL     1      -3.770   5.536  14.111  1.00  0.00     0.009 C 
HETATM   23  C6  UNL     1      -3.362   5.875  15.552  1.00  0.00     0.014 C 
BRANCH  22  24
HETATM   24  C4  UNL     1      -2.831   6.072  13.051  1.00  0.00    -0.026 C 
HETATM   25  C3  UNL     1      -1.823   6.945  13.207  1.00  0.00    -0.025 C 
BRANCH  25  26
HETATM   26  C2  UNL     1      -0.923   7.388  12.064  1.00  0.00     0.016 C 
HETATM   27  C1  UNL     1      -1.066   8.907  11.910  1.00  0.00     0.015 C 
BRANCH  26  28
HETATM   28  C26 UNL     1       0.535   6.938  12.331  1.00  0.00     0.081 C 
HETATM   29  C27 UNL     1       1.535   8.100  12.354  1.00  0.00     0.020 C 
BRANCH  28  30
HETATM   30  C28 UNL     1       1.013   5.943  11.266  1.00  0.00     0.222 C 
HETATM   31  O5  UNL     1       0.274   5.128  10.722  1.00  0.00    -0.273 OA
HETATM   32  N1  UNL     1       2.340   6.114  10.923  1.00  0.00    -0.359 N 
HETATM   33  H46 UNL     1       2.928   6.637  11.559  1.00  0.00     0.162 HD
BRANCH  32  34
HETATM   34  C29 UNL     1       3.015   5.190  10.025  1.00  0.00     0.150 C 
BRANCH  34  35
HETATM   35  C30 UNL     1       3.169   5.769   8.626  1.00  0.00     0.212 C 
BRANCH  35  36
HETATM   36  O6  UNL     1       3.434   7.155   8.720  1.00  0.00    -0.255 OA
BRANCH  36  37
HETATM   37  S1  UNL     1       2.437   8.148   7.893  1.00  0.00     0.251 S 
HETATM   38  O7  UNL     1       1.989   7.323   6.774  1.00  0.00    -0.572 OA
HETATM   39  O8  UNL     1       1.391   8.471   8.861  1.00  0.00    -0.572 OA
HETATM   40  O9  UNL     1       3.298   9.268   7.528  1.00  0.00    -0.572 OA
ENDBRANCH  36  37
ENDBRANCH  35  36
ENDBRANCH  34  35
ENDBRANCH  32  34
ENDBRANCH  28  30
ENDBRANCH  26  28
ENDBRANCH  25  26
ENDBRANCH  22  24
ENDBRANCH   1  22
BRANCH   3  41
HETATM   41  O1  UNL     1      -8.170   3.993  14.294  1.00  0.00    -0.395 OA
HETATM   42  H15 UNL     1      -8.070   3.080  13.966  1.00  0.00     0.210 HD
ENDBRANCH   3  41
BRANCH  19  43
HETATM   43  O4  UNL     1      -9.163   6.169  15.626  1.00  0.00    -0.389 OA
HETATM   44  H41 UNL     1      -9.014   5.214  15.438  1.00  0.00     0.210 HD
ENDBRANCH  19  43
BRANCH  17  45
HETATM   45  O3  UNL     1     -12.343   7.148  13.023  1.00  0.00    -0.395 OA
HETATM   46  H38 UNL     1     -13.185   7.080  13.508  1.00  0.00     0.210 HD
ENDBRANCH  17  45
BRANCH  14  47
HETATM   47  O2  UNL     1     -12.445  11.285  16.314  1.00  0.00    -0.396 OA
HETATM   48  H33 UNL     1     -12.242  12.213  16.516  1.00  0.00     0.210 HD
ENDBRANCH  14  47
TORSDOF 13
ENDMDL
MODEL 2
REMARK minimizedAffinity -9.28361702
REMARK CNNscore 0.648432672
REMARK CNNaffinity 7.30983353
REMARK  13 active torsions:
REMARK  status: ('A' for Active; 'I' for Inactive)
REMARK    1  A    between atoms: C2_2  and  C3_3 
REMARK    2  A    between atoms: C2_2  and  C26_30 
REMARK    3  A    between atoms: C4_4  and  C5_5 
REMARK    4  A    between atoms: C5_5  and  C7_7 
REMARK    5  A    between atoms: C9_9  and  O1_10 
REMARK    6  A    between atoms: C20_21  and  O2_22 
REMARK    7  A    between atoms: C23_25  and  O3_26 
REMARK    8  A    between atoms: C25_28  and  O4_29 
REMARK    9  A    between atoms: C26_30  and  C28_32 
REMARK       I    between atoms: C28_32  and  N1_34 
REMARK   10  A    between atoms: N1_34  and  C29_35 
REMARK   11  A    between atoms: C29_35  and  C30_36 
REMARK   12  A    between atoms: C30_36  and  O6_37 
REMARK   13  A    between atoms: O6_37  and  S1_38 
ROOT
HETATM    1  C7  UNL     1      -1.873   9.539  15.501  1.00  0.00     0.005 C 
HETATM    2  C8  UNL     1      -0.900   9.079  16.625  1.00  0.00     0.038 C 
HETATM    3  C9  UNL     1       0.284   8.393  15.918  1.00  0.00     0.126 C 
HETATM    4  C10 UNL     1      -0.020   8.538  14.428  1.00  0.00     0.059 C 
HETATM    5  C11 UNL     1      -1.582   8.523  14.348  1.00  0.00    -0.015 C 
HETATM    6  C12 UNL     1      -2.266   7.167  14.623  1.00  0.00     0.018 C 
HETATM    7  C13 UNL     1      -1.952   8.979  12.922  1.00  0.00     0.123 A 
HETATM    8  C14 UNL     1      -1.278   8.108  11.840  1.00  0.00     0.122 A 
HETATM    9  C15 UNL     1       0.266   8.073  11.979  1.00  0.00     0.046 C 
HETATM   10  C16 UNL     1       1.015   7.319  10.810  1.00  0.00    -0.030 C 
HETATM   11  C17 UNL     1       0.561   5.840  10.710  1.00  0.00     0.016 C 
HETATM   12  C18 UNL     1       0.691   8.007   9.440  1.00  0.00     0.012 C 
HETATM   13  C19 UNL     1       1.902   8.262   8.533  1.00  0.00     0.032 C 
HETATM   14  C20 UNL     1       2.928   7.136   8.544  1.00  0.00     0.118 C 
HETATM   15  C21 UNL     1       3.387   6.757   9.957  1.00  0.00     0.039 C 
HETATM   16  C22 UNL     1       2.552   7.426  11.069  1.00  0.00     0.025 C 
HETATM   17  C23 UNL     1       2.960   6.940  12.470  1.00  0.00     0.126 C 
HETATM   18  C24 UNL     1       2.225   7.727  13.559  1.00  0.00     0.071 C 
HETATM   19  C25 UNL     1       0.699   7.627  13.415  1.00  0.00     0.073 C 
HETATM   20 NA1  UNL     1      -2.520   9.252  13.600  1.00  0.00    -0.420 Na
ATOM     21  HA1 UNL     1      -3.096   9.644  14.345  1.00  0.00     0.153 HD
ENDROOT
BRANCH   1  22
HETATM   22  C5  UNL     1      -3.314   9.855  15.995  1.00  0.00     0.009 C 
HETATM   23  C6  UNL     1      -3.455  10.421  17.416  1.00  0.00     0.014 C 
BRANCH  22  24
HETATM   24  C4  UNL     1      -4.259   8.715  15.679  1.00  0.00    -0.026 C 
HETATM   25  C3  UNL     1      -5.420   8.768  15.007  1.00  0.00    -0.025 C 
BRANCH  25  26
HETATM   26  C2  UNL     1      -6.274   7.542  14.724  1.00  0.00     0.016 C 
HETATM   27  C1  UNL     1      -5.509   6.307  15.213  1.00  0.00     0.015 C 
BRANCH  26  28
HETATM   28  C26 UNL     1      -7.665   7.699  15.388  1.00  0.00     0.081 C 
HETATM   29  C27 UNL     1      -7.728   7.121  16.807  1.00  0.00     0.020 C 
BRANCH  28  30
HETATM   30  C28 UNL     1      -8.756   7.006  14.561  1.00  0.00     0.222 C 
HETATM   31  O5  UNL     1      -8.521   6.162  13.702  1.00  0.00    -0.273 OA
HETATM   32  N1  UNL     1     -10.034   7.369  14.941  1.00  0.00    -0.359 N 
HETATM   33  H46 UNL     1     -10.142   8.216  15.484  1.00  0.00     0.162 HD
BRANCH  32  34
HETATM   34  C29 UNL     1     -11.200   6.920  14.198  1.00  0.00     0.150 C 
BRANCH  34  35
HETATM   35  C30 UNL     1     -11.518   7.841  13.028  1.00  0.00     0.212 C 
BRANCH  35  36
HETATM   36  O6  UNL     1     -12.913   7.835  12.795  1.00  0.00    -0.255 OA
BRANCH  36  37
HETATM   37  S1  UNL     1     -13.671   9.279  12.857  1.00  0.00     0.251 S 
HETATM   38  O7  UNL     1     -15.083   8.926  12.725  1.00  0.00    -0.572 OA
HETATM   39  O8  UNL     1     -13.300   9.806  14.169  1.00  0.00    -0.572 OA
HETATM   40  O9  UNL     1     -13.109  10.008  11.726  1.00  0.00    -0.572 OA
ENDBRANCH  36  37
ENDBRANCH  35  36
ENDBRANCH  34  35
ENDBRANCH  32  34
ENDBRANCH  28  30
ENDBRANCH  26  28
ENDBRANCH  25  26
ENDBRANCH  22  24
ENDBRANCH   1  22
BRANCH   3  41
HETATM   41  O1  UNL     1       0.382   7.022  16.290  1.00  0.00    -0.395 OA
HETATM   42  H15 UNL     1       0.536   7.002  17.253  1.00  0.00     0.210 HD
ENDBRANCH   3  41
BRANCH  19  43
HETATM   43  O4  UNL     1       0.353   6.266  13.658  1.00  0.00    -0.389 OA
HETATM   44  H41 UNL     1       0.392   6.143  14.634  1.00  0.00     0.210 HD
ENDBRANCH  19  43
BRANCH  17  45
HETATM   45  O3  UNL     1       4.361   7.156  12.665  1.00  0.00    -0.395 OA
HETATM   46  H38 UNL     1       4.811   6.338  12.388  1.00  0.00     0.210 HD
ENDBRANCH  17  45
BRANCH  14  47
HETATM   47  O2  UNL     1       2.397   5.980   7.900  1.00  0.00    -0.396 OA
HETATM   48  H33 UNL     1       2.056   6.253   7.032  1.00  0.00     0.210 HD
ENDBRANCH  14  47
TORSDOF 13
ENDMDL
MODEL 3
REMARK minimizedAffinity -8.49818897
REMARK CNNscore 0.592176318
REMARK CNNaffinity 7.4552331
REMARK  13 active torsions:
REMARK  status: ('A' for Active; 'I' for Inactive)
REMARK    1  A    between atoms: C2_2  and  C3_3 
REMARK    2  A    between atoms: C2_2  and  C26_30 
REMARK    3  A    between atoms: C4_4  and  C5_5 
REMARK    4  A    between atoms: C5_5  and  C7_7 
REMARK    5  A    between atoms: C9_9  and  O1_10 
REMARK    6  A    between atoms: C20_21  and  O2_22 
REMARK    7  A    between atoms: C23_25  and  O3_26 
REMARK    8  A    between atoms: C25_28  and  O4_29 
REMARK    9  A    between atoms: C26_30  and  C28_32 
REMARK       I    between atoms: C28_32  and  N1_34 
REMARK   10  A    between atoms: N1_34  and  C29_35 
REMARK   11  A    between atoms: C29_35  and  C30_36 
REMARK   12  A    between atoms: C30_36  and  O6_37 
REMARK   13  A    between atoms: O6_37  and  S1_38 
ROOT
HETATM    1  C7  UNL     1      -6.605   5.562  14.214  1.00  0.00     0.005 C 
HETATM    2  C8  UNL     1      -5.587   4.589  13.551  1.00  0.00     0.038 C 
HETATM    3  C9  UNL     1      -4.187   5.149  13.865  1.00  0.00     0.126 C 
HETATM    4  C10 UNL     1      -4.449   6.374  14.739  1.00  0.00     0.059 C 
HETATM    5  C11 UNL     1      -5.828   6.919  14.241  1.00  0.00    -0.015 C 
HETATM    6  C12 UNL     1      -5.836   7.585  12.849  1.00  0.00     0.018 C 
HETATM    7  C13 UNL     1      -6.292   7.955  15.284  1.00  0.00     0.123 A 
HETATM    8  C14 UNL     1      -5.244   9.066  15.507  1.00  0.00     0.122 A 
HETATM    9  C15 UNL     1      -3.860   8.505  15.927  1.00  0.00     0.046 C 
HETATM   10  C16 UNL     1      -2.793   9.604  16.312  1.00  0.00    -0.030 C 
HETATM   11  C17 UNL     1      -2.522  10.566  15.128  1.00  0.00     0.016 C 
HETATM   12  C18 UNL     1      -3.325  10.465  17.509  1.00  0.00     0.012 C 
HETATM   13  C19 UNL     1      -2.317  10.705  18.641  1.00  0.00     0.032 C 
HETATM   14  C20 UNL     1      -0.894  10.953  18.157  1.00  0.00     0.118 C 
HETATM   15  C21 UNL     1      -0.385   9.861  17.208  1.00  0.00     0.039 C 
HETATM   16  C22 UNL     1      -1.487   8.876  16.765  1.00  0.00     0.025 C 
HETATM   17  C23 UNL     1      -0.974   7.863  15.728  1.00  0.00     0.126 C 
HETATM   18  C24 UNL     1      -2.040   6.808  15.419  1.00  0.00     0.071 C 
HETATM   19  C25 UNL     1      -3.344   7.436  14.907  1.00  0.00     0.073 C 
HETATM   20 NA1  UNL     1      -6.955   7.440  14.895  1.00  0.00    -0.420 Na
ATOM     21  HA1 UNL     1      -7.683   6.814  14.550  1.00  0.00     0.153 HD
ENDROOT
BRANCH   1  22
HETATM   22  C5  UNL     1      -8.055   5.437  13.665  1.00  0.00     0.009 C 
HETATM   23  C6  UNL     1      -8.210   5.114  12.172  1.00  0.00     0.014 C 
BRANCH  22  24
HETATM   24  C4  UNL     1      -8.920   6.581  14.152  1.00  0.00    -0.026 C 
HETATM   25  C3  UNL     1     -10.132   6.948  13.704  1.00  0.00    -0.025 C 
BRANCH  25  26
HETATM   26  C2  UNL     1     -10.922   8.104  14.296  1.00  0.00     0.016 C 
HETATM   27  C1  UNL     1      -9.928   9.082  14.933  1.00  0.00     0.015 C 
BRANCH  26  28
HETATM   28  C26 UNL     1     -11.805   8.758  13.204  1.00  0.00     0.081 C 
HETATM   29  C27 UNL     1     -12.213  10.198  13.536  1.00  0.00     0.020 C 
BRANCH  28  30
HETATM   30  C28 UNL     1     -13.093   7.957  12.978  1.00  0.00     0.222 C 
HETATM   31  O5  UNL     1     -13.179   6.747  13.165  1.00  0.00    -0.273 OA
HETATM   32  N1  UNL     1     -14.168   8.750  12.623  1.00  0.00    -0.359 N 
HETATM   33  H46 UNL     1     -13.973   9.680  12.275  1.00  0.00     0.162 HD
BRANCH  32  34
HETATM   34  C29 UNL     1     -15.445   8.168  12.243  1.00  0.00     0.150 C 
BRANCH  34  35
HETATM   35  C30 UNL     1     -16.248   9.097  11.344  1.00  0.00     0.212 C 
BRANCH  35  36
HETATM   36  O6  UNL     1     -17.611   9.045  11.718  1.00  0.00    -0.255 OA
BRANCH  36  37
HETATM   37  S1  UNL     1     -18.699   9.459  10.575  1.00  0.00     0.251 S 
HETATM   38  O7  UNL     1     -19.396   8.204  10.300  1.00  0.00    -0.572 OA
HETATM   39  O8  UNL     1     -19.520  10.474  11.231  1.00  0.00    -0.572 OA
HETATM   40  O9  UNL     1     -17.872   9.957   9.481  1.00  0.00    -0.572 OA
ENDBRANCH  36  37
ENDBRANCH  35  36
ENDBRANCH  34  35
ENDBRANCH  32  34
ENDBRANCH  28  30
ENDBRANCH  26  28
ENDBRANCH  25  26
ENDBRANCH  22  24
ENDBRANCH   1  22
BRANCH   3  41
HETATM   41  O1  UNL     1      -3.496   5.508  12.673  1.00  0.00    -0.395 OA
HETATM   42  H15 UNL     1      -3.399   4.693  12.147  1.00  0.00     0.210 HD
ENDBRANCH   3  41
BRANCH  19  43
HETATM   43  O4  UNL     1      -3.048   8.028  13.646  1.00  0.00    -0.389 OA
HETATM   44  H41 UNL     1      -3.007   7.288  12.998  1.00  0.00     0.210 HD
ENDBRANCH  19  43
BRANCH  17  45
HETATM   45  O3  UNL     1       0.165   7.173  16.251  1.00  0.00    -0.395 OA
HETATM   46  H38 UNL     1       0.950   7.673  15.965  1.00  0.00     0.210 HD
ENDBRANCH  17  45
BRANCH  14  47
HETATM   47  O2  UNL     1      -0.810  12.217  17.502  1.00  0.00    -0.396 OA
HETATM   48  H33 UNL     1      -1.194  12.885  18.093  1.00  0.00     0.210 HD
ENDBRANCH  14  47
TORSDOF 13
ENDMDL
MODEL 4
REMARK minimizedAffinity -8.54719162
REMARK CNNscore 0.577232957
REMARK CNNaffinity 7.58326387
REMARK  13 active torsions:
REMARK  status: ('A' for Active; 'I' for Inactive)
REMARK    1  A    between atoms: C2_2  and  C3_3 
REMARK    2  A    between atoms: C2_2  and  C26_30 
REMARK    3  A    between atoms: C4_4  and  C5_5 
REMARK    4  A    between atoms: C5_5  and  C7_7 
REMARK    5  A    between atoms: C9_9  and  O1_10 
REMARK    6  A    between atoms: C20_21  and  O2_22 
REMARK    7  A    between atoms: C23_25  and  O3_26 
REMARK    8  A    between atoms: C25_28  and  O4_29 
REMARK    9  A    between atoms: C26_30  and  C28_32 
REMARK       I    between atoms: C28_32  and  N1_34 
REMARK   10  A    between atoms: N1_34  and  C29_35 
REMARK   11  A    between atoms: C29_35  and  C30_36 
REMARK   12  A    between atoms: C30_36  and  O6_37 
REMARK   13  A    between atoms: O6_37  and  S1_38 
ROOT
HETATM    1  C7  UNL     1      -7.571   4.842  14.142  1.00  0.00     0.005 C 
HETATM    2  C8  UNL     1      -6.702   5.094  15.408  1.00  0.00     0.038 C 
HETATM    3  C9  UNL     1      -7.395   6.225  16.191  1.00  0.00     0.126 C 
HETATM    4  C10 UNL     1      -8.656   6.535  15.385  1.00  0.00     0.059 C 
HETATM    5  C11 UNL     1      -8.255   6.229  13.905  1.00  0.00    -0.015 C 
HETATM    6  C12 UNL     1      -7.273   7.220  13.244  1.00  0.00     0.018 C 
HETATM    7  C13 UNL     1      -9.564   6.218  13.089  1.00  0.00     0.123 A 
HETATM    8  C14 UNL     1     -10.357   7.533  13.246  1.00  0.00     0.122 A 
HETATM    9  C15 UNL     1     -10.681   7.862  14.726  1.00  0.00     0.046 C 
HETATM   10  C16 UNL     1     -11.618   9.117  14.932  1.00  0.00    -0.030 C 
HETATM   11  C17 UNL     1     -10.982  10.400  14.339  1.00  0.00     0.016 C 
HETATM   12  C18 UNL     1     -12.985   8.886  14.201  1.00  0.00     0.012 C 
HETATM   13  C19 UNL     1     -14.234   9.233  15.022  1.00  0.00     0.032 C 
HETATM   14  C20 UNL     1     -14.082  10.485  15.876  1.00  0.00     0.118 C 
HETATM   15  C21 UNL     1     -12.841  10.450  16.776  1.00  0.00     0.039 C 
HETATM   16  C22 UNL     1     -11.893   9.272  16.462  1.00  0.00     0.025 C 
HETATM   17  C23 UNL     1     -10.605   9.327  17.301  1.00  0.00     0.126 C 
HETATM   18  C24 UNL     1      -9.755   8.073  17.082  1.00  0.00     0.071 C 
HETATM   19  C25 UNL     1      -9.386   7.874  15.605  1.00  0.00     0.073 C 
HETATM   20 NA1  UNL     1      -8.915   5.610  12.831  1.00  0.00    -0.420 Na
ATOM     21  HA1 UNL     1      -8.253   4.870  12.601  1.00  0.00     0.153 HD
ENDROOT
BRANCH   1  22
HETATM   22  C5  UNL     1      -6.840   4.064  13.012  1.00  0.00     0.009 C 
HETATM   23  C6  UNL     1      -6.653   2.553  13.213  1.00  0.00     0.014 C 
BRANCH  22  24
HETATM   24  C4  UNL     1      -5.590   4.796  12.569  1.00  0.00    -0.026 C 
HETATM   25  C3  UNL     1      -4.368   4.752  13.122  1.00  0.00    -0.025 C 
BRANCH  25  26
HETATM   26  C2  UNL     1      -3.175   5.513  12.566  1.00  0.00     0.016 C 
HETATM   27  C1  UNL     1      -3.221   6.941  13.123  1.00  0.00     0.015 C 
BRANCH  26  28
HETATM   28  C26 UNL     1      -1.861   4.767  12.912  1.00  0.00     0.081 C 
HETATM   29  C27 UNL     1      -1.053   5.445  14.023  1.00  0.00     0.020 C 
BRANCH  28  30
HETATM   30  C28 UNL     1      -0.949   4.654  11.684  1.00  0.00     0.222 C 
HETATM   31  O5  UNL     1      -1.172   3.902  10.741  1.00  0.00    -0.273 OA
HETATM   32  N1  UNL     1       0.106   5.547  11.711  1.00  0.00    -0.359 N 
HETATM   33  H46 UNL     1       0.349   5.963  12.601  1.00  0.00     0.162 HD
BRANCH  32  34
HETATM   34  C29 UNL     1       1.153   5.512  10.703  1.00  0.00     0.150 C 
BRANCH  34  35
HETATM   35  C30 UNL     1       1.441   6.894  10.134  1.00  0.00     0.212 C 
BRANCH  35  36
HETATM   36  O6  UNL     1       2.237   6.764   8.973  1.00  0.00    -0.255 OA
BRANCH  36  37
HETATM   37  S1  UNL     1       1.806   7.670   7.685  1.00  0.00     0.251 S 
HETATM   38  O7  UNL     1       0.469   8.143   8.036  1.00  0.00    -0.572 OA
HETATM   39  O8  UNL     1       2.825   8.717   7.644  1.00  0.00    -0.572 OA
HETATM   40  O9  UNL     1       1.856   6.728   6.573  1.00  0.00    -0.572 OA
ENDBRANCH  36  37
ENDBRANCH  35  36
ENDBRANCH  34  35
ENDBRANCH  32  34
ENDBRANCH  28  30
ENDBRANCH  26  28
ENDBRANCH  25  26
ENDBRANCH  22  24
ENDBRANCH   1  22
BRANCH   3  41
HETATM   41  O1  UNL     1      -6.556   7.372  16.291  1.00  0.00    -0.395 OA
HETATM   42  H15 UNL     1      -5.758   7.095  16.778  1.00  0.00     0.210 HD
ENDBRANCH   3  41
BRANCH  19  43
HETATM   43  O4  UNL     1      -8.531   8.955  15.247  1.00  0.00    -0.389 OA
HETATM   44  H41 UNL     1      -7.646   8.742  15.623  1.00  0.00     0.210 HD
ENDBRANCH  19  43
BRANCH  17  45
HETATM   45  O3  UNL     1     -10.939   9.375  18.692  1.00  0.00    -0.395 OA
HETATM   46  H38 UNL     1     -10.987  10.317  18.935  1.00  0.00     0.210 HD
ENDBRANCH  17  45
BRANCH  14  47
HETATM   47  O2  UNL     1     -14.022  11.643  15.045  1.00  0.00    -0.396 OA
HETATM   48  H33 UNL     1     -14.783  11.615  14.441  1.00  0.00     0.210 HD
ENDBRANCH  14  47
TORSDOF 13
ENDMDL
MODEL 5
REMARK minimizedAffinity -9.30807781
REMARK CNNscore 0.566852868
REMARK CNNaffinity 7.10996246
REMARK  13 active torsions:
REMARK  status: ('A' for Active; 'I' for Inactive)
REMARK    1  A    between atoms: C2_2  and  C3_3 
REMARK    2  A    between atoms: C2_2  and  C26_30 
REMARK    3  A    between atoms: C4_4  and  C5_5 
REMARK    4  A    between atoms: C5_5  and  C7_7 
REMARK    5  A    between atoms: C9_9  and  O1_10 
REMARK    6  A    between atoms: C20_21  and  O2_22 
REMARK    7  A    between atoms: C23_25  and  O3_26 
REMARK    8  A    between atoms: C25_28  and  O4_29 
REMARK    9  A    between atoms: C26_30  and  C28_32 
REMARK       I    between atoms: C28_32  and  N1_34 
REMARK   10  A    between atoms: N1_34  and  C29_35 
REMARK   11  A    between atoms: C29_35  and  C30_36 
REMARK   12  A    between atoms: C30_36  and  O6_37 
REMARK   13  A    between atoms: O6_37  and  S1_38 
ROOT
HETATM    1  C7  UNL     1      -5.148   5.925  13.570  1.00  0.00     0.005 C 
HETATM    2  C8  UNL     1      -5.874   4.605  13.177  1.00  0.00     0.038 C 
HETATM    3  C9  UNL     1      -7.381   4.873  13.348  1.00  0.00     0.126 C 
HETATM    4  C10 UNL     1      -7.467   6.339  13.769  1.00  0.00     0.059 C 
HETATM    5  C11 UNL     1      -6.148   6.590  14.572  1.00  0.00    -0.015 C 
HETATM    6  C12 UNL     1      -6.059   5.924  15.962  1.00  0.00     0.018 C 
HETATM    7  C13 UNL     1      -6.027   8.117  14.750  1.00  0.00     0.123 A 
HETATM    8  C14 UNL     1      -7.276   8.724  15.425  1.00  0.00     0.122 A 
HETATM    9  C15 UNL     1      -8.584   8.402  14.658  1.00  0.00     0.046 C 
HETATM   10  C16 UNL     1      -9.872   9.123  15.222  1.00  0.00    -0.030 C 
HETATM   11  C17 UNL     1     -10.136   8.733  16.698  1.00  0.00     0.016 C 
HETATM   12  C18 UNL     1      -9.677  10.677  15.170  1.00  0.00     0.012 C 
HETATM   13  C19 UNL     1     -10.863  11.468  14.600  1.00  0.00     0.032 C 
HETATM   14  C20 UNL     1     -12.223  10.930  15.026  1.00  0.00     0.118 C 
HETATM   15  C21 UNL     1     -12.391   9.433  14.744  1.00  0.00     0.039 C 
HETATM   16  C22 UNL     1     -11.081   8.744  14.307  1.00  0.00     0.025 C 
HETATM   17  C23 UNL     1     -11.254   7.225  14.141  1.00  0.00     0.126 C 
HETATM   18  C24 UNL     1      -9.986   6.589  13.564  1.00  0.00     0.071 C 
HETATM   19  C25 UNL     1      -8.753   6.862  14.437  1.00  0.00     0.073 C 
HETATM   20 NA1  UNL     1      -5.235   7.655  14.625  1.00  0.00    -0.420 Na
ATOM     21  HA1 UNL     1      -4.367   7.174  14.389  1.00  0.00     0.153 HD
ENDROOT
BRANCH   1  22
HETATM   22  C5  UNL     1      -3.636   5.750  13.887  1.00  0.00     0.009 C 
HETATM   23  C6  UNL     1      -3.213   5.875  15.358  1.00  0.00     0.014 C 
BRANCH  22  24
HETATM   24  C4  UNL     1      -2.782   6.542  12.920  1.00  0.00    -0.026 C 
HETATM   25  C3  UNL     1      -1.446   6.517  12.786  1.00  0.00    -0.025 C 
BRANCH  25  26
HETATM   26  C2  UNL     1      -0.699   7.342  11.751  1.00  0.00     0.016 C 
HETATM   27  C1  UNL     1      -1.111   8.809  11.924  1.00  0.00     0.015 C 
BRANCH  26  28
HETATM   28  C26 UNL     1       0.828   7.118  11.895  1.00  0.00     0.081 C 
HETATM   29  C27 UNL     1       1.223   5.638  11.930  1.00  0.00     0.020 C 
BRANCH  28  30
HETATM   30  C28 UNL     1       1.365   7.768  13.176  1.00  0.00     0.222 C 
HETATM   31  O5  UNL     1       0.884   8.780  13.675  1.00  0.00    -0.273 OA
HETATM   32  N1  UNL     1       2.394   7.050  13.755  1.00  0.00    -0.359 N 
HETATM   33  H46 UNL     1       2.876   6.370  13.181  1.00  0.00     0.162 HD
BRANCH  32  34
HETATM   34  C29 UNL     1       3.122   7.563  14.905  1.00  0.00     0.150 C 
BRANCH  34  35
HETATM   35  C30 UNL     1       4.498   8.086  14.519  1.00  0.00     0.212 C 
BRANCH  35  36
HETATM   36  O6  UNL     1       5.177   8.515  15.683  1.00  0.00    -0.255 OA
BRANCH  36  37
HETATM   37  S1  UNL     1       6.785   8.762  15.542  1.00  0.00     0.251 S 
HETATM   38  O7  UNL     1       7.195   7.771  14.550  1.00  0.00    -0.572 OA
HETATM   39  O8  UNL     1       6.882  10.148  15.088  1.00  0.00    -0.572 OA
HETATM   40  O9  UNL     1       7.285   8.527  16.892  1.00  0.00    -0.572 OA
ENDBRANCH  36  37
ENDBRANCH  35  36
ENDBRANCH  34  35
ENDBRANCH  32  34
ENDBRANCH  28  30
ENDBRANCH  26  28
ENDBRANCH  25  26
ENDBRANCH  22  24
ENDBRANCH   1  22
BRANCH   3  41
HETATM   41  O1  UNL     1      -7.946   4.022  14.340  1.00  0.00    -0.395 OA
HETATM   42  H15 UNL     1      -7.823   3.106  14.028  1.00  0.00     0.210 HD
ENDBRANCH   3  41
BRANCH  19  43
HETATM   43  O4  UNL     1      -8.965   6.185  15.672  1.00  0.00    -0.389 OA
HETATM   44  H41 UNL     1      -8.783   5.233  15.498  1.00  0.00     0.210 HD
ENDBRANCH  19  43
BRANCH  17  45
HETATM   45  O3  UNL     1     -12.317   6.959  13.221  1.00  0.00    -0.395 OA
HETATM   46  H38 UNL     1     -13.129   6.867  13.751  1.00  0.00     0.210 HD
ENDBRANCH  17  45
BRANCH  14  47
HETATM   47  O2  UNL     1     -12.433  11.169  16.416  1.00  0.00    -0.396 OA
HETATM   48  H33 UNL     1     -12.262  12.110  16.586  1.00  0.00     0.210 HD
ENDBRANCH  14  47
TORSDOF 13
ENDMDL
MODEL 6
REMARK minimizedAffinity -8.670825
REMARK CNNscore 0.554751277
REMARK CNNaffinity 6.97407579
REMARK  13 active torsions:
REMARK  status: ('A' for Active; 'I' for Inactive)
REMARK    1  A    between atoms: C2_2  and  C3_3 
REMARK    2  A    between atoms: C2_2  and  C26_30 
REMARK    3  A    between atoms: C4_4  and  C5_5 
REMARK    4  A    between atoms: C5_5  and  C7_7 
REMARK    5  A    between atoms: C9_9  and  O1_10 
REMARK    6  A    between atoms: C20_21  and  O2_22 
REMARK    7  A    between atoms: C23_25  and  O3_26 
REMARK    8  A    between atoms: C25_28  and  O4_29 
REMARK    9  A    between atoms: C26_30  and  C28_32 
REMARK       I    between atoms: C28_32  and  N1_34 
REMARK   10  A    between atoms: N1_34  and  C29_35 
REMARK   11  A    between atoms: C29_35  and  C30_36 
REMARK   12  A    between atoms: C30_36  and  O6_37 
REMARK   13  A    between atoms: O6_37  and  S1_38 
ROOT
HETATM    1  C7  UNL     1      -7.002   6.672  13.686  1.00  0.00     0.005 C 
HETATM    2  C8  UNL     1      -7.166   7.996  14.486  1.00  0.00     0.038 C 
HETATM    3  C9  UNL     1      -5.765   8.633  14.562  1.00  0.00     0.126 C 
HETATM    4  C10 UNL     1      -4.871   7.691  13.758  1.00  0.00     0.059 C 
HETATM    5  C11 UNL     1      -5.513   6.279  13.959  1.00  0.00    -0.015 C 
HETATM    6  C12 UNL     1      -5.357   5.652  15.361  1.00  0.00     0.018 C 
HETATM    7  C13 UNL     1      -4.850   5.344  12.927  1.00  0.00     0.123 A 
HETATM    8  C14 UNL     1      -3.311   5.337  13.054  1.00  0.00     0.122 A 
HETATM    9  C15 UNL     1      -2.695   6.754  12.928  1.00  0.00     0.046 C 
HETATM   10  C16 UNL     1      -1.116   6.786  12.902  1.00  0.00    -0.030 C 
HETATM   11  C17 UNL     1      -0.518   6.174  14.194  1.00  0.00     0.016 C 
HETATM   12  C18 UNL     1      -0.588   5.944  11.690  1.00  0.00     0.012 C 
HETATM   13  C19 UNL     1       0.509   6.617  10.854  1.00  0.00     0.032 C 
HETATM   14  C20 UNL     1       1.524   7.397  11.680  1.00  0.00     0.118 C 
HETATM   15  C21 UNL     1       0.872   8.412  12.627  1.00  0.00     0.039 C 
HETATM   16  C22 UNL     1      -0.663   8.269  12.711  1.00  0.00     0.025 C 
HETATM   17  C23 UNL     1      -1.276   9.222  13.751  1.00  0.00     0.126 C 
HETATM   18  C24 UNL     1      -2.805   9.169  13.708  1.00  0.00     0.071 C 
HETATM   19  C25 UNL     1      -3.342   7.751  13.947  1.00  0.00     0.073 C 
HETATM   20 NA1  UNL     1      -5.745   5.190  13.104  1.00  0.00    -0.420 Na
ATOM     21  HA1 UNL     1      -6.753   5.074  13.212  1.00  0.00     0.153 HD
ENDROOT
BRANCH   1  22
HETATM   22  C5  UNL     1      -8.179   5.671  13.863  1.00  0.00     0.009 C 
HETATM   23  C6  UNL     1      -8.217   4.465  12.913  1.00  0.00     0.014 C 
BRANCH  22  24
HETATM   24  C4  UNL     1      -9.498   6.401  14.002  1.00  0.00    -0.026 C 
HETATM   25  C3  UNL     1     -10.321   6.812  13.024  1.00  0.00    -0.025 C 
BRANCH  25  26
HETATM   26  C2  UNL     1     -11.643   7.514  13.289  1.00  0.00     0.016 C 
HETATM   27  C1  UNL     1     -12.220   6.961  14.597  1.00  0.00     0.015 C 
BRANCH  26  28
HETATM   28  C26 UNL     1     -11.432   9.049  13.318  1.00  0.00     0.081 C 
HETATM   29  C27 UNL     1     -11.204   9.604  14.728  1.00  0.00     0.020 C 
BRANCH  28  30
HETATM   30  C28 UNL     1     -12.640   9.786  12.725  1.00  0.00     0.222 C 
HETATM   31  O5  UNL     1     -13.495   9.239  12.036  1.00  0.00    -0.273 OA
HETATM   32  N1  UNL     1     -12.710  11.110  13.114  1.00  0.00    -0.359 N 
HETATM   33  H46 UNL     1     -11.870  11.538  13.484  1.00  0.00     0.162 HD
BRANCH  32  34
HETATM   34  C29 UNL     1     -13.708  12.010  12.559  1.00  0.00     0.150 C 
BRANCH  34  35
HETATM   35  C30 UNL     1     -15.081  11.785  13.174  1.00  0.00     0.212 C 
BRANCH  35  36
HETATM   36  O6  UNL     1     -15.855  12.960  13.031  1.00  0.00    -0.255 OA
BRANCH  36  37
HETATM   37  S1  UNL     1     -16.854  13.025  11.742  1.00  0.00     0.251 S 
HETATM   38  O7  UNL     1     -18.082  13.594  12.294  1.00  0.00    -0.572 OA
HETATM   39  O8  UNL     1     -16.152  13.900  10.806  1.00  0.00    -0.572 OA
HETATM   40  O9  UNL     1     -16.955  11.633  11.318  1.00  0.00    -0.572 OA
ENDBRANCH  36  37
ENDBRANCH  35  36
ENDBRANCH  34  35
ENDBRANCH  32  34
ENDBRANCH  28  30
ENDBRANCH  26  28
ENDBRANCH  25  26
ENDBRANCH  22  24
ENDBRANCH   1  22
BRANCH   3  41
HETATM   41  O1  UNL     1      -5.318   8.736  15.910  1.00  0.00    -0.395 OA
HETATM   42  H15 UNL     1      -5.952   9.315  16.373  1.00  0.00     0.210 HD
ENDBRANCH   3  41
BRANCH  19  43
HETATM   43  O4  UNL     1      -3.008   7.406  15.288  1.00  0.00    -0.389 OA
HETATM   44  H41 UNL     1      -3.653   7.879  15.862  1.00  0.00     0.210 HD
ENDBRANCH  19  43
BRANCH  17  45
HETATM   45  O3  UNL     1      -0.890  10.569  13.455  1.00  0.00    -0.395 OA
HETATM   46  H38 UNL     1      -0.077  10.743  13.961  1.00  0.00     0.210 HD
ENDBRANCH  17  45
BRANCH  14  47
HETATM   47  O2  UNL     1       2.331   6.501  12.442  1.00  0.00    -0.396 OA
HETATM   48  H33 UNL     1       2.684   5.830  11.835  1.00  0.00     0.210 HD
ENDBRANCH  14  47
TORSDOF 13
ENDMDL
MODEL 7
REMARK minimizedAffinity -8.63797379
REMARK CNNscore 0.529479027
REMARK CNNaffinity 6.9514966
REMARK  13 active torsions:
REMARK  status: ('A' for Active; 'I' for Inactive)
REMARK    1  A    between atoms: C2_2  and  C3_3 
REMARK    2  A    between atoms: C2_2  and  C26_30 
REMARK    3  A    between atoms: C4_4  and  C5_5 
REMARK    4  A    between atoms: C5_5  and  C7_7 
REMARK    5  A    between atoms: C9_9  and  O1_10 
REMARK    6  A    between atoms: C20_21  and  O2_22 
REMARK    7  A    between atoms: C23_25  and  O3_26 
REMARK    8  A    between atoms: C25_28  and  O4_29 
REMARK    9  A    between atoms: C26_30  and  C28_32 
REMARK       I    between atoms: C28_32  and  N1_34 
REMARK   10  A    between atoms: N1_34  and  C29_35 
REMARK   11  A    between atoms: C29_35  and  C30_36 
REMARK   12  A    between atoms: C30_36  and  O6_37 
REMARK   13  A    between atoms: O6_37  and  S1_38 
ROOT
HETATM    1  C7  UNL     1      -6.635   6.901  13.802  1.00  0.00     0.005 C 
HETATM    2  C8  UNL     1      -6.753   8.176  14.686  1.00  0.00     0.038 C 
HETATM    3  C9  UNL     1      -5.335   8.772  14.777  1.00  0.00     0.126 C 
HETATM    4  C10 UNL     1      -4.478   7.860  13.901  1.00  0.00     0.059 C 
HETATM    5  C11 UNL     1      -5.152   6.455  14.025  1.00  0.00    -0.015 C 
HETATM    6  C12 UNL     1      -4.991   5.738  15.382  1.00  0.00     0.018 C 
HETATM    7  C13 UNL     1      -4.529   5.571  12.925  1.00  0.00     0.123 A 
HETATM    8  C14 UNL     1      -2.990   5.518  13.025  1.00  0.00     0.122 A 
HETATM    9  C15 UNL     1      -2.340   6.925  12.977  1.00  0.00     0.046 C 
HETATM   10  C16 UNL     1      -0.761   6.919  12.925  1.00  0.00    -0.030 C 
HETATM   11  C17 UNL     1      -0.158   6.213  14.166  1.00  0.00     0.016 C 
HETATM   12  C18 UNL     1      -0.273   6.143  11.655  1.00  0.00     0.012 C 
HETATM   13  C19 UNL     1       0.827   6.839  10.843  1.00  0.00     0.032 C 
HETATM   14  C20 UNL     1       1.874   7.541  11.700  1.00  0.00     0.118 C 
HETATM   15  C21 UNL     1       1.263   8.510  12.719  1.00  0.00     0.039 C 
HETATM   16  C22 UNL     1      -0.273   8.400  12.820  1.00  0.00     0.025 C 
HETATM   17  C23 UNL     1      -0.846   9.301  13.928  1.00  0.00     0.126 C 
HETATM   18  C24 UNL     1      -2.376   9.288  13.908  1.00  0.00     0.071 C 
HETATM   19  C25 UNL     1      -2.945   7.871  14.067  1.00  0.00     0.073 C 
HETATM   20 NA1  UNL     1      -5.426   5.428  13.107  1.00  0.00    -0.420 Na
ATOM     21  HA1 UNL     1      -6.434   5.330  13.225  1.00  0.00     0.153 HD
ENDROOT
BRANCH   1  22
HETATM   22  C5  UNL     1      -7.834   5.919  13.937  1.00  0.00     0.009 C 
HETATM   23  C6  UNL     1      -7.794   4.647  13.077  1.00  0.00     0.014 C 
BRANCH  22  24
HETATM   24  C4  UNL     1      -9.153   6.663  13.893  1.00  0.00    -0.026 C 
HETATM   25  C3  UNL     1      -9.995   6.910  14.909  1.00  0.00    -0.025 C 
BRANCH  25  26
HETATM   26  C2  UNL     1     -11.284   7.700  14.748  1.00  0.00     0.016 C 
HETATM   27  C1  UNL     1     -10.993   9.162  15.104  1.00  0.00     0.015 C 
BRANCH  26  28
HETATM   28  C26 UNL     1     -11.839   7.521  13.312  1.00  0.00     0.081 C 
HETATM   29  C27 UNL     1     -11.888   8.829  12.513  1.00  0.00     0.020 C 
BRANCH  28  30
HETATM   30  C28 UNL     1     -13.261   6.944  13.335  1.00  0.00     0.222 C 
HETATM   31  O5  UNL     1     -14.123   7.236  12.513  1.00  0.00    -0.273 OA
HETATM   32  N1  UNL     1     -13.444   6.001  14.327  1.00  0.00    -0.359 N 
HETATM   33  H46 UNL     1     -12.778   5.981  15.089  1.00  0.00     0.162 HD
BRANCH  32  34
HETATM   34  C29 UNL     1     -14.755   5.429  14.595  1.00  0.00     0.150 C 
BRANCH  34  35
HETATM   35  C30 UNL     1     -15.629   6.371  15.411  1.00  0.00     0.212 C 
BRANCH  35  36
HETATM   36  O6  UNL     1     -14.943   6.740  16.591  1.00  0.00    -0.255 OA
BRANCH  36  37
HETATM   37  S1  UNL     1     -15.858   7.008  17.915  1.00  0.00     0.251 S 
HETATM   38  O7  UNL     1     -16.726   5.834  17.971  1.00  0.00    -0.572 OA
HETATM   39  O8  UNL     1     -14.881   7.088  18.999  1.00  0.00    -0.572 OA
HETATM   40  O9  UNL     1     -16.537   8.264  17.612  1.00  0.00    -0.572 OA
ENDBRANCH  36  37
ENDBRANCH  35  36
ENDBRANCH  34  35
ENDBRANCH  32  34
ENDBRANCH  28  30
ENDBRANCH  26  28
ENDBRANCH  25  26
ENDBRANCH  22  24
ENDBRANCH   1  22
BRANCH   3  41
HETATM   41  O1  UNL     1      -4.865   8.780  16.122  1.00  0.00    -0.395 OA
HETATM   42  H15 UNL     1      -5.477   9.344  16.630  1.00  0.00     0.210 HD
ENDBRANCH   3  41
BRANCH  19  43
HETATM   43  O4  UNL     1      -2.599   7.434  15.378  1.00  0.00    -0.389 OA
HETATM   44  H41 UNL     1      -3.223   7.886  15.992  1.00  0.00     0.210 HD
ENDBRANCH  19  43
BRANCH  17  45
HETATM   45  O3  UNL     1      -0.430  10.653  13.711  1.00  0.00    -0.395 OA
HETATM   46  H38 UNL     1       0.395  10.776  14.212  1.00  0.00     0.210 HD
ENDBRANCH  17  45
BRANCH  14  47
HETATM   47  O2  UNL     1       2.669   6.579  12.390  1.00  0.00    -0.396 OA
HETATM   48  H33 UNL     1       2.996   5.939  11.736  1.00  0.00     0.210 HD
ENDBRANCH  14  47
TORSDOF 13
ENDMDL
MODEL 8
REMARK minimizedAffinity -8.55816746
REMARK CNNscore 0.506954789
REMARK CNNaffinity 7.05743027
REMARK  13 active torsions:
REMARK  status: ('A' for Active; 'I' for Inactive)
REMARK    1  A    between atoms: C2_2  and  C3_3 
REMARK    2  A    between atoms: C2_2  and  C26_30 
REMARK    3  A    between atoms: C4_4  and  C5_5 
REMARK    4  A    between atoms: C5_5  and  C7_7 
REMARK    5  A    between atoms: C9_9  and  O1_10 
REMARK    6  A    between atoms: C20_21  and  O2_22 
REMARK    7  A    between atoms: C23_25  and  O3_26 
REMARK    8  A    between atoms: C25_28  and  O4_29 
REMARK    9  A    between atoms: C26_30  and  C28_32 
REMARK       I    between atoms: C28_32  and  N1_34 
REMARK   10  A    between atoms: N1_34  and  C29_35 
REMARK   11  A    between atoms: C29_35  and  C30_36 
REMARK   12  A    between atoms: C30_36  and  O6_37 
REMARK   13  A    between atoms: O6_37  and  S1_38 
ROOT
HETATM    1  C7  UNL     1      -6.788   6.927  13.894  1.00  0.00     0.005 C 
HETATM    2  C8  UNL     1      -6.867   8.224  14.749  1.00  0.00     0.038 C 
HETATM    3  C9  UNL     1      -5.437   8.796  14.800  1.00  0.00     0.126 C 
HETATM    4  C10 UNL     1      -4.612   7.849  13.931  1.00  0.00     0.059 C 
HETATM    5  C11 UNL     1      -5.310   6.459  14.101  1.00  0.00    -0.015 C 
HETATM    6  C12 UNL     1      -5.136   5.772  15.472  1.00  0.00     0.018 C 
HETATM    7  C13 UNL     1      -4.723   5.538  13.012  1.00  0.00     0.123 A 
HETATM    8  C14 UNL     1      -3.183   5.459  13.086  1.00  0.00     0.122 A 
HETATM    9  C15 UNL     1      -2.509   6.852  12.992  1.00  0.00     0.046 C 
HETATM   10  C16 UNL     1      -0.932   6.817  12.912  1.00  0.00    -0.030 C 
HETATM   11  C17 UNL     1      -0.319   6.129  14.159  1.00  0.00     0.016 C 
HETATM   12  C18 UNL     1      -0.481   6.001  11.653  1.00  0.00     0.012 C 
HETATM   13  C19 UNL     1       0.616   6.658  10.804  1.00  0.00     0.032 C 
HETATM   14  C20 UNL     1       1.691   7.361  11.625  1.00  0.00     0.118 C 
HETATM   15  C21 UNL     1       1.117   8.365  12.630  1.00  0.00     0.039 C 
HETATM   16  C22 UNL     1      -0.419   8.285  12.762  1.00  0.00     0.025 C 
HETATM   17  C23 UNL     1      -0.955   9.223  13.858  1.00  0.00     0.126 C 
HETATM   18  C24 UNL     1      -2.486   9.237  13.865  1.00  0.00     0.071 C 
HETATM   19  C25 UNL     1      -3.077   7.835  14.069  1.00  0.00     0.073 C 
HETATM   20 NA1  UNL     1      -5.618   5.416  13.213  1.00  0.00    -0.420 Na
ATOM     21  HA1 UNL     1      -6.626   5.339  13.352  1.00  0.00     0.153 HD
ENDROOT
BRANCH   1  22
HETATM   22  C5  UNL     1      -8.002   5.971  14.074  1.00  0.00     0.009 C 
HETATM   23  C6  UNL     1      -7.888   4.573  13.447  1.00  0.00     0.014 C 
BRANCH  22  24
HETATM   24  C4  UNL     1      -9.304   6.685  13.780  1.00  0.00    -0.026 C 
HETATM   25  C3  UNL     1     -10.280   7.011  14.642  1.00  0.00    -0.025 C 
BRANCH  25  26
HETATM   26  C2  UNL     1     -11.537   7.760  14.230  1.00  0.00     0.016 C 
HETATM   27  C1  UNL     1     -11.584   7.805  12.699  1.00  0.00     0.015 C 
BRANCH  26  28
HETATM   28  C26 UNL     1     -12.785   7.089  14.858  1.00  0.00     0.081 C 
HETATM   29  C27 UNL     1     -13.609   6.278  13.851  1.00  0.00     0.020 C 
BRANCH  28  30
HETATM   30  C28 UNL     1     -13.721   8.131  15.483  1.00  0.00     0.222 C 
HETATM   31  O5  UNL     1     -14.276   9.015  14.839  1.00  0.00    -0.273 OA
HETATM   32  N1  UNL     1     -13.938   7.922  16.831  1.00  0.00    -0.359 N 
HETATM   33  H46 UNL     1     -13.286   7.329  17.328  1.00  0.00     0.162 HD
BRANCH  32  34
HETATM   34  C29 UNL     1     -14.693   8.872  17.633  1.00  0.00     0.150 C 
BRANCH  34  35
HETATM   35  C30 UNL     1     -13.924   9.308  18.872  1.00  0.00     0.212 C 
BRANCH  35  36
HETATM   36  O6  UNL     1     -12.999  10.318  18.515  1.00  0.00    -0.255 OA
BRANCH  36  37
HETATM   37  S1  UNL     1     -11.417   9.936  18.635  1.00  0.00     0.251 S 
HETATM   38  O7  UNL     1     -10.778  11.221  18.909  1.00  0.00    -0.572 OA
HETATM   39  O8  UNL     1     -11.374   8.990  19.748  1.00  0.00    -0.572 OA
HETATM   40  O9  UNL     1     -11.106   9.358  17.332  1.00  0.00    -0.572 OA
ENDBRANCH  36  37
ENDBRANCH  35  36
ENDBRANCH  34  35
ENDBRANCH  32  34
ENDBRANCH  28  30
ENDBRANCH  26  28
ENDBRANCH  25  26
ENDBRANCH  22  24
ENDBRANCH   1  22
BRANCH   3  41
HETATM   41  O1  UNL     1      -4.942   8.828  16.135  1.00  0.00    -0.395 OA
HETATM   42  H15 UNL     1      -5.534   9.415  16.641  1.00  0.00     0.210 HD
ENDBRANCH   3  41
BRANCH  19  43
HETATM   43  O4  UNL     1      -2.715   7.424  15.384  1.00  0.00    -0.389 OA
HETATM   44  H41 UNL     1      -3.319   7.901  15.997  1.00  0.00     0.210 HD
ENDBRANCH  19  43
BRANCH  17  45
HETATM   45  O3  UNL     1      -0.520  10.562  13.600  1.00  0.00    -0.395 OA
HETATM   46  H38 UNL     1       0.317  10.681  14.083  1.00  0.00     0.210 HD
ENDBRANCH  17  45
BRANCH  14  47
HETATM   47  O2  UNL     1       2.482   6.401  12.323  1.00  0.00    -0.396 OA
HETATM   48  H33 UNL     1       2.785   5.740  11.680  1.00  0.00     0.210 HD
ENDBRANCH  14  47
TORSDOF 13
ENDMDL
MODEL 9
REMARK minimizedAffinity -9.33976746
REMARK CNNscore 0.470746607
REMARK CNNaffinity 7.09583426
REMARK  13 active torsions:
REMARK  status: ('A' for Active; 'I' for Inactive)
REMARK    1  A    between atoms: C2_2  and  C3_3 
REMARK    2  A    between atoms: C2_2  and  C26_30 
REMARK    3  A    between atoms: C4_4  and  C5_5 
REMARK    4  A    between atoms: C5_5  and  C7_7 
REMARK    5  A    between atoms: C9_9  and  O1_10 
REMARK    6  A    between atoms: C20_21  and  O2_22 
REMARK    7  A    between atoms: C23_25  and  O3_26 
REMARK    8  A    between atoms: C25_28  and  O4_29 
REMARK    9  A    between atoms: C26_30  and  C28_32 
REMARK       I    between atoms: C28_32  and  N1_34 
REMARK   10  A    between atoms: N1_34  and  C29_35 
REMARK   11  A    between atoms: C29_35  and  C30_36 
REMARK   12  A    between atoms: C30_36  and  O6_37 
REMARK   13  A    between atoms: O6_37  and  S1_38 
ROOT
HETATM    1  C7  UNL     1      -6.807   6.537  13.702  1.00  0.00     0.005 C 
HETATM    2  C8  UNL     1      -6.994   7.861  14.500  1.00  0.00     0.038 C 
HETATM    3  C9  UNL     1      -5.606   8.526  14.566  1.00  0.00     0.126 C 
HETATM    4  C10 UNL     1      -4.697   7.600  13.759  1.00  0.00     0.059 C 
HETATM    5  C11 UNL     1      -5.309   6.176  13.968  1.00  0.00    -0.015 C 
HETATM    6  C12 UNL     1      -5.133   5.557  15.371  1.00  0.00     0.018 C 
HETATM    7  C13 UNL     1      -4.632   5.252  12.936  1.00  0.00     0.123 A 
HETATM    8  C14 UNL     1      -3.093   5.277  13.054  1.00  0.00     0.122 A 
HETATM    9  C15 UNL     1      -2.507   6.706  12.921  1.00  0.00     0.046 C 
HETATM   10  C16 UNL     1      -0.929   6.770  12.885  1.00  0.00    -0.030 C 
HETATM   11  C17 UNL     1      -0.311   6.175  14.176  1.00  0.00     0.016 C 
HETATM   12  C18 UNL     1      -0.390   5.936  11.674  1.00  0.00     0.012 C 
HETATM   13  C19 UNL     1       0.688   6.629  10.829  1.00  0.00     0.032 C 
HETATM   14  C20 UNL     1       1.691   7.432  11.648  1.00  0.00     0.118 C 
HETATM   15  C21 UNL     1       1.023   8.436  12.595  1.00  0.00     0.039 C 
HETATM   16  C22 UNL     1      -0.507   8.262  12.688  1.00  0.00     0.025 C 
HETATM   17  C23 UNL     1      -1.135   9.206  13.728  1.00  0.00     0.126 C 
HETATM   18  C24 UNL     1      -2.663   9.121  13.694  1.00  0.00     0.071 C 
HETATM   19  C25 UNL     1      -3.169   7.692  13.940  1.00  0.00     0.073 C 
HETATM   20 NA1  UNL     1      -5.523   5.080  13.117  1.00  0.00    -0.420 Na
ATOM     21  HA1 UNL     1      -6.527   4.943  13.232  1.00  0.00     0.153 HD
ENDROOT
BRANCH   1  22
HETATM   22  C5  UNL     1      -7.962   5.513  13.889  1.00  0.00     0.009 C 
HETATM   23  C6  UNL     1      -8.126   4.441  12.801  1.00  0.00     0.014 C 
BRANCH  22  24
HETATM   24  C4  UNL     1      -9.248   6.209  14.281  1.00  0.00    -0.026 C 
HETATM   25  C3  UNL     1     -10.231   6.643  13.475  1.00  0.00    -0.025 C 
BRANCH  25  26
HETATM   26  C2  UNL     1     -11.498   7.305  13.992  1.00  0.00     0.016 C 
HETATM   27  C1  UNL     1     -11.106   8.266  15.120  1.00  0.00     0.015 C 
BRANCH  26  28
HETATM   28  C26 UNL     1     -12.243   8.006  12.827  1.00  0.00     0.081 C 
HETATM   29  C27 UNL     1     -12.178   9.535  12.898  1.00  0.00     0.020 C 
BRANCH  28  30
HETATM   30  C28 UNL     1     -13.725   7.610  12.800  1.00  0.00     0.222 C 
HETATM   31  O5  UNL     1     -14.147   6.535  13.215  1.00  0.00    -0.273 OA
HETATM   32  N1  UNL     1     -14.545   8.620  12.336  1.00  0.00    -0.359 N 
HETATM   33  H46 UNL     1     -14.117   9.373  11.811  1.00  0.00     0.162 HD
BRANCH  32  34
HETATM   34  C29 UNL     1     -15.966   8.401  12.114  1.00  0.00     0.150 C 
BRANCH  34  35
HETATM   35  C30 UNL     1     -16.620   9.579  11.407  1.00  0.00     0.212 C 
BRANCH  35  36
HETATM   36  O6  UNL     1     -17.231   9.127  10.215  1.00  0.00    -0.255 OA
BRANCH  36  37
HETATM   37  S1  UNL     1     -18.631   9.851   9.791  1.00  0.00     0.251 S 
HETATM   38  O7  UNL     1     -18.350  10.379   8.458  1.00  0.00    -0.572 OA
HETATM   39  O8  UNL     1     -19.605   8.761   9.815  1.00  0.00    -0.572 OA
HETATM   40  O9  UNL     1     -18.820  10.861  10.827  1.00  0.00    -0.572 OA
ENDBRANCH  36  37
ENDBRANCH  35  36
ENDBRANCH  34  35
ENDBRANCH  32  34
ENDBRANCH  28  30
ENDBRANCH  26  28
ENDBRANCH  25  26
ENDBRANCH  22  24
ENDBRANCH   1  22
BRANCH   3  41
HETATM   41  O1  UNL     1      -5.154   8.643  15.911  1.00  0.00    -0.395 OA
HETATM   42  H15 UNL     1      -5.798   9.210  16.375  1.00  0.00     0.210 HD
ENDBRANCH   3  41
BRANCH  19  43
HETATM   43  O4  UNL     1      -2.820   7.358  15.280  1.00  0.00    -0.389 OA
HETATM   44  H41 UNL     1      -3.472   7.820  15.857  1.00  0.00     0.210 HD
ENDBRANCH  19  43
BRANCH  17  45
HETATM   45  O3  UNL     1      -0.779  10.559  13.427  1.00  0.00    -0.395 OA
HETATM   46  H38 UNL     1       0.034  10.752  13.928  1.00  0.00     0.210 HD
ENDBRANCH  17  45
BRANCH  14  47
HETATM   47  O2  UNL     1       2.520   6.555  12.408  1.00  0.00    -0.396 OA
HETATM   48  H33 UNL     1       2.884   5.890  11.801  1.00  0.00     0.210 HD
ENDBRANCH  14  47
TORSDOF 13
ENDMDL
