MODEL 1
REMARK minimizedAffinity -7.60488319
REMARK CNNscore 0.771991968
REMARK CNNaffinity 6.78821516
REMARK  6 active torsions:
REMARK  status: ('A' for Active; 'I' for Inactive)
REMARK    1  A    between atoms: C13_15  and  O3_16 
REMARK    2  A    between atoms: C22_26  and  O5_27 
REMARK    3  A    between atoms: C23_28  and  O6_29 
REMARK    4  A    between atoms: C29_36  and  C30_37 
REMARK    5  A    between atoms: C30_37  and  C32_39 
REMARK    6  A    between atoms: C32_39  and  O8_40 
ROOT
HETATM    1  C1  UNL     1      -2.988  50.081 -11.728  1.00  0.00     0.046 C 
HETATM    2  C2  UNL     1      -1.946  51.100 -11.364  1.00  0.00    -0.056 C 
HETATM    3  C3  UNL     1      -0.823  50.749 -10.709  1.00  0.00    -0.004 C 
HETATM    4  C4  UNL     1       0.163  51.781 -10.237  1.00  0.00     0.150 C 
HETATM    5  C5  UNL     1       1.526  51.207  -9.868  1.00  0.00     0.270 C 
HETATM    6  O1  UNL     1       1.823  50.972  -8.694  1.00  0.00    -0.264 OA
HETATM    7  O2  UNL     1       2.342  50.953 -10.930  1.00  0.00    -0.315 OA
HETATM    8  C6  UNL     1       3.725  50.580 -10.664  1.00  0.00     0.139 C 
HETATM    9  C7  UNL     1       4.492  51.764 -10.078  1.00  0.00     0.065 C 
HETATM   10  C8  UNL     1       5.844  51.313  -9.555  1.00  0.00     0.131 C 
HETATM   11  C9  UNL     1       6.717  52.478  -9.022  1.00  0.00     0.059 C 
HETATM   12  C10 UNL     1       6.028  53.361  -8.005  1.00  0.00    -0.019 C 
HETATM   13  C11 UNL     1       5.875  54.704  -8.036  1.00  0.00    -0.059 C 
HETATM   14  C12 UNL     1       6.457  55.594  -9.105  1.00  0.00     0.046 C 
HETATM   15  C13 UNL     1       5.056  55.391  -6.939  1.00  0.00     0.153 C 
HETATM   16  C14 UNL     1       3.769  56.174  -7.378  1.00  0.00     0.037 C 
HETATM   17  C15 UNL     1       4.036  57.609  -7.852  1.00  0.00     0.017 C 
HETATM   18  C16 UNL     1       2.935  55.341  -8.328  1.00  0.00    -0.020 C 
HETATM   19  C17 UNL     1       2.737  55.563  -9.639  1.00  0.00    -0.003 C 
HETATM   20  C18 UNL     1       2.102  54.580 -10.472  1.00  0.00     0.008 C 
HETATM   21  C19 UNL     1       0.825  54.187 -10.381  1.00  0.00    -0.019 C 
HETATM   22  C20 UNL     1      -0.267  54.828  -9.570  1.00  0.00     0.206 C 
HETATM   23  O4  UNL     1      -1.500  54.199 -10.000  1.00  0.00    -0.375 OA
HETATM   24  C21 UNL     1      -1.218  53.606 -11.287  1.00  0.00     0.194 C 
HETATM   25  C22 UNL     1      -2.258  52.544 -11.723  1.00  0.00     0.179 C 
HETATM   26  C23 UNL     1       0.197  53.045 -11.129  1.00  0.00     0.128 C 
HETATM   27  O7  UNL     1       5.610  50.365  -8.509  1.00  0.00    -0.349 OA
HETATM   28  C24 UNL     1       5.108  49.115  -8.989  1.00  0.00     0.167 C 
HETATM   29  C25 UNL     1       4.735  48.282  -7.739  1.00  0.00     0.069 C 
HETATM   30  C26 UNL     1       4.997  46.800  -7.998  1.00  0.00     0.012 C 
HETATM   31  C27 UNL     1       6.507  46.582  -8.223  1.00  0.00     0.011 C 
HETATM   32  C28 UNL     1       7.184  46.320  -6.869  1.00  0.00     0.012 C 
HETATM   33  C29 UNL     1       7.136  47.798  -8.964  1.00  0.00     0.134 C 
HETATM   34  O9  UNL     1       6.125  48.445  -9.761  1.00  0.00    -0.349 OA
HETATM   35  C33 UNL     1       3.859  49.251  -9.900  1.00  0.00     0.101 C 
ENDROOT
BRANCH  33  36
HETATM   36  C30 UNL     1       8.284  47.419  -9.944  1.00  0.00     0.035 C 
HETATM   37  C31 UNL     1       9.595  48.093  -9.510  1.00  0.00     0.015 C 
BRANCH  36  38
HETATM   38  C32 UNL     1       8.495  45.907 -10.109  1.00  0.00     0.170 C 
BRANCH  38  39
HETATM   39  O8  UNL     1       9.654  45.636 -10.897  1.00  0.00    -0.400 OA
HETATM   40  H46 UNL     1       9.755  44.666 -10.933  1.00  0.00     0.209 HD
ENDBRANCH  38  39
ENDBRANCH  36  38
ENDBRANCH  33  36
BRANCH  15  41
HETATM   41  O3  UNL     1       5.901  56.243  -6.171  1.00  0.00    -0.391 OA
HETATM   42  H17 UNL     1       6.826  55.997  -6.372  1.00  0.00     0.210 HD
ENDBRANCH  15  41
BRANCH  26  43
HETATM   43  O6  UNL     1       0.788  52.836 -12.407  1.00  0.00    -0.381 OA
HETATM   44  H30 UNL     1       0.958  53.708 -12.808  1.00  0.00     0.211 HD
ENDBRANCH  26  43
BRANCH  25  45
HETATM   45  O5  UNL     1      -2.392  52.594 -13.148  1.00  0.00    -0.389 OA
HETATM   46  H29 UNL     1      -1.585  52.189 -13.522  1.00  0.00     0.210 HD
ENDBRANCH  25  45
TORSDOF 6
ENDMDL
MODEL 2
REMARK minimizedAffinity -7.44144392
REMARK CNNscore 0.656062365
REMARK CNNaffinity 6.57287645
REMARK  6 active torsions:
REMARK  status: ('A' for Active; 'I' for Inactive)
REMARK    1  A    between atoms: C13_15  and  O3_16 
REMARK    2  A    between atoms: C22_26  and  O5_27 
REMARK    3  A    between atoms: C23_28  and  O6_29 
REMARK    4  A    between atoms: C29_36  and  C30_37 
REMARK    5  A    between atoms: C30_37  and  C32_39 
REMARK    6  A    between atoms: C32_39  and  O8_40 
ROOT
HETATM    1  C1  UNL     1      -0.451  49.557 -12.966  1.00  0.00     0.046 C 
HETATM    2  C2  UNL     1       0.091  50.761 -12.248  1.00  0.00    -0.056 C 
HETATM    3  C3  UNL     1       0.996  50.636 -11.258  1.00  0.00    -0.004 C 
HETATM    4  C4  UNL     1       1.449  51.824 -10.458  1.00  0.00     0.150 C 
HETATM    5  C5  UNL     1       2.725  51.581  -9.660  1.00  0.00     0.270 C 
HETATM    6  O1  UNL     1       2.683  51.296  -8.461  1.00  0.00    -0.264 OA
HETATM    7  O2  UNL     1       3.875  51.668 -10.388  1.00  0.00    -0.315 OA
HETATM    8  C6  UNL     1       5.145  51.633  -9.676  1.00  0.00     0.139 C 
HETATM    9  C7  UNL     1       5.321  52.899  -8.839  1.00  0.00     0.065 C 
HETATM   10  C8  UNL     1       6.504  52.751  -7.898  1.00  0.00     0.131 C 
HETATM   11  C9  UNL     1       6.797  54.032  -7.075  1.00  0.00     0.059 C 
HETATM   12  C10 UNL     1       5.602  54.586  -6.333  1.00  0.00    -0.019 C 
HETATM   13  C11 UNL     1       5.097  55.840  -6.385  1.00  0.00    -0.059 C 
HETATM   14  C12 UNL     1       5.717  56.965  -7.173  1.00  0.00     0.046 C 
HETATM   15  C13 UNL     1       3.812  56.164  -5.616  1.00  0.00     0.153 C 
HETATM   16  C14 UNL     1       2.569  56.637  -6.449  1.00  0.00     0.037 C 
HETATM   17  C15 UNL     1       2.561  58.137  -6.772  1.00  0.00     0.017 C 
HETATM   18  C16 UNL     1       2.351  55.732  -7.643  1.00  0.00    -0.020 C 
HETATM   19  C17 UNL     1       2.530  56.045  -8.939  1.00  0.00    -0.003 C 
HETATM   20  C18 UNL     1       2.497  55.034  -9.959  1.00  0.00     0.008 C 
HETATM   21  C19 UNL     1       1.421  54.320 -10.316  1.00  0.00    -0.019 C 
HETATM   22  C20 UNL     1      -0.006  54.563  -9.910  1.00  0.00     0.206 C 
HETATM   23  O4  UNL     1      -0.809  53.693 -10.746  1.00  0.00    -0.375 OA
HETATM   24  C21 UNL     1       0.024  53.343 -11.874  1.00  0.00     0.194 C 
HETATM   25  C22 UNL     1      -0.480  52.108 -12.660  1.00  0.00     0.179 C 
HETATM   26  C23 UNL     1       1.411  53.149 -11.257  1.00  0.00     0.128 C 
HETATM   27  O7  UNL     1       6.222  51.662  -7.015  1.00  0.00    -0.349 OA
HETATM   28  C24 UNL     1       6.271  50.388  -7.664  1.00  0.00     0.167 C 
HETATM   29  C25 UNL     1       5.765  49.350  -6.633  1.00  0.00     0.069 C 
HETATM   30  C26 UNL     1       6.501  48.025  -6.820  1.00  0.00     0.012 C 
HETATM   31  C27 UNL     1       8.000  48.227  -6.524  1.00  0.00     0.011 C 
HETATM   32  C28 UNL     1       8.253  47.994  -5.026  1.00  0.00     0.012 C 
HETATM   33  C29 UNL     1       8.467  49.640  -6.981  1.00  0.00     0.134 C 
HETATM   34  O9  UNL     1       7.626  50.094  -8.060  1.00  0.00    -0.349 OA
HETATM   35  C33 UNL     1       5.394  50.304  -8.941  1.00  0.00     0.101 C 
ENDROOT
BRANCH  33  36
HETATM   36  C30 UNL     1       9.926  49.683  -7.521  1.00  0.00     0.035 C 
HETATM   37  C31 UNL     1      10.907  49.968  -6.374  1.00  0.00     0.015 C 
BRANCH  36  38
HETATM   38  C32 UNL     1      10.351  48.417  -8.279  1.00  0.00     0.170 C 
BRANCH  38  39
HETATM   39  O8  UNL     1      11.186  48.744  -9.391  1.00  0.00    -0.400 OA
HETATM   40  H46 UNL     1      11.452  47.902  -9.806  1.00  0.00     0.209 HD
ENDBRANCH  38  39
ENDBRANCH  36  38
ENDBRANCH  33  36
BRANCH  15  41
HETATM   41  O3  UNL     1       4.093  57.110  -4.588  1.00  0.00    -0.391 OA
HETATM   42  H17 UNL     1       5.064  57.134  -4.469  1.00  0.00     0.210 HD
ENDBRANCH  15  41
BRANCH  26  43
HETATM   43  O6  UNL     1       2.414  53.246 -12.262  1.00  0.00    -0.381 OA
HETATM   44  H30 UNL     1       2.453  54.173 -12.564  1.00  0.00     0.211 HD
ENDBRANCH  26  43
BRANCH  25  45
HETATM   45  O5  UNL     1      -0.159  52.285 -14.044  1.00  0.00    -0.389 OA
HETATM   46  H29 UNL     1       0.804  52.146 -14.131  1.00  0.00     0.210 HD
ENDBRANCH  25  45
TORSDOF 6
ENDMDL
MODEL 3
REMARK minimizedAffinity -7.07462311
REMARK CNNscore 0.617096663
REMARK CNNaffinity 5.79685545
REMARK  6 active torsions:
REMARK  status: ('A' for Active; 'I' for Inactive)
REMARK    1  A    between atoms: C13_15  and  O3_16 
REMARK    2  A    between atoms: C22_26  and  O5_27 
REMARK    3  A    between atoms: C23_28  and  O6_29 
REMARK    4  A    between atoms: C29_36  and  C30_37 
REMARK    5  A    between atoms: C30_37  and  C32_39 
REMARK    6  A    between atoms: C32_39  and  O8_40 
ROOT
HETATM    1  C1  UNL     1       4.914  43.098 -11.045  1.00  0.00     0.046 C 
HETATM    2  C2  UNL     1       3.988  43.943 -11.873  1.00  0.00    -0.056 C 
HETATM    3  C3  UNL     1       3.597  45.164 -11.460  1.00  0.00    -0.004 C 
HETATM    4  C4  UNL     1       2.578  45.960 -12.225  1.00  0.00     0.150 C 
HETATM    5  C5  UNL     1       2.538  47.436 -11.846  1.00  0.00     0.270 C 
HETATM    6  O1  UNL     1       1.694  47.870 -11.058  1.00  0.00    -0.264 OA
HETATM    7  O2  UNL     1       3.517  48.196 -12.414  1.00  0.00    -0.315 OA
HETATM    8  C6  UNL     1       3.447  49.642 -12.257  1.00  0.00     0.139 C 
HETATM    9  C7  UNL     1       2.258  50.204 -13.033  1.00  0.00     0.065 C 
HETATM   10  C8  UNL     1       2.022  51.658 -12.662  1.00  0.00     0.131 C 
HETATM   11  C9  UNL     1       0.882  52.323 -13.476  1.00  0.00     0.059 C 
HETATM   12  C10 UNL     1      -0.423  51.559 -13.462  1.00  0.00    -0.019 C 
HETATM   13  C11 UNL     1      -1.154  51.140 -14.520  1.00  0.00    -0.059 C 
HETATM   14  C12 UNL     1      -0.809  51.442 -15.955  1.00  0.00     0.046 C 
HETATM   15  C13 UNL     1      -2.409  50.294 -14.277  1.00  0.00     0.153 C 
HETATM   16  C14 UNL     1      -2.433  48.845 -14.879  1.00  0.00     0.037 C 
HETATM   17  C15 UNL     1      -2.872  48.781 -16.348  1.00  0.00     0.017 C 
HETATM   18  C16 UNL     1      -1.141  48.117 -14.574  1.00  0.00    -0.020 C 
HETATM   19  C17 UNL     1      -0.181  47.772 -15.449  1.00  0.00    -0.003 C 
HETATM   20  C18 UNL     1       1.091  47.278 -15.000  1.00  0.00     0.008 C 
HETATM   21  C19 UNL     1       1.299  46.116 -14.367  1.00  0.00    -0.019 C 
HETATM   22  C20 UNL     1       0.318  44.990 -14.191  1.00  0.00     0.206 C 
HETATM   23  O4  UNL     1       1.085  43.875 -13.672  1.00  0.00    -0.375 OA
HETATM   24  C21 UNL     1       2.467  44.162 -13.984  1.00  0.00     0.194 C 
HETATM   25  C22 UNL     1       3.477  43.321 -13.163  1.00  0.00     0.179 C 
HETATM   26  C23 UNL     1       2.590  45.668 -13.744  1.00  0.00     0.128 C 
HETATM   27  O7  UNL     1       1.712  51.704 -11.267  1.00  0.00    -0.349 OA
HETATM   28  C24 UNL     1       2.840  51.424 -10.433  1.00  0.00     0.167 C 
HETATM   29  C25 UNL     1       2.304  51.328  -8.985  1.00  0.00     0.069 C 
HETATM   30  C26 UNL     1       3.347  51.858  -8.003  1.00  0.00     0.012 C 
HETATM   31  C27 UNL     1       3.586  53.357  -8.273  1.00  0.00     0.011 C 
HETATM   32  C28 UNL     1       2.591  54.182  -7.443  1.00  0.00     0.012 C 
HETATM   33  C29 UNL     1       3.475  53.668  -9.795  1.00  0.00     0.134 C 
HETATM   34  O9  UNL     1       3.808  52.486 -10.548  1.00  0.00    -0.349 OA
HETATM   35  C33 UNL     1       3.569  50.101 -10.793  1.00  0.00     0.101 C 
ENDROOT
BRANCH  33  36
HETATM   36  C30 UNL     1       4.443  54.783 -10.287  1.00  0.00     0.035 C 
HETATM   37  C31 UNL     1       3.642  55.988 -10.805  1.00  0.00     0.015 C 
BRANCH  36  38
HETATM   38  C32 UNL     1       5.462  55.238  -9.233  1.00  0.00     0.170 C 
BRANCH  38  39
HETATM   39  O8  UNL     1       6.796  55.121  -9.729  1.00  0.00    -0.400 OA
HETATM   40  H46 UNL     1       7.391  55.458  -9.033  1.00  0.00     0.209 HD
ENDBRANCH  38  39
ENDBRANCH  36  38
ENDBRANCH  33  36
BRANCH  15  41
HETATM   41  O3  UNL     1      -3.562  51.014 -14.702  1.00  0.00    -0.391 OA
HETATM   42  H17 UNL     1      -3.300  51.949 -14.814  1.00  0.00     0.210 HD
ENDBRANCH  15  41
BRANCH  26  43
HETATM   43  O6  UNL     1       3.732  46.181 -14.422  1.00  0.00    -0.381 OA
HETATM   44  H30 UNL     1       3.559  46.140 -15.381  1.00  0.00     0.211 HD
ENDBRANCH  26  43
BRANCH  25  45
HETATM   45  O5  UNL     1       4.625  43.063 -13.978  1.00  0.00    -0.389 OA
HETATM   46  H29 UNL     1       5.125  43.900 -14.036  1.00  0.00     0.210 HD
ENDBRANCH  25  45
TORSDOF 6
ENDMDL
MODEL 4
REMARK minimizedAffinity -7.02885008
REMARK CNNscore 0.586510777
REMARK CNNaffinity 6.0194664
REMARK  6 active torsions:
REMARK  status: ('A' for Active; 'I' for Inactive)
REMARK    1  A    between atoms: C13_15  and  O3_16 
REMARK    2  A    between atoms: C22_26  and  O5_27 
REMARK    3  A    between atoms: C23_28  and  O6_29 
REMARK    4  A    between atoms: C29_36  and  C30_37 
REMARK    5  A    between atoms: C30_37  and  C32_39 
REMARK    6  A    between atoms: C32_39  and  O8_40 
ROOT
HETATM    1  C1  UNL     1     -11.987  46.164 -29.899  1.00  0.00     0.046 C 
HETATM    2  C2  UNL     1     -12.584  45.963 -28.535  1.00  0.00    -0.056 C 
HETATM    3  C3  UNL     1     -13.876  45.615 -28.382  1.00  0.00    -0.004 C 
HETATM    4  C4  UNL     1     -14.507  45.531 -27.021  1.00  0.00     0.150 C 
HETATM    5  C5  UNL     1     -15.827  44.770 -26.999  1.00  0.00     0.270 C 
HETATM    6  O1  UNL     1     -16.908  45.364 -27.021  1.00  0.00    -0.264 OA
HETATM    7  O2  UNL     1     -15.700  43.412 -26.993  1.00  0.00    -0.315 OA
HETATM    8  C6  UNL     1     -16.897  42.608 -26.787  1.00  0.00     0.139 C 
HETATM    9  C7  UNL     1     -17.418  42.784 -25.362  1.00  0.00     0.065 C 
HETATM   10  C8  UNL     1     -18.798  42.167 -25.222  1.00  0.00     0.131 C 
HETATM   11  C9  UNL     1     -19.356  42.232 -23.777  1.00  0.00     0.059 C 
HETATM   12  C10 UNL     1     -19.333  43.612 -23.159  1.00  0.00    -0.019 C 
HETATM   13  C11 UNL     1     -18.781  43.988 -21.983  1.00  0.00    -0.059 C 
HETATM   14  C12 UNL     1     -18.130  43.034 -21.014  1.00  0.00     0.046 C 
HETATM   15  C13 UNL     1     -18.791  45.469 -21.589  1.00  0.00     0.153 C 
HETATM   16  C14 UNL     1     -17.404  46.176 -21.393  1.00  0.00     0.037 C 
HETATM   17  C15 UNL     1     -16.788  45.978 -20.002  1.00  0.00     0.017 C 
HETATM   18  C16 UNL     1     -16.476  45.861 -22.546  1.00  0.00    -0.020 C 
HETATM   19  C17 UNL     1     -15.369  45.099 -22.508  1.00  0.00    -0.003 C 
HETATM   20  C18 UNL     1     -14.698  44.702 -23.715  1.00  0.00     0.008 C 
HETATM   21  C19 UNL     1     -14.062  45.524 -24.561  1.00  0.00    -0.019 C 
HETATM   22  C20 UNL     1     -13.713  46.968 -24.334  1.00  0.00     0.206 C 
HETATM   23  O4  UNL     1     -12.821  47.335 -25.417  1.00  0.00    -0.375 OA
HETATM   24  C21 UNL     1     -12.302  46.094 -25.943  1.00  0.00     0.194 C 
HETATM   25  C22 UNL     1     -11.670  46.232 -27.351  1.00  0.00     0.179 C 
HETATM   26  C23 UNL     1     -13.505  45.149 -25.905  1.00  0.00     0.128 C 
HETATM   27  O7  UNL     1     -19.676  42.863 -26.112  1.00  0.00    -0.349 OA
HETATM   28  C24 UNL     1     -19.422  42.572 -27.489  1.00  0.00     0.167 C 
HETATM   29  C25 UNL     1     -20.314  43.531 -28.313  1.00  0.00     0.069 C 
HETATM   30  C26 UNL     1     -20.780  42.843 -29.594  1.00  0.00     0.012 C 
HETATM   31  C27 UNL     1     -21.669  41.637 -29.231  1.00  0.00     0.011 C 
HETATM   32  C28 UNL     1     -23.129  42.104 -29.118  1.00  0.00     0.012 C 
HETATM   33  C29 UNL     1     -21.171  40.960 -27.921  1.00  0.00     0.134 C 
HETATM   34  O9  UNL     1     -19.758  41.198 -27.768  1.00  0.00    -0.349 OA
HETATM   35  C33 UNL     1     -17.940  42.773 -27.906  1.00  0.00     0.101 C 
ENDROOT
BRANCH  33  36
HETATM   36  C30 UNL     1     -21.354  39.414 -27.897  1.00  0.00     0.035 C 
HETATM   37  C31 UNL     1     -20.190  38.731 -28.632  1.00  0.00     0.015 C 
BRANCH  36  38
HETATM   38  C32 UNL     1     -21.511  38.823 -26.488  1.00  0.00     0.170 C 
BRANCH  38  39
HETATM   39  O8  UNL     1     -21.397  39.840 -25.492  1.00  0.00    -0.400 OA
HETATM   40  H46 UNL     1     -21.541  39.411 -24.628  1.00  0.00     0.209 HD
ENDBRANCH  38  39
ENDBRANCH  36  38
ENDBRANCH  33  36
BRANCH  15  41
HETATM   41  O3  UNL     1     -19.596  45.651 -20.427  1.00  0.00    -0.391 OA
HETATM   42  H17 UNL     1     -20.132  44.841 -20.312  1.00  0.00     0.210 HD
ENDBRANCH  15  41
BRANCH  26  43
HETATM   43  O6  UNL     1     -13.069  43.795 -25.959  1.00  0.00    -0.381 OA
HETATM   44  H30 UNL     1     -12.620  43.588 -25.119  1.00  0.00     0.211 HD
ENDBRANCH  26  43
BRANCH  25  45
HETATM   45  O5  UNL     1     -10.580  45.309 -27.454  1.00  0.00    -0.389 OA
HETATM   46  H29 UNL     1     -10.972  44.418 -27.544  1.00  0.00     0.210 HD
ENDBRANCH  25  45
TORSDOF 6
ENDMDL
MODEL 5
REMARK minimizedAffinity -6.97589922
REMARK CNNscore 0.563477576
REMARK CNNaffinity 6.17444468
REMARK  6 active torsions:
REMARK  status: ('A' for Active; 'I' for Inactive)
REMARK    1  A    between atoms: C13_15  and  O3_16 
REMARK    2  A    between atoms: C22_26  and  O5_27 
REMARK    3  A    between atoms: C23_28  and  O6_29 
REMARK    4  A    between atoms: C29_36  and  C30_37 
REMARK    5  A    between atoms: C30_37  and  C32_39 
REMARK    6  A    between atoms: C32_39  and  O8_40 
ROOT
HETATM    1  C1  UNL     1     -11.771  47.447 -29.029  1.00  0.00     0.046 C 
HETATM    2  C2  UNL     1     -12.550  46.880 -27.876  1.00  0.00    -0.056 C 
HETATM    3  C3  UNL     1     -13.781  46.361 -28.052  1.00  0.00    -0.004 C 
HETATM    4  C4  UNL     1     -14.611  45.904 -26.885  1.00  0.00     0.150 C 
HETATM    5  C5  UNL     1     -15.783  45.012 -27.275  1.00  0.00     0.270 C 
HETATM    6  O1  UNL     1     -16.923  45.468 -27.390  1.00  0.00    -0.264 OA
HETATM    7  O2  UNL     1     -15.452  43.710 -27.513  1.00  0.00    -0.315 OA
HETATM    8  C6  UNL     1     -16.528  42.749 -27.710  1.00  0.00     0.139 C 
HETATM    9  C7  UNL     1     -17.301  42.543 -26.408  1.00  0.00     0.065 C 
HETATM   10  C8  UNL     1     -18.575  41.756 -26.667  1.00  0.00     0.131 C 
HETATM   11  C9  UNL     1     -19.370  41.433 -25.377  1.00  0.00     0.059 C 
HETATM   12  C10 UNL     1     -19.663  42.634 -24.505  1.00  0.00    -0.019 C 
HETATM   13  C11 UNL     1     -19.380  42.799 -23.192  1.00  0.00    -0.059 C 
HETATM   14  C12 UNL     1     -18.762  41.734 -22.323  1.00  0.00     0.046 C 
HETATM   15  C13 UNL     1     -19.683  44.144 -22.523  1.00  0.00     0.153 C 
HETATM   16  C14 UNL     1     -18.474  44.943 -21.922  1.00  0.00     0.037 C 
HETATM   17  C15 UNL     1     -18.076  44.511 -20.504  1.00  0.00     0.017 C 
HETATM   18  C16 UNL     1     -17.328  45.001 -22.910  1.00  0.00    -0.020 C 
HETATM   19  C17 UNL     1     -16.139  44.381 -22.807  1.00  0.00    -0.003 C 
HETATM   20  C18 UNL     1     -15.223  44.343 -23.912  1.00  0.00     0.008 C 
HETATM   21  C19 UNL     1     -14.588  45.400 -24.437  1.00  0.00    -0.019 C 
HETATM   22  C20 UNL     1     -14.508  46.787 -23.865  1.00  0.00     0.206 C 
HETATM   23  O4  UNL     1     -13.515  47.485 -24.656  1.00  0.00    -0.375 OA
HETATM   24  C21 UNL     1     -12.730  46.460 -25.306  1.00  0.00     0.194 C 
HETATM   25  C22 UNL     1     -11.900  46.980 -26.506  1.00  0.00     0.179 C 
HETATM   26  C23 UNL     1     -13.763  45.400 -25.693  1.00  0.00     0.128 C 
HETATM   27  O7  UNL     1     -19.387  42.528 -27.557  1.00  0.00    -0.349 OA
HETATM   28  C24 UNL     1     -18.864  42.583 -28.886  1.00  0.00     0.167 C 
HETATM   29  C25 UNL     1     -19.742  43.594 -29.663  1.00  0.00     0.069 C 
HETATM   30  C26 UNL     1     -19.876  43.160 -31.121  1.00  0.00     0.012 C 
HETATM   31  C27 UNL     1     -20.617  41.809 -31.186  1.00  0.00     0.011 C 
HETATM   32  C28 UNL     1     -22.129  42.070 -31.272  1.00  0.00     0.012 C 
HETATM   33  C29 UNL     1     -20.248  40.918 -29.964  1.00  0.00     0.134 C 
HETATM   34  O9  UNL     1     -18.934  41.277 -29.493  1.00  0.00    -0.349 OA
HETATM   35  C33 UNL     1     -17.382  43.039 -28.957  1.00  0.00     0.101 C 
ENDROOT
BRANCH  33  36
HETATM   36  C30 UNL     1     -20.194  39.396 -30.283  1.00  0.00     0.035 C 
HETATM   37  C31 UNL     1     -21.307  39.023 -31.275  1.00  0.00     0.015 C 
BRANCH  36  38
HETATM   38  C32 UNL     1     -18.834  38.913 -30.806  1.00  0.00     0.170 C 
BRANCH  38  39
HETATM   39  O8  UNL     1     -18.814  38.893 -32.234  1.00  0.00    -0.400 OA
HETATM   40  H46 UNL     1     -17.918  38.615 -32.504  1.00  0.00     0.209 HD
ENDBRANCH  38  39
ENDBRANCH  36  38
ENDBRANCH  33  36
BRANCH  15  41
HETATM   41  O3  UNL     1     -20.689  43.969 -21.529  1.00  0.00    -0.391 OA
HETATM   42  H17 UNL     1     -21.107  43.098 -21.684  1.00  0.00     0.210 HD
ENDBRANCH  15  41
BRANCH  26  43
HETATM   43  O6  UNL     1     -13.122  44.152 -25.927  1.00  0.00    -0.381 OA
HETATM   44  H30 UNL     1     -12.793  43.815 -25.073  1.00  0.00     0.211 HD
ENDBRANCH  26  43
BRANCH  25  45
HETATM   45  O5  UNL     1     -10.680  46.234 -26.575  1.00  0.00    -0.389 OA
HETATM   46  H29 UNL     1     -10.909  45.347 -26.914  1.00  0.00     0.210 HD
ENDBRANCH  25  45
TORSDOF 6
ENDMDL
MODEL 6
REMARK minimizedAffinity -7.50953484
REMARK CNNscore 0.536605775
REMARK CNNaffinity 6.61868906
REMARK  6 active torsions:
REMARK  status: ('A' for Active; 'I' for Inactive)
REMARK    1  A    between atoms: C13_15  and  O3_16 
REMARK    2  A    between atoms: C22_26  and  O5_27 
REMARK    3  A    between atoms: C23_28  and  O6_29 
REMARK    4  A    between atoms: C29_36  and  C30_37 
REMARK    5  A    between atoms: C30_37  and  C32_39 
REMARK    6  A    between atoms: C32_39  and  O8_40 
ROOT
HETATM    1  C1  UNL     1       3.688  52.219 -16.797  1.00  0.00     0.046 C 
HETATM    2  C2  UNL     1       2.842  51.893 -15.599  1.00  0.00    -0.056 C 
HETATM    3  C3  UNL     1       3.286  52.119 -14.347  1.00  0.00    -0.004 C 
HETATM    4  C4  UNL     1       2.494  51.685 -13.146  1.00  0.00     0.150 C 
HETATM    5  C5  UNL     1       2.938  52.342 -11.845  1.00  0.00     0.270 C 
HETATM    6  O1  UNL     1       3.689  51.759 -11.058  1.00  0.00    -0.264 OA
HETATM    7  O2  UNL     1       2.470  53.609 -11.660  1.00  0.00    -0.315 OA
HETATM    8  C6  UNL     1       2.690  54.244 -10.367  1.00  0.00     0.139 C 
HETATM    9  C7  UNL     1       1.865  53.547  -9.286  1.00  0.00     0.065 C 
HETATM   10  C8  UNL     1       2.287  54.025  -7.907  1.00  0.00     0.131 C 
HETATM   11  C9  UNL     1       1.433  53.425  -6.761  1.00  0.00     0.059 C 
HETATM   12  C10 UNL     1       1.327  51.916  -6.785  1.00  0.00    -0.019 C 
HETATM   13  C11 UNL     1       0.206  51.160  -6.781  1.00  0.00    -0.059 C 
HETATM   14  C12 UNL     1      -1.189  51.722  -6.676  1.00  0.00     0.046 C 
HETATM   15  C13 UNL     1       0.327  49.638  -6.903  1.00  0.00     0.153 C 
HETATM   16  C14 UNL     1      -0.342  48.955  -8.147  1.00  0.00     0.037 C 
HETATM   17  C15 UNL     1      -1.838  48.659  -7.975  1.00  0.00     0.017 C 
HETATM   18  C16 UNL     1       0.013  49.696  -9.419  1.00  0.00    -0.020 C 
HETATM   19  C17 UNL     1      -0.814  50.430 -10.184  1.00  0.00    -0.003 C 
HETATM   20  C18 UNL     1      -0.307  51.258 -11.243  1.00  0.00     0.008 C 
HETATM   21  C19 UNL     1       0.284  50.819 -12.363  1.00  0.00    -0.019 C 
HETATM   22  C20 UNL     1       0.343  49.403 -12.863  1.00  0.00     0.206 C 
HETATM   23  O4  UNL     1       0.858  49.482 -14.215  1.00  0.00    -0.375 OA
HETATM   24  C21 UNL     1       0.650  50.847 -14.642  1.00  0.00     0.194 C 
HETATM   25  C22 UNL     1       1.495  51.247 -15.878  1.00  0.00     0.179 C 
HETATM   26  C23 UNL     1       0.967  51.672 -13.393  1.00  0.00     0.128 C 
HETATM   27  O7  UNL     1       3.660  53.669  -7.727  1.00  0.00    -0.349 OA
HETATM   28  C24 UNL     1       4.551  54.444  -8.533  1.00  0.00     0.167 C 
HETATM   29  C25 UNL     1       5.956  53.817  -8.365  1.00  0.00     0.069 C 
HETATM   30  C26 UNL     1       7.026  54.905  -8.425  1.00  0.00     0.012 C 
HETATM   31  C27 UNL     1       6.842  55.868  -7.235  1.00  0.00     0.011 C 
HETATM   32  C28 UNL     1       7.644  55.342  -6.034  1.00  0.00     0.012 C 
HETATM   33  C29 UNL     1       5.333  56.044  -6.897  1.00  0.00     0.134 C 
HETATM   34  O9  UNL     1       4.548  55.814  -8.083  1.00  0.00    -0.349 OA
HETATM   35  C33 UNL     1       4.178  54.458 -10.040  1.00  0.00     0.101 C 
ENDROOT
BRANCH  33  36
HETATM   36  C30 UNL     1       4.956  57.469  -6.397  1.00  0.00     0.035 C 
HETATM   37  C31 UNL     1       3.568  57.865  -6.925  1.00  0.00     0.015 C 
BRANCH  36  38
HETATM   38  C32 UNL     1       5.010  57.633  -4.872  1.00  0.00     0.170 C 
BRANCH  38  39
HETATM   39  O8  UNL     1       5.620  58.873  -4.513  1.00  0.00    -0.400 OA
HETATM   40  H46 UNL     1       5.591  58.936  -3.540  1.00  0.00     0.209 HD
ENDBRANCH  38  39
ENDBRANCH  36  38
ENDBRANCH  33  36
BRANCH  15  41
HETATM   41  O3  UNL     1      -0.137  49.022  -5.706  1.00  0.00    -0.391 OA
HETATM   42  H17 UNL     1      -0.189  49.717  -5.019  1.00  0.00     0.210 HD
ENDBRANCH  15  41
BRANCH  26  43
HETATM   43  O6  UNL     1       0.389  52.969 -13.502  1.00  0.00    -0.381 OA
HETATM   44  H30 UNL     1      -0.580  52.874 -13.444  1.00  0.00     0.211 HD
ENDBRANCH  26  43
BRANCH  25  45
HETATM   45  O5  UNL     1       0.744  52.182 -16.660  1.00  0.00    -0.389 OA
HETATM   46  H29 UNL     1       0.758  53.031 -16.177  1.00  0.00     0.210 HD
ENDBRANCH  25  45
TORSDOF 6
ENDMDL
MODEL 7
REMARK minimizedAffinity -8.4880991
REMARK CNNscore 0.489713788
REMARK CNNaffinity 7.01181841
REMARK  6 active torsions:
REMARK  status: ('A' for Active; 'I' for Inactive)
REMARK    1  A    between atoms: C13_15  and  O3_16 
REMARK    2  A    between atoms: C22_26  and  O5_27 
REMARK    3  A    between atoms: C23_28  and  O6_29 
REMARK    4  A    between atoms: C29_36  and  C30_37 
REMARK    5  A    between atoms: C30_37  and  C32_39 
REMARK    6  A    between atoms: C32_39  and  O8_40 
ROOT
HETATM    1  C1  UNL     1       1.977  52.220 -15.037  1.00  0.00     0.046 C 
HETATM    2  C2  UNL     1       0.915  51.186 -15.287  1.00  0.00    -0.056 C 
HETATM    3  C3  UNL     1       0.148  51.225 -16.394  1.00  0.00    -0.004 C 
HETATM    4  C4  UNL     1      -0.993  50.266 -16.588  1.00  0.00     0.150 C 
HETATM    5  C5  UNL     1      -1.500  50.195 -18.024  1.00  0.00     0.270 C 
HETATM    6  O1  UNL     1      -2.498  50.825 -18.381  1.00  0.00    -0.264 OA
HETATM    7  O2  UNL     1      -0.744  49.421 -18.855  1.00  0.00    -0.315 OA
HETATM    8  C6  UNL     1      -1.252  49.147 -20.192  1.00  0.00     0.139 C 
HETATM    9  C7  UNL     1      -2.485  48.247 -20.118  1.00  0.00     0.065 C 
HETATM   10  C8  UNL     1      -3.170  48.175 -21.472  1.00  0.00     0.131 C 
HETATM   11  C9  UNL     1      -4.383  47.210 -21.496  1.00  0.00     0.059 C 
HETATM   12  C10 UNL     1      -5.400  47.457 -20.405  1.00  0.00    -0.019 C 
HETATM   13  C11 UNL     1      -5.882  46.574 -19.501  1.00  0.00    -0.059 C 
HETATM   14  C12 UNL     1      -5.522  45.111 -19.477  1.00  0.00     0.046 C 
HETATM   15  C13 UNL     1      -6.847  47.063 -18.415  1.00  0.00     0.153 C 
HETATM   16  C14 UNL     1      -6.391  46.914 -16.921  1.00  0.00     0.037 C 
HETATM   17  C15 UNL     1      -6.665  45.532 -16.313  1.00  0.00     0.017 C 
HETATM   18  C16 UNL     1      -4.972  47.412 -16.743  1.00  0.00    -0.020 C 
HETATM   19  C17 UNL     1      -3.882  46.670 -16.477  1.00  0.00    -0.003 C 
HETATM   20  C18 UNL     1      -2.563  47.236 -16.546  1.00  0.00     0.008 C 
HETATM   21  C19 UNL     1      -2.076  48.182 -15.733  1.00  0.00    -0.019 C 
HETATM   22  C20 UNL     1      -2.690  48.688 -14.457  1.00  0.00     0.206 C 
HETATM   23  O4  UNL     1      -1.675  49.507 -13.826  1.00  0.00    -0.375 OA
HETATM   24  C21 UNL     1      -0.418  49.115 -14.423  1.00  0.00     0.194 C 
HETATM   25  C22 UNL     1       0.722  50.140 -14.201  1.00  0.00     0.179 C 
HETATM   26  C23 UNL     1      -0.767  48.900 -15.898  1.00  0.00     0.128 C 
HETATM   27  O7  UNL     1      -3.596  49.498 -21.812  1.00  0.00    -0.349 OA
HETATM   28  C24 UNL     1      -2.510  50.369 -22.139  1.00  0.00     0.167 C 
HETATM   29  C25 UNL     1      -3.115  51.786 -22.296  1.00  0.00     0.069 C 
HETATM   30  C26 UNL     1      -2.362  52.560 -23.374  1.00  0.00     0.012 C 
HETATM   31  C27 UNL     1      -2.554  51.860 -24.734  1.00  0.00     0.011 C 
HETATM   32  C28 UNL     1      -3.815  52.417 -25.413  1.00  0.00     0.012 C 
HETATM   33  C29 UNL     1      -2.624  50.315 -24.554  1.00  0.00     0.134 C 
HETATM   34  O9  UNL     1      -1.893  49.940 -23.369  1.00  0.00    -0.349 OA
HETATM   35  C33 UNL     1      -1.396  50.410 -21.060  1.00  0.00     0.101 C 
ENDROOT
BRANCH  33  36
HETATM   36  C30 UNL     1      -1.991  49.510 -25.726  1.00  0.00     0.035 C 
HETATM   37  C31 UNL     1      -3.017  48.521 -26.303  1.00  0.00     0.015 C 
BRANCH  36  38
HETATM   38  C32 UNL     1      -1.410  50.385 -26.846  1.00  0.00     0.170 C 
BRANCH  38  39
HETATM   39  O8  UNL     1      -2.307  50.455 -27.955  1.00  0.00    -0.400 OA
HETATM   40  H46 UNL     1      -1.901  51.051 -28.613  1.00  0.00     0.209 HD
ENDBRANCH  38  39
ENDBRANCH  36  38
ENDBRANCH  33  36
BRANCH  15  41
HETATM   41  O3  UNL     1      -8.121  46.454 -18.594  1.00  0.00    -0.391 OA
HETATM   42  H17 UNL     1      -8.139  46.069 -19.494  1.00  0.00     0.210 HD
ENDBRANCH  15  41
BRANCH  26  43
HETATM   43  O6  UNL     1       0.225  48.094 -16.524  1.00  0.00    -0.381 OA
HETATM   44  H30 UNL     1       0.153  47.190 -16.163  1.00  0.00     0.211 HD
ENDBRANCH  26  43
BRANCH  25  45
HETATM   45  O5  UNL     1       1.959  49.429 -14.089  1.00  0.00    -0.389 OA
HETATM   46  H29 UNL     1       2.193  49.125 -14.988  1.00  0.00     0.210 HD
ENDBRANCH  25  45
TORSDOF 6
ENDMDL
MODEL 8
REMARK minimizedAffinity -7.64027596
REMARK CNNscore 0.442604184
REMARK CNNaffinity 5.73755789
REMARK  6 active torsions:
REMARK  status: ('A' for Active; 'I' for Inactive)
REMARK    1  A    between atoms: C13_15  and  O3_16 
REMARK    2  A    between atoms: C22_26  and  O5_27 
REMARK    3  A    between atoms: C23_28  and  O6_29 
REMARK    4  A    between atoms: C29_36  and  C30_37 
REMARK    5  A    between atoms: C30_37  and  C32_39 
REMARK    6  A    between atoms: C32_39  and  O8_40 
ROOT
HETATM    1  C1  UNL     1      -7.287  41.449 -17.293  1.00  0.00     0.046 C 
HETATM    2  C2  UNL     1      -6.713  42.685 -17.926  1.00  0.00    -0.056 C 
HETATM    3  C3  UNL     1      -6.918  42.963 -19.228  1.00  0.00    -0.004 C 
HETATM    4  C4  UNL     1      -6.247  44.132 -19.892  1.00  0.00     0.150 C 
HETATM    5  C5  UNL     1      -6.870  44.523 -21.228  1.00  0.00     0.270 C 
HETATM    6  O1  UNL     1      -6.378  44.150 -22.295  1.00  0.00    -0.264 OA
HETATM    7  O2  UNL     1      -8.008  45.268 -21.128  1.00  0.00    -0.315 OA
HETATM    8  C6  UNL     1      -8.567  45.840 -22.345  1.00  0.00     0.139 C 
HETATM    9  C7  UNL     1      -7.643  46.926 -22.895  1.00  0.00     0.065 C 
HETATM   10  C8  UNL     1      -8.080  47.336 -24.291  1.00  0.00     0.131 C 
HETATM   11  C9  UNL     1      -7.240  48.497 -24.881  1.00  0.00     0.059 C 
HETATM   12  C10 UNL     1      -5.745  48.269 -24.845  1.00  0.00    -0.019 C 
HETATM   13  C11 UNL     1      -4.794  49.069 -24.313  1.00  0.00    -0.059 C 
HETATM   14  C12 UNL     1      -5.072  50.419 -23.704  1.00  0.00     0.046 C 
HETATM   15  C13 UNL     1      -3.336  48.597 -24.303  1.00  0.00     0.153 C 
HETATM   16  C14 UNL     1      -2.641  48.421 -22.908  1.00  0.00     0.037 C 
HETATM   17  C15 UNL     1      -2.055  49.715 -22.328  1.00  0.00     0.017 C 
HETATM   18  C16 UNL     1      -3.535  47.651 -21.959  1.00  0.00    -0.020 C 
HETATM   19  C17 UNL     1      -4.159  48.130 -20.868  1.00  0.00    -0.003 C 
HETATM   20  C18 UNL     1      -5.149  47.352 -20.177  1.00  0.00     0.008 C 
HETATM   21  C19 UNL     1      -4.921  46.215 -19.505  1.00  0.00    -0.019 C 
HETATM   22  C20 UNL     1      -3.586  45.633 -19.133  1.00  0.00     0.206 C 
HETATM   23  O4  UNL     1      -3.868  44.553 -18.209  1.00  0.00    -0.375 OA
HETATM   24  C21 UNL     1      -5.199  44.799 -17.702  1.00  0.00     0.194 C 
HETATM   25  C22 UNL     1      -5.849  43.562 -17.035  1.00  0.00     0.179 C 
HETATM   26  C23 UNL     1      -5.967  45.307 -18.925  1.00  0.00     0.128 C 
HETATM   27  O7  UNL     1      -7.976  46.184 -25.133  1.00  0.00    -0.349 OA
HETATM   28  C24 UNL     1      -8.968  45.193 -24.852  1.00  0.00     0.167 C 
HETATM   29  C25 UNL     1      -8.605  43.954 -25.706  1.00  0.00     0.069 C 
HETATM   30  C26 UNL     1      -9.876  43.237 -26.155  1.00  0.00     0.012 C 
HETATM   31  C27 UNL     1     -10.689  44.169 -27.076  1.00  0.00     0.011 C 
HETATM   32  C28 UNL     1     -10.230  43.966 -28.529  1.00  0.00     0.012 C 
HETATM   33  C29 UNL     1     -10.549  45.652 -26.623  1.00  0.00     0.134 C 
HETATM   34  O9  UNL     1     -10.272  45.693 -25.209  1.00  0.00    -0.349 OA
HETATM   35  C33 UNL     1      -9.031  44.779 -23.358  1.00  0.00     0.101 C 
ENDROOT
BRANCH  33  36
HETATM   36  C30 UNL     1     -11.834  46.504 -26.837  1.00  0.00     0.035 C 
HETATM   37  C31 UNL     1     -12.430  46.914 -25.481  1.00  0.00     0.015 C 
BRANCH  36  38
HETATM   38  C32 UNL     1     -11.624  47.743 -27.719  1.00  0.00     0.170 C 
BRANCH  38  39
HETATM   39  O8  UNL     1     -12.422  48.836 -27.263  1.00  0.00    -0.400 OA
HETATM   40  H46 UNL     1     -12.217  49.599 -27.836  1.00  0.00     0.209 HD
ENDBRANCH  38  39
ENDBRANCH  36  38
ENDBRANCH  33  36
BRANCH  15  41
HETATM   41  O3  UNL     1      -2.550  49.449 -25.131  1.00  0.00    -0.391 OA
HETATM   42  H17 UNL     1      -3.165  49.969 -25.686  1.00  0.00     0.210 HD
ENDBRANCH  15  41
BRANCH  26  43
HETATM   43  O6  UNL     1      -7.135  46.008 -18.514  1.00  0.00    -0.381 OA
HETATM   44  H30 UNL     1      -6.855  46.841 -18.089  1.00  0.00     0.211 HD
ENDBRANCH  26  43
BRANCH  25  45
HETATM   45  O5  UNL     1      -6.685  44.009 -15.962  1.00  0.00    -0.389 OA
HETATM   46  H29 UNL     1      -7.480  44.405 -16.369  1.00  0.00     0.210 HD
ENDBRANCH  25  45
TORSDOF 6
ENDMDL
MODEL 9
REMARK minimizedAffinity -8.52180099
REMARK CNNscore 0.375472724
REMARK CNNaffinity 6.64697409
REMARK  6 active torsions:
REMARK  status: ('A' for Active; 'I' for Inactive)
REMARK    1  A    between atoms: C13_15  and  O3_16 
REMARK    2  A    between atoms: C22_26  and  O5_27 
REMARK    3  A    between atoms: C23_28  and  O6_29 
REMARK    4  A    between atoms: C29_36  and  C30_37 
REMARK    5  A    between atoms: C30_37  and  C32_39 
REMARK    6  A    between atoms: C32_39  and  O8_40 
ROOT
HETATM    1  C1  UNL     1      -5.400  47.879 -29.987  1.00  0.00     0.046 C 
HETATM    2  C2  UNL     1      -6.705  47.737 -29.255  1.00  0.00    -0.056 C 
HETATM    3  C3  UNL     1      -6.755  47.230 -28.008  1.00  0.00    -0.004 C 
HETATM    4  C4  UNL     1      -8.067  46.974 -27.320  1.00  0.00     0.150 C 
HETATM    5  C5  UNL     1      -7.943  46.769 -25.815  1.00  0.00     0.270 C 
HETATM    6  O1  UNL     1      -7.925  45.638 -25.324  1.00  0.00    -0.264 OA
HETATM    7  O2  UNL     1      -7.821  47.920 -25.093  1.00  0.00    -0.315 OA
HETATM    8  C6  UNL     1      -7.883  47.833 -23.641  1.00  0.00     0.139 C 
HETATM    9  C7  UNL     1      -9.290  47.442 -23.191  1.00  0.00     0.065 C 
HETATM   10  C8  UNL     1      -9.297  47.092 -21.713  1.00  0.00     0.131 C 
HETATM   11  C9  UNL     1     -10.709  46.768 -21.164  1.00  0.00     0.059 C 
HETATM   12  C10 UNL     1     -11.462  45.721 -21.955  1.00  0.00    -0.019 C 
HETATM   13  C11 UNL     1     -12.697  45.817 -22.499  1.00  0.00    -0.059 C 
HETATM   14  C12 UNL     1     -13.598  47.014 -22.337  1.00  0.00     0.046 C 
HETATM   15  C13 UNL     1     -13.235  44.659 -23.346  1.00  0.00     0.153 C 
HETATM   16  C14 UNL     1     -13.573  44.958 -24.849  1.00  0.00     0.037 C 
HETATM   17  C15 UNL     1     -14.967  45.557 -25.075  1.00  0.00     0.017 C 
HETATM   18  C16 UNL     1     -12.443  45.720 -25.509  1.00  0.00    -0.020 C 
HETATM   19  C17 UNL     1     -12.463  47.001 -25.919  1.00  0.00    -0.003 C 
HETATM   20  C18 UNL     1     -11.259  47.668 -26.332  1.00  0.00     0.008 C 
HETATM   21  C19 UNL     1     -10.533  47.368 -27.417  1.00  0.00    -0.019 C 
HETATM   22  C20 UNL     1     -10.920  46.450 -28.543  1.00  0.00     0.206 C 
HETATM   23  O4  UNL     1      -9.928  46.655 -29.580  1.00  0.00    -0.375 OA
HETATM   24  C21 UNL     1      -9.308  47.928 -29.292  1.00  0.00     0.194 C 
HETATM   25  C22 UNL     1      -7.956  48.139 -30.019  1.00  0.00     0.179 C 
HETATM   26  C23 UNL     1      -9.189  47.941 -27.767  1.00  0.00     0.128 C 
HETATM   27  O7  UNL     1      -8.435  45.965 -21.532  1.00  0.00    -0.349 OA
HETATM   28  C24 UNL     1      -7.051  46.285 -21.697  1.00  0.00     0.167 C 
HETATM   29  C25 UNL     1      -6.282  44.942 -21.657  1.00  0.00     0.069 C 
HETATM   30  C26 UNL     1      -4.916  45.140 -21.003  1.00  0.00     0.012 C 
HETATM   31  C27 UNL     1      -5.110  45.567 -19.534  1.00  0.00     0.011 C 
HETATM   32  C28 UNL     1      -5.193  44.311 -18.653  1.00  0.00     0.012 C 
HETATM   33  C29 UNL     1      -6.371  46.468 -19.384  1.00  0.00     0.134 C 
HETATM   34  O9  UNL     1      -6.620  47.151 -20.629  1.00  0.00    -0.349 OA
HETATM   35  C33 UNL     1      -6.734  47.012 -23.031  1.00  0.00     0.101 C 
ENDROOT
BRANCH  33  36
HETATM   36  C30 UNL     1      -6.232  47.578 -18.302  1.00  0.00     0.035 C 
HETATM   37  C31 UNL     1      -5.356  48.726 -18.830  1.00  0.00     0.015 C 
BRANCH  36  38
HETATM   38  C32 UNL     1      -7.571  48.127 -17.790  1.00  0.00     0.170 C 
BRANCH  38  39
HETATM   39  O8  UNL     1      -7.870  47.613 -16.492  1.00  0.00    -0.400 OA
HETATM   40  H46 UNL     1      -8.709  48.025 -16.208  1.00  0.00     0.209 HD
ENDBRANCH  38  39
ENDBRANCH  36  38
ENDBRANCH  33  36
BRANCH  15  41
HETATM   41  O3  UNL     1     -14.366  44.079 -22.703  1.00  0.00    -0.391 OA
HETATM   42  H17 UNL     1     -14.372  44.396 -21.777  1.00  0.00     0.210 HD
ENDBRANCH  15  41
BRANCH  26  43
HETATM   43  O6  UNL     1      -9.023  49.274 -27.298  1.00  0.00    -0.381 OA
HETATM   44  H30 UNL     1      -9.862  49.752 -27.441  1.00  0.00     0.211 HD
ENDBRANCH  26  43
BRANCH  25  45
HETATM   45  O5  UNL     1      -7.818  49.530 -30.331  1.00  0.00    -0.389 OA
HETATM   46  H29 UNL     1      -7.620  49.990 -29.492  1.00  0.00     0.210 HD
ENDBRANCH  25  45
TORSDOF 6
ENDMDL
