MODEL 1
REMARK minimizedAffinity -11.347662
REMARK  6 active torsions:
REMARK  status: ('A' for Active; 'I' for Inactive)
REMARK    1  A    between atoms: N1_2  and  C2_3 
REMARK    2  A    between atoms: C4_5  and  N3_29 
REMARK    3  A    between atoms: C5_7  and  N2_12 
REMARK    4  A    between atoms: C7_9  and  O2_10 
REMARK    5  A    between atoms: C27_32  and  O3_33 
REMARK    6  A    between atoms: C28_36  and  O4_37 
ROOT
HETATM    1  C2  UNL     1      -2.880  48.500 -19.659  1.00  0.00     0.257 C 
HETATM    2  C3  UNL     1      -3.085  49.196 -21.011  1.00  0.00     0.092 C 
HETATM    3  C4  UNL     1      -2.976  50.722 -20.900  1.00  0.00     0.234 C 
HETATM    4  O1  UNL     1      -2.901  51.214 -19.563  1.00  0.00    -0.333 OA
HETATM    5  C5  UNL     1      -1.914  50.618 -18.683  1.00  0.00     0.168 C 
HETATM    6  C6  UNL     1      -2.664  50.725 -17.335  1.00  0.00     0.074 C 
HETATM    7  C7  UNL     1      -1.619  49.111 -18.997  1.00  0.00     0.209 C 
ENDROOT
BRANCH   1   8
HETATM    8  N1  UNL     1      -2.758  47.035 -19.817  1.00  0.00     0.086 N 
HETATM    9  C1  UNL     1      -3.253  46.287 -18.669  1.00  0.00     0.307 C 
HETATM   10  H4  UNL     1      -1.785  46.781 -19.985  1.00  0.00     0.316 HD
ENDBRANCH   1   8
BRANCH   7  11
HETATM   11  O2  UNL     1      -0.538  48.960 -19.939  1.00  0.00    -0.384 OA
HETATM   12  C8  UNL     1      -0.805  48.011 -20.960  1.00  0.00     0.202 C 
ENDBRANCH   7  11
BRANCH   3  13
HETATM   13  N3  UNL     1      -1.971  51.357 -21.745  1.00  0.00    -0.316 N 
HETATM   14  C24 UNL     1      -0.976  52.207 -21.283  1.00  0.00     0.048 A 
HETATM   15  C19 UNL     1      -0.120  52.480 -22.363  1.00  0.00     0.004 A 
HETATM   16  C23 UNL     1      -0.756  52.747 -20.001  1.00  0.00     0.030 A 
HETATM   17  C18 UNL     1      -0.627  51.777 -23.502  1.00  0.00     0.021 A 
HETATM   18  C20 UNL     1       0.984  53.327 -22.130  1.00  0.00     0.014 A 
HETATM   19  C17 UNL     1      -0.320  51.566 -24.854  1.00  0.00     0.040 A 
HETATM   20  C25 UNL     1      -1.771  51.124 -23.071  1.00  0.00     0.077 A 
HETATM   21  C16 UNL     1      -1.086  50.798 -25.766  1.00  0.00     0.019 A 
HETATM   22  C27 UNL     1       0.781  52.025 -25.668  1.00  0.00     0.150 A 
HETATM   23  C15 UNL     1      -2.267  50.144 -25.377  1.00  0.00     0.017 A 
HETATM   24  C28 UNL     1      -0.384  50.850 -27.098  1.00  0.00     0.256 A 
HETATM   25  C14 UNL     1      -3.282  49.365 -25.997  1.00  0.00     0.004 A 
HETATM   26  C26 UNL     1      -2.630  50.267 -24.052  1.00  0.00     0.077 A 
HETATM   27  C9  UNL     1      -4.255  49.068 -25.022  1.00  0.00     0.049 A 
HETATM   28  C13 UNL     1      -3.480  48.928 -27.326  1.00  0.00     0.014 A 
HETATM   29  N2  UNL     1      -3.797  49.586 -23.811  1.00  0.00    -0.308 N 
HETATM   30  C10 UNL     1      -5.431  48.381 -25.386  1.00  0.00     0.030 A 
HETATM   31  C11 UNL     1      -5.598  47.960 -26.709  1.00  0.00     0.002 A 
HETATM   32  C12 UNL     1      -4.633  48.222 -27.668  1.00  0.00     0.001 A 
HETATM   33  N4  UNL     1       0.832  51.681 -26.915  1.00  0.00    -0.340 N 
ATOM     34  H4  UNL     1       1.540  51.924 -27.608  1.00  0.00     0.164 HD
HETATM   35  C21 UNL     1       1.207  53.869 -20.860  1.00  0.00     0.001 A 
HETATM   36  C22 UNL     1       0.346  53.581 -19.811  1.00  0.00     0.002 A 
BRANCH  24  37
HETATM   37  O4  UNL     1      -1.241  51.376 -28.086  1.00  0.00    -0.372 OA
HETATM   38  H26 UNL     1      -0.653  51.969 -28.582  1.00  0.00     0.212 HD
ENDBRANCH  24  37
BRANCH  22  39
HETATM   39  O3  UNL     1       1.741  52.782 -25.150  1.00  0.00    -0.346 OA
HETATM   40  H24 UNL     1       2.377  52.974 -25.857  1.00  0.00     0.219 HD
ENDBRANCH  22  39
ENDBRANCH   3  13
TORSDOF 6
ENDMDL
MODEL 2
REMARK minimizedAffinity -11.3188162
REMARK  6 active torsions:
REMARK  status: ('A' for Active; 'I' for Inactive)
REMARK    1  A    between atoms: N1_2  and  C2_3 
REMARK    2  A    between atoms: C4_5  and  N3_29 
REMARK    3  A    between atoms: C5_7  and  N2_12 
REMARK    4  A    between atoms: C7_9  and  O2_10 
REMARK    5  A    between atoms: C27_32  and  O3_33 
REMARK    6  A    between atoms: C28_36  and  O4_37 
ROOT
HETATM    1  C2  UNL     1      -4.762  49.261 -21.498  1.00  0.00     0.257 C 
HETATM    2  C3  UNL     1      -3.234  49.394 -21.507  1.00  0.00     0.092 C 
HETATM    3  C4  UNL     1      -2.629  49.039 -22.872  1.00  0.00     0.234 C 
HETATM    4  O1  UNL     1      -3.554  48.477 -23.801  1.00  0.00    -0.333 OA
HETATM    5  C5  UNL     1      -4.800  49.187 -24.021  1.00  0.00     0.168 C 
HETATM    6  C6  UNL     1      -5.740  47.990 -24.296  1.00  0.00     0.074 C 
HETATM    7  C7  UNL     1      -5.308  49.971 -22.762  1.00  0.00     0.209 C 
ENDROOT
BRANCH   1   8
HETATM    8  N1  UNL     1      -5.346  49.823 -20.261  1.00  0.00     0.086 N 
HETATM    9  C1  UNL     1      -6.801  49.900 -20.294  1.00  0.00     0.307 C 
HETATM   10  H4  UNL     1      -4.968  50.752 -20.085  1.00  0.00     0.316 HD
ENDBRANCH   1   8
BRANCH   7  11
HETATM   11  O2  UNL     1      -4.805  51.322 -22.732  1.00  0.00    -0.384 OA
HETATM   12  C8  UNL     1      -4.906  51.992 -23.979  1.00  0.00     0.202 C 
ENDBRANCH   7  11
BRANCH   3  13
HETATM   13  N3  UNL     1      -1.821  50.075 -23.506  1.00  0.00    -0.316 N 
HETATM   14  C24 UNL     1      -1.815  50.347 -24.866  1.00  0.00     0.048 A 
HETATM   15  C19 UNL     1      -1.042  51.504 -25.061  1.00  0.00     0.004 A 
HETATM   16  C23 UNL     1      -2.434  49.674 -25.937  1.00  0.00     0.030 A 
HETATM   17  C18 UNL     1      -0.570  51.928 -23.778  1.00  0.00     0.021 A 
HETATM   18  C20 UNL     1      -0.895  51.984 -26.380  1.00  0.00     0.014 A 
HETATM   19  C17 UNL     1       0.201  52.949 -23.204  1.00  0.00     0.040 A 
HETATM   20  C25 UNL     1      -1.060  51.005 -22.867  1.00  0.00     0.077 A 
HETATM   21  C16 UNL     1       0.523  53.068 -21.829  1.00  0.00     0.019 A 
HETATM   22  C27 UNL     1       0.849  54.100 -23.786  1.00  0.00     0.150 A 
HETATM   23  C15 UNL     1       0.071  52.139 -20.877  1.00  0.00     0.017 A 
HETATM   24  C28 UNL     1       1.366  54.308 -21.671  1.00  0.00     0.256 A 
HETATM   25  C14 UNL     1       0.229  51.913 -19.482  1.00  0.00     0.004 A 
HETATM   26  C26 UNL     1      -0.726  51.117 -21.346  1.00  0.00     0.077 A 
HETATM   27  C9  UNL     1      -0.458  50.726 -19.156  1.00  0.00     0.049 A 
HETATM   28  C13 UNL     1       0.945  52.595 -18.474  1.00  0.00     0.014 A 
HETATM   29  N2  UNL     1      -1.092  50.286 -20.318  1.00  0.00    -0.308 N 
HETATM   30  C10 UNL     1      -0.389  50.208 -17.847  1.00  0.00     0.030 A 
HETATM   31  C11 UNL     1       0.327  50.907 -16.870  1.00  0.00     0.002 A 
HETATM   32  C12 UNL     1       0.981  52.091 -17.174  1.00  0.00     0.001 A 
HETATM   33  N4  UNL     1       1.514  54.906 -23.021  1.00  0.00    -0.340 N 
ATOM     34  H4  UNL     1       2.019  55.752 -23.284  1.00  0.00     0.164 HD
HETATM   35  C21 UNL     1      -1.506  51.318 -27.449  1.00  0.00     0.001 A 
HETATM   36  C22 UNL     1      -2.264  50.178 -27.227  1.00  0.00     0.002 A 
BRANCH  24  37
HETATM   37  O4  UNL     1       2.612  53.984 -21.096  1.00  0.00    -0.372 OA
HETATM   38  H26 UNL     1       3.231  54.521 -21.617  1.00  0.00     0.212 HD
ENDBRANCH  24  37
BRANCH  22  39
HETATM   39  O3  UNL     1       0.763  54.343 -25.088  1.00  0.00    -0.346 OA
HETATM   40  H24 UNL     1       1.261  55.157 -25.269  1.00  0.00     0.219 HD
ENDBRANCH  22  39
ENDBRANCH   3  13
TORSDOF 6
ENDMDL
MODEL 3
REMARK minimizedAffinity -11.2794037
REMARK  6 active torsions:
REMARK  status: ('A' for Active; 'I' for Inactive)
REMARK    1  A    between atoms: N1_2  and  C2_3 
REMARK    2  A    between atoms: C4_5  and  N3_29 
REMARK    3  A    between atoms: C5_7  and  N2_12 
REMARK    4  A    between atoms: C7_9  and  O2_10 
REMARK    5  A    between atoms: C27_32  and  O3_33 
REMARK    6  A    between atoms: C28_36  and  O4_37 
ROOT
HETATM    1  C2  UNL     1      -4.556  49.553 -20.923  1.00  0.00     0.257 C 
HETATM    2  C3  UNL     1      -3.237  49.342 -21.676  1.00  0.00     0.092 C 
HETATM    3  C4  UNL     1      -3.453  48.712 -23.059  1.00  0.00     0.234 C 
HETATM    4  O1  UNL     1      -4.787  48.269 -23.304  1.00  0.00    -0.333 OA
HETATM    5  C5  UNL     1      -5.863  49.209 -23.054  1.00  0.00     0.168 C 
HETATM    6  C6  UNL     1      -6.969  48.228 -22.601  1.00  0.00     0.074 C 
HETATM    7  C7  UNL     1      -5.557  50.222 -21.898  1.00  0.00     0.209 C 
ENDROOT
BRANCH   1   8
HETATM    8  N1  UNL     1      -4.358  50.365 -19.702  1.00  0.00     0.086 N 
HETATM    9  C1  UNL     1      -3.704  49.635 -18.624  1.00  0.00     0.307 C 
HETATM   10  H4  UNL     1      -5.253  50.720 -19.369  1.00  0.00     0.316 HD
ENDBRANCH   1   8
BRANCH   7  11
HETATM   11  O2  UNL     1      -4.927  51.422 -22.387  1.00  0.00    -0.384 OA
HETATM   12  C8  UNL     1      -5.433  51.857 -23.639  1.00  0.00     0.202 C 
ENDBRANCH   7  11
BRANCH   3  13
HETATM   13  N3  UNL     1      -2.937  49.465 -24.196  1.00  0.00    -0.316 N 
HETATM   14  C24 UNL     1      -3.316  49.257 -25.515  1.00  0.00     0.048 A 
HETATM   15  C19 UNL     1      -2.729  50.274 -26.286  1.00  0.00     0.004 A 
HETATM   16  C23 UNL     1      -4.133  48.263 -26.087  1.00  0.00     0.030 A 
HETATM   17  C18 UNL     1      -1.974  51.106 -25.400  1.00  0.00     0.021 A 
HETATM   18  C20 UNL     1      -2.980  50.275 -27.676  1.00  0.00     0.014 A 
HETATM   19  C17 UNL     1      -1.173  52.257 -25.433  1.00  0.00     0.040 A 
HETATM   20  C25 UNL     1      -2.121  50.552 -24.138  1.00  0.00     0.077 A 
HETATM   21  C16 UNL     1      -0.511  52.836 -24.321  1.00  0.00     0.019 A 
HETATM   22  C27 UNL     1      -0.808  53.137 -26.517  1.00  0.00     0.150 A 
HETATM   23  C15 UNL     1      -0.610  52.289 -23.031  1.00  0.00     0.017 A 
HETATM   24  C28 UNL     1       0.229  54.049 -24.821  1.00  0.00     0.256 A 
HETATM   25  C14 UNL     1      -0.069  52.550 -21.742  1.00  0.00     0.004 A 
HETATM   26  C26 UNL     1      -1.409  51.173 -22.896  1.00  0.00     0.077 A 
HETATM   27  C9  UNL     1      -0.537  51.550 -20.866  1.00  0.00     0.049 A 
HETATM   28  C13 UNL     1       0.824  53.531 -21.256  1.00  0.00     0.014 A 
HETATM   29  N2  UNL     1      -1.413  50.744 -21.592  1.00  0.00    -0.308 N 
HETATM   30  C10 UNL     1      -0.078  51.508 -19.534  1.00  0.00     0.030 A 
HETATM   31  C11 UNL     1       0.806  52.494 -19.082  1.00  0.00     0.002 A 
HETATM   32  C12 UNL     1       1.247  53.499 -19.928  1.00  0.00     0.001 A 
HETATM   33  N4  UNL     1      -0.040  54.151 -26.277  1.00  0.00    -0.340 N 
ATOM     34  H4  UNL     1       0.300  54.854 -26.934  1.00  0.00     0.164 HD
HETATM   35  C21 UNL     1      -3.789  49.289 -28.251  1.00  0.00     0.001 A 
HETATM   36  C22 UNL     1      -4.357  48.297 -27.464  1.00  0.00     0.002 A 
BRANCH  24  37
HETATM   37  O4  UNL     1       1.606  53.934 -24.544  1.00  0.00    -0.372 OA
HETATM   38  H26 UNL     1       2.015  54.257 -25.364  1.00  0.00     0.212 HD
ENDBRANCH  24  37
BRANCH  22  39
HETATM   39  O3  UNL     1      -1.257  52.923 -27.748  1.00  0.00    -0.346 OA
HETATM   40  H24 UNL     1      -0.899  53.623 -28.317  1.00  0.00     0.219 HD
ENDBRANCH  22  39
ENDBRANCH   3  13
TORSDOF 6
ENDMDL
MODEL 4
REMARK minimizedAffinity -11.0370455
REMARK  6 active torsions:
REMARK  status: ('A' for Active; 'I' for Inactive)
REMARK    1  A    between atoms: N1_2  and  C2_3 
REMARK    2  A    between atoms: C4_5  and  N3_29 
REMARK    3  A    between atoms: C5_7  and  N2_12 
REMARK    4  A    between atoms: C7_9  and  O2_10 
REMARK    5  A    between atoms: C27_32  and  O3_33 
REMARK    6  A    between atoms: C28_36  and  O4_37 
ROOT
HETATM    1  C2  UNL     1      -2.784  48.162 -18.336  1.00  0.00     0.257 C 
HETATM    2  C3  UNL     1      -1.402  48.457 -18.933  1.00  0.00     0.092 C 
HETATM    3  C4  UNL     1      -1.496  49.127 -20.310  1.00  0.00     0.234 C 
HETATM    4  O1  UNL     1      -2.813  49.175 -20.856  1.00  0.00    -0.333 OA
HETATM    5  C5  UNL     1      -3.870  49.703 -20.015  1.00  0.00     0.168 C 
HETATM    6  C6  UNL     1      -5.058  48.849 -20.517  1.00  0.00     0.074 C 
HETATM    7  C7  UNL     1      -3.648  49.439 -18.485  1.00  0.00     0.209 C 
ENDROOT
BRANCH   1   8
HETATM    8  N1  UNL     1      -2.683  47.732 -16.925  1.00  0.00     0.086 N 
HETATM    9  C1  UNL     1      -3.772  46.858 -16.508  1.00  0.00     0.307 C 
HETATM   10  H4  UNL     1      -2.658  48.546 -16.312  1.00  0.00     0.316 HD
ENDBRANCH   1   8
BRANCH   7  11
HETATM   11  O2  UNL     1      -2.920  50.512 -17.856  1.00  0.00    -0.384 OA
HETATM   12  C8  UNL     1      -3.305  50.744 -16.510  1.00  0.00     0.202 C 
ENDBRANCH   7  11
BRANCH   3  13
HETATM   13  N3  UNL     1      -0.831  50.419 -20.442  1.00  0.00    -0.316 N 
HETATM   14  C24 UNL     1      -0.192  51.085 -19.407  1.00  0.00     0.048 A 
HETATM   15  C19 UNL     1       0.455  52.203 -19.962  1.00  0.00     0.004 A 
HETATM   16  C23 UNL     1      -0.123  50.789 -18.033  1.00  0.00     0.030 A 
HETATM   17  C18 UNL     1       0.185  52.203 -21.367  1.00  0.00     0.021 A 
HETATM   18  C20 UNL     1       1.187  53.039 -19.091  1.00  0.00     0.014 A 
HETATM   19  C17 UNL     1       0.484  52.951 -22.515  1.00  0.00     0.040 A 
HETATM   20  C25 UNL     1      -0.623  51.101 -21.602  1.00  0.00     0.077 A 
HETATM   21  C16 UNL     1       0.006  52.686 -23.823  1.00  0.00     0.019 A 
HETATM   22  C27 UNL     1       1.303  54.124 -22.705  1.00  0.00     0.150 A 
HETATM   23  C15 UNL     1      -0.838  51.597 -24.098  1.00  0.00     0.017 A 
HETATM   24  C28 UNL     1       0.578  53.742 -24.733  1.00  0.00     0.256 A 
HETATM   25  C14 UNL     1      -1.529  51.070 -25.223  1.00  0.00     0.004 A 
HETATM   26  C26 UNL     1      -1.157  50.782 -23.033  1.00  0.00     0.077 A 
HETATM   27  C9  UNL     1      -2.281  49.961 -24.789  1.00  0.00     0.049 A 
HETATM   28  C13 UNL     1      -1.617  51.477 -26.573  1.00  0.00     0.014 A 
HETATM   29  N2  UNL     1      -1.985  49.766 -23.439  1.00  0.00    -0.308 N 
HETATM   30  C10 UNL     1      -3.144  49.298 -25.685  1.00  0.00     0.030 A 
HETATM   31  C11 UNL     1      -3.209  49.724 -27.016  1.00  0.00     0.002 A 
HETATM   32  C12 UNL     1      -2.450  50.795 -27.459  1.00  0.00     0.001 A 
HETATM   33  N4  UNL     1       1.416  54.631 -23.891  1.00  0.00    -0.340 N 
ATOM     34  H4  UNL     1       1.955  55.448 -24.179  1.00  0.00     0.164 HD
HETATM   35  C21 UNL     1       1.257  52.752 -17.724  1.00  0.00     0.001 A 
HETATM   36  C22 UNL     1       0.609  51.641 -17.204  1.00  0.00     0.002 A 
BRANCH  24  37
HETATM   37  O4  UNL     1      -0.458  54.446 -25.380  1.00  0.00    -0.372 OA
HETATM   38  H26 UNL     1      -0.149  55.366 -25.333  1.00  0.00     0.212 HD
ENDBRANCH  24  37
BRANCH  22  39
HETATM   39  O3  UNL     1       1.946  54.678 -21.684  1.00  0.00    -0.346 OA
HETATM   40  H24 UNL     1       2.435  55.444 -22.026  1.00  0.00     0.219 HD
ENDBRANCH  22  39
ENDBRANCH   3  13
TORSDOF 6
ENDMDL
MODEL 5
REMARK minimizedAffinity -10.9128942
REMARK  6 active torsions:
REMARK  status: ('A' for Active; 'I' for Inactive)
REMARK    1  A    between atoms: N1_2  and  C2_3 
REMARK    2  A    between atoms: C4_5  and  N3_29 
REMARK    3  A    between atoms: C5_7  and  N2_12 
REMARK    4  A    between atoms: C7_9  and  O2_10 
REMARK    5  A    between atoms: C27_32  and  O3_33 
REMARK    6  A    between atoms: C28_36  and  O4_37 
ROOT
HETATM    1  C2  UNL     1      -3.952  47.557 -21.528  1.00  0.00     0.257 C 
HETATM    2  C3  UNL     1      -2.474  47.823 -21.211  1.00  0.00     0.092 C 
HETATM    3  C4  UNL     1      -1.850  48.846 -22.169  1.00  0.00     0.234 C 
HETATM    4  O1  UNL     1      -2.680  49.207 -23.271  1.00  0.00    -0.333 OA
HETATM    5  C5  UNL     1      -4.040  49.620 -22.981  1.00  0.00     0.168 C 
HETATM    6  C6  UNL     1      -4.751  49.092 -24.249  1.00  0.00     0.074 C 
HETATM    7  C7  UNL     1      -4.651  48.927 -21.714  1.00  0.00     0.209 C 
ENDROOT
BRANCH   1   8
HETATM    8  N1  UNL     1      -4.597  46.754 -20.467  1.00  0.00     0.086 N 
HETATM    9  C1  UNL     1      -4.017  45.427 -20.314  1.00  0.00     0.307 C 
HETATM   10  H4  UNL     1      -5.594  46.661 -20.657  1.00  0.00     0.316 HD
ENDBRANCH   1   8
BRANCH   7  11
HETATM   11  O2  UNL     1      -4.404  49.689 -20.515  1.00  0.00    -0.384 OA
HETATM   12  C8  UNL     1      -4.642  51.079 -20.668  1.00  0.00     0.202 C 
ENDBRANCH   7  11
BRANCH   3  13
HETATM   13  N3  UNL     1      -1.262  50.029 -21.551  1.00  0.00    -0.316 N 
HETATM   14  C24 UNL     1      -1.135  50.223 -20.183  1.00  0.00     0.048 A 
HETATM   15  C19 UNL     1      -0.383  51.394 -19.992  1.00  0.00     0.004 A 
HETATM   16  C23 UNL     1      -1.613  49.458 -19.102  1.00  0.00     0.030 A 
HETATM   17  C18 UNL     1      -0.060  51.915 -21.285  1.00  0.00     0.021 A 
HETATM   18  C20 UNL     1      -0.115  51.795 -18.665  1.00  0.00     0.014 A 
HETATM   19  C17 UNL     1       0.636  52.985 -21.866  1.00  0.00     0.040 A 
HETATM   20  C25 UNL     1      -0.641  51.051 -22.201  1.00  0.00     0.077 A 
HETATM   21  C16 UNL     1       0.745  53.244 -23.255  1.00  0.00     0.019 A 
HETATM   22  C27 UNL     1       1.396  54.063 -21.278  1.00  0.00     0.150 A 
HETATM   23  C15 UNL     1       0.147  52.411 -24.215  1.00  0.00     0.017 A 
HETATM   24  C28 UNL     1       1.577  54.490 -23.415  1.00  0.00     0.256 A 
HETATM   25  C14 UNL     1       0.002  52.383 -25.629  1.00  0.00     0.004 A 
HETATM   26  C26 UNL     1      -0.531  51.309 -23.736  1.00  0.00     0.077 A 
HETATM   27  C9  UNL     1      -0.799  51.272 -25.960  1.00  0.00     0.049 A 
HETATM   28  C13 UNL     1       0.445  53.245 -26.656  1.00  0.00     0.014 A 
HETATM   29  N2  UNL     1      -1.065  50.588 -24.774  1.00  0.00    -0.308 N 
HETATM   30  C10 UNL     1      -1.186  51.055 -27.298  1.00  0.00     0.030 A 
HETATM   31  C11 UNL     1      -0.730  51.925 -28.294  1.00  0.00     0.002 A 
HETATM   32  C12 UNL     1       0.082  53.004 -27.981  1.00  0.00     0.001 A 
HETATM   33  N4  UNL     1       1.951  54.940 -22.052  1.00  0.00    -0.340 N 
ATOM     34  H4  UNL     1       2.513  55.749 -21.787  1.00  0.00     0.164 HD
HETATM   35  C21 UNL     1      -0.588  51.040 -17.586  1.00  0.00     0.001 A 
HETATM   36  C22 UNL     1      -1.328  49.887 -17.805  1.00  0.00     0.002 A 
BRANCH  24  37
HETATM   37  O4  UNL     1       0.854  55.476 -24.119  1.00  0.00    -0.372 OA
HETATM   38  H26 UNL     1       1.066  56.285 -23.625  1.00  0.00     0.212 HD
ENDBRANCH  24  37
BRANCH  22  39
HETATM   39  O3  UNL     1       1.537  54.156 -19.962  1.00  0.00    -0.346 OA
HETATM   40  H24 UNL     1       2.080  54.941 -19.780  1.00  0.00     0.219 HD
ENDBRANCH  22  39
ENDBRANCH   3  13
TORSDOF 6
ENDMDL
MODEL 6
REMARK minimizedAffinity -10.4996653
REMARK  6 active torsions:
REMARK  status: ('A' for Active; 'I' for Inactive)
REMARK    1  A    between atoms: N1_2  and  C2_3 
REMARK    2  A    between atoms: C4_5  and  N3_29 
REMARK    3  A    between atoms: C5_7  and  N2_12 
REMARK    4  A    between atoms: C7_9  and  O2_10 
REMARK    5  A    between atoms: C27_32  and  O3_33 
REMARK    6  A    between atoms: C28_36  and  O4_37 
ROOT
HETATM    1  C2  UNL     1      -4.014  47.882 -19.306  1.00  0.00     0.257 C 
HETATM    2  C3  UNL     1      -2.537  48.110 -19.654  1.00  0.00     0.092 C 
HETATM    3  C4  UNL     1      -2.341  48.478 -21.131  1.00  0.00     0.234 C 
HETATM    4  O1  UNL     1      -3.513  48.352 -21.933  1.00  0.00    -0.333 OA
HETATM    5  C5  UNL     1      -4.724  48.993 -21.458  1.00  0.00     0.168 C 
HETATM    6  C6  UNL     1      -5.778  48.001 -22.002  1.00  0.00     0.074 C 
HETATM    7  C7  UNL     1      -4.829  49.060 -19.895  1.00  0.00     0.209 C 
ENDROOT
BRANCH   1   8
HETATM    8  N1  UNL     1      -4.212  47.757 -17.845  1.00  0.00     0.086 N 
HETATM    9  C1  UNL     1      -2.975  47.868 -17.084  1.00  0.00     0.307 C 
HETATM   10  H4  UNL     1      -4.659  46.868 -17.628  1.00  0.00     0.316 HD
ENDBRANCH   1   8
BRANCH   7  11
HETATM   11  O2  UNL     1      -4.251  50.272 -19.370  1.00  0.00    -0.384 OA
HETATM   12  C8  UNL     1      -4.409  51.392 -20.226  1.00  0.00     0.202 C 
ENDBRANCH   7  11
BRANCH   3  13
HETATM   13  N3  UNL     1      -1.665  49.744 -21.393  1.00  0.00    -0.316 N 
HETATM   14  C24 UNL     1      -0.970  50.478 -20.442  1.00  0.00     0.048 A 
HETATM   15  C19 UNL     1      -0.334  51.537 -21.111  1.00  0.00     0.004 A 
HETATM   16  C23 UNL     1      -0.845  50.289 -19.053  1.00  0.00     0.030 A 
HETATM   17  C18 UNL     1      -0.665  51.432 -22.498  1.00  0.00     0.021 A 
HETATM   18  C20 UNL     1       0.448  52.426 -20.341  1.00  0.00     0.014 A 
HETATM   19  C17 UNL     1      -0.407  52.083 -23.714  1.00  0.00     0.040 A 
HETATM   20  C25 UNL     1      -1.498  50.330 -22.610  1.00  0.00     0.077 A 
HETATM   21  C16 UNL     1      -0.946  51.725 -24.975  1.00  0.00     0.019 A 
HETATM   22  C27 UNL     1       0.419  53.223 -24.031  1.00  0.00     0.150 A 
HETATM   23  C15 UNL     1      -1.817  50.632 -25.127  1.00  0.00     0.017 A 
HETATM   24  C28 UNL     1      -0.400  52.696 -25.989  1.00  0.00     0.256 A 
HETATM   25  C14 UNL     1      -2.564  50.031 -26.176  1.00  0.00     0.004 A 
HETATM   26  C26 UNL     1      -2.100  49.909 -23.987  1.00  0.00     0.077 A 
HETATM   27  C9  UNL     1      -3.312  48.972 -25.623  1.00  0.00     0.049 A 
HETATM   28  C13 UNL     1      -2.706  50.333 -27.548  1.00  0.00     0.014 A 
HETATM   29  N2  UNL     1      -2.959  48.879 -24.277  1.00  0.00    -0.308 N 
HETATM   30  C10 UNL     1      -4.222  48.257 -26.426  1.00  0.00     0.030 A 
HETATM   31  C11 UNL     1      -4.340  48.578 -27.783  1.00  0.00     0.002 A 
HETATM   32  C12 UNL     1      -3.587  49.599 -28.342  1.00  0.00     0.001 A 
HETATM   33  N4  UNL     1       0.487  53.634 -25.257  1.00  0.00    -0.340 N 
ATOM     34  H4  UNL     1       1.023  54.417 -25.631  1.00  0.00     0.164 HD
HETATM   35  C21 UNL     1       0.575  52.245 -18.959  1.00  0.00     0.001 A 
HETATM   36  C22 UNL     1      -0.065  51.189 -18.326  1.00  0.00     0.002 A 
BRANCH  24  37
HETATM   37  O4  UNL     1      -1.454  53.366 -26.644  1.00  0.00    -0.372 OA
HETATM   38  H26 UNL     1      -1.130  54.281 -26.683  1.00  0.00     0.212 HD
ENDBRANCH  24  37
BRANCH  22  39
HETATM   39  O3  UNL     1       1.114  53.844 -23.085  1.00  0.00    -0.346 OA
HETATM   40  H24 UNL     1       1.599  54.572 -23.507  1.00  0.00     0.219 HD
ENDBRANCH  22  39
ENDBRANCH   3  13
TORSDOF 6
ENDMDL
MODEL 7
REMARK minimizedAffinity -10.3102207
REMARK  6 active torsions:
REMARK  status: ('A' for Active; 'I' for Inactive)
REMARK    1  A    between atoms: N1_2  and  C2_3 
REMARK    2  A    between atoms: C4_5  and  N3_29 
REMARK    3  A    between atoms: C5_7  and  N2_12 
REMARK    4  A    between atoms: C7_9  and  O2_10 
REMARK    5  A    between atoms: C27_32  and  O3_33 
REMARK    6  A    between atoms: C28_36  and  O4_37 
ROOT
HETATM    1  C2  UNL     1      -5.053  48.851 -22.940  1.00  0.00     0.257 C 
HETATM    2  C3  UNL     1      -3.727  48.900 -22.169  1.00  0.00     0.092 C 
HETATM    3  C4  UNL     1      -2.512  48.871 -23.105  1.00  0.00     0.234 C 
HETATM    4  O1  UNL     1      -2.824  48.613 -24.473  1.00  0.00    -0.333 OA
HETATM    5  C5  UNL     1      -3.859  49.422 -25.089  1.00  0.00     0.168 C 
HETATM    6  C6  UNL     1      -4.451  48.386 -26.073  1.00  0.00     0.074 C 
HETATM    7  C7  UNL     1      -4.972  49.887 -24.089  1.00  0.00     0.209 C 
ENDROOT
BRANCH   1   8
HETATM    8  N1  UNL     1      -6.205  49.111 -22.050  1.00  0.00     0.086 N 
HETATM    9  C1  UNL     1      -7.406  49.523 -22.766  1.00  0.00     0.307 C 
HETATM   10  H4  UNL     1      -5.965  49.826 -21.365  1.00  0.00     0.316 HD
ENDBRANCH   1   8
BRANCH   7  11
HETATM   11  O2  UNL     1      -4.656  51.157 -23.485  1.00  0.00    -0.384 OA
HETATM   12  C8  UNL     1      -4.384  52.181 -24.430  1.00  0.00     0.202 C 
ENDBRANCH   7  11
BRANCH   3  13
HETATM   13  N3  UNL     1      -1.582  49.989 -22.986  1.00  0.00    -0.316 N 
HETATM   14  C24 UNL     1      -1.101  50.730 -24.056  1.00  0.00     0.048 A 
HETATM   15  C19 UNL     1      -0.368  51.806 -23.526  1.00  0.00     0.004 A 
HETATM   16  C23 UNL     1      -1.259  50.545 -25.442  1.00  0.00     0.030 A 
HETATM   17  C18 UNL     1      -0.411  51.696 -22.100  1.00  0.00     0.021 A 
HETATM   18  C20 UNL     1       0.219  52.713 -24.435  1.00  0.00     0.014 A 
HETATM   19  C17 UNL     1       0.050  52.369 -20.959  1.00  0.00     0.040 A 
HETATM   20  C25 UNL     1      -1.149  50.555 -21.827  1.00  0.00     0.077 A 
HETATM   21  C16 UNL     1      -0.150  51.957 -19.618  1.00  0.00     0.019 A 
HETATM   22  C27 UNL     1       0.807  53.590 -20.810  1.00  0.00     0.150 A 
HETATM   23  C15 UNL     1      -0.867  50.792 -19.299  1.00  0.00     0.017 A 
HETATM   24  C28 UNL     1       0.517  52.976 -18.731  1.00  0.00     0.256 A 
HETATM   25  C14 UNL     1      -1.210  50.066 -18.126  1.00  0.00     0.004 A 
HETATM   26  C26 UNL     1      -1.391  50.082 -20.359  1.00  0.00     0.077 A 
HETATM   27  C9  UNL     1      -1.908  48.908 -18.522  1.00  0.00     0.049 A 
HETATM   28  C13 UNL     1      -0.940  50.273 -16.755  1.00  0.00     0.014 A 
HETATM   29  N2  UNL     1      -2.060  48.973 -19.907  1.00  0.00    -0.308 N 
HETATM   30  C10 UNL     1      -2.289  47.949 -17.562  1.00  0.00     0.030 A 
HETATM   31  C11 UNL     1      -2.008  48.183 -16.211  1.00  0.00     0.002 A 
HETATM   32  C12 UNL     1      -1.348  49.334 -15.809  1.00  0.00     0.001 A 
HETATM   33  N4  UNL     1       1.110  54.004 -19.622  1.00  0.00    -0.340 N 
ATOM     34  H4  UNL     1       1.634  54.839 -19.359  1.00  0.00     0.164 HD
HETATM   35  C21 UNL     1       0.068  52.534 -25.814  1.00  0.00     0.001 A 
HETATM   36  C22 UNL     1      -0.662  51.462 -26.308  1.00  0.00     0.002 A 
BRANCH  24  37
HETATM   37  O4  UNL     1       1.487  52.357 -17.916  1.00  0.00    -0.372 OA
HETATM   38  H26 UNL     1       2.225  52.988 -17.950  1.00  0.00     0.212 HD
ENDBRANCH  24  37
BRANCH  22  39
HETATM   39  O3  UNL     1       1.182  54.292 -21.872  1.00  0.00    -0.346 OA
HETATM   40  H24 UNL     1       1.671  55.068 -21.553  1.00  0.00     0.219 HD
ENDBRANCH  22  39
ENDBRANCH   3  13
TORSDOF 6
ENDMDL
MODEL 8
REMARK minimizedAffinity -10.087635
REMARK  6 active torsions:
REMARK  status: ('A' for Active; 'I' for Inactive)
REMARK    1  A    between atoms: N1_2  and  C2_3 
REMARK    2  A    between atoms: C4_5  and  N3_29 
REMARK    3  A    between atoms: C5_7  and  N2_12 
REMARK    4  A    between atoms: C7_9  and  O2_10 
REMARK    5  A    between atoms: C27_32  and  O3_33 
REMARK    6  A    between atoms: C28_36  and  O4_37 
ROOT
HETATM    1  C2  UNL     1      -1.817  52.619 -26.393  1.00  0.00     0.257 C 
HETATM    2  C3  UNL     1      -2.226  52.671 -24.915  1.00  0.00     0.092 C 
HETATM    3  C4  UNL     1      -3.071  51.458 -24.505  1.00  0.00     0.234 C 
HETATM    4  O1  UNL     1      -3.478  50.626 -25.590  1.00  0.00    -0.333 OA
HETATM    5  C5  UNL     1      -2.453  50.179 -26.513  1.00  0.00     0.168 C 
HETATM    6  C6  UNL     1      -3.281  50.124 -27.819  1.00  0.00     0.074 C 
HETATM    7  C7  UNL     1      -1.274  51.198 -26.686  1.00  0.00     0.209 C 
ENDROOT
BRANCH   1   8
HETATM    8  N1  UNL     1      -0.820  53.662 -26.715  1.00  0.00     0.086 N 
HETATM    9  C1  UNL     1      -0.436  53.679 -28.121  1.00  0.00     0.307 C 
HETATM   10  H4  UNL     1       0.015  53.537 -26.144  1.00  0.00     0.316 HD
ENDBRANCH   1   8
BRANCH   7  11
HETATM   11  O2  UNL     1      -0.211  50.954 -25.743  1.00  0.00    -0.384 OA
HETATM   12  C8  UNL     1       1.071  50.868 -26.345  1.00  0.00     0.202 C 
ENDBRANCH   7  11
BRANCH   3  13
HETATM   13  N3  UNL     1      -2.554  50.657 -23.401  1.00  0.00    -0.316 N 
HETATM   14  C24 UNL     1      -1.411  50.961 -22.676  1.00  0.00     0.048 A 
HETATM   15  C19 UNL     1      -1.336  50.051 -21.608  1.00  0.00     0.004 A 
HETATM   16  C23 UNL     1      -0.445  51.967 -22.869  1.00  0.00     0.030 A 
HETATM   17  C18 UNL     1      -2.464  49.178 -21.706  1.00  0.00     0.021 A 
HETATM   18  C20 UNL     1      -0.246  50.170 -20.717  1.00  0.00     0.014 A 
HETATM   19  C17 UNL     1      -3.040  48.091 -21.031  1.00  0.00     0.040 A 
HETATM   20  C25 UNL     1      -3.164  49.581 -22.832  1.00  0.00     0.077 A 
HETATM   21  C16 UNL     1      -4.208  47.395 -21.429  1.00  0.00     0.019 A 
HETATM   22  C27 UNL     1      -2.654  47.404 -19.821  1.00  0.00     0.150 A 
HETATM   23  C15 UNL     1      -4.930  47.753 -22.580  1.00  0.00     0.017 A 
HETATM   24  C28 UNL     1      -4.452  46.309 -20.414  1.00  0.00     0.256 A 
HETATM   25  C14 UNL     1      -6.065  47.276 -23.292  1.00  0.00     0.004 A 
HETATM   26  C26 UNL     1      -4.457  48.837 -23.290  1.00  0.00     0.077 A 
HETATM   27  C9  UNL     1      -6.222  48.075 -24.441  1.00  0.00     0.049 A 
HETATM   28  C13 UNL     1      -6.946  46.194 -23.078  1.00  0.00     0.014 A 
HETATM   29  N2  UNL     1      -5.249  49.073 -24.385  1.00  0.00    -0.308 N 
HETATM   30  C10 UNL     1      -7.220  47.764 -25.386  1.00  0.00     0.030 A 
HETATM   31  C11 UNL     1      -8.080  46.687 -25.146  1.00  0.00     0.002 A 
HETATM   32  C12 UNL     1      -7.952  45.913 -24.003  1.00  0.00     0.001 A 
HETATM   33  N4  UNL     1      -3.371  46.410 -19.403  1.00  0.00    -0.340 N 
ATOM     34  H4  UNL     1      -3.226  45.834 -18.573  1.00  0.00     0.164 HD
HETATM   35  C21 UNL     1       0.718  51.167 -20.905  1.00  0.00     0.001 A 
HETATM   36  C22 UNL     1       0.618  52.052 -21.968  1.00  0.00     0.002 A 
BRANCH  24  37
HETATM   37  O4  UNL     1      -4.473  45.046 -21.041  1.00  0.00    -0.372 OA
HETATM   38  H26 UNL     1      -3.967  44.494 -20.422  1.00  0.00     0.212 HD
ENDBRANCH  24  37
BRANCH  22  39
HETATM   39  O3  UNL     1      -1.585  47.786 -19.133  1.00  0.00    -0.346 OA
HETATM   40  H24 UNL     1      -1.507  47.200 -18.363  1.00  0.00     0.219 HD
ENDBRANCH  22  39
ENDBRANCH   3  13
TORSDOF 6
ENDMDL
MODEL 9
REMARK minimizedAffinity -9.87282848
REMARK  6 active torsions:
REMARK  status: ('A' for Active; 'I' for Inactive)
REMARK    1  A    between atoms: N1_2  and  C2_3 
REMARK    2  A    between atoms: C4_5  and  N3_29 
REMARK    3  A    between atoms: C5_7  and  N2_12 
REMARK    4  A    between atoms: C7_9  and  O2_10 
REMARK    5  A    between atoms: C27_32  and  O3_33 
REMARK    6  A    between atoms: C28_36  and  O4_37 
ROOT
HETATM    1  C2  UNL     1      -5.977  48.275 -19.861  1.00  0.00     0.257 C 
HETATM    2  C3  UNL     1      -6.065  49.282 -21.015  1.00  0.00     0.092 C 
HETATM    3  C4  UNL     1      -4.715  49.948 -21.308  1.00  0.00     0.234 C 
HETATM    4  O1  UNL     1      -3.695  49.663 -20.352  1.00  0.00    -0.333 OA
HETATM    5  C5  UNL     1      -3.458  48.271 -20.019  1.00  0.00     0.168 C 
HETATM    6  C6  UNL     1      -3.040  48.423 -18.537  1.00  0.00     0.074 C 
HETATM    7  C7  UNL     1      -4.741  47.375 -20.110  1.00  0.00     0.209 C 
ENDROOT
BRANCH   1   8
HETATM    8  N1  UNL     1      -7.218  47.479 -19.742  1.00  0.00     0.086 N 
HETATM    9  C1  UNL     1      -8.277  47.923 -20.638  1.00  0.00     0.307 C 
HETATM   10  H4  UNL     1      -7.560  47.506 -18.783  1.00  0.00     0.316 HD
ENDBRANCH   1   8
BRANCH   7  11
HETATM   11  O2  UNL     1      -4.901  46.798 -21.421  1.00  0.00    -0.384 OA
HETATM   12  C8  UNL     1      -5.250  45.423 -21.397  1.00  0.00     0.202 C 
ENDBRANCH   7  11
BRANCH   3  13
HETATM   13  N3  UNL     1      -4.208  49.803 -22.668  1.00  0.00    -0.316 N 
HETATM   14  C24 UNL     1      -4.856  49.109 -23.680  1.00  0.00     0.048 A 
HETATM   15  C19 UNL     1      -4.140  49.332 -24.868  1.00  0.00     0.004 A 
HETATM   16  C23 UNL     1      -6.016  48.312 -23.645  1.00  0.00     0.030 A 
HETATM   17  C18 UNL     1      -3.031  50.178 -24.551  1.00  0.00     0.021 A 
HETATM   18  C20 UNL     1      -4.620  48.725 -26.049  1.00  0.00     0.014 A 
HETATM   19  C17 UNL     1      -1.946  50.804 -25.182  1.00  0.00     0.040 A 
HETATM   20  C25 UNL     1      -3.111  50.418 -23.188  1.00  0.00     0.077 A 
HETATM   21  C16 UNL     1      -0.958  51.593 -24.540  1.00  0.00     0.019 A 
HETATM   22  C27 UNL     1      -1.534  50.838 -26.565  1.00  0.00     0.150 A 
HETATM   23  C15 UNL     1      -0.986  51.836 -23.156  1.00  0.00     0.017 A 
HETATM   24  C28 UNL     1       0.006  52.056 -25.601  1.00  0.00     0.256 A 
HETATM   25  C14 UNL     1      -0.175  52.501 -22.197  1.00  0.00     0.004 A 
HETATM   26  C26 UNL     1      -2.041  51.288 -22.457  1.00  0.00     0.077 A 
HETATM   27  C9  UNL     1      -0.755  52.302 -20.928  1.00  0.00     0.049 A 
HETATM   28  C13 UNL     1       1.038  53.219 -22.297  1.00  0.00     0.014 A 
HETATM   29  N2  UNL     1      -1.943  51.599 -21.124  1.00  0.00    -0.308 N 
HETATM   30  C10 UNL     1      -0.102  52.777 -19.772  1.00  0.00     0.030 A 
HETATM   31  C11 UNL     1       1.097  53.485 -19.903  1.00  0.00     0.002 A 
HETATM   32  C12 UNL     1       1.659  53.711 -21.150  1.00  0.00     0.001 A 
HETATM   33  N4  UNL     1      -0.472  51.502 -26.892  1.00  0.00    -0.340 N 
ATOM     34  H4  UNL     1      -0.061  51.618 -27.819  1.00  0.00     0.164 HD
HETATM   35  C21 UNL     1      -5.771  47.931 -26.022  1.00  0.00     0.001 A 
HETATM   36  C22 UNL     1      -6.458  47.728 -24.834  1.00  0.00     0.002 A 
BRANCH  24  37
HETATM   37  O4  UNL     1       1.315  51.630 -25.294  1.00  0.00    -0.372 OA
HETATM   38  H26 UNL     1       1.650  51.339 -26.158  1.00  0.00     0.212 HD
ENDBRANCH  24  37
BRANCH  22  39
HETATM   39  O3  UNL     1      -2.235  50.208 -27.499  1.00  0.00    -0.346 OA
HETATM   40  H24 UNL     1      -1.793  50.358 -28.350  1.00  0.00     0.219 HD
ENDBRANCH  22  39
ENDBRANCH   3  13
TORSDOF 6
ENDMDL
