MODEL 1
REMARK minimizedAffinity -7.70536184
REMARK CNNscore 0.570001841
REMARK CNNaffinity 7.08904505
REMARK  13 active torsions:
REMARK  status: ('A' for Active; 'I' for Inactive)
REMARK    1  A    between atoms: C2_2  and  C3_3 
REMARK    2  A    between atoms: C3_3  and  C5_5 
REMARK    3  A    between atoms: C5_5  and  N1_6 
REMARK    4  A    between atoms: C5_5  and  C31_39 
REMARK       I    between atoms: N1_6  and  C6_7 
REMARK    5  A    between atoms: C6_7  and  C7_9 
REMARK    6  A    between atoms: C7_9  and  C8_10 
REMARK    7  A    between atoms: C8_10  and  C9_11 
REMARK    8  A    between atoms: C9_11  and  O3_13 
REMARK    9  A    between atoms: O3_13  and  C10_14 
REMARK   10  A    between atoms: C10_14  and  C11_15 
REMARK   11  A    between atoms: C11_15  and  C12_17 
REMARK   12  A    between atoms: C12_17  and  O5_18 
REMARK   13  A    between atoms: C31_39  and  O9_41 
ROOT
HETATM    1  C12 UNL     1      -2.097   6.869  13.570  1.00  0.00     0.128 C 
HETATM    2  C13 UNL     1      -1.976   5.450  12.972  1.00  0.00     0.047 C 
HETATM    3  C14 UNL     1      -3.415   4.895  12.879  1.00  0.00     0.009 C 
HETATM    4  C15 UNL     1      -4.309   6.055  13.312  1.00  0.00     0.002 C 
HETATM    5  C16 UNL     1      -5.723   5.738  13.819  1.00  0.00     0.003 C 
HETATM    6  C17 UNL     1      -6.526   4.959  12.771  1.00  0.00     0.010 C 
HETATM    7  C18 UNL     1      -7.947   4.690  13.249  1.00  0.00     0.035 C 
HETATM    8  C19 UNL     1      -8.658   5.965  13.639  1.00  0.00    -0.067 C 
HETATM    9  C20 UNL     1      -9.861   6.244  13.105  1.00  0.00     0.053 C 
HETATM   10  C21 UNL     1     -10.640   7.427  13.526  1.00  0.00     0.149 C 
HETATM   11  O6  UNL     1     -11.668   7.724  12.925  1.00  0.00    -0.293 OA
HETATM   12  C22 UNL     1     -10.148   8.191  14.726  1.00  0.00     0.084 C 
HETATM   13  C23 UNL     1      -8.630   8.272  14.686  1.00  0.00     0.022 C 
HETATM   14  C24 UNL     1      -7.928   6.878  14.642  1.00  0.00    -0.009 C 
HETATM   15  C25 UNL     1      -8.018   6.215  16.035  1.00  0.00     0.021 C 
HETATM   16  C26 UNL     1      -6.446   7.075  14.162  1.00  0.00     0.072 C 
HETATM   17  C27 UNL     1      -5.554   7.927  15.086  1.00  0.00     0.133 C 
HETATM   18  O7  UNL     1      -5.954   8.441  16.128  1.00  0.00    -0.297 OA
HETATM   19  C28 UNL     1      -4.122   8.166  14.617  1.00  0.00     0.091 C 
HETATM   20  C29 UNL     1      -3.443   6.819  14.347  1.00  0.00     0.005 C 
HETATM   21  C30 UNL     1      -3.286   6.061  15.688  1.00  0.00     0.019 C 
ENDROOT
BRANCH   1  22
HETATM   22  C11 UNL     1      -0.882   7.395  14.359  1.00  0.00     0.185 C 
HETATM   23  O4  UNL     1      -0.348   6.653  15.194  1.00  0.00    -0.292 OA
BRANCH  22  24
HETATM   24  C10 UNL     1      -0.408   8.828  14.127  1.00  0.00     0.260 C 
BRANCH  24  25
HETATM   25  O3  UNL     1       0.207   9.050  12.860  1.00  0.00    -0.314 OA
BRANCH  25  26
HETATM   26  C9  UNL     1       1.567   8.995  12.858  1.00  0.00     0.259 C 
HETATM   27  O2  UNL     1       2.299   9.732  13.506  1.00  0.00    -0.265 OA
BRANCH  26  28
HETATM   28  C8  UNL     1       2.038   7.867  11.977  1.00  0.00     0.120 C 
BRANCH  28  29
HETATM   29  C7  UNL     1       0.874   7.213  11.247  1.00  0.00     0.112 C 
BRANCH  29  30
HETATM   30  C6  UNL     1       1.294   5.891  10.640  1.00  0.00     0.218 C 
HETATM   31  N1  UNL     1       2.264   6.015   9.674  1.00  0.00    -0.346 N 
HETATM   32  H11 UNL     1       2.788   6.882   9.626  1.00  0.00     0.163 HD
HETATM   33  O1  UNL     1       0.810   4.814  10.974  1.00  0.00    -0.274 OA
BRANCH  31  34
HETATM   34  C5  UNL     1       2.920   4.840   9.077  1.00  0.00     0.186 C 
BRANCH  34  35
HETATM   35  C3  UNL     1       2.769   4.835   7.532  1.00  0.00     0.014 C 
HETATM   36  C4  UNL     1       2.668   6.269   6.986  1.00  0.00     0.012 C 
BRANCH  35  37
HETATM   37  C2  UNL     1       3.938   4.085   6.847  1.00  0.00     0.002 C 
HETATM   38  C1  UNL     1       3.493   3.021   5.854  1.00  0.00     0.005 C 
ENDBRANCH  35  37
ENDBRANCH  34  35
BRANCH  34  39
HETATM   39  C31 UNL     1       4.401   4.888   9.495  1.00  0.00     0.163 C 
HETATM   40  O8  UNL     1       5.246   4.026   9.310  1.00  0.00    -0.648 OA
BRANCH  39  41
HETATM   41  O9  UNL     1       4.769   6.065  10.064  1.00  0.00    -0.775 OA
HETATM   42  H43 UNL     1       5.728   5.941  10.238  1.00  0.00     0.167 HD
ENDBRANCH  39  41
ENDBRANCH  34  39
ENDBRANCH  31  34
ENDBRANCH  29  30
ENDBRANCH  28  29
ENDBRANCH  26  28
ENDBRANCH  25  26
ENDBRANCH  24  25
ENDBRANCH  22  24
ENDBRANCH   1  22
BRANCH   1  43
HETATM   43  O5  UNL     1      -2.230   7.766  12.449  1.00  0.00    -0.381 OA
HETATM   44  H18 UNL     1      -1.970   8.656  12.772  1.00  0.00     0.211 HD
ENDBRANCH   1  43
TORSDOF 13
ENDMDL
MODEL 2
REMARK minimizedAffinity -7.91690254
REMARK CNNscore 0.379022121
REMARK CNNaffinity 6.45142794
REMARK  13 active torsions:
REMARK  status: ('A' for Active; 'I' for Inactive)
REMARK    1  A    between atoms: C2_2  and  C3_3 
REMARK    2  A    between atoms: C3_3  and  C5_5 
REMARK    3  A    between atoms: C5_5  and  N1_6 
REMARK    4  A    between atoms: C5_5  and  C31_39 
REMARK       I    between atoms: N1_6  and  C6_7 
REMARK    5  A    between atoms: C6_7  and  C7_9 
REMARK    6  A    between atoms: C7_9  and  C8_10 
REMARK    7  A    between atoms: C8_10  and  C9_11 
REMARK    8  A    between atoms: C9_11  and  O3_13 
REMARK    9  A    between atoms: O3_13  and  C10_14 
REMARK   10  A    between atoms: C10_14  and  C11_15 
REMARK   11  A    between atoms: C11_15  and  C12_17 
REMARK   12  A    between atoms: C12_17  and  O5_18 
REMARK   13  A    between atoms: C31_39  and  O9_41 
ROOT
HETATM    1  C12 UNL     1      -5.759   7.160  14.568  1.00  0.00     0.128 C 
HETATM    2  C13 UNL     1      -5.603   8.526  15.272  1.00  0.00     0.047 C 
HETATM    3  C14 UNL     1      -4.200   9.050  14.893  1.00  0.00     0.009 C 
HETATM    4  C15 UNL     1      -3.658   8.030  13.896  1.00  0.00     0.002 C 
HETATM    5  C16 UNL     1      -2.139   7.943  13.690  1.00  0.00     0.003 C 
HETATM    6  C17 UNL     1      -1.560   9.296  13.260  1.00  0.00     0.010 C 
HETATM    7  C18 UNL     1      -0.062   9.201  13.003  1.00  0.00     0.035 C 
HETATM    8  C19 UNL     1       0.267   8.125  11.994  1.00  0.00    -0.067 C 
HETATM    9  C20 UNL     1       1.022   8.429  10.923  1.00  0.00     0.053 C 
HETATM   10  C21 UNL     1       1.453   7.394   9.960  1.00  0.00     0.149 C 
HETATM   11  O6  UNL     1       2.026   7.724   8.926  1.00  0.00    -0.293 OA
HETATM   12  C22 UNL     1       1.204   5.955  10.329  1.00  0.00     0.084 C 
HETATM   13  C23 UNL     1      -0.156   5.833  10.999  1.00  0.00     0.022 C 
HETATM   14  C24 UNL     1      -0.310   6.724  12.272  1.00  0.00    -0.009 C 
HETATM   15  C25 UNL     1       0.499   6.104  13.434  1.00  0.00     0.021 C 
HETATM   16  C26 UNL     1      -1.838   6.863  12.607  1.00  0.00     0.072 C 
HETATM   17  C27 UNL     1      -2.564   5.552  12.965  1.00  0.00     0.133 C 
HETATM   18  O7  UNL     1      -2.011   4.455  12.980  1.00  0.00    -0.297 OA
HETATM   19  C28 UNL     1      -4.059   5.659  13.253  1.00  0.00     0.091 C 
HETATM   20  C29 UNL     1      -4.292   6.692  14.360  1.00  0.00     0.005 C 
HETATM   21  C30 UNL     1      -3.683   6.156  15.680  1.00  0.00     0.019 C 
ENDROOT
BRANCH   1  22
HETATM   22  C11 UNL     1      -6.705   6.141  15.233  1.00  0.00     0.185 C 
HETATM   23  O4  UNL     1      -6.590   5.928  16.447  1.00  0.00    -0.292 OA
BRANCH  22  24
HETATM   24  C10 UNL     1      -7.714   5.388  14.370  1.00  0.00     0.260 C 
BRANCH  24  25
HETATM   25  O3  UNL     1      -8.976   6.037  14.231  1.00  0.00    -0.314 OA
BRANCH  25  26
HETATM   26  C9  UNL     1      -9.386   6.240  12.950  1.00  0.00     0.259 C 
HETATM   27  O2  UNL     1      -8.778   5.870  11.953  1.00  0.00    -0.265 OA
BRANCH  26  28
HETATM   28  C8  UNL     1     -10.716   6.945  12.936  1.00  0.00     0.120 C 
BRANCH  28  29
HETATM   29  C7  UNL     1     -11.356   6.943  14.318  1.00  0.00     0.112 C 
BRANCH  29  30
HETATM   30  C6  UNL     1     -12.844   6.674  14.221  1.00  0.00     0.218 C 
HETATM   31  N1  UNL     1     -13.594   7.808  14.010  1.00  0.00    -0.346 N 
HETATM   32  H11 UNL     1     -13.120   8.645  13.688  1.00  0.00     0.163 HD
HETATM   33  O1  UNL     1     -13.333   5.554  14.326  1.00  0.00    -0.274 OA
BRANCH  31  34
HETATM   34  C5  UNL     1     -15.036   7.743  13.730  1.00  0.00     0.186 C 
BRANCH  34  35
HETATM   35  C3  UNL     1     -15.820   8.793  14.562  1.00  0.00     0.014 C 
HETATM   36  C4  UNL     1     -17.314   8.438  14.627  1.00  0.00     0.012 C 
BRANCH  35  37
HETATM   37  C2  UNL     1     -15.242   8.933  15.993  1.00  0.00     0.002 C 
HETATM   38  C1  UNL     1     -14.753  10.336  16.328  1.00  0.00     0.005 C 
ENDBRANCH  35  37
ENDBRANCH  34  35
BRANCH  34  39
HETATM   39  C31 UNL     1     -15.215   7.981  12.219  1.00  0.00     0.163 C 
HETATM   40  O8  UNL     1     -15.646   7.190  11.395  1.00  0.00    -0.648 OA
BRANCH  39  41
HETATM   41  O9  UNL     1     -14.908   9.245  11.827  1.00  0.00    -0.775 OA
HETATM   42  H43 UNL     1     -15.101   9.235  10.864  1.00  0.00     0.167 HD
ENDBRANCH  39  41
ENDBRANCH  34  39
ENDBRANCH  31  34
ENDBRANCH  29  30
ENDBRANCH  28  29
ENDBRANCH  26  28
ENDBRANCH  25  26
ENDBRANCH  24  25
ENDBRANCH  22  24
ENDBRANCH   1  22
BRANCH   1  43
HETATM   43  O5  UNL     1      -6.355   7.438  13.284  1.00  0.00    -0.381 OA
HETATM   44  H18 UNL     1      -6.763   6.598  12.980  1.00  0.00     0.211 HD
ENDBRANCH   1  43
TORSDOF 13
ENDMDL
MODEL 3
REMARK minimizedAffinity -7.82019567
REMARK CNNscore 0.357714742
REMARK CNNaffinity 6.78199244
REMARK  13 active torsions:
REMARK  status: ('A' for Active; 'I' for Inactive)
REMARK    1  A    between atoms: C2_2  and  C3_3 
REMARK    2  A    between atoms: C3_3  and  C5_5 
REMARK    3  A    between atoms: C5_5  and  N1_6 
REMARK    4  A    between atoms: C5_5  and  C31_39 
REMARK       I    between atoms: N1_6  and  C6_7 
REMARK    5  A    between atoms: C6_7  and  C7_9 
REMARK    6  A    between atoms: C7_9  and  C8_10 
REMARK    7  A    between atoms: C8_10  and  C9_11 
REMARK    8  A    between atoms: C9_11  and  O3_13 
REMARK    9  A    between atoms: O3_13  and  C10_14 
REMARK   10  A    between atoms: C10_14  and  C11_15 
REMARK   11  A    between atoms: C11_15  and  C12_17 
REMARK   12  A    between atoms: C12_17  and  O5_18 
REMARK   13  A    between atoms: C31_39  and  O9_41 
ROOT
HETATM    1  C12 UNL     1      -4.483   6.856  15.077  1.00  0.00     0.128 C 
HETATM    2  C13 UNL     1      -4.914   5.511  14.450  1.00  0.00     0.047 C 
HETATM    3  C14 UNL     1      -3.795   5.117  13.460  1.00  0.00     0.009 C 
HETATM    4  C15 UNL     1      -2.717   6.182  13.646  1.00  0.00     0.002 C 
HETATM    5  C16 UNL     1      -1.709   6.407  12.510  1.00  0.00     0.003 C 
HETATM    6  C17 UNL     1      -0.963   5.112  12.166  1.00  0.00     0.010 C 
HETATM    7  C18 UNL     1       0.077   5.343  11.078  1.00  0.00     0.035 C 
HETATM    8  C19 UNL     1       1.043   6.443  11.450  1.00  0.00    -0.067 C 
HETATM    9  C20 UNL     1       2.366   6.209  11.397  1.00  0.00     0.053 C 
HETATM   10  C21 UNL     1       3.354   7.278  11.656  1.00  0.00     0.149 C 
HETATM   11  O6  UNL     1       4.547   7.000  11.732  1.00  0.00    -0.293 OA
HETATM   12  C22 UNL     1       2.837   8.688  11.767  1.00  0.00     0.084 C 
HETATM   13  C23 UNL     1       1.521   8.686  12.528  1.00  0.00     0.022 C 
HETATM   14  C24 UNL     1       0.422   7.786  11.880  1.00  0.00    -0.009 C 
HETATM   15  C25 UNL     1      -0.125   8.479  10.612  1.00  0.00     0.021 C 
HETATM   16  C26 UNL     1      -0.696   7.508  12.947  1.00  0.00     0.072 C 
HETATM   17  C27 UNL     1      -1.461   8.748  13.449  1.00  0.00     0.133 C 
HETATM   18  O7  UNL     1      -1.222   9.891  13.066  1.00  0.00    -0.297 OA
HETATM   19  C28 UNL     1      -2.523   8.505  14.517  1.00  0.00     0.091 C 
HETATM   20  C29 UNL     1      -3.521   7.456  14.014  1.00  0.00     0.005 C 
HETATM   21  C30 UNL     1      -4.307   8.048  12.817  1.00  0.00     0.019 C 
ENDROOT
BRANCH   1  22
HETATM   22  C11 UNL     1      -5.612   7.786  15.567  1.00  0.00     0.185 C 
HETATM   23  O4  UNL     1      -5.332   8.954  15.865  1.00  0.00    -0.292 OA
BRANCH  22  24
HETATM   24  C10 UNL     1      -7.023   7.225  15.719  1.00  0.00     0.260 C 
BRANCH  24  25
HETATM   25  O3  UNL     1      -7.865   7.421  14.586  1.00  0.00    -0.314 OA
BRANCH  25  26
HETATM   26  C9  UNL     1      -8.511   6.307  14.144  1.00  0.00     0.259 C 
HETATM   27  O2  UNL     1      -7.977   5.226  13.930  1.00  0.00    -0.265 OA
BRANCH  26  28
HETATM   28  C8  UNL     1      -9.984   6.586  13.999  1.00  0.00     0.120 C 
BRANCH  28  29
HETATM   29  C7  UNL     1     -10.312   8.026  14.368  1.00  0.00     0.112 C 
BRANCH  29  30
HETATM   30  C6  UNL     1     -11.783   8.315  14.150  1.00  0.00     0.218 C 
HETATM   31  N1  UNL     1     -12.273   7.809  12.969  1.00  0.00    -0.346 N 
HETATM   32  H11 UNL     1     -11.731   7.099  12.488  1.00  0.00     0.163 HD
HETATM   33  O1  UNL     1     -12.469   8.946  14.948  1.00  0.00    -0.274 OA
BRANCH  31  34
HETATM   34  C5  UNL     1     -13.708   7.843  12.646  1.00  0.00     0.186 C 
BRANCH  34  35
HETATM   35  C3  UNL     1     -14.549   7.138  13.743  1.00  0.00     0.014 C 
HETATM   36  C4  UNL     1     -13.751   5.999  14.399  1.00  0.00     0.012 C 
BRANCH  35  37
HETATM   37  C2  UNL     1     -15.035   8.138  14.821  1.00  0.00     0.002 C 
HETATM   38  C1  UNL     1     -16.548   8.180  14.988  1.00  0.00     0.005 C 
ENDBRANCH  35  37
ENDBRANCH  34  35
BRANCH  34  39
HETATM   39  C31 UNL     1     -14.104   9.325  12.503  1.00  0.00     0.163 C 
HETATM   40  O8  UNL     1     -13.483  10.295  12.908  1.00  0.00    -0.648 OA
BRANCH  39  41
HETATM   41  O9  UNL     1     -15.240   9.517  11.783  1.00  0.00    -0.775 OA
HETATM   42  H43 UNL     1     -15.330  10.495  11.763  1.00  0.00     0.167 HD
ENDBRANCH  39  41
ENDBRANCH  34  39
ENDBRANCH  31  34
ENDBRANCH  29  30
ENDBRANCH  28  29
ENDBRANCH  26  28
ENDBRANCH  25  26
ENDBRANCH  24  25
ENDBRANCH  22  24
ENDBRANCH   1  22
BRANCH   1  43
HETATM   43  O5  UNL     1      -3.733   6.524  16.262  1.00  0.00    -0.381 OA
HETATM   44  H18 UNL     1      -3.748   7.322  16.834  1.00  0.00     0.211 HD
ENDBRANCH   1  43
TORSDOF 13
ENDMDL
MODEL 4
REMARK minimizedAffinity -9.00506592
REMARK CNNscore 0.351609796
REMARK CNNaffinity 7.07929945
REMARK  13 active torsions:
REMARK  status: ('A' for Active; 'I' for Inactive)
REMARK    1  A    between atoms: C2_2  and  C3_3 
REMARK    2  A    between atoms: C3_3  and  C5_5 
REMARK    3  A    between atoms: C5_5  and  N1_6 
REMARK    4  A    between atoms: C5_5  and  C31_39 
REMARK       I    between atoms: N1_6  and  C6_7 
REMARK    5  A    between atoms: C6_7  and  C7_9 
REMARK    6  A    between atoms: C7_9  and  C8_10 
REMARK    7  A    between atoms: C8_10  and  C9_11 
REMARK    8  A    between atoms: C9_11  and  O3_13 
REMARK    9  A    between atoms: O3_13  and  C10_14 
REMARK   10  A    between atoms: C10_14  and  C11_15 
REMARK   11  A    between atoms: C11_15  and  C12_17 
REMARK   12  A    between atoms: C12_17  and  O5_18 
REMARK   13  A    between atoms: C31_39  and  O9_41 
ROOT
HETATM    1  C12 UNL     1      -1.526   6.123  12.981  1.00  0.00     0.128 C 
HETATM    2  C13 UNL     1      -1.521   4.699  12.381  1.00  0.00     0.047 C 
HETATM    3  C14 UNL     1      -2.986   4.210  12.416  1.00  0.00     0.009 C 
HETATM    4  C15 UNL     1      -3.786   5.409  12.920  1.00  0.00     0.002 C 
HETATM    5  C16 UNL     1      -5.163   5.157  13.550  1.00  0.00     0.003 C 
HETATM    6  C17 UNL     1      -6.089   4.414  12.579  1.00  0.00     0.010 C 
HETATM    7  C18 UNL     1      -7.474   4.210  13.180  1.00  0.00     0.035 C 
HETATM    8  C19 UNL     1      -8.089   5.516  13.625  1.00  0.00    -0.067 C 
HETATM    9  C20 UNL     1      -9.320   5.848  13.197  1.00  0.00     0.053 C 
HETATM   10  C21 UNL     1     -10.006   7.065  13.679  1.00  0.00     0.149 C 
HETATM   11  O6  UNL     1     -11.068   7.409  13.169  1.00  0.00    -0.293 OA
HETATM   12  C22 UNL     1      -9.377   7.807  14.829  1.00  0.00     0.084 C 
HETATM   13  C23 UNL     1      -7.867   7.820  14.657  1.00  0.00     0.022 C 
HETATM   14  C24 UNL     1      -7.235   6.395  14.558  1.00  0.00    -0.009 C 
HETATM   15  C25 UNL     1      -7.232   5.737  15.956  1.00  0.00     0.021 C 
HETATM   16  C26 UNL     1      -5.793   6.525  13.949  1.00  0.00     0.072 C 
HETATM   17  C27 UNL     1      -4.786   7.336  14.788  1.00  0.00     0.133 C 
HETATM   18  O7  UNL     1      -5.070   7.867  15.859  1.00  0.00    -0.297 OA
HETATM   19  C28 UNL     1      -3.391   7.509  14.195  1.00  0.00     0.091 C 
HETATM   20  C29 UNL     1      -2.799   6.134  13.872  1.00  0.00     0.005 C 
HETATM   21  C30 UNL     1      -2.560   5.369  15.199  1.00  0.00     0.019 C 
ENDROOT
BRANCH   1  22
HETATM   22  C11 UNL     1      -0.224   6.593  13.659  1.00  0.00     0.185 C 
HETATM   23  O4  UNL     1      -0.298   7.404  14.592  1.00  0.00    -0.292 OA
BRANCH  22  24
HETATM   24  C10 UNL     1       1.115   6.089  13.128  1.00  0.00     0.260 C 
BRANCH  24  25
HETATM   25  O3  UNL     1       1.518   6.668  11.889  1.00  0.00    -0.314 OA
BRANCH  25  26
HETATM   26  C9  UNL     1       1.496   5.826  10.820  1.00  0.00     0.259 C 
HETATM   27  O2  UNL     1       1.670   4.615  10.880  1.00  0.00    -0.265 OA
BRANCH  26  28
HETATM   28  C8  UNL     1       1.184   6.591   9.562  1.00  0.00     0.120 C 
BRANCH  28  29
HETATM   29  C7  UNL     1       2.363   6.576   8.600  1.00  0.00     0.112 C 
BRANCH  29  30
HETATM   30  C6  UNL     1       3.402   7.601   9.005  1.00  0.00     0.218 C 
HETATM   31  N1  UNL     1       4.139   7.230  10.105  1.00  0.00    -0.346 N 
HETATM   32  H11 UNL     1       4.126   6.255  10.386  1.00  0.00     0.163 HD
HETATM   33  O1  UNL     1       3.566   8.662   8.412  1.00  0.00    -0.274 OA
BRANCH  31  34
HETATM   34  C5  UNL     1       5.300   8.010  10.560  1.00  0.00     0.186 C 
BRANCH  34  35
HETATM   35  C3  UNL     1       4.881   9.100  11.582  1.00  0.00     0.014 C 
HETATM   36  C4  UNL     1       4.410   8.464  12.900  1.00  0.00     0.012 C 
BRANCH  35  37
HETATM   37  C2  UNL     1       6.032  10.101  11.853  1.00  0.00     0.002 C 
HETATM   38  C1  UNL     1       5.564  11.526  12.113  1.00  0.00     0.005 C 
ENDBRANCH  35  37
ENDBRANCH  34  35
BRANCH  34  39
HETATM   39  C31 UNL     1       6.298   7.015  11.181  1.00  0.00     0.163 C 
HETATM   40  O8  UNL     1       7.508   7.149  11.276  1.00  0.00    -0.648 OA
BRANCH  39  41
HETATM   41  O9  UNL     1       5.707   5.920  11.728  1.00  0.00    -0.775 OA
HETATM   42  H43 UNL     1       6.466   5.417  12.098  1.00  0.00     0.167 HD
ENDBRANCH  39  41
ENDBRANCH  34  39
ENDBRANCH  31  34
ENDBRANCH  29  30
ENDBRANCH  28  29
ENDBRANCH  26  28
ENDBRANCH  25  26
ENDBRANCH  24  25
ENDBRANCH  22  24
ENDBRANCH   1  22
BRANCH   1  43
HETATM   43  O5  UNL     1      -1.715   7.024  11.872  1.00  0.00    -0.381 OA
HETATM   44  H18 UNL     1      -1.388   7.902  12.168  1.00  0.00     0.211 HD
ENDBRANCH   1  43
TORSDOF 13
ENDMDL
MODEL 5
REMARK minimizedAffinity -8.91945744
REMARK CNNscore 0.262497395
REMARK CNNaffinity 6.69117117
REMARK  13 active torsions:
REMARK  status: ('A' for Active; 'I' for Inactive)
REMARK    1  A    between atoms: C2_2  and  C3_3 
REMARK    2  A    between atoms: C3_3  and  C5_5 
REMARK    3  A    between atoms: C5_5  and  N1_6 
REMARK    4  A    between atoms: C5_5  and  C31_39 
REMARK       I    between atoms: N1_6  and  C6_7 
REMARK    5  A    between atoms: C6_7  and  C7_9 
REMARK    6  A    between atoms: C7_9  and  C8_10 
REMARK    7  A    between atoms: C8_10  and  C9_11 
REMARK    8  A    between atoms: C9_11  and  O3_13 
REMARK    9  A    between atoms: O3_13  and  C10_14 
REMARK   10  A    between atoms: C10_14  and  C11_15 
REMARK   11  A    between atoms: C11_15  and  C12_17 
REMARK   12  A    between atoms: C12_17  and  O5_18 
REMARK   13  A    between atoms: C31_39  and  O9_41 
ROOT
HETATM    1  C12 UNL     1      -0.838   6.044  12.436  1.00  0.00     0.128 C 
HETATM    2  C13 UNL     1      -0.796   4.582  11.939  1.00  0.00     0.047 C 
HETATM    3  C14 UNL     1      -2.224   4.022  12.122  1.00  0.00     0.009 C 
HETATM    4  C15 UNL     1      -3.052   5.211  12.601  1.00  0.00     0.002 C 
HETATM    5  C16 UNL     1      -4.362   4.936  13.352  1.00  0.00     0.003 C 
HETATM    6  C17 UNL     1      -5.313   4.076  12.510  1.00  0.00     0.010 C 
HETATM    7  C18 UNL     1      -6.636   3.846  13.229  1.00  0.00     0.035 C 
HETATM    8  C19 UNL     1      -7.291   5.148  13.629  1.00  0.00    -0.067 C 
HETATM    9  C20 UNL     1      -8.567   5.384  13.275  1.00  0.00     0.053 C 
HETATM   10  C21 UNL     1      -9.284   6.596  13.722  1.00  0.00     0.149 C 
HETATM   11  O6  UNL     1     -10.398   6.846  13.273  1.00  0.00    -0.293 OA
HETATM   12  C22 UNL     1      -8.616   7.453  14.765  1.00  0.00     0.084 C 
HETATM   13  C23 UNL     1      -7.125   7.530  14.476  1.00  0.00     0.022 C 
HETATM   14  C24 UNL     1      -6.421   6.137  14.428  1.00  0.00    -0.009 C 
HETATM   15  C25 UNL     1      -6.279   5.585  15.864  1.00  0.00     0.021 C 
HETATM   16  C26 UNL     1      -5.038   6.296  13.702  1.00  0.00     0.072 C 
HETATM   17  C27 UNL     1      -4.020   7.218  14.402  1.00  0.00     0.133 C 
HETATM   18  O7  UNL     1      -4.255   7.812  15.451  1.00  0.00    -0.297 OA
HETATM   19  C28 UNL     1      -2.685   7.419  13.691  1.00  0.00     0.091 C 
HETATM   20  C29 UNL     1      -2.041   6.055  13.421  1.00  0.00     0.005 C 
HETATM   21  C30 UNL     1      -1.662   5.404  14.775  1.00  0.00     0.019 C 
ENDROOT
BRANCH   1  22
HETATM   22  C11 UNL     1       0.482   6.630  12.977  1.00  0.00     0.185 C 
HETATM   23  O4  UNL     1       0.459   7.264  14.040  1.00  0.00    -0.292 OA
BRANCH  22  24
HETATM   24  C10 UNL     1       1.761   6.459  12.162  1.00  0.00     0.260 C 
BRANCH  24  25
HETATM   25  O3  UNL     1       1.686   6.960  10.830  1.00  0.00    -0.314 OA
BRANCH  25  26
HETATM   26  C9  UNL     1       2.538   6.377   9.942  1.00  0.00     0.259 C 
HETATM   27  O2  UNL     1       2.224   5.505   9.141  1.00  0.00    -0.265 OA
BRANCH  26  28
HETATM   28  C8  UNL     1       3.908   6.989  10.058  1.00  0.00     0.120 C 
BRANCH  28  29
HETATM   29  C7  UNL     1       4.966   5.928  10.329  1.00  0.00     0.112 C 
BRANCH  29  30
HETATM   30  C6  UNL     1       6.016   6.446  11.289  1.00  0.00     0.218 C 
HETATM   31  N1  UNL     1       5.502   6.850  12.499  1.00  0.00    -0.346 N 
HETATM   32  H11 UNL     1       4.567   6.546  12.750  1.00  0.00     0.163 HD
HETATM   33  O1  UNL     1       7.210   6.505  11.012  1.00  0.00    -0.274 OA
BRANCH  31  34
HETATM   34  C5  UNL     1       6.371   7.235  13.622  1.00  0.00     0.186 C 
BRANCH  34  35
HETATM   35  C3  UNL     1       7.441   8.268  13.177  1.00  0.00     0.014 C 
HETATM   36  C4  UNL     1       7.048   9.688  13.617  1.00  0.00     0.012 C 
BRANCH  35  37
HETATM   37  C2  UNL     1       8.844   7.908  13.727  1.00  0.00     0.002 C 
HETATM   38  C1  UNL     1       9.597   9.090  14.321  1.00  0.00     0.005 C 
ENDBRANCH  35  37
ENDBRANCH  34  35
BRANCH  34  39
HETATM   39  C31 UNL     1       5.461   7.810  14.722  1.00  0.00     0.163 C 
HETATM   40  O8  UNL     1       4.712   8.770  14.631  1.00  0.00    -0.648 OA
BRANCH  39  41
HETATM   41  O9  UNL     1       5.482   7.094  15.877  1.00  0.00    -0.775 OA
HETATM   42  H43 UNL     1       4.839   7.569  16.448  1.00  0.00     0.167 HD
ENDBRANCH  39  41
ENDBRANCH  34  39
ENDBRANCH  31  34
ENDBRANCH  29  30
ENDBRANCH  28  29
ENDBRANCH  26  28
ENDBRANCH  25  26
ENDBRANCH  24  25
ENDBRANCH  22  24
ENDBRANCH   1  22
BRANCH   1  43
HETATM   43  O5  UNL     1      -1.160   6.850  11.285  1.00  0.00    -0.381 OA
HETATM   44  H18 UNL     1      -0.863   7.763  11.493  1.00  0.00     0.211 HD
ENDBRANCH   1  43
TORSDOF 13
ENDMDL
MODEL 6
REMARK minimizedAffinity -8.09782982
REMARK CNNscore 0.247452766
REMARK CNNaffinity 6.14963531
REMARK  13 active torsions:
REMARK  status: ('A' for Active; 'I' for Inactive)
REMARK    1  A    between atoms: C2_2  and  C3_3 
REMARK    2  A    between atoms: C3_3  and  C5_5 
REMARK    3  A    between atoms: C5_5  and  N1_6 
REMARK    4  A    between atoms: C5_5  and  C31_39 
REMARK       I    between atoms: N1_6  and  C6_7 
REMARK    5  A    between atoms: C6_7  and  C7_9 
REMARK    6  A    between atoms: C7_9  and  C8_10 
REMARK    7  A    between atoms: C8_10  and  C9_11 
REMARK    8  A    between atoms: C9_11  and  O3_13 
REMARK    9  A    between atoms: O3_13  and  C10_14 
REMARK   10  A    between atoms: C10_14  and  C11_15 
REMARK   11  A    between atoms: C11_15  and  C12_17 
REMARK   12  A    between atoms: C12_17  and  O5_18 
REMARK   13  A    between atoms: C31_39  and  O9_41 
ROOT
HETATM    1  C12 UNL     1       0.346  11.727  17.807  1.00  0.00     0.128 C 
HETATM    2  C13 UNL     1      -0.666  12.812  18.234  1.00  0.00     0.047 C 
HETATM    3  C14 UNL     1      -0.052  13.516  19.465  1.00  0.00     0.009 C 
HETATM    4  C15 UNL     1       1.332  12.891  19.621  1.00  0.00     0.002 C 
HETATM    5  C16 UNL     1       2.019  12.968  20.992  1.00  0.00     0.003 C 
HETATM    6  C17 UNL     1       2.160  14.422  21.461  1.00  0.00     0.010 C 
HETATM    7  C18 UNL     1       2.889  14.505  22.795  1.00  0.00     0.035 C 
HETATM    8  C19 UNL     1       4.234  13.819  22.743  1.00  0.00    -0.067 C 
HETATM    9  C20 UNL     1       5.335  14.486  23.133  1.00  0.00     0.053 C 
HETATM   10  C21 UNL     1       6.658  13.831  23.194  1.00  0.00     0.149 C 
HETATM   11  O6  UNL     1       7.660  14.501  23.424  1.00  0.00    -0.293 OA
HETATM   12  C22 UNL     1       6.701  12.336  23.016  1.00  0.00     0.084 C 
HETATM   13  C23 UNL     1       5.714  11.927  21.934  1.00  0.00     0.022 C 
HETATM   14  C24 UNL     1       4.245  12.367  22.227  1.00  0.00    -0.009 C 
HETATM   15  C25 UNL     1       3.652  11.469  23.336  1.00  0.00     0.021 C 
HETATM   16  C26 UNL     1       3.423  12.299  20.890  1.00  0.00     0.072 C 
HETATM   17  C27 UNL     1       3.288  10.899  20.262  1.00  0.00     0.133 C 
HETATM   18  O7  UNL     1       3.791   9.888  20.746  1.00  0.00    -0.297 OA
HETATM   19  C28 UNL     1       2.528  10.817  18.941  1.00  0.00     0.091 C 
HETATM   20  C29 UNL     1       1.139  11.439  19.112  1.00  0.00     0.005 C 
HETATM   21  C30 UNL     1       0.314  10.558  20.085  1.00  0.00     0.019 C 
ENDROOT
BRANCH   1  22
HETATM   22  C11 UNL     1      -0.226  10.493  17.079  1.00  0.00     0.185 C 
HETATM   23  O4  UNL     1       0.547   9.768  16.440  1.00  0.00    -0.292 OA
BRANCH  22  24
HETATM   24  C10 UNL     1      -1.730  10.235  17.125  1.00  0.00     0.260 C 
BRANCH  24  25
HETATM   25  O3  UNL     1      -2.112   8.898  16.811  1.00  0.00    -0.314 OA
BRANCH  25  26
HETATM   26  C9  UNL     1      -2.959   8.770  15.753  1.00  0.00     0.259 C 
HETATM   27  O2  UNL     1      -3.342   9.694  15.047  1.00  0.00    -0.265 OA
BRANCH  26  28
HETATM   28  C8  UNL     1      -3.321   7.322  15.551  1.00  0.00     0.120 C 
BRANCH  28  29
HETATM   29  C7  UNL     1      -3.645   7.033  14.092  1.00  0.00     0.112 C 
BRANCH  29  30
HETATM   30  C6  UNL     1      -5.134   7.144  13.838  1.00  0.00     0.218 C 
HETATM   31  N1  UNL     1      -5.861   6.111  14.383  1.00  0.00    -0.346 N 
HETATM   32  H11 UNL     1      -5.422   5.534  15.092  1.00  0.00     0.163 HD
HETATM   33  O1  UNL     1      -5.641   8.063  13.204  1.00  0.00    -0.274 OA
BRANCH  31  34
HETATM   34  C5  UNL     1      -7.332   6.115  14.386  1.00  0.00     0.186 C 
BRANCH  34  35
HETATM   35  C3  UNL     1      -7.901   4.965  13.512  1.00  0.00     0.014 C 
HETATM   36  C4  UNL     1      -8.392   5.497  12.156  1.00  0.00     0.012 C 
BRANCH  35  37
HETATM   37  C2  UNL     1      -6.856   3.841  13.299  1.00  0.00     0.002 C 
HETATM   38  C1  UNL     1      -7.460   2.503  12.897  1.00  0.00     0.005 C 
ENDBRANCH  35  37
ENDBRANCH  34  35
BRANCH  34  39
HETATM   39  C31 UNL     1      -7.783   5.979  15.852  1.00  0.00     0.163 C 
HETATM   40  O8  UNL     1      -7.818   6.861  16.696  1.00  0.00    -0.648 OA
BRANCH  39  41
HETATM   41  O9  UNL     1      -8.243   4.740  16.167  1.00  0.00    -0.775 OA
HETATM   42  H43 UNL     1      -8.511   4.833  17.108  1.00  0.00     0.167 HD
ENDBRANCH  39  41
ENDBRANCH  34  39
ENDBRANCH  31  34
ENDBRANCH  29  30
ENDBRANCH  28  29
ENDBRANCH  26  28
ENDBRANCH  25  26
ENDBRANCH  24  25
ENDBRANCH  22  24
ENDBRANCH   1  22
BRANCH   1  43
HETATM   43  O5  UNL     1       1.223  12.351  16.848  1.00  0.00    -0.381 OA
HETATM   44  H18 UNL     1       1.632  11.624  16.330  1.00  0.00     0.211 HD
ENDBRANCH   1  43
TORSDOF 13
ENDMDL
MODEL 7
REMARK minimizedAffinity -9.45214844
REMARK CNNscore 0.245398983
REMARK CNNaffinity 6.89611959
REMARK  13 active torsions:
REMARK  status: ('A' for Active; 'I' for Inactive)
REMARK    1  A    between atoms: C2_2  and  C3_3 
REMARK    2  A    between atoms: C3_3  and  C5_5 
REMARK    3  A    between atoms: C5_5  and  N1_6 
REMARK    4  A    between atoms: C5_5  and  C31_39 
REMARK       I    between atoms: N1_6  and  C6_7 
REMARK    5  A    between atoms: C6_7  and  C7_9 
REMARK    6  A    between atoms: C7_9  and  C8_10 
REMARK    7  A    between atoms: C8_10  and  C9_11 
REMARK    8  A    between atoms: C9_11  and  O3_13 
REMARK    9  A    between atoms: O3_13  and  C10_14 
REMARK   10  A    between atoms: C10_14  and  C11_15 
REMARK   11  A    between atoms: C11_15  and  C12_17 
REMARK   12  A    between atoms: C12_17  and  O5_18 
REMARK   13  A    between atoms: C31_39  and  O9_41 
ROOT
HETATM    1  C12 UNL     1      -1.179   7.163  13.106  1.00  0.00     0.128 C 
HETATM    2  C13 UNL     1      -0.928   5.735  12.574  1.00  0.00     0.047 C 
HETATM    3  C14 UNL     1      -2.291   5.010  12.619  1.00  0.00     0.009 C 
HETATM    4  C15 UNL     1      -3.287   6.080  13.059  1.00  0.00     0.002 C 
HETATM    5  C16 UNL     1      -4.613   5.629  13.688  1.00  0.00     0.003 C 
HETATM    6  C17 UNL     1      -5.387   4.700  12.744  1.00  0.00     0.010 C 
HETATM    7  C18 UNL     1      -6.727   4.294  13.342  1.00  0.00     0.035 C 
HETATM    8  C19 UNL     1      -7.559   5.497  13.720  1.00  0.00    -0.067 C 
HETATM    9  C20 UNL     1      -8.821   5.600  13.266  1.00  0.00     0.053 C 
HETATM   10  C21 UNL     1      -9.708   6.705  13.685  1.00  0.00     0.149 C 
HETATM   11  O6  UNL     1     -10.804   6.844  13.150  1.00  0.00    -0.293 OA
HETATM   12  C22 UNL     1      -9.231   7.593  14.804  1.00  0.00     0.084 C 
HETATM   13  C23 UNL     1      -7.741   7.850  14.644  1.00  0.00     0.022 C 
HETATM   14  C24 UNL     1      -6.879   6.548  14.618  1.00  0.00    -0.009 C 
HETATM   15  C25 UNL     1      -6.790   5.963  16.045  1.00  0.00     0.021 C 
HETATM   16  C26 UNL     1      -5.469   6.890  14.017  1.00  0.00     0.072 C 
HETATM   17  C27 UNL     1      -4.625   7.894  14.826  1.00  0.00     0.133 C 
HETATM   18  O7  UNL     1      -5.012   8.418  15.868  1.00  0.00    -0.297 OA
HETATM   19  C28 UNL     1      -3.269   8.272  14.237  1.00  0.00     0.091 C 
HETATM   20  C29 UNL     1      -2.451   7.001  13.985  1.00  0.00     0.005 C 
HETATM   21  C30 UNL     1      -2.110   6.347  15.348  1.00  0.00     0.019 C 
ENDROOT
BRANCH   1  22
HETATM   22  C11 UNL     1       0.015   7.875  13.773  1.00  0.00     0.185 C 
HETATM   23  O4  UNL     1       0.233   7.672  14.975  1.00  0.00    -0.292 OA
BRANCH  22  24
HETATM   24  C10 UNL     1       0.857   8.846  12.949  1.00  0.00     0.260 C 
BRANCH  24  25
HETATM   25  O3  UNL     1       1.854   9.543  13.691  1.00  0.00    -0.314 OA
BRANCH  25  26
HETATM   26  C9  UNL     1       3.130   9.376  13.247  1.00  0.00     0.259 C 
HETATM   27  O2  UNL     1       3.883  10.286  12.922  1.00  0.00    -0.265 OA
BRANCH  26  28
HETATM   28  C8  UNL     1       3.495   7.915  13.255  1.00  0.00     0.120 C 
BRANCH  28  29
HETATM   29  C7  UNL     1       4.700   7.642  12.365  1.00  0.00     0.112 C 
BRANCH  29  30
HETATM   30  C6  UNL     1       4.279   6.953  11.084  1.00  0.00     0.218 C 
HETATM   31  N1  UNL     1       3.275   6.030  11.262  1.00  0.00    -0.346 N 
HETATM   32  H11 UNL     1       2.738   6.063  12.122  1.00  0.00     0.163 HD
HETATM   33  O1  UNL     1       4.788   7.192   9.994  1.00  0.00    -0.274 OA
BRANCH  31  34
HETATM   34  C5  UNL     1       2.617   5.370  10.124  1.00  0.00     0.186 C 
BRANCH  34  35
HETATM   35  C3  UNL     1       1.812   6.388   9.272  1.00  0.00     0.014 C 
HETATM   36  C4  UNL     1       1.290   7.542  10.144  1.00  0.00     0.012 C 
BRANCH  35  37
HETATM   37  C2  UNL     1       2.656   6.944   8.099  1.00  0.00     0.002 C 
HETATM   38  C1  UNL     1       1.872   7.135   6.808  1.00  0.00     0.005 C 
ENDBRANCH  35  37
ENDBRANCH  34  35
BRANCH  34  39
HETATM   39  C31 UNL     1       3.722   4.694   9.291  1.00  0.00     0.163 C 
HETATM   40  O8  UNL     1       3.684   4.421   8.102  1.00  0.00    -0.648 OA
BRANCH  39  41
HETATM   41  O9  UNL     1       4.864   4.462   9.989  1.00  0.00    -0.775 OA
HETATM   42  H43 UNL     1       5.461   4.065   9.317  1.00  0.00     0.167 HD
ENDBRANCH  39  41
ENDBRANCH  34  39
ENDBRANCH  31  34
ENDBRANCH  29  30
ENDBRANCH  28  29
ENDBRANCH  26  28
ENDBRANCH  25  26
ENDBRANCH  24  25
ENDBRANCH  22  24
ENDBRANCH   1  22
BRANCH   1  43
HETATM   43  O5  UNL     1      -1.498   7.970  11.955  1.00  0.00    -0.381 OA
HETATM   44  H18 UNL     1      -1.326   8.902  12.212  1.00  0.00     0.211 HD
ENDBRANCH   1  43
TORSDOF 13
ENDMDL
MODEL 8
REMARK minimizedAffinity -8.86075401
REMARK CNNscore 0.240447462
REMARK CNNaffinity 6.38864326
REMARK  13 active torsions:
REMARK  status: ('A' for Active; 'I' for Inactive)
REMARK    1  A    between atoms: C2_2  and  C3_3 
REMARK    2  A    between atoms: C3_3  and  C5_5 
REMARK    3  A    between atoms: C5_5  and  N1_6 
REMARK    4  A    between atoms: C5_5  and  C31_39 
REMARK       I    between atoms: N1_6  and  C6_7 
REMARK    5  A    between atoms: C6_7  and  C7_9 
REMARK    6  A    between atoms: C7_9  and  C8_10 
REMARK    7  A    between atoms: C8_10  and  C9_11 
REMARK    8  A    between atoms: C9_11  and  O3_13 
REMARK    9  A    between atoms: O3_13  and  C10_14 
REMARK   10  A    between atoms: C10_14  and  C11_15 
REMARK   11  A    between atoms: C11_15  and  C12_17 
REMARK   12  A    between atoms: C12_17  and  O5_18 
REMARK   13  A    between atoms: C31_39  and  O9_41 
ROOT
HETATM    1  C12 UNL     1      -0.609   7.688  12.758  1.00  0.00     0.128 C 
HETATM    2  C13 UNL     1      -0.267   6.308  12.156  1.00  0.00     0.047 C 
HETATM    3  C14 UNL     1      -1.561   5.467  12.238  1.00  0.00     0.009 C 
HETATM    4  C15 UNL     1      -2.619   6.431  12.770  1.00  0.00     0.002 C 
HETATM    5  C16 UNL     1      -3.868   5.847  13.444  1.00  0.00     0.003 C 
HETATM    6  C17 UNL     1      -4.610   4.889  12.503  1.00  0.00     0.010 C 
HETATM    7  C18 UNL     1      -5.879   4.349  13.149  1.00  0.00     0.035 C 
HETATM    8  C19 UNL     1      -6.787   5.462  13.617  1.00  0.00    -0.067 C 
HETATM    9  C20 UNL     1      -8.075   5.474  13.230  1.00  0.00     0.053 C 
HETATM   10  C21 UNL     1      -9.028   6.483  13.736  1.00  0.00     0.149 C 
HETATM   11  O6  UNL     1     -10.158   6.547  13.262  1.00  0.00    -0.293 OA
HETATM   12  C22 UNL     1      -8.568   7.367  14.866  1.00  0.00     0.084 C 
HETATM   13  C23 UNL     1      -7.115   7.756  14.644  1.00  0.00     0.022 C 
HETATM   14  C24 UNL     1      -6.150   6.534  14.522  1.00  0.00    -0.009 C 
HETATM   15  C25 UNL     1      -5.938   5.906  15.918  1.00  0.00     0.021 C 
HETATM   16  C26 UNL     1      -4.807   7.017  13.866  1.00  0.00     0.072 C 
HETATM   17  C27 UNL     1      -4.009   8.059  14.673  1.00  0.00     0.133 C 
HETATM   18  O7  UNL     1      -4.382   8.509  15.754  1.00  0.00    -0.297 OA
HETATM   19  C28 UNL     1      -2.722   8.572  14.035  1.00  0.00     0.091 C 
HETATM   20  C29 UNL     1      -1.815   7.386  13.691  1.00  0.00     0.005 C 
HETATM   21  C30 UNL     1      -1.350   6.714  15.007  1.00  0.00     0.019 C 
ENDROOT
BRANCH   1  22
HETATM   22  C11 UNL     1       0.555   8.474  13.394  1.00  0.00     0.185 C 
HETATM   23  O4  UNL     1       1.714   8.087  13.194  1.00  0.00    -0.292 OA
BRANCH  22  24
HETATM   24  C10 UNL     1       0.243   9.670  14.290  1.00  0.00     0.260 C 
BRANCH  24  25
HETATM   25  O3  UNL     1       0.707   9.542  15.632  1.00  0.00    -0.314 OA
BRANCH  25  26
HETATM   26  C9  UNL     1      -0.042  10.187  16.568  1.00  0.00     0.259 C 
HETATM   27  O2  UNL     1      -1.242  10.017  16.743  1.00  0.00    -0.265 OA
BRANCH  26  28
HETATM   28  C8  UNL     1       0.828  11.106  17.385  1.00  0.00     0.120 C 
BRANCH  28  29
HETATM   29  C7  UNL     1       0.634  10.868  18.876  1.00  0.00     0.112 C 
BRANCH  29  30
HETATM   30  C6  UNL     1       1.952  10.536  19.544  1.00  0.00     0.218 C 
HETATM   31  N1  UNL     1       1.860  10.419  20.911  1.00  0.00    -0.346 N 
HETATM   32  H11 UNL     1       0.940  10.302  21.323  1.00  0.00     0.163 HD
HETATM   33  O1  UNL     1       3.002  10.391  18.926  1.00  0.00    -0.274 OA
BRANCH  31  34
HETATM   34  C5  UNL     1       2.989   9.946  21.727  1.00  0.00     0.186 C 
BRANCH  34  35
HETATM   35  C3  UNL     1       3.618  11.106  22.544  1.00  0.00     0.014 C 
HETATM   36  C4  UNL     1       5.086  11.327  22.143  1.00  0.00     0.012 C 
BRANCH  35  37
HETATM   37  C2  UNL     1       2.816  12.421  22.379  1.00  0.00     0.002 C 
HETATM   38  C1  UNL     1       2.755  13.270  23.641  1.00  0.00     0.005 C 
ENDBRANCH  35  37
ENDBRANCH  34  35
BRANCH  34  39
HETATM   39  C31 UNL     1       2.447   8.840  22.652  1.00  0.00     0.163 C 
HETATM   40  O8  UNL     1       1.843   7.832  22.320  1.00  0.00    -0.648 OA
BRANCH  39  41
HETATM   41  O9  UNL     1       2.762   9.023  23.961  1.00  0.00    -0.775 OA
HETATM   42  H43 UNL     1       2.376   8.232  24.398  1.00  0.00     0.167 HD
ENDBRANCH  39  41
ENDBRANCH  34  39
ENDBRANCH  31  34
ENDBRANCH  29  30
ENDBRANCH  28  29
ENDBRANCH  26  28
ENDBRANCH  25  26
ENDBRANCH  24  25
ENDBRANCH  22  24
ENDBRANCH   1  22
BRANCH   1  43
HETATM   43  O5  UNL     1      -1.054   8.507  11.658  1.00  0.00    -0.381 OA
HETATM   44  H18 UNL     1      -0.947   9.440  11.944  1.00  0.00     0.211 HD
ENDBRANCH   1  43
TORSDOF 13
ENDMDL
MODEL 9
REMARK minimizedAffinity -7.84485579
REMARK CNNscore 0.240187153
REMARK CNNaffinity 6.70788813
REMARK  13 active torsions:
REMARK  status: ('A' for Active; 'I' for Inactive)
REMARK    1  A    between atoms: C2_2  and  C3_3 
REMARK    2  A    between atoms: C3_3  and  C5_5 
REMARK    3  A    between atoms: C5_5  and  N1_6 
REMARK    4  A    between atoms: C5_5  and  C31_39 
REMARK       I    between atoms: N1_6  and  C6_7 
REMARK    5  A    between atoms: C6_7  and  C7_9 
REMARK    6  A    between atoms: C7_9  and  C8_10 
REMARK    7  A    between atoms: C8_10  and  C9_11 
REMARK    8  A    between atoms: C9_11  and  O3_13 
REMARK    9  A    between atoms: O3_13  and  C10_14 
REMARK   10  A    between atoms: C10_14  and  C11_15 
REMARK   11  A    between atoms: C11_15  and  C12_17 
REMARK   12  A    between atoms: C12_17  and  O5_18 
REMARK   13  A    between atoms: C31_39  and  O9_41 
ROOT
HETATM    1  C12 UNL     1      -7.059   4.843  14.294  1.00  0.00     0.128 C 
HETATM    2  C13 UNL     1      -6.183   5.417  15.429  1.00  0.00     0.047 C 
HETATM    3  C14 UNL     1      -7.008   6.547  16.084  1.00  0.00     0.009 C 
HETATM    4  C15 UNL     1      -8.363   6.497  15.383  1.00  0.00     0.002 C 
HETATM    5  C16 UNL     1      -9.245   7.753  15.407  1.00  0.00     0.003 C 
HETATM    6  C17 UNL     1      -9.535   8.199  16.846  1.00  0.00     0.010 C 
HETATM    7  C18 UNL     1     -10.454   9.413  16.875  1.00  0.00     0.035 C 
HETATM    8  C19 UNL     1     -11.737   9.163  16.116  1.00  0.00    -0.067 C 
HETATM    9  C20 UNL     1     -12.918   9.390  16.718  1.00  0.00     0.053 C 
HETATM   10  C21 UNL     1     -14.197   9.255  15.990  1.00  0.00     0.149 C 
HETATM   11  O6  UNL     1     -15.258   9.337  16.602  1.00  0.00    -0.293 OA
HETATM   12  C22 UNL     1     -14.130   9.068  14.497  1.00  0.00     0.084 C 
HETATM   13  C23 UNL     1     -12.974   8.142  14.155  1.00  0.00     0.022 C 
HETATM   14  C24 UNL     1     -11.590   8.647  14.671  1.00  0.00    -0.009 C 
HETATM   15  C25 UNL     1     -11.116   9.829  13.795  1.00  0.00     0.021 C 
HETATM   16  C26 UNL     1     -10.580   7.445  14.664  1.00  0.00     0.072 C 
HETATM   17  C27 UNL     1     -10.276   6.840  13.279  1.00  0.00     0.133 C 
HETATM   18  O7  UNL     1     -10.788   7.243  12.237  1.00  0.00    -0.297 OA
HETATM   19  C28 UNL     1      -9.329   5.644  13.254  1.00  0.00     0.091 C 
HETATM   20  C29 UNL     1      -8.016   6.018  13.949  1.00  0.00     0.005 C 
HETATM   21  C30 UNL     1      -7.294   7.099  13.105  1.00  0.00     0.019 C 
ENDROOT
BRANCH   1  22
HETATM   22  C11 UNL     1      -6.318   4.204  13.102  1.00  0.00     0.185 C 
HETATM   23  O4  UNL     1      -6.934   3.416  12.373  1.00  0.00    -0.292 OA
BRANCH  22  24
HETATM   24  C10 UNL     1      -4.840   4.521  12.889  1.00  0.00     0.260 C 
BRANCH  24  25
HETATM   25  O3  UNL     1      -4.079   3.451  12.333  1.00  0.00    -0.314 OA
BRANCH  25  26
HETATM   26  C9  UNL     1      -2.752   3.706  12.171  1.00  0.00     0.259 C 
HETATM   27  O2  UNL     1      -1.947   2.934  11.666  1.00  0.00    -0.265 OA
BRANCH  26  28
HETATM   28  C8  UNL     1      -2.427   5.092  12.662  1.00  0.00     0.120 C 
BRANCH  28  29
HETATM   29  C7  UNL     1      -1.354   5.058  13.742  1.00  0.00     0.112 C 
BRANCH  29  30
HETATM   30  C6  UNL     1      -0.600   6.370  13.794  1.00  0.00     0.218 C 
HETATM   31  N1  UNL     1      -0.521   7.006  12.577  1.00  0.00    -0.346 N 
HETATM   32  H11 UNL     1      -1.154   6.715  11.840  1.00  0.00     0.163 HD
HETATM   33  O1  UNL     1      -0.104   6.819  14.822  1.00  0.00    -0.274 OA
BRANCH  31  34
HETATM   34  C5  UNL     1       0.028   8.365  12.446  1.00  0.00     0.186 C 
BRANCH  34  35
HETATM   35  C3  UNL     1       0.901   8.498  11.169  1.00  0.00     0.014 C 
HETATM   36  C4  UNL     1       2.355   8.086  11.453  1.00  0.00     0.012 C 
BRANCH  35  37
HETATM   37  C2  UNL     1       0.329   7.663   9.997  1.00  0.00     0.002 C 
HETATM   38  C1  UNL     1      -0.117   8.496   8.804  1.00  0.00     0.005 C 
ENDBRANCH  35  37
ENDBRANCH  34  35
BRANCH  34  39
HETATM   39  C31 UNL     1      -1.167   9.335  12.410  1.00  0.00     0.163 C 
HETATM   40  O8  UNL     1      -2.185   9.224  11.747  1.00  0.00    -0.648 OA
BRANCH  39  41
HETATM   41  O9  UNL     1      -1.052  10.373  13.280  1.00  0.00    -0.775 OA
HETATM   42  H43 UNL     1      -1.892  10.866  13.153  1.00  0.00     0.167 HD
ENDBRANCH  39  41
ENDBRANCH  34  39
ENDBRANCH  31  34
ENDBRANCH  29  30
ENDBRANCH  28  29
ENDBRANCH  26  28
ENDBRANCH  25  26
ENDBRANCH  24  25
ENDBRANCH  22  24
ENDBRANCH   1  22
BRANCH   1  43
HETATM   43  O5  UNL     1      -7.820   3.768  14.879  1.00  0.00    -0.381 OA
HETATM   44  H18 UNL     1      -8.108   3.194  14.137  1.00  0.00     0.211 HD
ENDBRANCH   1  43
TORSDOF 13
ENDMDL
