MODEL 1
REMARK minimizedAffinity -7.88754559
REMARK CNNscore 0.801574647
REMARK CNNaffinity 6.58432245
REMARK  11 active torsions:
REMARK  status: ('A' for Active; 'I' for Inactive)
REMARK    1  A    between atoms: C19_21  and  O3_22 
REMARK    2  A    between atoms: C19_21  and  C20_23 
REMARK    3  A    between atoms: C20_23  and  C21_25 
REMARK    4  A    between atoms: C21_25  and  O5_26 
REMARK    5  A    between atoms: O5_26  and  C22_27 
REMARK    6  A    between atoms: C22_27  and  C23_29 
REMARK    7  A    between atoms: C23_29  and  C24_30 
REMARK    8  A    between atoms: C24_30  and  C25_31 
REMARK       I    between atoms: C25_31  and  N1_33 
REMARK    9  A    between atoms: N1_33  and  C26_34 
REMARK   10  A    between atoms: C26_34  and  C27_35 
REMARK   11  A    between atoms: C27_35  and  O9_37 
ROOT
HETATM    1  C1  UNL     1      -1.375  13.137  16.968  1.00  0.00     0.021 C 
HETATM    2  C2  UNL     1      -2.632  12.263  16.758  1.00  0.00    -0.009 C 
HETATM    3  C3  UNL     1      -3.776  13.123  16.137  1.00  0.00     0.022 C 
HETATM    4  C4  UNL     1      -4.408  14.111  17.108  1.00  0.00     0.084 C 
HETATM    5  C5  UNL     1      -4.909  13.392  18.331  1.00  0.00     0.149 C 
HETATM    6  O1  UNL     1      -5.894  13.766  18.962  1.00  0.00    -0.293 OA
HETATM    7  C6  UNL     1      -4.126  12.235  18.823  1.00  0.00     0.053 C 
HETATM    8  C7  UNL     1      -3.074  11.746  18.141  1.00  0.00    -0.067 C 
HETATM    9  C8  UNL     1      -2.247  10.641  18.754  1.00  0.00     0.035 C 
HETATM   10  C9  UNL     1      -2.055   9.478  17.791  1.00  0.00     0.010 C 
HETATM   11  C10 UNL     1      -1.447   9.950  16.463  1.00  0.00     0.003 C 
HETATM   12  C11 UNL     1      -2.359  11.033  15.816  1.00  0.00     0.072 C 
HETATM   13  C12 UNL     1      -1.844  11.376  14.402  1.00  0.00     0.133 C 
HETATM   14  O2  UNL     1      -1.712  12.524  13.986  1.00  0.00    -0.297 OA
HETATM   15  C13 UNL     1      -1.585  10.199  13.466  1.00  0.00     0.091 C 
HETATM   16  C14 UNL     1      -0.636   9.197  14.134  1.00  0.00     0.005 C 
HETATM   17  C15 UNL     1       0.753   9.873  14.307  1.00  0.00     0.019 C 
HETATM   18  C16 UNL     1      -1.277   8.781  15.482  1.00  0.00     0.002 C 
HETATM   19  C17 UNL     1      -0.436   7.590  15.930  1.00  0.00     0.009 C 
HETATM   20  C18 UNL     1      -0.017   6.890  14.625  1.00  0.00     0.047 C 
HETATM   21  C19 UNL     1      -0.499   7.797  13.456  1.00  0.00     0.128 C 
ENDROOT
BRANCH  21  22
HETATM   22  O3  UNL     1      -1.778   7.274  13.080  1.00  0.00    -0.381 OA
HETATM   23  H25 UNL     1      -2.241   7.889  12.491  1.00  0.00     0.211 HD
ENDBRANCH  21  22
BRANCH  21  24
HETATM   24  C20 UNL     1       0.505   7.733  12.276  1.00  0.00     0.185 C 
HETATM   25  O4  UNL     1       1.658   7.318  12.417  1.00  0.00    -0.292 OA
BRANCH  24  26
HETATM   26  C21 UNL     1       0.002   8.221  10.916  1.00  0.00     0.260 C 
BRANCH  26  27
HETATM   27  O5  UNL     1       1.051   8.607  10.032  1.00  0.00    -0.314 OA
BRANCH  27  28
HETATM   28  C22 UNL     1       0.760   8.413   8.715  1.00  0.00     0.259 C 
HETATM   29  O6  UNL     1      -0.371   8.409   8.250  1.00  0.00    -0.265 OA
BRANCH  28  30
HETATM   30  C23 UNL     1       2.027   8.172   7.937  1.00  0.00     0.120 C 
BRANCH  30  31
HETATM   31  C24 UNL     1       2.326   6.682   7.825  1.00  0.00     0.112 C 
BRANCH  31  32
HETATM   32  C25 UNL     1       2.848   6.126   9.131  1.00  0.00     0.218 C 
HETATM   33  O7  UNL     1       2.351   5.167   9.707  1.00  0.00    -0.274 OA
HETATM   34  N1  UNL     1       3.951   6.803   9.605  1.00  0.00    -0.351 N 
HETATM   35  H32 UNL     1       4.499   7.323   8.929  1.00  0.00     0.163 HD
BRANCH  34  36
HETATM   36  C26 UNL     1       4.658   6.313  10.780  1.00  0.00     0.232 C 
BRANCH  36  37
HETATM   37  C27 UNL     1       5.931   7.090  11.092  1.00  0.00     0.158 C 
HETATM   38  O8  UNL     1       6.959   7.064  10.431  1.00  0.00    -0.649 OA
BRANCH  37  39
HETATM   39  O9  UNL     1       5.891   7.788  12.249  1.00  0.00    -0.775 OA
HETATM   40  H35 UNL     1       6.770   8.218  12.288  1.00  0.00     0.167 HD
ENDBRANCH  37  39
ENDBRANCH  36  37
ENDBRANCH  34  36
ENDBRANCH  31  32
ENDBRANCH  30  31
ENDBRANCH  28  30
ENDBRANCH  27  28
ENDBRANCH  26  27
ENDBRANCH  24  26
ENDBRANCH  21  24
TORSDOF 11
ENDMDL
MODEL 2
REMARK minimizedAffinity -9.08377552
REMARK CNNscore 0.631382704
REMARK CNNaffinity 6.78251791
REMARK  11 active torsions:
REMARK  status: ('A' for Active; 'I' for Inactive)
REMARK    1  A    between atoms: C19_21  and  O3_22 
REMARK    2  A    between atoms: C19_21  and  C20_23 
REMARK    3  A    between atoms: C20_23  and  C21_25 
REMARK    4  A    between atoms: C21_25  and  O5_26 
REMARK    5  A    between atoms: O5_26  and  C22_27 
REMARK    6  A    between atoms: C22_27  and  C23_29 
REMARK    7  A    between atoms: C23_29  and  C24_30 
REMARK    8  A    between atoms: C24_30  and  C25_31 
REMARK       I    between atoms: C25_31  and  N1_33 
REMARK    9  A    between atoms: N1_33  and  C26_34 
REMARK   10  A    between atoms: C26_34  and  C27_35 
REMARK   11  A    between atoms: C27_35  and  O9_37 
ROOT
HETATM    1  C1  UNL     1      -6.560   5.773  15.907  1.00  0.00     0.021 C 
HETATM    2  C2  UNL     1      -6.729   6.292  14.461  1.00  0.00    -0.009 C 
HETATM    3  C3  UNL     1      -7.457   7.671  14.475  1.00  0.00     0.022 C 
HETATM    4  C4  UNL     1      -8.940   7.587  14.808  1.00  0.00     0.084 C 
HETATM    5  C5  UNL     1      -9.635   6.647  13.860  1.00  0.00     0.149 C 
HETATM    6  O1  UNL     1     -10.803   6.800  13.512  1.00  0.00    -0.293 OA
HETATM    7  C6  UNL     1      -8.888   5.454  13.398  1.00  0.00     0.053 C 
HETATM    8  C7  UNL     1      -7.590   5.266  13.699  1.00  0.00    -0.067 C 
HETATM    9  C8  UNL     1      -6.920   3.973  13.298  1.00  0.00     0.035 C 
HETATM   10  C9  UNL     1      -5.614   4.220  12.557  1.00  0.00     0.010 C 
HETATM   11  C10 UNL     1      -4.666   5.100  13.383  1.00  0.00     0.003 C 
HETATM   12  C11 UNL     1      -5.352   6.456  13.717  1.00  0.00     0.072 C 
HETATM   13  C12 UNL     1      -4.340   7.407  14.388  1.00  0.00     0.133 C 
HETATM   14  O2  UNL     1      -4.586   8.060  15.399  1.00  0.00    -0.297 OA
HETATM   15  C13 UNL     1      -3.003   7.592  13.677  1.00  0.00     0.091 C 
HETATM   16  C14 UNL     1      -2.348   6.229  13.428  1.00  0.00     0.005 C 
HETATM   17  C15 UNL     1      -1.977   5.603  14.802  1.00  0.00     0.019 C 
HETATM   18  C16 UNL     1      -3.357   5.370  12.625  1.00  0.00     0.002 C 
HETATM   19  C17 UNL     1      -2.531   4.169  12.176  1.00  0.00     0.009 C 
HETATM   20  C18 UNL     1      -1.112   4.724  11.960  1.00  0.00     0.047 C 
HETATM   21  C19 UNL     1      -1.130   6.201  12.450  1.00  0.00     0.128 C 
ENDROOT
BRANCH  21  22
HETATM   22  O3  UNL     1      -1.387   6.981  11.277  1.00  0.00    -0.381 OA
HETATM   23  H25 UNL     1      -1.606   7.895  11.515  1.00  0.00     0.211 HD
ENDBRANCH  21  22
BRANCH  21  24
HETATM   24  C20 UNL     1       0.234   6.573  13.088  1.00  0.00     0.185 C 
HETATM   25  O4  UNL     1       0.572   6.162  14.201  1.00  0.00    -0.292 OA
BRANCH  24  26
HETATM   26  C21 UNL     1       1.150   7.486  12.270  1.00  0.00     0.260 C 
BRANCH  26  27
HETATM   27  O5  UNL     1       1.429   6.984  10.966  1.00  0.00    -0.314 OA
BRANCH  27  28
HETATM   28  C22 UNL     1       1.374   7.931   9.988  1.00  0.00     0.259 C 
HETATM   29  O6  UNL     1       0.496   8.778   9.895  1.00  0.00    -0.265 OA
BRANCH  28  30
HETATM   30  C23 UNL     1       2.525   7.754   9.034  1.00  0.00     0.120 C 
BRANCH  30  31
HETATM   31  C24 UNL     1       2.589   6.325   8.510  1.00  0.00     0.112 C 
BRANCH  31  32
HETATM   32  C25 UNL     1       3.532   5.479   9.335  1.00  0.00     0.218 C 
HETATM   33  O7  UNL     1       3.483   4.257   9.379  1.00  0.00    -0.274 OA
HETATM   34  N1  UNL     1       4.463   6.224  10.027  1.00  0.00    -0.351 N 
HETATM   35  H32 UNL     1       4.666   7.152   9.675  1.00  0.00     0.163 HD
BRANCH  34  36
HETATM   36  C26 UNL     1       5.529   5.558  10.763  1.00  0.00     0.232 C 
BRANCH  36  37
HETATM   37  C27 UNL     1       6.344   6.500  11.638  1.00  0.00     0.158 C 
HETATM   38  O8  UNL     1       7.321   7.139  11.275  1.00  0.00    -0.649 OA
BRANCH  37  39
HETATM   39  O9  UNL     1       5.959   6.535  12.933  1.00  0.00    -0.775 OA
HETATM   40  H35 UNL     1       6.576   7.178  13.340  1.00  0.00     0.167 HD
ENDBRANCH  37  39
ENDBRANCH  36  37
ENDBRANCH  34  36
ENDBRANCH  31  32
ENDBRANCH  30  31
ENDBRANCH  28  30
ENDBRANCH  27  28
ENDBRANCH  26  27
ENDBRANCH  24  26
ENDBRANCH  21  24
TORSDOF 11
ENDMDL
MODEL 3
REMARK minimizedAffinity -7.41928768
REMARK CNNscore 0.622005165
REMARK CNNaffinity 6.40825796
REMARK  11 active torsions:
REMARK  status: ('A' for Active; 'I' for Inactive)
REMARK    1  A    between atoms: C19_21  and  O3_22 
REMARK    2  A    between atoms: C19_21  and  C20_23 
REMARK    3  A    between atoms: C20_23  and  C21_25 
REMARK    4  A    between atoms: C21_25  and  O5_26 
REMARK    5  A    between atoms: O5_26  and  C22_27 
REMARK    6  A    between atoms: C22_27  and  C23_29 
REMARK    7  A    between atoms: C23_29  and  C24_30 
REMARK    8  A    between atoms: C24_30  and  C25_31 
REMARK       I    between atoms: C25_31  and  N1_33 
REMARK    9  A    between atoms: N1_33  and  C26_34 
REMARK   10  A    between atoms: C26_34  and  C27_35 
REMARK   11  A    between atoms: C27_35  and  O9_37 
ROOT
HETATM    1  C1  UNL     1      -2.221   7.383  12.643  1.00  0.00     0.021 C 
HETATM    2  C2  UNL     1      -3.070   6.768  13.778  1.00  0.00    -0.009 C 
HETATM    3  C3  UNL     1      -2.590   5.313  14.070  1.00  0.00     0.022 C 
HETATM    4  C4  UNL     1      -2.973   4.305  12.995  1.00  0.00     0.084 C 
HETATM    5  C5  UNL     1      -4.461   4.322  12.771  1.00  0.00     0.149 C 
HETATM    6  O1  UNL     1      -5.092   3.321  12.442  1.00  0.00    -0.293 OA
HETATM    7  C6  UNL     1      -5.162   5.621  12.882  1.00  0.00     0.053 C 
HETATM    8  C7  UNL     1      -4.534   6.737  13.296  1.00  0.00    -0.067 C 
HETATM    9  C8  UNL     1      -5.275   8.052  13.274  1.00  0.00     0.035 C 
HETATM   10  C9  UNL     1      -5.174   8.780  14.606  1.00  0.00     0.010 C 
HETATM   11  C10 UNL     1      -3.710   8.979  15.020  1.00  0.00     0.003 C 
HETATM   12  C11 UNL     1      -2.990   7.602  15.110  1.00  0.00     0.072 C 
HETATM   13  C12 UNL     1      -1.575   7.787  15.697  1.00  0.00     0.133 C 
HETATM   14  O2  UNL     1      -0.568   7.271  15.220  1.00  0.00    -0.297 OA
HETATM   15  C13 UNL     1      -1.473   8.580  16.996  1.00  0.00     0.091 C 
HETATM   16  C14 UNL     1      -2.147   9.947  16.829  1.00  0.00     0.005 C 
HETATM   17  C15 UNL     1      -1.331  10.777  15.799  1.00  0.00     0.019 C 
HETATM   18  C16 UNL     1      -3.607   9.691  16.378  1.00  0.00     0.002 C 
HETATM   19  C17 UNL     1      -4.274  11.056  16.519  1.00  0.00     0.009 C 
HETATM   20  C18 UNL     1      -3.572  11.715  17.720  1.00  0.00     0.047 C 
HETATM   21  C19 UNL     1      -2.407  10.769  18.133  1.00  0.00     0.128 C 
ENDROOT
BRANCH  21  22
HETATM   22  O3  UNL     1      -2.946   9.941  19.169  1.00  0.00    -0.381 OA
HETATM   23  H25 UNL     1      -2.357   9.195  19.354  1.00  0.00     0.211 HD
ENDBRANCH  21  22
BRANCH  21  24
HETATM   24  C20 UNL     1      -1.197  11.594  18.641  1.00  0.00     0.185 C 
HETATM   25  O4  UNL     1      -1.092  12.805  18.427  1.00  0.00    -0.292 OA
BRANCH  24  26
HETATM   26  C21 UNL     1      -0.124  10.833  19.422  1.00  0.00     0.260 C 
BRANCH  26  27
HETATM   27  O5  UNL     1       1.125  11.518  19.477  1.00  0.00    -0.314 OA
BRANCH  27  28
HETATM   28  C22 UNL     1       1.619  11.661  20.739  1.00  0.00     0.259 C 
HETATM   29  O6  UNL     1       1.795  12.737  21.294  1.00  0.00    -0.265 OA
BRANCH  28  30
HETATM   30  C23 UNL     1       1.944  10.311  21.322  1.00  0.00     0.120 C 
BRANCH  30  31
HETATM   31  C24 UNL     1       3.426   9.993  21.176  1.00  0.00     0.112 C 
BRANCH  31  32
HETATM   32  C25 UNL     1       4.224  10.544  22.336  1.00  0.00     0.218 C 
HETATM   33  O7  UNL     1       4.330   9.977  23.416  1.00  0.00    -0.274 OA
HETATM   34  N1  UNL     1       4.831  11.748  22.052  1.00  0.00    -0.351 N 
HETATM   35  H32 UNL     1       4.993  11.964  21.075  1.00  0.00     0.163 HD
BRANCH  34  36
HETATM   36  C26 UNL     1       5.746  12.349  23.013  1.00  0.00     0.232 C 
BRANCH  36  37
HETATM   37  C27 UNL     1       7.212  12.214  22.623  1.00  0.00     0.158 C 
HETATM   38  O8  UNL     1       8.130  11.956  23.388  1.00  0.00    -0.649 OA
BRANCH  37  39
HETATM   39  O9  UNL     1       7.473  12.490  21.325  1.00  0.00    -0.775 OA
HETATM   40  H35 UNL     1       8.440  12.354  21.251  1.00  0.00     0.167 HD
ENDBRANCH  37  39
ENDBRANCH  36  37
ENDBRANCH  34  36
ENDBRANCH  31  32
ENDBRANCH  30  31
ENDBRANCH  28  30
ENDBRANCH  27  28
ENDBRANCH  26  27
ENDBRANCH  24  26
ENDBRANCH  21  24
TORSDOF 11
ENDMDL
MODEL 4
REMARK minimizedAffinity -7.81711197
REMARK CNNscore 0.570453525
REMARK CNNaffinity 6.76535559
REMARK  11 active torsions:
REMARK  status: ('A' for Active; 'I' for Inactive)
REMARK    1  A    between atoms: C19_21  and  O3_22 
REMARK    2  A    between atoms: C19_21  and  C20_23 
REMARK    3  A    between atoms: C20_23  and  C21_25 
REMARK    4  A    between atoms: C21_25  and  O5_26 
REMARK    5  A    between atoms: O5_26  and  C22_27 
REMARK    6  A    between atoms: C22_27  and  C23_29 
REMARK    7  A    between atoms: C23_29  and  C24_30 
REMARK    8  A    between atoms: C24_30  and  C25_31 
REMARK       I    between atoms: C25_31  and  N1_33 
REMARK    9  A    between atoms: N1_33  and  C26_34 
REMARK   10  A    between atoms: C26_34  and  C27_35 
REMARK   11  A    between atoms: C27_35  and  O9_37 
ROOT
HETATM    1  C1  UNL     1      -7.509   4.292  14.824  1.00  0.00     0.021 C 
HETATM    2  C2  UNL     1      -7.016   5.668  14.323  1.00  0.00    -0.009 C 
HETATM    3  C3  UNL     1      -6.094   5.479  13.079  1.00  0.00     0.022 C 
HETATM    4  C4  UNL     1      -4.721   4.907  13.406  1.00  0.00     0.084 C 
HETATM    5  C5  UNL     1      -4.031   5.761  14.435  1.00  0.00     0.149 C 
HETATM    6  O1  UNL     1      -2.812   5.903  14.468  1.00  0.00    -0.293 OA
HETATM    7  C6  UNL     1      -4.865   6.387  15.486  1.00  0.00     0.053 C 
HETATM    8  C7  UNL     1      -6.209   6.315  15.466  1.00  0.00    -0.067 C 
HETATM    9  C8  UNL     1      -6.995   6.872  16.629  1.00  0.00     0.035 C 
HETATM   10  C9  UNL     1      -8.100   7.810  16.167  1.00  0.00     0.010 C 
HETATM   11  C10 UNL     1      -9.026   7.121  15.154  1.00  0.00     0.003 C 
HETATM   12  C11 UNL     1      -8.202   6.625  13.931  1.00  0.00     0.072 C 
HETATM   13  C12 UNL     1      -9.152   6.096  12.837  1.00  0.00     0.133 C 
HETATM   14  O2  UNL     1      -8.983   5.034  12.244  1.00  0.00    -0.297 OA
HETATM   15  C13 UNL     1     -10.302   7.013  12.430  1.00  0.00     0.091 C 
HETATM   16  C14 UNL     1     -11.110   7.420  13.666  1.00  0.00     0.005 C 
HETATM   17  C15 UNL     1     -11.805   6.154  14.241  1.00  0.00     0.019 C 
HETATM   18  C16 UNL     1     -10.127   8.076  14.668  1.00  0.00     0.002 C 
HETATM   19  C17 UNL     1     -11.041   8.704  15.715  1.00  0.00     0.009 C 
HETATM   20  C18 UNL     1     -12.298   9.132  14.936  1.00  0.00     0.047 C 
HETATM   21  C19 UNL     1     -12.132   8.589  13.487  1.00  0.00     0.128 C 
ENDROOT
BRANCH  21  22
HETATM   22  O3  UNL     1     -11.559   9.671  12.745  1.00  0.00    -0.381 OA
HETATM   23  H25 UNL     1     -11.242   9.365  11.881  1.00  0.00     0.211 HD
ENDBRANCH  21  22
BRANCH  21  24
HETATM   24  C20 UNL     1     -13.510   8.175  12.907  1.00  0.00     0.185 C 
HETATM   25  O4  UNL     1     -14.171   8.926  12.185  1.00  0.00    -0.292 OA
BRANCH  24  26
HETATM   26  C21 UNL     1     -14.022   6.782  13.279  1.00  0.00     0.260 C 
BRANCH  26  27
HETATM   27  O5  UNL     1     -15.406   6.595  12.992  1.00  0.00    -0.314 OA
BRANCH  27  28
HETATM   28  C22 UNL     1     -16.195   6.539  14.101  1.00  0.00     0.259 C 
HETATM   29  O6  UNL     1     -16.436   7.493  14.827  1.00  0.00    -0.265 OA
BRANCH  28  30
HETATM   30  C23 UNL     1     -16.689   5.132  14.311  1.00  0.00     0.120 C 
BRANCH  30  31
HETATM   31  C24 UNL     1     -15.555   4.211  14.741  1.00  0.00     0.112 C 
BRANCH  31  32
HETATM   32  C25 UNL     1     -15.989   2.763  14.734  1.00  0.00     0.218 C 
HETATM   33  O7  UNL     1     -16.110   2.096  13.714  1.00  0.00    -0.274 OA
HETATM   34  N1  UNL     1     -16.228   2.262  15.996  1.00  0.00    -0.351 N 
HETATM   35  H32 UNL     1     -15.778   2.734  16.772  1.00  0.00     0.163 HD
BRANCH  34  36
HETATM   36  C26 UNL     1     -16.524   0.848  16.175  1.00  0.00     0.232 C 
BRANCH  36  37
HETATM   37  C27 UNL     1     -15.304  -0.052  16.026  1.00  0.00     0.158 C 
HETATM   38  O8  UNL     1     -15.313  -1.274  16.064  1.00  0.00    -0.649 OA
BRANCH  37  39
HETATM   39  O9  UNL     1     -14.130   0.611  15.923  1.00  0.00    -0.775 OA
HETATM   40  H35 UNL     1     -13.468  -0.106  15.833  1.00  0.00     0.167 HD
ENDBRANCH  37  39
ENDBRANCH  36  37
ENDBRANCH  34  36
ENDBRANCH  31  32
ENDBRANCH  30  31
ENDBRANCH  28  30
ENDBRANCH  27  28
ENDBRANCH  26  27
ENDBRANCH  24  26
ENDBRANCH  21  24
TORSDOF 11
ENDMDL
MODEL 5
REMARK minimizedAffinity -6.8603158
REMARK CNNscore 0.526303947
REMARK CNNaffinity 6.72861862
REMARK  11 active torsions:
REMARK  status: ('A' for Active; 'I' for Inactive)
REMARK    1  A    between atoms: C19_21  and  O3_22 
REMARK    2  A    between atoms: C19_21  and  C20_23 
REMARK    3  A    between atoms: C20_23  and  C21_25 
REMARK    4  A    between atoms: C21_25  and  O5_26 
REMARK    5  A    between atoms: O5_26  and  C22_27 
REMARK    6  A    between atoms: C22_27  and  C23_29 
REMARK    7  A    between atoms: C23_29  and  C24_30 
REMARK    8  A    between atoms: C24_30  and  C25_31 
REMARK       I    between atoms: C25_31  and  N1_33 
REMARK    9  A    between atoms: N1_33  and  C26_34 
REMARK   10  A    between atoms: C26_34  and  C27_35 
REMARK   11  A    between atoms: C27_35  and  O9_37 
ROOT
HETATM    1  C1  UNL     1      -7.720   4.295  14.722  1.00  0.00     0.021 C 
HETATM    2  C2  UNL     1      -7.201   5.686  14.293  1.00  0.00    -0.009 C 
HETATM    3  C3  UNL     1      -6.307   5.548  13.022  1.00  0.00     0.022 C 
HETATM    4  C4  UNL     1      -4.944   4.923  13.287  1.00  0.00     0.084 C 
HETATM    5  C5  UNL     1      -4.213   5.698  14.350  1.00  0.00     0.149 C 
HETATM    6  O1  UNL     1      -2.990   5.807  14.367  1.00  0.00    -0.293 OA
HETATM    7  C6  UNL     1      -5.011   6.282  15.452  1.00  0.00     0.053 C 
HETATM    8  C7  UNL     1      -6.356   6.244  15.455  1.00  0.00    -0.067 C 
HETATM    9  C8  UNL     1      -7.106   6.751  16.664  1.00  0.00     0.035 C 
HETATM   10  C9  UNL     1      -8.195   7.742  16.279  1.00  0.00     0.010 C 
HETATM   11  C10 UNL     1      -9.157   7.137  15.246  1.00  0.00     0.003 C 
HETATM   12  C11 UNL     1      -8.368   6.694  13.980  1.00  0.00     0.072 C 
HETATM   13  C12 UNL     1      -9.352   6.254  12.876  1.00  0.00     0.133 C 
HETATM   14  O2  UNL     1      -9.222   5.225  12.219  1.00  0.00    -0.297 OA
HETATM   15  C13 UNL     1     -10.485   7.221  12.546  1.00  0.00     0.091 C 
HETATM   16  C14 UNL     1     -11.260   7.575  13.820  1.00  0.00     0.005 C 
HETATM   17  C15 UNL     1     -11.976   6.294  14.333  1.00  0.00     0.019 C 
HETATM   18  C16 UNL     1     -10.241   8.146  14.839  1.00  0.00     0.002 C 
HETATM   19  C17 UNL     1     -11.119   8.733  15.939  1.00  0.00     0.009 C 
HETATM   20  C18 UNL     1     -12.379   9.237  15.211  1.00  0.00     0.047 C 
HETATM   21  C19 UNL     1     -12.254   8.777  13.729  1.00  0.00     0.128 C 
ENDROOT
BRANCH  21  22
HETATM   22  O3  UNL     1     -11.667   9.886  13.041  1.00  0.00    -0.381 OA
HETATM   23  H25 UNL     1     -11.374   9.624  12.155  1.00  0.00     0.211 HD
ENDBRANCH  21  22
BRANCH  21  24
HETATM   24  C20 UNL     1     -13.652   8.432  13.154  1.00  0.00     0.185 C 
HETATM   25  O4  UNL     1     -14.012   8.807  12.035  1.00  0.00    -0.292 OA
BRANCH  24  26
HETATM   26  C21 UNL     1     -14.579   7.603  14.046  1.00  0.00     0.260 C 
BRANCH  26  27
HETATM   27  O5  UNL     1     -15.721   8.326  14.497  1.00  0.00    -0.314 OA
BRANCH  27  28
HETATM   28  C22 UNL     1     -16.849   7.567  14.596  1.00  0.00     0.259 C 
HETATM   29  O6  UNL     1     -17.278   7.101  15.643  1.00  0.00    -0.265 OA
BRANCH  28  30
HETATM   30  C23 UNL     1     -17.456   7.364  13.234  1.00  0.00     0.120 C 
BRANCH  30  31
HETATM   31  C24 UNL     1     -18.953   7.642  13.253  1.00  0.00     0.112 C 
BRANCH  31  32
HETATM   32  C25 UNL     1     -19.523   7.687  11.854  1.00  0.00     0.218 C 
HETATM   33  O7  UNL     1     -20.381   6.915  11.446  1.00  0.00    -0.274 OA
HETATM   34  N1  UNL     1     -18.985   8.695  11.082  1.00  0.00    -0.351 N 
HETATM   35  H32 UNL     1     -18.572   9.480  11.571  1.00  0.00     0.163 HD
BRANCH  34  36
HETATM   36  C26 UNL     1     -19.520   8.961   9.754  1.00  0.00     0.232 C 
BRANCH  36  37
HETATM   37  C27 UNL     1     -18.767  10.052   9.003  1.00  0.00     0.158 C 
HETATM   38  O8  UNL     1     -18.515  10.046   7.807  1.00  0.00    -0.649 OA
BRANCH  37  39
HETATM   39  O9  UNL     1     -18.294  11.046   9.788  1.00  0.00    -0.775 OA
HETATM   40  H35 UNL     1     -17.849  11.647   9.154  1.00  0.00     0.167 HD
ENDBRANCH  37  39
ENDBRANCH  36  37
ENDBRANCH  34  36
ENDBRANCH  31  32
ENDBRANCH  30  31
ENDBRANCH  28  30
ENDBRANCH  27  28
ENDBRANCH  26  27
ENDBRANCH  24  26
ENDBRANCH  21  24
TORSDOF 11
ENDMDL
MODEL 6
REMARK minimizedAffinity -7.05677032
REMARK CNNscore 0.485598266
REMARK CNNaffinity 6.61058569
REMARK  11 active torsions:
REMARK  status: ('A' for Active; 'I' for Inactive)
REMARK    1  A    between atoms: C19_21  and  O3_22 
REMARK    2  A    between atoms: C19_21  and  C20_23 
REMARK    3  A    between atoms: C20_23  and  C21_25 
REMARK    4  A    between atoms: C21_25  and  O5_26 
REMARK    5  A    between atoms: O5_26  and  C22_27 
REMARK    6  A    between atoms: C22_27  and  C23_29 
REMARK    7  A    between atoms: C23_29  and  C24_30 
REMARK    8  A    between atoms: C24_30  and  C25_31 
REMARK       I    between atoms: C25_31  and  N1_33 
REMARK    9  A    between atoms: N1_33  and  C26_34 
REMARK   10  A    between atoms: C26_34  and  C27_35 
REMARK   11  A    between atoms: C27_35  and  O9_37 
ROOT
HETATM    1  C1  UNL     1      -7.562   4.180  14.719  1.00  0.00     0.021 C 
HETATM    2  C2  UNL     1      -7.013   5.544  14.247  1.00  0.00    -0.009 C 
HETATM    3  C3  UNL     1      -6.141   5.349  12.968  1.00  0.00     0.022 C 
HETATM    4  C4  UNL     1      -4.791   4.695  13.230  1.00  0.00     0.084 C 
HETATM    5  C5  UNL     1      -4.025   5.477  14.262  1.00  0.00     0.149 C 
HETATM    6  O1  UNL     1      -2.799   5.553  14.260  1.00  0.00    -0.293 OA
HETATM    7  C6  UNL     1      -4.791   6.110  15.360  1.00  0.00     0.053 C 
HETATM    8  C7  UNL     1      -6.136   6.109  15.382  1.00  0.00    -0.067 C 
HETATM    9  C8  UNL     1      -6.855   6.667  16.588  1.00  0.00     0.035 C 
HETATM   10  C9  UNL     1      -7.922   7.677  16.192  1.00  0.00     0.010 C 
HETATM   11  C10 UNL     1      -8.914   7.072  15.189  1.00  0.00     0.003 C 
HETATM   12  C11 UNL     1      -8.157   6.575  13.924  1.00  0.00     0.072 C 
HETATM   13  C12 UNL     1      -9.168   6.133  12.846  1.00  0.00     0.133 C 
HETATM   14  O2  UNL     1      -9.075   5.084  12.214  1.00  0.00    -0.297 OA
HETATM   15  C13 UNL     1     -10.279   7.122  12.506  1.00  0.00     0.091 C 
HETATM   16  C14 UNL     1     -11.026   7.530  13.781  1.00  0.00     0.005 C 
HETATM   17  C15 UNL     1     -11.769   6.283  14.337  1.00  0.00     0.019 C 
HETATM   18  C16 UNL     1      -9.977   8.099  14.770  1.00  0.00     0.002 C 
HETATM   19  C17 UNL     1     -10.824   8.738  15.866  1.00  0.00     0.009 C 
HETATM   20  C18 UNL     1     -12.080   9.257  15.143  1.00  0.00     0.047 C 
HETATM   21  C19 UNL     1     -11.989   8.756  13.673  1.00  0.00     0.128 C 
ENDROOT
BRANCH  21  22
HETATM   22  O3  UNL     1     -11.382   9.830  12.947  1.00  0.00    -0.381 OA
HETATM   23  H25 UNL     1     -11.109   9.538  12.064  1.00  0.00     0.211 HD
ENDBRANCH  21  22
BRANCH  21  24
HETATM   24  C20 UNL     1     -13.404   8.434  13.126  1.00  0.00     0.185 C 
HETATM   25  O4  UNL     1     -13.706   7.313  12.707  1.00  0.00    -0.292 OA
BRANCH  24  26
HETATM   26  C21 UNL     1     -14.417   9.580  13.121  1.00  0.00     0.260 C 
BRANCH  26  27
HETATM   27  O5  UNL     1     -14.923   9.879  11.822  1.00  0.00    -0.314 OA
BRANCH  27  28
HETATM   28  C22 UNL     1     -16.154   9.348  11.576  1.00  0.00     0.259 C 
HETATM   29  O6  UNL     1     -16.402   8.570  10.666  1.00  0.00    -0.265 OA
BRANCH  28  30
HETATM   30  C23 UNL     1     -17.155   9.889  12.562  1.00  0.00     0.120 C 
BRANCH  30  31
HETATM   31  C24 UNL     1     -17.308   8.955  13.756  1.00  0.00     0.112 C 
BRANCH  31  32
HETATM   32  C25 UNL     1     -17.823   7.599  13.331  1.00  0.00     0.218 C 
HETATM   33  O7  UNL     1     -18.999   7.370  13.075  1.00  0.00    -0.274 OA
HETATM   34  N1  UNL     1     -16.832   6.644  13.250  1.00  0.00    -0.351 N 
HETATM   35  H32 UNL     1     -15.883   6.974  13.126  1.00  0.00     0.163 HD
BRANCH  34  36
HETATM   36  C26 UNL     1     -17.137   5.320  12.725  1.00  0.00     0.232 C 
BRANCH  36  37
HETATM   37  C27 UNL     1     -17.266   4.254  13.805  1.00  0.00     0.158 C 
HETATM   38  O8  UNL     1     -18.155   3.418  13.875  1.00  0.00    -0.649 OA
BRANCH  37  39
HETATM   39  O9  UNL     1     -16.337   4.334  14.784  1.00  0.00    -0.775 OA
HETATM   40  H35 UNL     1     -16.564   3.588  15.378  1.00  0.00     0.167 HD
ENDBRANCH  37  39
ENDBRANCH  36  37
ENDBRANCH  34  36
ENDBRANCH  31  32
ENDBRANCH  30  31
ENDBRANCH  28  30
ENDBRANCH  27  28
ENDBRANCH  26  27
ENDBRANCH  24  26
ENDBRANCH  21  24
TORSDOF 11
ENDMDL
MODEL 7
REMARK minimizedAffinity -8.46169853
REMARK CNNscore 0.459565401
REMARK CNNaffinity 6.8309288
REMARK  11 active torsions:
REMARK  status: ('A' for Active; 'I' for Inactive)
REMARK    1  A    between atoms: C19_21  and  O3_22 
REMARK    2  A    between atoms: C19_21  and  C20_23 
REMARK    3  A    between atoms: C20_23  and  C21_25 
REMARK    4  A    between atoms: C21_25  and  O5_26 
REMARK    5  A    between atoms: O5_26  and  C22_27 
REMARK    6  A    between atoms: C22_27  and  C23_29 
REMARK    7  A    between atoms: C23_29  and  C24_30 
REMARK    8  A    between atoms: C24_30  and  C25_31 
REMARK       I    between atoms: C25_31  and  N1_33 
REMARK    9  A    between atoms: N1_33  and  C26_34 
REMARK   10  A    between atoms: C26_34  and  C27_35 
REMARK   11  A    between atoms: C27_35  and  O9_37 
ROOT
HETATM    1  C1  UNL     1      -6.767   5.778  15.954  1.00  0.00     0.021 C 
HETATM    2  C2  UNL     1      -6.947   6.314  14.516  1.00  0.00    -0.009 C 
HETATM    3  C3  UNL     1      -7.328   7.827  14.560  1.00  0.00     0.022 C 
HETATM    4  C4  UNL     1      -8.751   8.095  15.029  1.00  0.00     0.084 C 
HETATM    5  C5  UNL     1      -9.733   7.340  14.175  1.00  0.00     0.149 C 
HETATM    6  O1  UNL     1     -10.861   7.762  13.932  1.00  0.00    -0.293 OA
HETATM    7  C6  UNL     1      -9.334   6.003  13.679  1.00  0.00     0.053 C 
HETATM    8  C7  UNL     1      -8.093   5.516  13.864  1.00  0.00    -0.067 C 
HETATM    9  C8  UNL     1      -7.785   4.101  13.439  1.00  0.00     0.035 C 
HETATM   10  C9  UNL     1      -6.534   4.029  12.575  1.00  0.00     0.010 C 
HETATM   11  C10 UNL     1      -5.332   4.666  13.286  1.00  0.00     0.003 C 
HETATM   12  C11 UNL     1      -5.648   6.147  13.644  1.00  0.00     0.072 C 
HETATM   13  C12 UNL     1      -4.382   6.836  14.194  1.00  0.00     0.133 C 
HETATM   14  O2  UNL     1      -4.371   7.534  15.205  1.00  0.00    -0.297 OA
HETATM   15  C13 UNL     1      -3.113   6.699  13.359  1.00  0.00     0.091 C 
HETATM   16  C14 UNL     1      -2.821   5.219  13.088  1.00  0.00     0.005 C 
HETATM   17  C15 UNL     1      -2.477   4.529  14.437  1.00  0.00     0.019 C 
HETATM   18  C16 UNL     1      -4.075   4.617  12.404  1.00  0.00     0.002 C 
HETATM   19  C17 UNL     1      -3.600   3.254  11.913  1.00  0.00     0.009 C 
HETATM   20  C18 UNL     1      -2.117   3.458  11.553  1.00  0.00     0.047 C 
HETATM   21  C19 UNL     1      -1.743   4.900  12.003  1.00  0.00     0.128 C 
ENDROOT
BRANCH  21  22
HETATM   22  O3  UNL     1      -1.921   5.713  10.838  1.00  0.00    -0.381 OA
HETATM   23  H25 UNL     1      -1.898   6.654  11.069  1.00  0.00     0.211 HD
ENDBRANCH  21  22
BRANCH  21  24
HETATM   24  C20 UNL     1      -0.275   4.944  12.502  1.00  0.00     0.185 C 
HETATM   25  O4  UNL     1       0.296   3.946  12.950  1.00  0.00    -0.292 OA
BRANCH  24  26
HETATM   26  C21 UNL     1       0.440   6.294  12.420  1.00  0.00     0.260 C 
BRANCH  26  27
HETATM   27  O5  UNL     1       0.782   6.672  11.089  1.00  0.00    -0.314 OA
BRANCH  27  28
HETATM   28  C22 UNL     1       1.041   8.001  10.943  1.00  0.00     0.259 C 
HETATM   29  O6  UNL     1       2.033   8.565  11.385  1.00  0.00    -0.265 OA
BRANCH  28  30
HETATM   30  C23 UNL     1      -0.084   8.667  10.196  1.00  0.00     0.120 C 
BRANCH  30  31
HETATM   31  C24 UNL     1       0.031   8.419   8.697  1.00  0.00     0.112 C 
BRANCH  31  32
HETATM   32  C25 UNL     1       1.415   7.939   8.324  1.00  0.00     0.218 C 
HETATM   33  O7  UNL     1       2.292   8.674   7.886  1.00  0.00    -0.274 OA
HETATM   34  N1  UNL     1       1.597   6.589   8.537  1.00  0.00    -0.351 N 
HETATM   35  H32 UNL     1       0.984   6.142   9.208  1.00  0.00     0.163 HD
BRANCH  34  36
HETATM   36  C26 UNL     1       2.914   5.993   8.357  1.00  0.00     0.232 C 
BRANCH  36  37
HETATM   37  C27 UNL     1       3.499   5.413   9.637  1.00  0.00     0.158 C 
HETATM   38  O8  UNL     1       4.138   6.036  10.473  1.00  0.00    -0.649 OA
BRANCH  37  39
HETATM   39  O9  UNL     1       3.334   4.078   9.772  1.00  0.00    -0.775 OA
HETATM   40  H35 UNL     1       3.759   3.879  10.632  1.00  0.00     0.167 HD
ENDBRANCH  37  39
ENDBRANCH  36  37
ENDBRANCH  34  36
ENDBRANCH  31  32
ENDBRANCH  30  31
ENDBRANCH  28  30
ENDBRANCH  27  28
ENDBRANCH  26  27
ENDBRANCH  24  26
ENDBRANCH  21  24
TORSDOF 11
ENDMDL
MODEL 8
REMARK minimizedAffinity -7.51046896
REMARK CNNscore 0.459432006
REMARK CNNaffinity 6.72570848
REMARK  11 active torsions:
REMARK  status: ('A' for Active; 'I' for Inactive)
REMARK    1  A    between atoms: C19_21  and  O3_22 
REMARK    2  A    between atoms: C19_21  and  C20_23 
REMARK    3  A    between atoms: C20_23  and  C21_25 
REMARK    4  A    between atoms: C21_25  and  O5_26 
REMARK    5  A    between atoms: O5_26  and  C22_27 
REMARK    6  A    between atoms: C22_27  and  C23_29 
REMARK    7  A    between atoms: C23_29  and  C24_30 
REMARK    8  A    between atoms: C24_30  and  C25_31 
REMARK       I    between atoms: C25_31  and  N1_33 
REMARK    9  A    between atoms: N1_33  and  C26_34 
REMARK   10  A    between atoms: C26_34  and  C27_35 
REMARK   11  A    between atoms: C27_35  and  O9_37 
ROOT
HETATM    1  C1  UNL     1     -10.784   7.861  12.620  1.00  0.00     0.021 C 
HETATM    2  C2  UNL     1     -10.746   7.513  14.125  1.00  0.00    -0.009 C 
HETATM    3  C3  UNL     1     -11.698   6.310  14.414  1.00  0.00     0.022 C 
HETATM    4  C4  UNL     1     -13.178   6.661  14.350  1.00  0.00     0.084 C 
HETATM    5  C5  UNL     1     -13.486   7.799  15.285  1.00  0.00     0.149 C 
HETATM    6  O1  UNL     1     -14.568   7.913  15.856  1.00  0.00    -0.293 OA
HETATM    7  C6  UNL     1     -12.460   8.853  15.453  1.00  0.00     0.053 C 
HETATM    8  C7  UNL     1     -11.238   8.752  14.900  1.00  0.00    -0.067 C 
HETATM    9  C8  UNL     1     -10.279   9.914  15.009  1.00  0.00     0.035 C 
HETATM   10  C9  UNL     1      -8.916   9.475  15.524  1.00  0.00     0.010 C 
HETATM   11  C10 UNL     1      -8.328   8.355  14.654  1.00  0.00     0.003 C 
HETATM   12  C11 UNL     1      -9.300   7.141  14.621  1.00  0.00     0.072 C 
HETATM   13  C12 UNL     1      -8.632   5.953  13.899  1.00  0.00     0.133 C 
HETATM   14  O2  UNL     1      -9.191   5.278  13.038  1.00  0.00    -0.297 OA
HETATM   15  C13 UNL     1      -7.234   5.565  14.372  1.00  0.00     0.091 C 
HETATM   16  C14 UNL     1      -6.309   6.786  14.327  1.00  0.00     0.005 C 
HETATM   17  C15 UNL     1      -6.117   7.205  12.843  1.00  0.00     0.019 C 
HETATM   18  C16 UNL     1      -6.963   7.895  15.189  1.00  0.00     0.002 C 
HETATM   19  C17 UNL     1      -5.862   8.941  15.329  1.00  0.00     0.009 C 
HETATM   20  C18 UNL     1      -4.551   8.134  15.349  1.00  0.00     0.047 C 
HETATM   21  C19 UNL     1      -4.933   6.654  15.056  1.00  0.00     0.128 C 
ENDROOT
BRANCH  21  22
HETATM   22  O3  UNL     1      -5.083   6.045  16.343  1.00  0.00    -0.381 OA
HETATM   23  H25 UNL     1      -5.506   5.176  16.264  1.00  0.00     0.211 HD
ENDBRANCH  21  22
BRANCH  21  24
HETATM   24  C20 UNL     1      -3.815   5.963  14.232  1.00  0.00     0.185 C 
HETATM   25  O4  UNL     1      -3.891   4.782  13.884  1.00  0.00    -0.292 OA
BRANCH  24  26
HETATM   26  C21 UNL     1      -2.598   6.817  13.871  1.00  0.00     0.260 C 
BRANCH  26  27
HETATM   27  O5  UNL     1      -1.385   6.072  13.809  1.00  0.00    -0.314 OA
BRANCH  27  28
HETATM   28  C22 UNL     1      -0.316   6.796  13.374  1.00  0.00     0.259 C 
HETATM   29  O6  UNL     1      -0.308   8.013  13.255  1.00  0.00    -0.265 OA
BRANCH  28  30
HETATM   30  C23 UNL     1       0.827   5.876  13.035  1.00  0.00     0.120 C 
BRANCH  30  31
HETATM   31  C24 UNL     1       0.698   5.343  11.614  1.00  0.00     0.112 C 
BRANCH  31  32
HETATM   32  C25 UNL     1       1.791   5.887  10.722  1.00  0.00     0.218 C 
HETATM   33  O7  UNL     1       1.846   5.683   9.516  1.00  0.00    -0.274 OA
HETATM   34  N1  UNL     1       2.717   6.648  11.402  1.00  0.00    -0.351 N 
HETATM   35  H32 UNL     1       2.422   7.056  12.282  1.00  0.00     0.163 HD
BRANCH  34  36
HETATM   36  C26 UNL     1       3.757   7.358  10.670  1.00  0.00     0.232 C 
BRANCH  36  37
HETATM   37  C27 UNL     1       5.064   6.582  10.569  1.00  0.00     0.158 C 
HETATM   38  O8  UNL     1       6.183   7.075  10.553  1.00  0.00    -0.649 OA
BRANCH  37  39
HETATM   39  O9  UNL     1       4.912   5.249  10.406  1.00  0.00    -0.775 OA
HETATM   40  H35 UNL     1       5.833   4.916  10.362  1.00  0.00     0.167 HD
ENDBRANCH  37  39
ENDBRANCH  36  37
ENDBRANCH  34  36
ENDBRANCH  31  32
ENDBRANCH  30  31
ENDBRANCH  28  30
ENDBRANCH  27  28
ENDBRANCH  26  27
ENDBRANCH  24  26
ENDBRANCH  21  24
TORSDOF 11
ENDMDL
MODEL 9
REMARK minimizedAffinity -8.09736443
REMARK CNNscore 0.451154649
REMARK CNNaffinity 6.43954468
REMARK  11 active torsions:
REMARK  status: ('A' for Active; 'I' for Inactive)
REMARK    1  A    between atoms: C19_21  and  O3_22 
REMARK    2  A    between atoms: C19_21  and  C20_23 
REMARK    3  A    between atoms: C20_23  and  C21_25 
REMARK    4  A    between atoms: C21_25  and  O5_26 
REMARK    5  A    between atoms: O5_26  and  C22_27 
REMARK    6  A    between atoms: C22_27  and  C23_29 
REMARK    7  A    between atoms: C23_29  and  C24_30 
REMARK    8  A    between atoms: C24_30  and  C25_31 
REMARK       I    between atoms: C25_31  and  N1_33 
REMARK    9  A    between atoms: N1_33  and  C26_34 
REMARK   10  A    between atoms: C26_34  and  C27_35 
REMARK   11  A    between atoms: C27_35  and  O9_37 
ROOT
HETATM    1  C1  UNL     1      -0.084   8.468  10.701  1.00  0.00     0.021 C 
HETATM    2  C2  UNL     1       0.380   7.670  11.941  1.00  0.00    -0.009 C 
HETATM    3  C3  UNL     1       1.547   8.427  12.650  1.00  0.00     0.022 C 
HETATM    4  C4  UNL     1       2.869   8.373  11.898  1.00  0.00     0.084 C 
HETATM    5  C5  UNL     1       3.264   6.944  11.639  1.00  0.00     0.149 C 
HETATM    6  O1  UNL     1       4.435   6.578  11.593  1.00  0.00    -0.293 OA
HETATM    7  C6  UNL     1       2.186   5.970  11.354  1.00  0.00     0.053 C 
HETATM    8  C7  UNL     1       0.885   6.300  11.448  1.00  0.00    -0.067 C 
HETATM    9  C8  UNL     1      -0.163   5.296  11.031  1.00  0.00     0.035 C 
HETATM   10  C9  UNL     1      -1.229   5.112  12.102  1.00  0.00     0.010 C 
HETATM   11  C10 UNL     1      -1.871   6.454  12.481  1.00  0.00     0.003 C 
HETATM   12  C11 UNL     1      -0.779   7.445  12.980  1.00  0.00     0.072 C 
HETATM   13  C12 UNL     1      -1.442   8.725  13.529  1.00  0.00     0.133 C 
HETATM   14  O2  UNL     1      -1.068   9.860  13.246  1.00  0.00    -0.297 OA
HETATM   15  C13 UNL     1      -2.560   8.531  14.548  1.00  0.00     0.091 C 
HETATM   16  C14 UNL     1      -3.632   7.595  13.979  1.00  0.00     0.005 C 
HETATM   17  C15 UNL     1      -4.318   8.304  12.777  1.00  0.00     0.019 C 
HETATM   18  C16 UNL     1      -2.929   6.273  13.580  1.00  0.00     0.002 C 
HETATM   19  C17 UNL     1      -4.084   5.316  13.308  1.00  0.00     0.009 C 
HETATM   20  C18 UNL     1      -5.191   5.745  14.288  1.00  0.00     0.047 C 
HETATM   21  C19 UNL     1      -4.693   7.044  14.986  1.00  0.00     0.128 C 
ENDROOT
BRANCH  21  22
HETATM   22  O3  UNL     1      -4.077   6.603  16.201  1.00  0.00    -0.381 OA
HETATM   23  H25 UNL     1      -3.568   7.322  16.608  1.00  0.00     0.211 HD
ENDBRANCH  21  22
BRANCH  21  24
HETATM   24  C20 UNL     1      -5.886   7.993  15.270  1.00  0.00     0.185 C 
HETATM   25  O4  UNL     1      -5.723   9.173  15.594  1.00  0.00    -0.292 OA
BRANCH  24  26
HETATM   26  C21 UNL     1      -7.288   7.396  15.137  1.00  0.00     0.260 C 
BRANCH  26  27
HETATM   27  O5  UNL     1      -8.328   8.354  15.316  1.00  0.00    -0.314 OA
BRANCH  27  28
HETATM   28  C22 UNL     1      -9.571   7.878  15.023  1.00  0.00     0.259 C 
HETATM   29  O6  UNL     1      -9.928   6.722  15.201  1.00  0.00    -0.265 OA
BRANCH  28  30
HETATM   30  C23 UNL     1     -10.413   8.972  14.422  1.00  0.00     0.120 C 
BRANCH  30  31
HETATM   31  C24 UNL     1     -11.164   8.474  13.194  1.00  0.00     0.112 C 
BRANCH  31  32
HETATM   32  C25 UNL     1     -12.641   8.322  13.476  1.00  0.00     0.218 C 
HETATM   33  O7  UNL     1     -13.089   7.681  14.418  1.00  0.00    -0.274 OA
HETATM   34  N1  UNL     1     -13.437   8.990  12.570  1.00  0.00    -0.351 N 
HETATM   35  H32 UNL     1     -13.014   9.759  12.063  1.00  0.00     0.163 HD
BRANCH  34  36
HETATM   36  C26 UNL     1     -14.877   9.059  12.775  1.00  0.00     0.232 C 
BRANCH  36  37
HETATM   37  C27 UNL     1     -15.636   7.895  12.151  1.00  0.00     0.158 C 
HETATM   38  O8  UNL     1     -15.801   6.797  12.664  1.00  0.00    -0.649 OA
BRANCH  37  39
HETATM   39  O9  UNL     1     -16.074   8.124  10.893  1.00  0.00    -0.775 OA
HETATM   40  H35 UNL     1     -16.531   7.290  10.654  1.00  0.00     0.167 HD
ENDBRANCH  37  39
ENDBRANCH  36  37
ENDBRANCH  34  36
ENDBRANCH  31  32
ENDBRANCH  30  31
ENDBRANCH  28  30
ENDBRANCH  27  28
ENDBRANCH  26  27
ENDBRANCH  24  26
ENDBRANCH  21  24
TORSDOF 11
ENDMDL
