MODEL 1
REMARK minimizedAffinity -8.24027824
REMARK CNNscore 0.500790715
REMARK CNNaffinity 6.63534307
REMARK  11 active torsions:
REMARK  status: ('A' for Active; 'I' for Inactive)
REMARK    1  A    between atoms: C3_3  and  O1_4 
REMARK    2  A    between atoms: N1_14  and  O2_16 
REMARK    3  A    between atoms: O2_16  and  C13_17 
REMARK    4  A    between atoms: C13_17  and  C14_18 
REMARK       I    between atoms: C14_18  and  N2_20 
REMARK    5  A    between atoms: N2_20  and  C15_21 
REMARK    6  A    between atoms: C15_21  and  C16_22 
REMARK    7  A    between atoms: C15_21  and  C17_25 
REMARK    8  A    between atoms: C16_22  and  O5_24 
REMARK    9  A    between atoms: C17_25  and  O6_26 
REMARK   10  A    between atoms: C17_25  and  C18_27 
REMARK   11  A    between atoms: C22_31  and  N3_32 
ROOT
HETATM    1  C1  UNL     1      -3.110  48.467 -26.629  1.00  0.00     0.015 C 
HETATM    2  C2  UNL     1      -2.965  49.547 -26.123  1.00  0.00    -0.078 C 
HETATM    3  C3  UNL     1      -2.770  50.888 -25.530  1.00  0.00     0.128 C 
HETATM    4  C4  UNL     1      -1.332  51.021 -25.007  1.00  0.00     0.052 C 
HETATM    5  C5  UNL     1      -1.378  50.334 -23.648  1.00  0.00     0.010 C 
HETATM    6  C6  UNL     1      -2.730  50.761 -23.059  1.00  0.00     0.002 C 
HETATM    7  C7  UNL     1      -3.370  49.793 -22.037  1.00  0.00    -0.004 C 
HETATM    8  C8  UNL     1      -3.358  48.291 -22.385  1.00  0.00     0.010 C 
HETATM    9  C9  UNL     1      -4.658  47.511 -22.137  1.00  0.00     0.035 C 
HETATM   10  C10 UNL     1      -5.546  47.972 -21.006  1.00  0.00    -0.069 C 
HETATM   11  C11 UNL     1      -6.496  47.147 -20.532  1.00  0.00     0.030 C 
HETATM   12  C12 UNL     1      -7.466  47.574 -19.489  1.00  0.00     0.032 C 
HETATM   13  N1  UNL     1      -8.234  46.659 -18.967  1.00  0.00    -0.271 N 
ATOM     14  H1  UNL     1      -8.221  45.676 -19.238  1.00  0.00     0.194 HD
HETATM   15  C24 UNL     1      -7.498  49.036 -19.072  1.00  0.00     0.060 C 
HETATM   16  C25 UNL     1      -6.772  49.945 -20.061  1.00  0.00     0.020 C 
HETATM   17  C26 UNL     1      -5.390  49.397 -20.504  1.00  0.00    -0.016 C 
HETATM   18  C27 UNL     1      -4.454  49.374 -19.265  1.00  0.00     0.020 C 
HETATM   19  C28 UNL     1      -4.775  50.299 -21.631  1.00  0.00     0.002 C 
HETATM   20  C29 UNL     1      -5.701  50.500 -22.863  1.00  0.00     0.007 C 
HETATM   21  C30 UNL     1      -4.996  50.452 -24.224  1.00  0.00     0.014 C 
HETATM   22  C31 UNL     1      -3.639  51.180 -24.256  1.00  0.00     0.003 C 
HETATM   23  C32 UNL     1      -3.927  52.705 -24.144  1.00  0.00     0.020 C 
ENDROOT
BRANCH   3  24
HETATM   24  O1  UNL     1      -2.995  51.848 -26.554  1.00  0.00    -0.377 OA
HETATM   25  H2  UNL     1      -2.448  51.587 -27.314  1.00  0.00     0.211 HD
ENDBRANCH   3  24
BRANCH  13  26
HETATM   26  O2  UNL     1      -9.080  47.196 -17.986  1.00  0.00    -0.271 OA
BRANCH  26  27
HETATM   27  C13 UNL     1     -10.217  46.350 -17.849  1.00  0.00     0.303 C 
BRANCH  27  28
HETATM   28  C14 UNL     1     -11.436  46.930 -18.563  1.00  0.00     0.244 C 
HETATM   29  O3  UNL     1     -11.364  47.921 -19.286  1.00  0.00    -0.271 OA
HETATM   30  N2  UNL     1     -12.620  46.266 -18.333  1.00  0.00    -0.342 N 
HETATM   31  H16 UNL     1     -12.636  45.653 -17.522  1.00  0.00     0.163 HD
BRANCH  30  32
HETATM   32  C15 UNL     1     -13.911  46.843 -18.738  1.00  0.00     0.216 C 
BRANCH  32  33
HETATM   33  C16 UNL     1     -14.492  47.702 -17.605  1.00  0.00     0.166 C 
HETATM   34  O4  UNL     1     -15.194  48.693 -17.741  1.00  0.00    -0.648 OA
BRANCH  33  35
HETATM   35  O5  UNL     1     -14.185  47.279 -16.358  1.00  0.00    -0.775 OA
HETATM   36  H18 UNL     1     -14.582  47.952 -15.767  1.00  0.00     0.167 HD
ENDBRANCH  33  35
ENDBRANCH  32  33
BRANCH  32  37
HETATM   37  C17 UNL     1     -14.897  45.710 -19.117  1.00  0.00     0.184 C 
BRANCH  37  38
HETATM   38  O6  UNL     1     -15.342  45.061 -17.910  1.00  0.00    -0.388 OA
HETATM   39  H20 UNL     1     -16.227  45.409 -17.699  1.00  0.00     0.210 HD
ENDBRANCH  37  38
BRANCH  37  40
HETATM   40  C18 UNL     1     -16.091  46.016 -20.012  1.00  0.00    -0.025 A 
HETATM   41  C19 UNL     1     -17.309  46.388 -19.404  1.00  0.00     0.010 A 
HETATM   42  C20 UNL     1     -18.453  46.665 -20.159  1.00  0.00     0.003 A 
HETATM   43  C21 UNL     1     -18.413  46.562 -21.547  1.00  0.00     0.036 A 
HETATM   44  C22 UNL     1     -17.221  46.171 -22.167  1.00  0.00     0.103 A 
HETATM   45  C23 UNL     1     -16.070  45.892 -21.410  1.00  0.00     0.045 A 
BRANCH  44  46
HETATM   46  N3  UNL     1     -17.180  46.040 -23.629  1.00  0.00    -0.116 N 
HETATM   47  O7  UNL     1     -17.360  44.914 -24.112  1.00  0.00    -0.532 OA
HETATM   48  O8  UNL     1     -16.976  47.067 -24.294  1.00  0.00    -0.532 OA
ENDBRANCH  44  46
ENDBRANCH  37  40
ENDBRANCH  32  37
ENDBRANCH  30  32
ENDBRANCH  27  28
ENDBRANCH  26  27
ENDBRANCH  13  26
TORSDOF 11
ENDMDL
MODEL 2
REMARK minimizedAffinity -10.1158819
REMARK CNNscore 0.498706073
REMARK CNNaffinity 6.94395638
REMARK  11 active torsions:
REMARK  status: ('A' for Active; 'I' for Inactive)
REMARK    1  A    between atoms: C3_3  and  O1_4 
REMARK    2  A    between atoms: N1_14  and  O2_16 
REMARK    3  A    between atoms: O2_16  and  C13_17 
REMARK    4  A    between atoms: C13_17  and  C14_18 
REMARK       I    between atoms: C14_18  and  N2_20 
REMARK    5  A    between atoms: N2_20  and  C15_21 
REMARK    6  A    between atoms: C15_21  and  C16_22 
REMARK    7  A    between atoms: C15_21  and  C17_25 
REMARK    8  A    between atoms: C16_22  and  O5_24 
REMARK    9  A    between atoms: C17_25  and  O6_26 
REMARK   10  A    between atoms: C17_25  and  C18_27 
REMARK   11  A    between atoms: C22_31  and  N3_32 
ROOT
HETATM    1  C1  UNL     1      -5.602  47.168 -22.364  1.00  0.00     0.015 C 
HETATM    2  C2  UNL     1      -5.424  48.106 -23.093  1.00  0.00    -0.078 C 
HETATM    3  C3  UNL     1      -5.232  49.250 -24.011  1.00  0.00     0.128 C 
HETATM    4  C4  UNL     1      -4.429  48.800 -25.240  1.00  0.00     0.052 C 
HETATM    5  C5  UNL     1      -2.984  48.836 -24.758  1.00  0.00     0.010 C 
HETATM    6  C6  UNL     1      -2.911  50.098 -23.887  1.00  0.00     0.002 C 
HETATM    7  C7  UNL     1      -1.841  50.101 -22.770  1.00  0.00    -0.004 C 
HETATM    8  C8  UNL     1      -1.708  48.822 -21.919  1.00  0.00     0.010 C 
HETATM    9  C9  UNL     1      -1.573  49.011 -20.400  1.00  0.00     0.035 C 
HETATM   10  C10 UNL     1      -0.895  50.268 -19.908  1.00  0.00    -0.069 C 
HETATM   11  C11 UNL     1      -0.450  50.327 -18.641  1.00  0.00     0.030 C 
HETATM   12  C12 UNL     1       0.136  51.566 -18.066  1.00  0.00     0.032 C 
HETATM   13  N1  UNL     1       0.698  51.481 -16.893  1.00  0.00    -0.271 N 
ATOM     14  H1  UNL     1       0.747  50.625 -16.341  1.00  0.00     0.194 HD
HETATM   15  C24 UNL     1       0.073  52.851 -18.875  1.00  0.00     0.060 C 
HETATM   16  C25 UNL     1      -0.927  52.773 -20.027  1.00  0.00     0.020 C 
HETATM   17  C26 UNL     1      -0.821  51.460 -20.847  1.00  0.00    -0.016 C 
HETATM   18  C27 UNL     1       0.561  51.435 -21.554  1.00  0.00     0.020 C 
HETATM   19  C28 UNL     1      -1.974  51.379 -21.909  1.00  0.00     0.002 C 
HETATM   20  C29 UNL     1      -3.401  51.535 -21.313  1.00  0.00     0.007 C 
HETATM   21  C30 UNL     1      -4.461  50.598 -21.904  1.00  0.00     0.014 C 
HETATM   22  C31 UNL     1      -4.367  50.424 -23.431  1.00  0.00     0.003 C 
HETATM   23  C32 UNL     1      -4.794  51.772 -24.080  1.00  0.00     0.020 C 
ENDROOT
BRANCH   3  24
HETATM   24  O1  UNL     1      -6.519  49.694 -24.420  1.00  0.00    -0.377 OA
HETATM   25  H2  UNL     1      -7.002  48.913 -24.738  1.00  0.00     0.211 HD
ENDBRANCH   3  24
BRANCH  13  26
HETATM   26  O2  UNL     1       1.225  52.714 -16.484  1.00  0.00    -0.271 OA
BRANCH  26  27
HETATM   27  C13 UNL     1       2.625  52.722 -16.744  1.00  0.00     0.303 C 
BRANCH  27  28
HETATM   28  C14 UNL     1       3.417  52.162 -15.564  1.00  0.00     0.244 C 
HETATM   29  O3  UNL     1       4.597  51.831 -15.662  1.00  0.00    -0.271 OA
HETATM   30  N2  UNL     1       2.713  52.049 -14.387  1.00  0.00    -0.342 N 
HETATM   31  H16 UNL     1       1.699  52.075 -14.471  1.00  0.00     0.163 HD
BRANCH  30  32
HETATM   32  C15 UNL     1       3.252  51.300 -13.242  1.00  0.00     0.216 C 
BRANCH  32  33
HETATM   33  C16 UNL     1       3.575  49.855 -13.652  1.00  0.00     0.166 C 
HETATM   34  O4  UNL     1       2.759  48.985 -13.923  1.00  0.00    -0.648 OA
BRANCH  33  35
HETATM   35  O5  UNL     1       4.893  49.566 -13.721  1.00  0.00    -0.775 OA
HETATM   36  H18 UNL     1       4.922  48.611 -13.942  1.00  0.00     0.167 HD
ENDBRANCH  33  35
ENDBRANCH  32  33
BRANCH  32  37
HETATM   37  C17 UNL     1       2.232  51.315 -12.076  1.00  0.00     0.184 C 
BRANCH  37  38
HETATM   38  O6  UNL     1       2.697  50.427 -11.042  1.00  0.00    -0.388 OA
HETATM   39  H20 UNL     1       3.108  50.974 -10.348  1.00  0.00     0.210 HD
ENDBRANCH  37  38
BRANCH  37  40
HETATM   40  C18 UNL     1       1.803  52.644 -11.466  1.00  0.00    -0.025 A 
HETATM   41  C19 UNL     1       0.438  52.997 -11.518  1.00  0.00     0.010 A 
HETATM   42  C20 UNL     1      -0.028  54.209 -10.997  1.00  0.00     0.003 A 
HETATM   43  C21 UNL     1       0.866  55.108 -10.422  1.00  0.00     0.036 A 
HETATM   44  C22 UNL     1       2.227  54.786 -10.384  1.00  0.00     0.103 A 
HETATM   45  C23 UNL     1       2.698  53.570 -10.907  1.00  0.00     0.045 A 
BRANCH  44  46
HETATM   46  N3  UNL     1       3.176  55.742  -9.798  1.00  0.00    -0.116 N 
HETATM   47  O7  UNL     1       3.638  55.482  -8.678  1.00  0.00    -0.532 OA
HETATM   48  O8  UNL     1       3.466  56.747 -10.464  1.00  0.00    -0.532 OA
ENDBRANCH  44  46
ENDBRANCH  37  40
ENDBRANCH  32  37
ENDBRANCH  30  32
ENDBRANCH  27  28
ENDBRANCH  26  27
ENDBRANCH  13  26
TORSDOF 11
ENDMDL
MODEL 3
REMARK minimizedAffinity -8.49081707
REMARK CNNscore 0.419271111
REMARK CNNaffinity 6.68546247
REMARK  11 active torsions:
REMARK  status: ('A' for Active; 'I' for Inactive)
REMARK    1  A    between atoms: C3_3  and  O1_4 
REMARK    2  A    between atoms: N1_14  and  O2_16 
REMARK    3  A    between atoms: O2_16  and  C13_17 
REMARK    4  A    between atoms: C13_17  and  C14_18 
REMARK       I    between atoms: C14_18  and  N2_20 
REMARK    5  A    between atoms: N2_20  and  C15_21 
REMARK    6  A    between atoms: C15_21  and  C16_22 
REMARK    7  A    between atoms: C15_21  and  C17_25 
REMARK    8  A    between atoms: C16_22  and  O5_24 
REMARK    9  A    between atoms: C17_25  and  O6_26 
REMARK   10  A    between atoms: C17_25  and  C18_27 
REMARK   11  A    between atoms: C22_31  and  N3_32 
ROOT
HETATM    1  C1  UNL     1       0.507  51.402 -22.045  1.00  0.00     0.015 C 
HETATM    2  C2  UNL     1      -0.090  51.258 -21.012  1.00  0.00    -0.078 C 
HETATM    3  C3  UNL     1      -0.797  51.096 -19.723  1.00  0.00     0.128 C 
HETATM    4  C4  UNL     1      -0.239  49.878 -18.973  1.00  0.00     0.052 C 
HETATM    5  C5  UNL     1      -0.961  48.699 -19.613  1.00  0.00     0.010 C 
HETATM    6  C6  UNL     1      -2.394  49.208 -19.825  1.00  0.00     0.002 C 
HETATM    7  C7  UNL     1      -3.191  48.555 -20.978  1.00  0.00    -0.004 C 
HETATM    8  C8  UNL     1      -2.458  48.362 -22.321  1.00  0.00     0.010 C 
HETATM    9  C9  UNL     1      -3.233  48.736 -23.594  1.00  0.00     0.035 C 
HETATM   10  C10 UNL     1      -4.734  48.574 -23.573  1.00  0.00    -0.069 C 
HETATM   11  C11 UNL     1      -5.414  48.555 -24.733  1.00  0.00     0.030 C 
HETATM   12  C12 UNL     1      -6.899  48.497 -24.777  1.00  0.00     0.032 C 
HETATM   13  N1  UNL     1      -7.461  48.306 -25.938  1.00  0.00    -0.271 N 
ATOM     14  H1  UNL     1      -6.950  48.209 -26.815  1.00  0.00     0.194 HD
HETATM   15  C24 UNL     1      -7.678  48.639 -23.479  1.00  0.00     0.060 C 
HETATM   16  C25 UNL     1      -6.828  49.198 -22.341  1.00  0.00     0.020 C 
HETATM   17  C26 UNL     1      -5.434  48.527 -22.225  1.00  0.00    -0.016 C 
HETATM   18  C27 UNL     1      -5.638  47.038 -21.837  1.00  0.00     0.020 C 
HETATM   19  C28 UNL     1      -4.560  49.254 -21.142  1.00  0.00     0.002 C 
HETATM   20  C29 UNL     1      -4.410  50.785 -21.366  1.00  0.00     0.007 C 
HETATM   21  C30 UNL     1      -3.011  51.350 -21.096  1.00  0.00     0.014 C 
HETATM   22  C31 UNL     1      -2.327  50.767 -19.846  1.00  0.00     0.003 C 
HETATM   23  C32 UNL     1      -3.091  51.307 -18.603  1.00  0.00     0.020 C 
ENDROOT
BRANCH   3  24
HETATM   24  O1  UNL     1      -0.571  52.273 -18.958  1.00  0.00    -0.377 OA
HETATM   25  H2  UNL     1       0.389  52.426 -18.950  1.00  0.00     0.211 HD
ENDBRANCH   3  24
BRANCH  13  26
HETATM   26  O2  UNL     1      -8.858  48.252 -25.830  1.00  0.00    -0.271 OA
BRANCH  26  27
HETATM   27  C13 UNL     1      -9.287  46.921 -26.100  1.00  0.00     0.303 C 
BRANCH  27  28
HETATM   28  C14 UNL     1     -10.790  46.860 -26.362  1.00  0.00     0.244 C 
HETATM   29  O3  UNL     1     -11.552  47.767 -26.035  1.00  0.00    -0.271 OA
HETATM   30  N2  UNL     1     -11.230  45.713 -26.984  1.00  0.00    -0.342 N 
HETATM   31  H16 UNL     1     -10.593  44.920 -26.957  1.00  0.00     0.163 HD
BRANCH  30  32
HETATM   32  C15 UNL     1     -12.663  45.394 -27.074  1.00  0.00     0.216 C 
BRANCH  32  33
HETATM   33  C16 UNL     1     -13.419  46.526 -27.786  1.00  0.00     0.166 C 
HETATM   34  O4  UNL     1     -13.910  46.471 -28.904  1.00  0.00    -0.648 OA
BRANCH  33  35
HETATM   35  O5  UNL     1     -13.540  47.665 -27.069  1.00  0.00    -0.775 OA
HETATM   36  H18 UNL     1     -13.993  48.289 -27.675  1.00  0.00     0.167 HD
ENDBRANCH  33  35
ENDBRANCH  32  33
BRANCH  32  37
HETATM   37  C17 UNL     1     -13.242  45.167 -25.655  1.00  0.00     0.184 C 
BRANCH  37  38
HETATM   38  O6  UNL     1     -12.249  45.550 -24.684  1.00  0.00    -0.388 OA
HETATM   39  H20 UNL     1     -12.484  46.437 -24.358  1.00  0.00     0.210 HD
ENDBRANCH  37  38
BRANCH  37  40
HETATM   40  C18 UNL     1     -14.591  45.772 -25.285  1.00  0.00    -0.025 A 
HETATM   41  C19 UNL     1     -14.617  46.847 -24.371  1.00  0.00     0.010 A 
HETATM   42  C20 UNL     1     -15.818  47.440 -23.968  1.00  0.00     0.003 A 
HETATM   43  C21 UNL     1     -17.029  46.961 -24.459  1.00  0.00     0.036 A 
HETATM   44  C22 UNL     1     -17.025  45.879 -25.347  1.00  0.00     0.103 A 
HETATM   45  C23 UNL     1     -15.820  45.280 -25.753  1.00  0.00     0.045 A 
BRANCH  44  46
HETATM   46  N3  UNL     1     -18.302  45.355 -25.850  1.00  0.00    -0.116 N 
HETATM   47  O7  UNL     1     -18.512  45.422 -27.068  1.00  0.00    -0.532 OA
HETATM   48  O8  UNL     1     -19.090  44.869 -25.025  1.00  0.00    -0.532 OA
ENDBRANCH  44  46
ENDBRANCH  37  40
ENDBRANCH  32  37
ENDBRANCH  30  32
ENDBRANCH  27  28
ENDBRANCH  26  27
ENDBRANCH  13  26
TORSDOF 11
ENDMDL
MODEL 4
REMARK minimizedAffinity -8.94924068
REMARK CNNscore 0.400503546
REMARK CNNaffinity 6.20509577
REMARK  11 active torsions:
REMARK  status: ('A' for Active; 'I' for Inactive)
REMARK    1  A    between atoms: C3_3  and  O1_4 
REMARK    2  A    between atoms: N1_14  and  O2_16 
REMARK    3  A    between atoms: O2_16  and  C13_17 
REMARK    4  A    between atoms: C13_17  and  C14_18 
REMARK       I    between atoms: C14_18  and  N2_20 
REMARK    5  A    between atoms: N2_20  and  C15_21 
REMARK    6  A    between atoms: C15_21  and  C16_22 
REMARK    7  A    between atoms: C15_21  and  C17_25 
REMARK    8  A    between atoms: C16_22  and  O5_24 
REMARK    9  A    between atoms: C17_25  and  O6_26 
REMARK   10  A    between atoms: C17_25  and  C18_27 
REMARK   11  A    between atoms: C22_31  and  N3_32 
ROOT
HETATM    1  C1  UNL     1      -0.483  51.716 -23.799  1.00  0.00     0.015 C 
HETATM    2  C2  UNL     1      -0.741  51.514 -22.643  1.00  0.00    -0.078 C 
HETATM    3  C3  UNL     1      -1.029  51.283 -21.211  1.00  0.00     0.128 C 
HETATM    4  C4  UNL     1      -0.152  50.139 -20.682  1.00  0.00     0.052 C 
HETATM    5  C5  UNL     1      -0.896  48.883 -21.120  1.00  0.00     0.010 C 
HETATM    6  C6  UNL     1      -2.376  49.230 -20.902  1.00  0.00     0.002 C 
HETATM    7  C7  UNL     1      -3.395  48.486 -21.797  1.00  0.00    -0.004 C 
HETATM    8  C8  UNL     1      -3.060  48.368 -23.297  1.00  0.00     0.010 C 
HETATM    9  C9  UNL     1      -4.202  48.646 -24.287  1.00  0.00     0.035 C 
HETATM   10  C10 UNL     1      -5.608  48.320 -23.843  1.00  0.00    -0.069 C 
HETATM   11  C11 UNL     1      -6.585  48.220 -24.762  1.00  0.00     0.030 C 
HETATM   12  C12 UNL     1      -8.006  47.999 -24.383  1.00  0.00     0.032 C 
HETATM   13  N1  UNL     1      -8.852  47.740 -25.340  1.00  0.00    -0.271 N 
ATOM     14  H1  UNL     1      -8.606  47.695 -26.328  1.00  0.00     0.194 HD
HETATM   15  C24 UNL     1      -8.392  48.062 -22.914  1.00  0.00     0.060 C 
HETATM   16  C25 UNL     1      -7.317  48.719 -22.051  1.00  0.00     0.020 C 
HETATM   17  C26 UNL     1      -5.884  48.205 -22.354  1.00  0.00    -0.016 C 
HETATM   18  C27 UNL     1      -5.809  46.705 -21.962  1.00  0.00     0.020 C 
HETATM   19  C28 UNL     1      -4.821  49.030 -21.546  1.00  0.00     0.002 C 
HETATM   20  C29 UNL     1      -4.906  50.567 -21.765  1.00  0.00     0.007 C 
HETATM   21  C30 UNL     1      -3.556  51.284 -21.890  1.00  0.00     0.014 C 
HETATM   22  C31 UNL     1      -2.485  50.787 -20.902  1.00  0.00     0.003 C 
HETATM   23  C32 UNL     1      -2.916  51.248 -19.479  1.00  0.00     0.020 C 
ENDROOT
BRANCH   3  24
HETATM   24  O1  UNL     1      -0.720  52.482 -20.512  1.00  0.00    -0.377 OA
HETATM   25  H2  UNL     1       0.180  52.740 -20.774  1.00  0.00     0.211 HD
ENDBRANCH   3  24
BRANCH  13  26
HETATM   26  O2  UNL     1     -10.146  47.533 -24.840  1.00  0.00    -0.271 OA
BRANCH  26  27
HETATM   27  C13 UNL     1     -11.027  47.298 -25.933  1.00  0.00     0.303 C 
BRANCH  27  28
HETATM   28  C14 UNL     1     -12.478  47.190 -25.469  1.00  0.00     0.244 C 
HETATM   29  O3  UNL     1     -13.425  47.467 -26.202  1.00  0.00    -0.271 OA
HETATM   30  N2  UNL     1     -12.648  46.766 -24.171  1.00  0.00    -0.342 N 
HETATM   31  H16 UNL     1     -11.830  46.835 -23.570  1.00  0.00     0.163 HD
BRANCH  30  32
HETATM   32  C15 UNL     1     -13.955  46.854 -23.503  1.00  0.00     0.216 C 
BRANCH  32  33
HETATM   33  C16 UNL     1     -13.771  47.060 -21.992  1.00  0.00     0.166 C 
HETATM   34  O4  UNL     1     -13.066  46.385 -21.255  1.00  0.00    -0.648 OA
BRANCH  33  35
HETATM   35  O5  UNL     1     -14.459  48.101 -21.473  1.00  0.00    -0.775 OA
HETATM   36  H18 UNL     1     -14.274  48.062 -20.511  1.00  0.00     0.167 HD
ENDBRANCH  33  35
ENDBRANCH  32  33
BRANCH  32  37
HETATM   37  C17 UNL     1     -14.772  45.566 -23.776  1.00  0.00     0.184 C 
BRANCH  37  38
HETATM   38  O6  UNL     1     -14.407  44.570 -22.801  1.00  0.00    -0.388 OA
HETATM   39  H20 UNL     1     -15.104  44.558 -22.120  1.00  0.00     0.210 HD
ENDBRANCH  37  38
BRANCH  37  40
HETATM   40  C18 UNL     1     -16.290  45.645 -23.894  1.00  0.00    -0.025 A 
HETATM   41  C19 UNL     1     -17.011  46.284 -22.864  1.00  0.00     0.010 A 
HETATM   42  C20 UNL     1     -18.406  46.379 -22.893  1.00  0.00     0.003 A 
HETATM   43  C21 UNL     1     -19.119  45.821 -23.950  1.00  0.00     0.036 A 
HETATM   44  C22 UNL     1     -18.423  45.161 -24.969  1.00  0.00     0.103 A 
HETATM   45  C23 UNL     1     -17.021  45.064 -24.942  1.00  0.00     0.045 A 
BRANCH  44  46
HETATM   46  N3  UNL     1     -19.173  44.552 -26.076  1.00  0.00    -0.116 N 
HETATM   47  O7  UNL     1     -19.205  45.160 -27.154  1.00  0.00    -0.532 OA
HETATM   48  O8  UNL     1     -19.721  43.459 -25.867  1.00  0.00    -0.532 OA
ENDBRANCH  44  46
ENDBRANCH  37  40
ENDBRANCH  32  37
ENDBRANCH  30  32
ENDBRANCH  27  28
ENDBRANCH  26  27
ENDBRANCH  13  26
TORSDOF 11
ENDMDL
MODEL 5
REMARK minimizedAffinity -9.02783108
REMARK CNNscore 0.383784026
REMARK CNNaffinity 6.36824274
REMARK  11 active torsions:
REMARK  status: ('A' for Active; 'I' for Inactive)
REMARK    1  A    between atoms: C3_3  and  O1_4 
REMARK    2  A    between atoms: N1_14  and  O2_16 
REMARK    3  A    between atoms: O2_16  and  C13_17 
REMARK    4  A    between atoms: C13_17  and  C14_18 
REMARK       I    between atoms: C14_18  and  N2_20 
REMARK    5  A    between atoms: N2_20  and  C15_21 
REMARK    6  A    between atoms: C15_21  and  C16_22 
REMARK    7  A    between atoms: C15_21  and  C17_25 
REMARK    8  A    between atoms: C16_22  and  O5_24 
REMARK    9  A    between atoms: C17_25  and  O6_26 
REMARK   10  A    between atoms: C17_25  and  C18_27 
REMARK   11  A    between atoms: C22_31  and  N3_32 
ROOT
HETATM    1  C1  UNL     1      -0.441  51.731 -23.838  1.00  0.00     0.015 C 
HETATM    2  C2  UNL     1      -0.718  51.522 -22.687  1.00  0.00    -0.078 C 
HETATM    3  C3  UNL     1      -1.029  51.283 -21.261  1.00  0.00     0.128 C 
HETATM    4  C4  UNL     1      -0.174  50.123 -20.730  1.00  0.00     0.052 C 
HETATM    5  C5  UNL     1      -0.928  48.881 -21.189  1.00  0.00     0.010 C 
HETATM    6  C6  UNL     1      -2.406  49.245 -20.989  1.00  0.00     0.002 C 
HETATM    7  C7  UNL     1      -3.421  48.521 -21.905  1.00  0.00    -0.004 C 
HETATM    8  C8  UNL     1      -3.066  48.410 -23.401  1.00  0.00     0.010 C 
HETATM    9  C9  UNL     1      -4.190  48.711 -24.405  1.00  0.00     0.035 C 
HETATM   10  C10 UNL     1      -5.606  48.399 -23.984  1.00  0.00    -0.069 C 
HETATM   11  C11 UNL     1      -6.571  48.318 -24.917  1.00  0.00     0.030 C 
HETATM   12  C12 UNL     1      -8.000  48.112 -24.561  1.00  0.00     0.032 C 
HETATM   13  N1  UNL     1      -8.836  47.872 -25.532  1.00  0.00    -0.271 N 
ATOM     14  H1  UNL     1      -8.575  47.831 -26.517  1.00  0.00     0.194 HD
HETATM   15  C24 UNL     1      -8.406  48.168 -23.097  1.00  0.00     0.060 C 
HETATM   16  C25 UNL     1      -7.336  48.804 -22.213  1.00  0.00     0.020 C 
HETATM   17  C26 UNL     1      -5.905  48.275 -22.500  1.00  0.00    -0.016 C 
HETATM   18  C27 UNL     1      -5.854  46.771 -22.119  1.00  0.00     0.020 C 
HETATM   19  C28 UNL     1      -4.843  49.080 -21.670  1.00  0.00     0.002 C 
HETATM   20  C29 UNL     1      -4.907  50.619 -21.877  1.00  0.00     0.007 C 
HETATM   21  C30 UNL     1      -3.547  51.321 -21.977  1.00  0.00     0.014 C 
HETATM   22  C31 UNL     1      -2.496  50.802 -20.977  1.00  0.00     0.003 C 
HETATM   23  C32 UNL     1      -2.941  51.257 -19.557  1.00  0.00     0.020 C 
ENDROOT
BRANCH   3  24
HETATM   24  O1  UNL     1      -0.716  52.472 -20.548  1.00  0.00    -0.377 OA
HETATM   25  H2  UNL     1       0.190  52.721 -20.795  1.00  0.00     0.211 HD
ENDBRANCH   3  24
BRANCH  13  26
HETATM   26  O2  UNL     1     -10.139  47.677 -25.052  1.00  0.00    -0.271 OA
BRANCH  26  27
HETATM   27  C13 UNL     1     -11.054  47.845 -26.130  1.00  0.00     0.303 C 
BRANCH  27  28
HETATM   28  C14 UNL     1     -12.343  47.060 -25.898  1.00  0.00     0.244 C 
HETATM   29  O3  UNL     1     -13.056  47.245 -24.914  1.00  0.00    -0.271 OA
HETATM   30  N2  UNL     1     -12.645  46.129 -26.865  1.00  0.00    -0.342 N 
HETATM   31  H16 UNL     1     -11.877  45.853 -27.472  1.00  0.00     0.163 HD
BRANCH  30  32
HETATM   32  C15 UNL     1     -13.704  45.129 -26.660  1.00  0.00     0.216 C 
BRANCH  32  33
HETATM   33  C16 UNL     1     -13.220  43.740 -27.102  1.00  0.00     0.166 C 
HETATM   34  O4  UNL     1     -12.279  43.510 -27.848  1.00  0.00    -0.648 OA
BRANCH  33  35
HETATM   35  O5  UNL     1     -13.919  42.705 -26.586  1.00  0.00    -0.775 OA
HETATM   36  H18 UNL     1     -13.522  41.910 -27.000  1.00  0.00     0.167 HD
ENDBRANCH  33  35
ENDBRANCH  32  33
BRANCH  32  37
HETATM   37  C17 UNL     1     -14.972  45.536 -27.452  1.00  0.00     0.184 C 
BRANCH  37  38
HETATM   38  O6  UNL     1     -14.842  45.066 -28.807  1.00  0.00    -0.388 OA
HETATM   39  H20 UNL     1     -15.369  44.250 -28.886  1.00  0.00     0.210 HD
ENDBRANCH  37  38
BRANCH  37  40
HETATM   40  C18 UNL     1     -16.349  45.178 -26.907  1.00  0.00    -0.025 A 
HETATM   41  C19 UNL     1     -16.977  44.008 -27.384  1.00  0.00     0.010 A 
HETATM   42  C20 UNL     1     -18.249  43.625 -26.945  1.00  0.00     0.003 A 
HETATM   43  C21 UNL     1     -18.934  44.414 -26.026  1.00  0.00     0.036 A 
HETATM   44  C22 UNL     1     -18.339  45.592 -25.561  1.00  0.00     0.103 A 
HETATM   45  C23 UNL     1     -17.061  45.980 -26.000  1.00  0.00     0.045 A 
BRANCH  44  46
HETATM   46  N3  UNL     1     -19.069  46.440 -24.609  1.00  0.00    -0.116 N 
HETATM   47  O7  UNL     1     -19.669  45.879 -23.682  1.00  0.00    -0.532 OA
HETATM   48  O8  UNL     1     -19.031  47.667 -24.784  1.00  0.00    -0.532 OA
ENDBRANCH  44  46
ENDBRANCH  37  40
ENDBRANCH  32  37
ENDBRANCH  30  32
ENDBRANCH  27  28
ENDBRANCH  26  27
ENDBRANCH  13  26
TORSDOF 11
ENDMDL
MODEL 6
REMARK minimizedAffinity -8.6836853
REMARK CNNscore 0.353296995
REMARK CNNaffinity 6.11524439
REMARK  11 active torsions:
REMARK  status: ('A' for Active; 'I' for Inactive)
REMARK    1  A    between atoms: C3_3  and  O1_4 
REMARK    2  A    between atoms: N1_14  and  O2_16 
REMARK    3  A    between atoms: O2_16  and  C13_17 
REMARK    4  A    between atoms: C13_17  and  C14_18 
REMARK       I    between atoms: C14_18  and  N2_20 
REMARK    5  A    between atoms: N2_20  and  C15_21 
REMARK    6  A    between atoms: C15_21  and  C16_22 
REMARK    7  A    between atoms: C15_21  and  C17_25 
REMARK    8  A    between atoms: C16_22  and  O5_24 
REMARK    9  A    between atoms: C17_25  and  O6_26 
REMARK   10  A    between atoms: C17_25  and  C18_27 
REMARK   11  A    between atoms: C22_31  and  N3_32 
ROOT
HETATM    1  C1  UNL     1      -6.060  43.597 -31.528  1.00  0.00     0.015 C 
HETATM    2  C2  UNL     1      -6.099  44.766 -31.802  1.00  0.00    -0.078 C 
HETATM    3  C3  UNL     1      -6.122  46.200 -32.163  1.00  0.00     0.128 C 
HETATM    4  C4  UNL     1      -4.960  46.929 -31.472  1.00  0.00     0.052 C 
HETATM    5  C5  UNL     1      -5.485  47.189 -30.065  1.00  0.00     0.010 C 
HETATM    6  C6  UNL     1      -6.957  47.571 -30.280  1.00  0.00     0.002 C 
HETATM    7  C7  UNL     1      -7.919  47.283 -29.104  1.00  0.00    -0.004 C 
HETATM    8  C8  UNL     1      -7.790  45.914 -28.406  1.00  0.00     0.010 C 
HETATM    9  C9  UNL     1      -9.096  45.169 -28.093  1.00  0.00     0.035 C 
HETATM   10  C10 UNL     1     -10.325  45.999 -27.808  1.00  0.00    -0.069 C 
HETATM   11  C11 UNL     1     -11.383  45.429 -27.205  1.00  0.00     0.030 C 
HETATM   12  C12 UNL     1     -12.657  46.164 -26.985  1.00  0.00     0.032 C 
HETATM   13  N1  UNL     1     -13.563  45.594 -26.241  1.00  0.00    -0.271 N 
ATOM     14  H1  UNL     1     -13.458  44.673 -25.814  1.00  0.00     0.194 HD
HETATM   15  C24 UNL     1     -12.830  47.538 -27.613  1.00  0.00     0.060 C 
HETATM   16  C25 UNL     1     -11.799  47.819 -28.704  1.00  0.00     0.020 C 
HETATM   17  C26 UNL     1     -10.352  47.436 -28.299  1.00  0.00    -0.016 C 
HETATM   18  C27 UNL     1      -9.912  48.356 -27.128  1.00  0.00     0.020 C 
HETATM   19  C28 UNL     1      -9.375  47.606 -29.516  1.00  0.00     0.002 C 
HETATM   20  C29 UNL     1      -9.806  46.829 -30.792  1.00  0.00     0.007 C 
HETATM   21  C30 UNL     1      -8.667  46.143 -31.555  1.00  0.00     0.014 C 
HETATM   22  C31 UNL     1      -7.384  46.988 -31.663  1.00  0.00     0.003 C 
HETATM   23  C32 UNL     1      -7.688  48.174 -32.622  1.00  0.00     0.020 C 
ENDROOT
BRANCH   3  24
HETATM   24  O1  UNL     1      -5.968  46.290 -33.574  1.00  0.00    -0.377 OA
HETATM   25  H2  UNL     1      -5.189  45.760 -33.810  1.00  0.00     0.211 HD
ENDBRANCH   3  24
BRANCH  13  26
HETATM   26  O2  UNL     1     -14.699  46.403 -26.101  1.00  0.00    -0.271 OA
BRANCH  26  27
HETATM   27  C13 UNL     1     -15.270  46.173 -24.818  1.00  0.00     0.303 C 
BRANCH  27  28
HETATM   28  C14 UNL     1     -16.702  45.651 -24.928  1.00  0.00     0.244 C 
HETATM   29  O3  UNL     1     -17.184  45.275 -25.994  1.00  0.00    -0.271 OA
HETATM   30  N2  UNL     1     -17.413  45.640 -23.749  1.00  0.00    -0.342 N 
HETATM   31  H16 UNL     1     -17.042  46.219 -23.000  1.00  0.00     0.163 HD
BRANCH  30  32
HETATM   32  C15 UNL     1     -18.866  45.410 -23.735  1.00  0.00     0.216 C 
BRANCH  32  33
HETATM   33  C16 UNL     1     -19.581  46.457 -24.602  1.00  0.00     0.166 C 
HETATM   34  O4  UNL     1     -20.635  46.296 -25.201  1.00  0.00    -0.648 OA
BRANCH  33  35
HETATM   35  O5  UNL     1     -18.962  47.656 -24.669  1.00  0.00    -0.775 OA
HETATM   36  H18 UNL     1     -19.512  48.181 -25.289  1.00  0.00     0.167 HD
ENDBRANCH  33  35
ENDBRANCH  32  33
BRANCH  32  37
HETATM   37  C17 UNL     1     -19.392  45.463 -22.279  1.00  0.00     0.184 C 
BRANCH  37  38
HETATM   38  O6  UNL     1     -19.748  44.129 -21.867  1.00  0.00    -0.388 OA
HETATM   39  H20 UNL     1     -19.019  43.788 -21.318  1.00  0.00     0.210 HD
ENDBRANCH  37  38
BRANCH  37  40
HETATM   40  C18 UNL     1     -18.555  46.135 -21.198  1.00  0.00    -0.025 A 
HETATM   41  C19 UNL     1     -19.218  46.887 -20.205  1.00  0.00     0.010 A 
HETATM   42  C20 UNL     1     -18.515  47.548 -19.193  1.00  0.00     0.003 A 
HETATM   43  C21 UNL     1     -17.125  47.487 -19.156  1.00  0.00     0.036 A 
HETATM   44  C22 UNL     1     -16.448  46.767 -20.147  1.00  0.00     0.103 A 
HETATM   45  C23 UNL     1     -17.151  46.102 -21.166  1.00  0.00     0.045 A 
BRANCH  44  46
HETATM   46  N3  UNL     1     -14.980  46.719 -20.125  1.00  0.00    -0.116 N 
HETATM   47  O7  UNL     1     -14.398  46.425 -21.178  1.00  0.00    -0.532 OA
HETATM   48  O8  UNL     1     -14.411  46.984 -19.056  1.00  0.00    -0.532 OA
ENDBRANCH  44  46
ENDBRANCH  37  40
ENDBRANCH  32  37
ENDBRANCH  30  32
ENDBRANCH  27  28
ENDBRANCH  26  27
ENDBRANCH  13  26
TORSDOF 11
ENDMDL
MODEL 7
REMARK minimizedAffinity -10.0661869
REMARK CNNscore 0.341508538
REMARK CNNaffinity 6.67935419
REMARK  11 active torsions:
REMARK  status: ('A' for Active; 'I' for Inactive)
REMARK    1  A    between atoms: C3_3  and  O1_4 
REMARK    2  A    between atoms: N1_14  and  O2_16 
REMARK    3  A    between atoms: O2_16  and  C13_17 
REMARK    4  A    between atoms: C13_17  and  C14_18 
REMARK       I    between atoms: C14_18  and  N2_20 
REMARK    5  A    between atoms: N2_20  and  C15_21 
REMARK    6  A    between atoms: C15_21  and  C16_22 
REMARK    7  A    between atoms: C15_21  and  C17_25 
REMARK    8  A    between atoms: C16_22  and  O5_24 
REMARK    9  A    between atoms: C17_25  and  O6_26 
REMARK   10  A    between atoms: C17_25  and  C18_27 
REMARK   11  A    between atoms: C22_31  and  N3_32 
ROOT
HETATM    1  C1  UNL     1      -5.690  47.244 -22.390  1.00  0.00     0.015 C 
HETATM    2  C2  UNL     1      -5.465  48.204 -23.077  1.00  0.00    -0.078 C 
HETATM    3  C3  UNL     1      -5.216  49.375 -23.945  1.00  0.00     0.128 C 
HETATM    4  C4  UNL     1      -4.417  48.943 -25.184  1.00  0.00     0.052 C 
HETATM    5  C5  UNL     1      -2.978  48.899 -24.687  1.00  0.00     0.010 C 
HETATM    6  C6  UNL     1      -2.863  50.121 -23.764  1.00  0.00     0.002 C 
HETATM    7  C7  UNL     1      -1.807  50.033 -22.637  1.00  0.00    -0.004 C 
HETATM    8  C8  UNL     1      -1.736  48.716 -21.838  1.00  0.00     0.010 C 
HETATM    9  C9  UNL     1      -1.611  48.837 -20.312  1.00  0.00     0.035 C 
HETATM   10  C10 UNL     1      -0.888  50.043 -19.762  1.00  0.00    -0.069 C 
HETATM   11  C11 UNL     1      -0.456  50.032 -18.488  1.00  0.00     0.030 C 
HETATM   12  C12 UNL     1       0.175  51.221 -17.857  1.00  0.00     0.032 C 
HETATM   13  N1  UNL     1       0.719  51.065 -16.683  1.00  0.00    -0.271 N 
ATOM     14  H1  UNL     1       0.726  50.185 -16.166  1.00  0.00     0.194 HD
HETATM   15  C24 UNL     1       0.173  52.540 -18.613  1.00  0.00     0.060 C 
HETATM   16  C25 UNL     1      -0.815  52.550 -19.777  1.00  0.00     0.020 C 
HETATM   17  C26 UNL     1      -0.754  51.269 -20.649  1.00  0.00    -0.016 C 
HETATM   18  C27 UNL     1       0.634  51.215 -21.343  1.00  0.00     0.020 C 
HETATM   19  C28 UNL     1      -1.897  51.279 -21.725  1.00  0.00     0.002 C 
HETATM   20  C29 UNL     1      -3.323  51.470 -21.138  1.00  0.00     0.007 C 
HETATM   21  C30 UNL     1      -4.414  50.602 -21.777  1.00  0.00     0.014 C 
HETATM   22  C31 UNL     1      -4.310  50.487 -23.309  1.00  0.00     0.003 C 
HETATM   23  C32 UNL     1      -4.673  51.878 -23.905  1.00  0.00     0.020 C 
ENDROOT
BRANCH   3  24
HETATM   24  O1  UNL     1      -6.479  49.889 -24.348  1.00  0.00    -0.377 OA
HETATM   25  H2  UNL     1      -6.989  49.142 -24.703  1.00  0.00     0.211 HD
ENDBRANCH   3  24
BRANCH  13  26
HETATM   26  O2  UNL     1       1.292  52.257 -16.218  1.00  0.00    -0.271 OA
BRANCH  26  27
HETATM   27  C13 UNL     1       2.481  51.944 -15.500  1.00  0.00     0.303 C 
BRANCH  27  28
HETATM   28  C14 UNL     1       2.180  51.596 -14.044  1.00  0.00     0.244 C 
HETATM   29  O3  UNL     1       2.472  50.506 -13.556  1.00  0.00    -0.271 OA
HETATM   30  N2  UNL     1       1.555  52.586 -13.322  1.00  0.00    -0.342 N 
HETATM   31  H16 UNL     1       1.109  53.320 -13.867  1.00  0.00     0.163 HD
BRANCH  30  32
HETATM   32  C15 UNL     1       0.976  52.317 -11.996  1.00  0.00     0.216 C 
BRANCH  32  33
HETATM   33  C16 UNL     1      -0.464  51.802 -12.136  1.00  0.00     0.166 C 
HETATM   34  O4  UNL     1      -0.904  50.761 -11.669  1.00  0.00    -0.648 OA
BRANCH  33  35
HETATM   35  O5  UNL     1      -1.290  52.611 -12.836  1.00  0.00    -0.775 OA
HETATM   36  H18 UNL     1      -2.138  52.121 -12.874  1.00  0.00     0.167 HD
ENDBRANCH  33  35
ENDBRANCH  32  33
BRANCH  32  37
HETATM   37  C17 UNL     1       1.008  53.606 -11.137  1.00  0.00     0.184 C 
BRANCH  37  38
HETATM   38  O6  UNL     1       0.148  53.423  -9.997  1.00  0.00    -0.388 OA
HETATM   39  H20 UNL     1       0.715  53.209  -9.233  1.00  0.00     0.210 HD
ENDBRANCH  37  38
BRANCH  37  40
HETATM   40  C18 UNL     1       2.346  54.184 -10.692  1.00  0.00    -0.025 A 
HETATM   41  C19 UNL     1       2.513  55.585 -10.713  1.00  0.00     0.010 A 
HETATM   42  C20 UNL     1       3.719  56.186 -10.338  1.00  0.00     0.003 A 
HETATM   43  C21 UNL     1       4.797  55.399  -9.946  1.00  0.00     0.036 A 
HETATM   44  C22 UNL     1       4.659  54.006  -9.943  1.00  0.00     0.103 A 
HETATM   45  C23 UNL     1       3.449  53.399 -10.320  1.00  0.00     0.045 A 
BRANCH  44  46
HETATM   46  N3  UNL     1       5.801  53.170  -9.551  1.00  0.00    -0.116 N 
HETATM   47  O7  UNL     1       5.609  51.953  -9.426  1.00  0.00    -0.532 OA
HETATM   48  O8  UNL     1       6.893  53.732  -9.378  1.00  0.00    -0.532 OA
ENDBRANCH  44  46
ENDBRANCH  37  40
ENDBRANCH  32  37
ENDBRANCH  30  32
ENDBRANCH  27  28
ENDBRANCH  26  27
ENDBRANCH  13  26
TORSDOF 11
ENDMDL
MODEL 8
REMARK minimizedAffinity -8.53139114
REMARK CNNscore 0.339831114
REMARK CNNaffinity 6.44935846
REMARK  11 active torsions:
REMARK  status: ('A' for Active; 'I' for Inactive)
REMARK    1  A    between atoms: C3_3  and  O1_4 
REMARK    2  A    between atoms: N1_14  and  O2_16 
REMARK    3  A    between atoms: O2_16  and  C13_17 
REMARK    4  A    between atoms: C13_17  and  C14_18 
REMARK       I    between atoms: C14_18  and  N2_20 
REMARK    5  A    between atoms: N2_20  and  C15_21 
REMARK    6  A    between atoms: C15_21  and  C16_22 
REMARK    7  A    between atoms: C15_21  and  C17_25 
REMARK    8  A    between atoms: C16_22  and  O5_24 
REMARK    9  A    between atoms: C17_25  and  O6_26 
REMARK   10  A    between atoms: C17_25  and  C18_27 
REMARK   11  A    between atoms: C22_31  and  N3_32 
ROOT
HETATM    1  C1  UNL     1      -0.021  51.653 -23.241  1.00  0.00     0.015 C 
HETATM    2  C2  UNL     1      -0.425  51.482 -22.123  1.00  0.00    -0.078 C 
HETATM    3  C3  UNL     1      -0.892  51.287 -20.733  1.00  0.00     0.128 C 
HETATM    4  C4  UNL     1      -0.196  50.064 -20.118  1.00  0.00     0.052 C 
HETATM    5  C5  UNL     1      -1.007  48.886 -20.644  1.00  0.00     0.010 C 
HETATM    6  C6  UNL     1      -2.461  49.378 -20.590  1.00  0.00     0.002 C 
HETATM    7  C7  UNL     1      -3.442  48.735 -21.598  1.00  0.00    -0.004 C 
HETATM    8  C8  UNL     1      -2.955  48.578 -23.052  1.00  0.00     0.010 C 
HETATM    9  C9  UNL     1      -3.947  48.964 -24.161  1.00  0.00     0.035 C 
HETATM   10  C10 UNL     1      -5.419  48.780 -23.878  1.00  0.00    -0.069 C 
HETATM   11  C11 UNL     1      -6.293  48.772 -24.901  1.00  0.00     0.030 C 
HETATM   12  C12 UNL     1      -7.762  48.694 -24.684  1.00  0.00     0.032 C 
HETATM   13  N1  UNL     1      -8.518  48.516 -25.730  1.00  0.00    -0.271 N 
ATOM     14  H1  UNL     1      -8.168  48.442 -26.686  1.00  0.00     0.194 HD
HETATM   15  C24 UNL     1      -8.301  48.801 -23.266  1.00  0.00     0.060 C 
HETATM   16  C25 UNL     1      -7.269  49.352 -22.285  1.00  0.00     0.020 C 
HETATM   17  C26 UNL     1      -5.869  48.699 -22.430  1.00  0.00    -0.016 C 
HETATM   18  C27 UNL     1      -5.986  47.200 -22.042  1.00  0.00     0.020 C 
HETATM   19  C28 UNL     1      -4.826  49.418 -21.503  1.00  0.00     0.002 C 
HETATM   20  C29 UNL     1      -4.735  50.954 -21.719  1.00  0.00     0.007 C 
HETATM   21  C30 UNL     1      -3.316  51.535 -21.689  1.00  0.00     0.014 C 
HETATM   22  C31 UNL     1      -2.416  50.938 -20.591  1.00  0.00     0.003 C 
HETATM   23  C32 UNL     1      -2.954  51.445 -19.222  1.00  0.00     0.020 C 
ENDROOT
BRANCH   3  24
HETATM   24  O1  UNL     1      -0.546  52.452 -19.995  1.00  0.00    -0.377 OA
HETATM   25  H2  UNL     1       0.398  52.619 -20.154  1.00  0.00     0.211 HD
ENDBRANCH   3  24
BRANCH  13  26
HETATM   26  O2  UNL     1      -9.873  48.440 -25.379  1.00  0.00    -0.271 OA
BRANCH  26  27
HETATM   27  C13 UNL     1     -10.290  47.081 -25.453  1.00  0.00     0.303 C 
BRANCH  27  28
HETATM   28  C14 UNL     1     -11.499  46.816 -24.559  1.00  0.00     0.244 C 
HETATM   29  O3  UNL     1     -11.433  46.868 -23.332  1.00  0.00    -0.271 OA
HETATM   30  N2  UNL     1     -12.664  46.509 -25.224  1.00  0.00    -0.342 N 
HETATM   31  H16 UNL     1     -12.559  46.216 -26.192  1.00  0.00     0.163 HD
BRANCH  30  32
HETATM   32  C15 UNL     1     -13.838  45.985 -24.508  1.00  0.00     0.216 C 
BRANCH  32  33
HETATM   33  C16 UNL     1     -13.912  44.457 -24.649  1.00  0.00     0.166 C 
HETATM   34  O4  UNL     1     -13.203  43.647 -24.070  1.00  0.00    -0.648 OA
BRANCH  33  35
HETATM   35  O5  UNL     1     -14.871  44.011 -25.490  1.00  0.00    -0.775 OA
HETATM   36  H18 UNL     1     -14.751  43.038 -25.503  1.00  0.00     0.167 HD
ENDBRANCH  33  35
ENDBRANCH  32  33
BRANCH  32  37
HETATM   37  C17 UNL     1     -15.127  46.641 -25.063  1.00  0.00     0.184 C 
BRANCH  37  38
HETATM   38  O6  UNL     1     -15.298  46.239 -26.435  1.00  0.00    -0.388 OA
HETATM   39  H20 UNL     1     -15.962  45.526 -26.452  1.00  0.00     0.210 HD
ENDBRANCH  37  38
BRANCH  37  40
HETATM   40  C18 UNL     1     -16.441  46.481 -24.307  1.00  0.00    -0.025 A 
HETATM   41  C19 UNL     1     -17.641  46.441 -25.048  1.00  0.00     0.010 A 
HETATM   42  C20 UNL     1     -18.886  46.316 -24.423  1.00  0.00     0.003 A 
HETATM   43  C21 UNL     1     -18.964  46.242 -23.035  1.00  0.00     0.036 A 
HETATM   44  C22 UNL     1     -17.786  46.305 -22.282  1.00  0.00     0.103 A 
HETATM   45  C23 UNL     1     -16.533  46.432 -22.907  1.00  0.00     0.045 A 
BRANCH  44  46
HETATM   46  N3  UNL     1     -17.865  46.250 -20.816  1.00  0.00    -0.116 N 
HETATM   47  O7  UNL     1     -17.061  45.518 -20.223  1.00  0.00    -0.532 OA
HETATM   48  O8  UNL     1     -18.726  46.948 -20.260  1.00  0.00    -0.532 OA
ENDBRANCH  44  46
ENDBRANCH  37  40
ENDBRANCH  32  37
ENDBRANCH  30  32
ENDBRANCH  27  28
ENDBRANCH  26  27
ENDBRANCH  13  26
TORSDOF 11
ENDMDL
MODEL 9
REMARK minimizedAffinity -9.04266453
REMARK CNNscore 0.334220856
REMARK CNNaffinity 6.47763395
REMARK  11 active torsions:
REMARK  status: ('A' for Active; 'I' for Inactive)
REMARK    1  A    between atoms: C3_3  and  O1_4 
REMARK    2  A    between atoms: N1_14  and  O2_16 
REMARK    3  A    between atoms: O2_16  and  C13_17 
REMARK    4  A    between atoms: C13_17  and  C14_18 
REMARK       I    between atoms: C14_18  and  N2_20 
REMARK    5  A    between atoms: N2_20  and  C15_21 
REMARK    6  A    between atoms: C15_21  and  C16_22 
REMARK    7  A    between atoms: C15_21  and  C17_25 
REMARK    8  A    between atoms: C16_22  and  O5_24 
REMARK    9  A    between atoms: C17_25  and  O6_26 
REMARK   10  A    between atoms: C17_25  and  C18_27 
REMARK   11  A    between atoms: C22_31  and  N3_32 
ROOT
HETATM    1  C1  UNL     1      -4.632  48.025 -18.068  1.00  0.00     0.015 C 
HETATM    2  C2  UNL     1      -3.569  48.479 -18.395  1.00  0.00    -0.078 C 
HETATM    3  C3  UNL     1      -2.250  49.037 -18.763  1.00  0.00     0.128 C 
HETATM    4  C4  UNL     1      -2.204  50.533 -18.418  1.00  0.00     0.052 C 
HETATM    5  C5  UNL     1      -2.906  51.196 -19.597  1.00  0.00     0.010 C 
HETATM    6  C6  UNL     1      -2.414  50.406 -20.818  1.00  0.00     0.002 C 
HETATM    7  C7  UNL     1      -3.360  50.372 -22.041  1.00  0.00    -0.004 C 
HETATM    8  C8  UNL     1      -4.856  50.112 -21.769  1.00  0.00     0.010 C 
HETATM    9  C9  UNL     1      -5.566  49.116 -22.697  1.00  0.00     0.035 C 
HETATM   10  C10 UNL     1      -5.074  49.010 -24.120  1.00  0.00    -0.069 C 
HETATM   11  C11 UNL     1      -5.853  48.427 -25.049  1.00  0.00     0.030 C 
HETATM   12  C12 UNL     1      -5.388  48.204 -26.443  1.00  0.00     0.032 C 
HETATM   13  N1  UNL     1      -6.266  47.795 -27.315  1.00  0.00    -0.271 N 
ATOM     14  H1  UNL     1      -7.245  47.606 -27.098  1.00  0.00     0.194 HD
HETATM   15  C24 UNL     1      -3.933  48.483 -26.785  1.00  0.00     0.060 C 
HETATM   16  C25 UNL     1      -3.050  48.603 -25.544  1.00  0.00     0.020 C 
HETATM   17  C26 UNL     1      -3.667  49.491 -24.432  1.00  0.00    -0.016 C 
HETATM   18  C27 UNL     1      -3.760  50.947 -24.964  1.00  0.00     0.020 C 
HETATM   19  C28 UNL     1      -2.784  49.443 -23.135  1.00  0.00     0.002 C 
HETATM   20  C29 UNL     1      -2.515  48.009 -22.600  1.00  0.00     0.007 C 
HETATM   21  C30 UNL     1      -2.582  47.857 -21.075  1.00  0.00     0.014 C 
HETATM   22  C31 UNL     1      -1.929  49.016 -20.299  1.00  0.00     0.003 C 
HETATM   23  C32 UNL     1      -0.393  48.919 -20.523  1.00  0.00     0.020 C 
ENDROOT
BRANCH   3  24
HETATM   24  O1  UNL     1      -1.264  48.344 -18.008  1.00  0.00    -0.377 OA
HETATM   25  H2  UNL     1      -1.544  48.376 -17.078  1.00  0.00     0.211 HD
ENDBRANCH   3  24
BRANCH  13  26
HETATM   26  O2  UNL     1      -5.698  47.648 -28.588  1.00  0.00    -0.271 OA
BRANCH  26  27
HETATM   27  C13 UNL     1      -6.658  47.046 -29.451  1.00  0.00     0.303 C 
BRANCH  27  28
HETATM   28  C14 UNL     1      -8.073  47.529 -29.138  1.00  0.00     0.244 C 
HETATM   29  O3  UNL     1      -8.468  48.650 -29.447  1.00  0.00    -0.271 OA
HETATM   30  N2  UNL     1      -8.869  46.619 -28.480  1.00  0.00    -0.342 N 
HETATM   31  H16 UNL     1      -8.384  45.849 -28.026  1.00  0.00     0.163 HD
BRANCH  30  32
HETATM   32  C15 UNL     1     -10.156  47.016 -27.890  1.00  0.00     0.216 C 
BRANCH  32  33
HETATM   33  C16 UNL     1      -9.932  48.000 -26.731  1.00  0.00     0.166 C 
HETATM   34  O4  UNL     1      -9.000  47.979 -25.941  1.00  0.00    -0.648 OA
BRANCH  33  35
HETATM   35  O5  UNL     1     -10.868  48.968 -26.620  1.00  0.00    -0.775 OA
HETATM   36  H18 UNL     1     -10.608  49.468 -25.817  1.00  0.00     0.167 HD
ENDBRANCH  33  35
ENDBRANCH  32  33
BRANCH  32  37
HETATM   37  C17 UNL     1     -10.916  45.761 -27.393  1.00  0.00     0.184 C 
BRANCH  37  38
HETATM   38  O6  UNL     1     -10.420  45.406 -26.088  1.00  0.00    -0.388 OA
HETATM   39  H20 UNL     1     -11.060  45.736 -25.431  1.00  0.00     0.210 HD
ENDBRANCH  37  38
BRANCH  37  40
HETATM   40  C18 UNL     1     -12.440  45.753 -27.389  1.00  0.00    -0.025 A 
HETATM   41  C19 UNL     1     -13.113  45.321 -28.552  1.00  0.00     0.010 A 
HETATM   42  C20 UNL     1     -14.509  45.306 -28.629  1.00  0.00     0.003 A 
HETATM   43  C21 UNL     1     -15.272  45.738 -27.548  1.00  0.00     0.036 A 
HETATM   44  C22 UNL     1     -14.622  46.194 -26.395  1.00  0.00     0.103 A 
HETATM   45  C23 UNL     1     -13.219  46.211 -26.314  1.00  0.00     0.045 A 
BRANCH  44  46
HETATM   46  N3  UNL     1     -15.422  46.672 -25.260  1.00  0.00    -0.116 N 
HETATM   47  O7  UNL     1     -14.853  47.365 -24.406  1.00  0.00    -0.532 OA
HETATM   48  O8  UNL     1     -16.622  46.360 -25.229  1.00  0.00    -0.532 OA
ENDBRANCH  44  46
ENDBRANCH  37  40
ENDBRANCH  32  37
ENDBRANCH  30  32
ENDBRANCH  27  28
ENDBRANCH  26  27
ENDBRANCH  13  26
TORSDOF 11
ENDMDL
