MODEL 1
REMARK minimizedAffinity -10.4942064
REMARK  8 active torsions:
REMARK  status: ('A' for Active; 'I' for Inactive)
REMARK    1  A    between atoms: C2_2  and  C3_3 
REMARK    2  A    between atoms: C2_2  and  C27_30 
REMARK    3  A    between atoms: C3_3  and  C4_4 
REMARK    4  A    between atoms: C4_4  and  C5_5 
REMARK    5  A    between atoms: C5_5  and  C7_7 
REMARK    6  A    between atoms: C26_28  and  O3_29 
REMARK    7  A    between atoms: C27_30  and  C29_32 
REMARK    8  A    between atoms: C29_32  and  O5_34 
ROOT
HETATM    1  C7  UNL     1      -0.527  51.147 -24.171  1.00  0.00    -0.002 C 
HETATM    2  C8  UNL     1       0.331  52.437 -24.251  1.00  0.00     0.006 C 
HETATM    3  C9  UNL     1       0.592  52.876 -22.805  1.00  0.00     0.010 C 
HETATM    4  C10 UNL     1       0.210  51.654 -21.966  1.00  0.00     0.027 C 
HETATM    5  C11 UNL     1       0.057  51.711 -20.458  1.00  0.00    -0.036 C 
HETATM    6  C12 UNL     1      -0.654  50.753 -19.807  1.00  0.00     0.002 C 
HETATM    7  C13 UNL     1      -1.435  49.738 -20.626  1.00  0.00     0.157 C 
HETATM    8  O1  UNL     1      -2.145  48.896 -20.076  1.00  0.00    -0.293 OA
HETATM    9  C14 UNL     1      -1.319  49.730 -22.140  1.00  0.00     0.093 C 
HETATM   10  C15 UNL     1      -1.047  51.124 -22.701  1.00  0.00    -0.026 C 
HETATM   11  C16 UNL     1      -2.288  52.019 -22.486  1.00  0.00     0.016 C 
HETATM   12  C17 UNL     1      -0.716  50.639 -18.266  1.00  0.00    -0.008 C 
HETATM   13  C18 UNL     1      -2.093  51.207 -17.833  1.00  0.00     0.021 C 
HETATM   14  C19 UNL     1      -0.594  49.157 -17.774  1.00  0.00     0.022 C 
HETATM   15  C20 UNL     1       0.114  48.946 -16.436  1.00  0.00     0.080 C 
HETATM   16  C21 UNL     1      -0.045  50.129 -15.521  1.00  0.00     0.131 C 
HETATM   17  O2  UNL     1      -0.429  49.998 -14.360  1.00  0.00    -0.298 OA
HETATM   18  C22 UNL     1       0.377  51.482 -16.071  1.00  0.00     0.056 C 
HETATM   19  C23 UNL     1       1.697  51.880 -15.411  1.00  0.00     0.018 C 
HETATM   20  C24 UNL     1       0.474  51.431 -17.616  1.00  0.00     0.012 C 
HETATM   21  C25 UNL     1       0.589  52.832 -18.214  1.00  0.00     0.042 C 
HETATM   22  C26 UNL     1       0.824  52.784 -19.723  1.00  0.00     0.148 C 
ENDROOT
BRANCH   1  23
HETATM   23  C5  UNL     1      -1.463  50.939 -25.398  1.00  0.00    -0.014 C 
HETATM   24  C6  UNL     1      -1.952  52.216 -26.088  1.00  0.00     0.010 C 
BRANCH  23  25
HETATM   25  C4  UNL     1      -2.634  49.984 -25.057  1.00  0.00     0.009 C 
BRANCH  25  26
HETATM   26  C3  UNL     1      -2.855  48.841 -26.068  1.00  0.00     0.034 C 
BRANCH  26  27
HETATM   27  C2  UNL     1      -4.273  48.435 -26.440  1.00  0.00    -0.075 C 
HETATM   28  C1  UNL     1      -5.267  48.324 -25.540  1.00  0.00     0.015 C 
BRANCH  27  29
HETATM   29  C27 UNL     1      -4.541  48.089 -27.905  1.00  0.00     0.107 C 
HETATM   30  C28 UNL     1      -5.977  47.639 -28.170  1.00  0.00     0.026 C 
BRANCH  29  31
HETATM   31  C29 UNL     1      -4.188  49.260 -28.813  1.00  0.00     0.147 C 
HETATM   32  O4  UNL     1      -3.442  50.192 -28.557  1.00  0.00    -0.650 OA
BRANCH  31  33
HETATM   33  O5  UNL     1      -4.801  49.195 -30.014  1.00  0.00    -0.776 OA
HETATM   34  H42 UNL     1      -4.467  49.983 -30.491  1.00  0.00     0.167 HD
ENDBRANCH  31  33
ENDBRANCH  29  31
ENDBRANCH  27  29
ENDBRANCH  26  27
ENDBRANCH  25  26
ENDBRANCH  23  25
ENDBRANCH   1  23
BRANCH  22  35
HETATM   35  O3  UNL     1       0.453  54.060 -20.229  1.00  0.00    -0.391 OA
HETATM   36  H37 UNL     1       1.040  54.719 -19.824  1.00  0.00     0.210 HD
ENDBRANCH  22  35
TORSDOF 8
ENDMDL
MODEL 2
REMARK minimizedAffinity -10.4090366
REMARK  8 active torsions:
REMARK  status: ('A' for Active; 'I' for Inactive)
REMARK    1  A    between atoms: C2_2  and  C3_3 
REMARK    2  A    between atoms: C2_2  and  C27_30 
REMARK    3  A    between atoms: C3_3  and  C4_4 
REMARK    4  A    between atoms: C4_4  and  C5_5 
REMARK    5  A    between atoms: C5_5  and  C7_7 
REMARK    6  A    between atoms: C26_28  and  O3_29 
REMARK    7  A    between atoms: C27_30  and  C29_32 
REMARK    8  A    between atoms: C29_32  and  O5_34 
ROOT
HETATM    1  C7  UNL     1      -0.836  51.080 -25.091  1.00  0.00    -0.002 C 
HETATM    2  C8  UNL     1       0.222  52.164 -25.425  1.00  0.00     0.006 C 
HETATM    3  C9  UNL     1       0.704  52.729 -24.083  1.00  0.00     0.010 C 
HETATM    4  C10 UNL     1       0.202  51.719 -23.048  1.00  0.00     0.027 C 
HETATM    5  C11 UNL     1       0.219  51.998 -21.557  1.00  0.00    -0.036 C 
HETATM    6  C12 UNL     1      -0.579  51.283 -20.719  1.00  0.00     0.002 C 
HETATM    7  C13 UNL     1      -1.605  50.337 -21.318  1.00  0.00     0.157 C 
HETATM    8  O1  UNL     1      -2.391  49.721 -20.598  1.00  0.00    -0.293 OA
HETATM    9  C14 UNL     1      -1.651  50.111 -22.820  1.00  0.00     0.093 C 
HETATM   10  C15 UNL     1      -1.197  51.345 -23.597  1.00  0.00    -0.026 C 
HETATM   11  C16 UNL     1      -2.233  52.478 -23.419  1.00  0.00     0.016 C 
HETATM   12  C17 UNL     1      -0.500  51.383 -19.179  1.00  0.00    -0.008 C 
HETATM   13  C18 UNL     1      -1.703  52.252 -18.727  1.00  0.00     0.021 C 
HETATM   14  C19 UNL     1      -0.589  49.981 -18.487  1.00  0.00     0.022 C 
HETATM   15  C20 UNL     1       0.205  49.816 -17.192  1.00  0.00     0.080 C 
HETATM   16  C21 UNL     1       0.352  51.115 -16.449  1.00  0.00     0.131 C 
HETATM   17  O2  UNL     1       0.073  51.210 -15.255  1.00  0.00    -0.298 OA
HETATM   18  C22 UNL     1       0.945  52.282 -17.222  1.00  0.00     0.056 C 
HETATM   19  C23 UNL     1       2.375  52.506 -16.732  1.00  0.00     0.018 C 
HETATM   20  C24 UNL     1       0.871  52.015 -18.746  1.00  0.00     0.012 C 
HETATM   21  C25 UNL     1       1.168  53.280 -19.549  1.00  0.00     0.042 C 
HETATM   22  C26 UNL     1       1.234  52.994 -21.049  1.00  0.00     0.148 C 
ENDROOT
BRANCH   1  23
HETATM   23  C5  UNL     1      -1.916  50.895 -26.198  1.00  0.00    -0.014 C 
HETATM   24  C6  UNL     1      -3.196  51.718 -26.024  1.00  0.00     0.010 C 
BRANCH  23  25
HETATM   25  C4  UNL     1      -2.223  49.396 -26.440  1.00  0.00     0.009 C 
BRANCH  25  26
HETATM   26  C3  UNL     1      -3.012  48.703 -25.310  1.00  0.00     0.034 C 
BRANCH  26  27
HETATM   27  C2  UNL     1      -4.488  48.398 -25.507  1.00  0.00    -0.075 C 
HETATM   28  C1  UNL     1      -5.042  48.192 -26.717  1.00  0.00     0.015 C 
BRANCH  27  29
HETATM   29  C27 UNL     1      -5.374  48.384 -24.261  1.00  0.00     0.107 C 
HETATM   30  C28 UNL     1      -4.627  47.979 -22.990  1.00  0.00     0.026 C 
BRANCH  29  31
HETATM   31  C29 UNL     1      -6.048  49.735 -24.059  1.00  0.00     0.147 C 
HETATM   32  O4  UNL     1      -5.533  50.759 -23.637  1.00  0.00    -0.650 OA
BRANCH  31  33
HETATM   33  O5  UNL     1      -7.353  49.726 -24.404  1.00  0.00    -0.776 OA
HETATM   34  H42 UNL     1      -7.643  50.648 -24.249  1.00  0.00     0.167 HD
ENDBRANCH  31  33
ENDBRANCH  29  31
ENDBRANCH  27  29
ENDBRANCH  26  27
ENDBRANCH  25  26
ENDBRANCH  23  25
ENDBRANCH   1  23
BRANCH  22  35
HETATM   35  O3  UNL     1       1.042  54.241 -21.705  1.00  0.00    -0.391 OA
HETATM   36  H37 UNL     1       1.774  54.824 -21.448  1.00  0.00     0.210 HD
ENDBRANCH  22  35
TORSDOF 8
ENDMDL
MODEL 3
REMARK minimizedAffinity -10.359416
REMARK  8 active torsions:
REMARK  status: ('A' for Active; 'I' for Inactive)
REMARK    1  A    between atoms: C2_2  and  C3_3 
REMARK    2  A    between atoms: C2_2  and  C27_30 
REMARK    3  A    between atoms: C3_3  and  C4_4 
REMARK    4  A    between atoms: C4_4  and  C5_5 
REMARK    5  A    between atoms: C5_5  and  C7_7 
REMARK    6  A    between atoms: C26_28  and  O3_29 
REMARK    7  A    between atoms: C27_30  and  C29_32 
REMARK    8  A    between atoms: C29_32  and  O5_34 
ROOT
HETATM    1  C7  UNL     1      -0.758  50.848 -25.131  1.00  0.00    -0.002 C 
HETATM    2  C8  UNL     1       0.259  51.962 -25.494  1.00  0.00     0.006 C 
HETATM    3  C9  UNL     1       0.707  52.590 -24.168  1.00  0.00     0.010 C 
HETATM    4  C10 UNL     1       0.237  51.595 -23.103  1.00  0.00     0.027 C 
HETATM    5  C11 UNL     1       0.230  51.924 -21.622  1.00  0.00    -0.036 C 
HETATM    6  C12 UNL     1      -0.545  51.205 -20.767  1.00  0.00     0.002 C 
HETATM    7  C13 UNL     1      -1.528  50.199 -21.341  1.00  0.00     0.157 C 
HETATM    8  O1  UNL     1      -2.295  49.576 -20.607  1.00  0.00    -0.293 OA
HETATM    9  C14 UNL     1      -1.552  49.923 -22.835  1.00  0.00     0.093 C 
HETATM   10  C15 UNL     1      -1.142  51.148 -23.650  1.00  0.00    -0.026 C 
HETATM   11  C16 UNL     1      -2.223  52.243 -23.516  1.00  0.00     0.016 C 
HETATM   12  C17 UNL     1      -0.483  51.359 -19.230  1.00  0.00    -0.008 C 
HETATM   13  C18 UNL     1      -1.724  52.192 -18.816  1.00  0.00     0.021 C 
HETATM   14  C19 UNL     1      -0.522  49.978 -18.493  1.00  0.00     0.022 C 
HETATM   15  C20 UNL     1       0.267  49.887 -17.187  1.00  0.00     0.080 C 
HETATM   16  C21 UNL     1       0.356  51.215 -16.487  1.00  0.00     0.131 C 
HETATM   17  O2  UNL     1       0.063  51.338 -15.299  1.00  0.00    -0.298 OA
HETATM   18  C22 UNL     1       0.908  52.379 -17.294  1.00  0.00     0.056 C 
HETATM   19  C23 UNL     1       2.324  52.676 -16.801  1.00  0.00     0.018 C 
HETATM   20  C24 UNL     1       0.858  52.059 -18.809  1.00  0.00     0.012 C 
HETATM   21  C25 UNL     1       1.110  53.307 -19.651  1.00  0.00     0.042 C 
HETATM   22  C26 UNL     1       1.200  52.975 -21.140  1.00  0.00     0.148 C 
ENDROOT
BRANCH   1  23
HETATM   23  C5  UNL     1      -1.820  50.583 -26.239  1.00  0.00    -0.014 C 
HETATM   24  C6  UNL     1      -2.544  51.820 -26.777  1.00  0.00     0.010 C 
BRANCH  23  25
HETATM   25  C4  UNL     1      -2.814  49.474 -25.813  1.00  0.00     0.009 C 
BRANCH  25  26
HETATM   26  C3  UNL     1      -3.310  48.571 -26.960  1.00  0.00     0.034 C 
BRANCH  26  27
HETATM   27  C2  UNL     1      -4.783  48.200 -27.036  1.00  0.00    -0.075 C 
HETATM   28  C1  UNL     1      -5.606  48.235 -25.971  1.00  0.00     0.015 C 
BRANCH  27  29
HETATM   29  C27 UNL     1      -5.315  47.715 -28.384  1.00  0.00     0.107 C 
HETATM   30  C28 UNL     1      -6.841  47.663 -28.453  1.00  0.00     0.026 C 
BRANCH  29  31
HETATM   31  C29 UNL     1      -4.773  48.570 -29.522  1.00  0.00     0.147 C 
HETATM   32  O4  UNL     1      -4.725  48.276 -30.706  1.00  0.00    -0.650 OA
BRANCH  31  33
HETATM   33  O5  UNL     1      -4.314  49.769 -29.103  1.00  0.00    -0.776 OA
HETATM   34  H42 UNL     1      -4.026  50.211 -29.928  1.00  0.00     0.167 HD
ENDBRANCH  31  33
ENDBRANCH  29  31
ENDBRANCH  27  29
ENDBRANCH  26  27
ENDBRANCH  25  26
ENDBRANCH  23  25
ENDBRANCH   1  23
BRANCH  22  35
HETATM   35  O3  UNL     1       0.964  54.191 -21.839  1.00  0.00    -0.391 OA
HETATM   36  H37 UNL     1       1.670  54.812 -21.596  1.00  0.00     0.210 HD
ENDBRANCH  22  35
TORSDOF 8
ENDMDL
MODEL 4
REMARK minimizedAffinity -10.3562784
REMARK  8 active torsions:
REMARK  status: ('A' for Active; 'I' for Inactive)
REMARK    1  A    between atoms: C2_2  and  C3_3 
REMARK    2  A    between atoms: C2_2  and  C27_30 
REMARK    3  A    between atoms: C3_3  and  C4_4 
REMARK    4  A    between atoms: C4_4  and  C5_5 
REMARK    5  A    between atoms: C5_5  and  C7_7 
REMARK    6  A    between atoms: C26_28  and  O3_29 
REMARK    7  A    between atoms: C27_30  and  C29_32 
REMARK    8  A    between atoms: C29_32  and  O5_34 
ROOT
HETATM    1  C7  UNL     1      -0.823  50.843 -23.365  1.00  0.00    -0.002 C 
HETATM    2  C8  UNL     1      -0.065  52.188 -23.508  1.00  0.00     0.006 C 
HETATM    3  C9  UNL     1       0.286  52.644 -22.086  1.00  0.00     0.010 C 
HETATM    4  C10 UNL     1       0.058  51.398 -21.225  1.00  0.00     0.027 C 
HETATM    5  C11 UNL     1       0.028  51.445 -19.709  1.00  0.00    -0.036 C 
HETATM    6  C12 UNL     1      -0.560  50.441 -19.007  1.00  0.00     0.002 C 
HETATM    7  C13 UNL     1      -1.336  49.376 -19.764  1.00  0.00     0.157 C 
HETATM    8  O1  UNL     1      -1.939  48.487 -19.163  1.00  0.00    -0.293 OA
HETATM    9  C14 UNL     1      -1.347  49.375 -21.283  1.00  0.00     0.093 C 
HETATM   10  C15 UNL     1      -1.217  50.785 -21.857  1.00  0.00    -0.026 C 
HETATM   11  C16 UNL     1      -2.493  51.594 -21.534  1.00  0.00     0.016 C 
HETATM   12  C17 UNL     1      -0.486  50.323 -17.468  1.00  0.00    -0.008 C 
HETATM   13  C18 UNL     1      -1.857  50.797 -16.919  1.00  0.00     0.021 C 
HETATM   14  C19 UNL     1      -0.223  48.853 -16.996  1.00  0.00     0.022 C 
HETATM   15  C20 UNL     1       0.606  48.690 -15.722  1.00  0.00     0.080 C 
HETATM   16  C21 UNL     1       0.444  49.859 -14.790  1.00  0.00     0.131 C 
HETATM   17  O2  UNL     1       0.168  49.703 -13.602  1.00  0.00    -0.298 OA
HETATM   18  C22 UNL     1       0.726  51.238 -15.366  1.00  0.00     0.056 C 
HETATM   19  C23 UNL     1       2.066  51.724 -14.815  1.00  0.00     0.018 C 
HETATM   20  C24 UNL     1       0.697  51.194 -16.914  1.00  0.00     0.012 C 
HETATM   21  C25 UNL     1       0.667  52.599 -17.511  1.00  0.00     0.042 C 
HETATM   22  C26 UNL     1       0.779  52.568 -19.035  1.00  0.00     0.148 C 
ENDROOT
BRANCH   1  23
HETATM   23  C5  UNL     1      -1.842  50.572 -24.511  1.00  0.00    -0.014 C 
HETATM   24  C6  UNL     1      -2.932  49.541 -24.205  1.00  0.00     0.010 C 
BRANCH  23  25
HETATM   25  C4  UNL     1      -1.120  50.268 -25.846  1.00  0.00     0.009 C 
BRANCH  25  26
HETATM   26  C3  UNL     1       0.165  51.085 -26.092  1.00  0.00     0.034 C 
BRANCH  26  27
HETATM   27  C2  UNL     1       0.349  51.808 -27.417  1.00  0.00    -0.075 C 
HETATM   28  C1  UNL     1       1.334  51.513 -28.285  1.00  0.00     0.015 C 
BRANCH  27  29
HETATM   29  C27 UNL     1      -0.610  52.957 -27.728  1.00  0.00     0.107 C 
HETATM   30  C28 UNL     1      -2.053  52.674 -27.313  1.00  0.00     0.026 C 
BRANCH  29  31
HETATM   31  C29 UNL     1      -0.130  54.253 -27.087  1.00  0.00     0.147 C 
HETATM   32  O4  UNL     1      -0.447  55.390 -27.398  1.00  0.00    -0.650 OA
BRANCH  31  33
HETATM   33  O5  UNL     1       0.735  54.046 -26.071  1.00  0.00    -0.776 OA
HETATM   34  H42 UNL     1       0.934  54.949 -25.745  1.00  0.00     0.167 HD
ENDBRANCH  31  33
ENDBRANCH  29  31
ENDBRANCH  27  29
ENDBRANCH  26  27
ENDBRANCH  25  26
ENDBRANCH  23  25
ENDBRANCH   1  23
BRANCH  22  35
HETATM   35  O3  UNL     1       0.281  53.816 -19.501  1.00  0.00    -0.391 OA
HETATM   36  H37 UNL     1       0.854  54.513 -19.143  1.00  0.00     0.210 HD
ENDBRANCH  22  35
TORSDOF 8
ENDMDL
MODEL 5
REMARK minimizedAffinity -10.1645727
REMARK  8 active torsions:
REMARK  status: ('A' for Active; 'I' for Inactive)
REMARK    1  A    between atoms: C2_2  and  C3_3 
REMARK    2  A    between atoms: C2_2  and  C27_30 
REMARK    3  A    between atoms: C3_3  and  C4_4 
REMARK    4  A    between atoms: C4_4  and  C5_5 
REMARK    5  A    between atoms: C5_5  and  C7_7 
REMARK    6  A    between atoms: C26_28  and  O3_29 
REMARK    7  A    between atoms: C27_30  and  C29_32 
REMARK    8  A    between atoms: C29_32  and  O5_34 
ROOT
HETATM    1  C7  UNL     1      -1.183  50.751 -22.391  1.00  0.00    -0.002 C 
HETATM    2  C8  UNL     1      -0.483  52.118 -22.606  1.00  0.00     0.006 C 
HETATM    3  C9  UNL     1       0.032  52.564 -21.231  1.00  0.00     0.010 C 
HETATM    4  C10 UNL     1      -0.054  51.301 -20.370  1.00  0.00     0.027 C 
HETATM    5  C11 UNL     1       0.106  51.327 -18.861  1.00  0.00    -0.036 C 
HETATM    6  C12 UNL     1      -0.364  50.298 -18.108  1.00  0.00     0.002 C 
HETATM    7  C13 UNL     1      -1.201  49.222 -18.779  1.00  0.00     0.157 C 
HETATM    8  O1  UNL     1      -1.701  48.309 -18.121  1.00  0.00    -0.293 OA
HETATM    9  C14 UNL     1      -1.403  49.242 -20.285  1.00  0.00     0.093 C 
HETATM   10  C15 UNL     1      -1.382  50.662 -20.846  1.00  0.00    -0.026 C 
HETATM   11  C16 UNL     1      -2.628  51.431 -20.353  1.00  0.00     0.016 C 
HETATM   12  C17 UNL     1      -0.094  50.162 -16.592  1.00  0.00    -0.008 C 
HETATM   13  C18 UNL     1      -1.397  50.590 -15.867  1.00  0.00     0.021 C 
HETATM   14  C19 UNL     1       0.264  48.693 -16.181  1.00  0.00     0.022 C 
HETATM   15  C20 UNL     1       1.250  48.536 -15.024  1.00  0.00     0.080 C 
HETATM   16  C21 UNL     1       1.177  49.688 -14.060  1.00  0.00     0.131 C 
HETATM   17  O2  UNL     1       1.056  49.508 -12.849  1.00  0.00    -0.298 OA
HETATM   18  C22 UNL     1       1.349  51.081 -14.643  1.00  0.00     0.056 C 
HETATM   19  C23 UNL     1       2.735  51.597 -14.257  1.00  0.00     0.018 C 
HETATM   20  C24 UNL     1       1.127  51.057 -16.176  1.00  0.00     0.012 C 
HETATM   21  C25 UNL     1       0.987  52.469 -16.742  1.00  0.00     0.042 C 
HETATM   22  C26 UNL     1       0.907  52.461 -18.268  1.00  0.00     0.148 C 
ENDROOT
BRANCH   1  23
HETATM   23  C5  UNL     1      -2.331  50.467 -23.404  1.00  0.00    -0.014 C 
HETATM   24  C6  UNL     1      -2.799  49.012 -23.492  1.00  0.00     0.010 C 
BRANCH  23  25
HETATM   25  C4  UNL     1      -2.006  51.054 -24.801  1.00  0.00     0.009 C 
BRANCH  25  26
HETATM   26  C3  UNL     1      -0.539  50.891 -25.249  1.00  0.00     0.034 C 
BRANCH  26  27
HETATM   27  C2  UNL     1       0.080  51.930 -26.171  1.00  0.00    -0.075 C 
HETATM   28  C1  UNL     1      -0.152  53.250 -26.053  1.00  0.00     0.015 C 
BRANCH  27  29
HETATM   29  C27 UNL     1       0.958  51.418 -27.312  1.00  0.00     0.107 C 
HETATM   30  C28 UNL     1       0.807  52.222 -28.603  1.00  0.00     0.026 C 
BRANCH  29  31
HETATM   31  C29 UNL     1       2.422  51.377 -26.895  1.00  0.00     0.147 C 
HETATM   32  O4  UNL     1       2.910  50.726 -25.984  1.00  0.00    -0.650 OA
BRANCH  31  33
HETATM   33  O5  UNL     1       3.207  52.169 -27.656  1.00  0.00    -0.776 OA
HETATM   34  H42 UNL     1       4.106  52.025 -27.295  1.00  0.00     0.167 HD
ENDBRANCH  31  33
ENDBRANCH  29  31
ENDBRANCH  27  29
ENDBRANCH  26  27
ENDBRANCH  25  26
ENDBRANCH  23  25
ENDBRANCH   1  23
BRANCH  22  35
HETATM   35  O3  UNL     1       0.323  53.701 -18.647  1.00  0.00    -0.391 OA
HETATM   36  H37 UNL     1       0.919  54.409 -18.352  1.00  0.00     0.210 HD
ENDBRANCH  22  35
TORSDOF 8
ENDMDL
MODEL 6
REMARK minimizedAffinity -9.98423576
REMARK  8 active torsions:
REMARK  status: ('A' for Active; 'I' for Inactive)
REMARK    1  A    between atoms: C2_2  and  C3_3 
REMARK    2  A    between atoms: C2_2  and  C27_30 
REMARK    3  A    between atoms: C3_3  and  C4_4 
REMARK    4  A    between atoms: C4_4  and  C5_5 
REMARK    5  A    between atoms: C5_5  and  C7_7 
REMARK    6  A    between atoms: C26_28  and  O3_29 
REMARK    7  A    between atoms: C27_30  and  C29_32 
REMARK    8  A    between atoms: C29_32  and  O5_34 
ROOT
HETATM    1  C7  UNL     1      -1.244  50.627 -22.333  1.00  0.00    -0.002 C 
HETATM    2  C8  UNL     1      -0.513  51.972 -22.583  1.00  0.00     0.006 C 
HETATM    3  C9  UNL     1       0.026  52.433 -21.223  1.00  0.00     0.010 C 
HETATM    4  C10 UNL     1      -0.081  51.191 -20.335  1.00  0.00     0.027 C 
HETATM    5  C11 UNL     1       0.095  51.243 -18.829  1.00  0.00    -0.036 C 
HETATM    6  C12 UNL     1      -0.392  50.241 -18.050  1.00  0.00     0.002 C 
HETATM    7  C13 UNL     1      -1.261  49.173 -18.691  1.00  0.00     0.157 C 
HETATM    8  O1  UNL     1      -1.776  48.286 -18.010  1.00  0.00    -0.293 OA
HETATM    9  C14 UNL     1      -1.478  49.167 -20.194  1.00  0.00     0.093 C 
HETATM   10  C15 UNL     1      -1.429  50.574 -20.785  1.00  0.00    -0.026 C 
HETATM   11  C16 UNL     1      -2.651  51.383 -20.295  1.00  0.00     0.016 C 
HETATM   12  C17 UNL     1      -0.109  50.129 -16.534  1.00  0.00    -0.008 C 
HETATM   13  C18 UNL     1      -1.393  50.604 -15.806  1.00  0.00     0.021 C 
HETATM   14  C19 UNL     1       0.217  48.661 -16.097  1.00  0.00     0.022 C 
HETATM   15  C20 UNL     1       1.212  48.504 -14.947  1.00  0.00     0.080 C 
HETATM   16  C21 UNL     1       1.177  49.676 -14.006  1.00  0.00     0.131 C 
HETATM   17  O2  UNL     1       1.064  49.524 -12.791  1.00  0.00    -0.298 OA
HETATM   18  C22 UNL     1       1.376  51.053 -14.619  1.00  0.00     0.056 C 
HETATM   19  C23 UNL     1       2.778  51.542 -14.257  1.00  0.00     0.018 C 
HETATM   20  C24 UNL     1       1.138  51.003 -16.149  1.00  0.00     0.012 C 
HETATM   21  C25 UNL     1       1.025  52.406 -16.742  1.00  0.00     0.042 C 
HETATM   22  C26 UNL     1       0.929  52.369 -18.267  1.00  0.00     0.148 C 
ENDROOT
BRANCH   1  23
HETATM   23  C5  UNL     1      -2.409  50.351 -23.329  1.00  0.00    -0.014 C 
HETATM   24  C6  UNL     1      -2.728  48.876 -23.590  1.00  0.00     0.010 C 
BRANCH  23  25
HETATM   25  C4  UNL     1      -2.222  51.142 -24.647  1.00  0.00     0.009 C 
BRANCH  25  26
HETATM   26  C3  UNL     1      -1.327  50.452 -25.697  1.00  0.00     0.034 C 
BRANCH  26  27
HETATM   27  C2  UNL     1      -0.398  51.295 -26.557  1.00  0.00    -0.075 C 
HETATM   28  C1  UNL     1      -0.556  51.444 -27.885  1.00  0.00     0.015 C 
BRANCH  27  29
HETATM   29  C27 UNL     1       0.798  51.949 -25.863  1.00  0.00     0.107 C 
HETATM   30  C28 UNL     1       2.135  51.636 -26.533  1.00  0.00     0.026 C 
BRANCH  29  31
HETATM   31  C29 UNL     1       0.608  53.456 -25.760  1.00  0.00     0.147 C 
HETATM   32  O4  UNL     1       0.084  54.191 -26.583  1.00  0.00    -0.650 OA
BRANCH  31  33
HETATM   33  O5  UNL     1       1.094  53.968 -24.609  1.00  0.00    -0.776 OA
HETATM   34  H42 UNL     1       0.883  54.923 -24.670  1.00  0.00     0.167 HD
ENDBRANCH  31  33
ENDBRANCH  29  31
ENDBRANCH  27  29
ENDBRANCH  26  27
ENDBRANCH  25  26
ENDBRANCH  23  25
ENDBRANCH   1  23
BRANCH  22  35
HETATM   35  O3  UNL     1       0.371  53.615 -18.666  1.00  0.00    -0.391 OA
HETATM   36  H37 UNL     1       0.987  54.314 -18.391  1.00  0.00     0.210 HD
ENDBRANCH  22  35
TORSDOF 8
ENDMDL
MODEL 7
REMARK minimizedAffinity -9.95069885
REMARK  8 active torsions:
REMARK  status: ('A' for Active; 'I' for Inactive)
REMARK    1  A    between atoms: C2_2  and  C3_3 
REMARK    2  A    between atoms: C2_2  and  C27_30 
REMARK    3  A    between atoms: C3_3  and  C4_4 
REMARK    4  A    between atoms: C4_4  and  C5_5 
REMARK    5  A    between atoms: C5_5  and  C7_7 
REMARK    6  A    between atoms: C26_28  and  O3_29 
REMARK    7  A    between atoms: C27_30  and  C29_32 
REMARK    8  A    between atoms: C29_32  and  O5_34 
ROOT
HETATM    1  C7  UNL     1      -0.043  50.426 -18.556  1.00  0.00    -0.002 C 
HETATM    2  C8  UNL     1      -0.901  49.198 -18.157  1.00  0.00     0.006 C 
HETATM    3  C9  UNL     1      -1.749  48.841 -19.384  1.00  0.00     0.010 C 
HETATM    4  C10 UNL     1      -1.094  49.614 -20.531  1.00  0.00     0.027 C 
HETATM    5  C11 UNL     1      -1.748  49.774 -21.891  1.00  0.00    -0.036 C 
HETATM    6  C12 UNL     1      -1.352  50.770 -22.726  1.00  0.00     0.002 C 
HETATM    7  C13 UNL     1      -0.381  51.817 -22.208  1.00  0.00     0.157 C 
HETATM    8  O1  UNL     1      -0.049  52.772 -22.910  1.00  0.00    -0.293 OA
HETATM    9  C14 UNL     1       0.222  51.678 -20.820  1.00  0.00     0.093 C 
HETATM   10  C15 UNL     1      -0.720  50.958 -19.857  1.00  0.00    -0.026 C 
HETATM   11  C16 UNL     1      -1.951  51.850 -19.576  1.00  0.00     0.016 C 
HETATM   12  C17 UNL     1      -1.841  50.899 -24.187  1.00  0.00    -0.008 C 
HETATM   13  C18 UNL     1      -2.904  52.028 -24.202  1.00  0.00     0.021 C 
HETATM   14  C19 UNL     1      -0.681  51.271 -25.172  1.00  0.00     0.022 C 
HETATM   15  C20 UNL     1      -0.786  50.699 -26.585  1.00  0.00     0.080 C 
HETATM   16  C21 UNL     1      -2.214  50.488 -27.005  1.00  0.00     0.131 C 
HETATM   17  O2  UNL     1      -2.642  50.919 -28.075  1.00  0.00    -0.298 OA
HETATM   18  C22 UNL     1      -3.081  49.641 -26.086  1.00  0.00     0.056 C 
HETATM   19  C23 UNL     1      -3.292  48.278 -26.746  1.00  0.00     0.018 C 
HETATM   20  C24 UNL     1      -2.434  49.532 -24.683  1.00  0.00     0.012 C 
HETATM   21  C25 UNL     1      -3.414  48.959 -23.661  1.00  0.00     0.042 C 
HETATM   22  C26 UNL     1      -2.743  48.718 -22.309  1.00  0.00     0.148 C 
ENDROOT
BRANCH   1  23
HETATM   23  C5  UNL     1       0.322  51.353 -17.359  1.00  0.00    -0.014 C 
HETATM   24  C6  UNL     1       1.132  52.605 -17.708  1.00  0.00     0.010 C 
BRANCH  23  25
HETATM   25  C4  UNL     1       0.971  50.551 -16.204  1.00  0.00     0.009 C 
BRANCH  25  26
HETATM   26  C3  UNL     1       1.408  51.397 -14.991  1.00  0.00     0.034 C 
BRANCH  26  27
HETATM   27  C2  UNL     1       2.879  51.453 -14.609  1.00  0.00    -0.075 C 
HETATM   28  C1  UNL     1       3.842  51.874 -15.450  1.00  0.00     0.015 C 
BRANCH  27  29
HETATM   29  C27 UNL     1       3.261  50.948 -13.218  1.00  0.00     0.107 C 
HETATM   30  C28 UNL     1       2.065  50.785 -12.280  1.00  0.00     0.026 C 
BRANCH  29  31
HETATM   31  C29 UNL     1       4.032  49.637 -13.309  1.00  0.00     0.147 C 
HETATM   32  O4  UNL     1       3.671  48.607 -13.857  1.00  0.00    -0.650 OA
BRANCH  31  33
HETATM   33  O5  UNL     1       5.234  49.693 -12.697  1.00  0.00    -0.776 OA
HETATM   34  H42 UNL     1       5.619  48.806 -12.855  1.00  0.00     0.167 HD
ENDBRANCH  31  33
ENDBRANCH  29  31
ENDBRANCH  27  29
ENDBRANCH  26  27
ENDBRANCH  25  26
ENDBRANCH  23  25
ENDBRANCH   1  23
BRANCH  22  35
HETATM   35  O3  UNL     1      -3.789  48.648 -21.348  1.00  0.00    -0.391 OA
HETATM   36  H37 UNL     1      -4.349  47.888 -21.578  1.00  0.00     0.210 HD
ENDBRANCH  22  35
TORSDOF 8
ENDMDL
MODEL 8
REMARK minimizedAffinity -9.8895359
REMARK  8 active torsions:
REMARK  status: ('A' for Active; 'I' for Inactive)
REMARK    1  A    between atoms: C2_2  and  C3_3 
REMARK    2  A    between atoms: C2_2  and  C27_30 
REMARK    3  A    between atoms: C3_3  and  C4_4 
REMARK    4  A    between atoms: C4_4  and  C5_5 
REMARK    5  A    between atoms: C5_5  and  C7_7 
REMARK    6  A    between atoms: C26_28  and  O3_29 
REMARK    7  A    between atoms: C27_30  and  C29_32 
REMARK    8  A    between atoms: C29_32  and  O5_34 
ROOT
HETATM    1  C7  UNL     1      -0.264  49.755 -18.439  1.00  0.00    -0.002 C 
HETATM    2  C8  UNL     1      -1.209  48.557 -18.155  1.00  0.00     0.006 C 
HETATM    3  C9  UNL     1      -2.038  48.347 -19.428  1.00  0.00     0.010 C 
HETATM    4  C10 UNL     1      -1.301  49.159 -20.496  1.00  0.00     0.027 C 
HETATM    5  C11 UNL     1      -1.901  49.460 -21.856  1.00  0.00    -0.036 C 
HETATM    6  C12 UNL     1      -1.419  50.487 -22.604  1.00  0.00     0.002 C 
HETATM    7  C13 UNL     1      -0.401  51.428 -21.982  1.00  0.00     0.157 C 
HETATM    8  O1  UNL     1       0.011  52.410 -22.602  1.00  0.00    -0.293 OA
HETATM    9  C14 UNL     1       0.149  51.149 -20.594  1.00  0.00     0.093 C 
HETATM   10  C15 UNL     1      -0.866  50.423 -19.713  1.00  0.00    -0.026 C 
HETATM   11  C16 UNL     1      -2.047  51.368 -19.398  1.00  0.00     0.016 C 
HETATM   12  C17 UNL     1      -1.853  50.754 -24.063  1.00  0.00    -0.008 C 
HETATM   13  C18 UNL     1      -2.843  51.947 -24.021  1.00  0.00     0.021 C 
HETATM   14  C19 UNL     1      -0.643  51.122 -24.986  1.00  0.00     0.022 C 
HETATM   15  C20 UNL     1      -0.739  50.663 -26.441  1.00  0.00     0.080 C 
HETATM   16  C21 UNL     1      -2.164  50.576 -26.913  1.00  0.00     0.131 C 
HETATM   17  O2  UNL     1      -2.530  51.111 -27.958  1.00  0.00    -0.298 OA
HETATM   18  C22 UNL     1      -3.109  49.722 -26.084  1.00  0.00     0.056 C 
HETATM   19  C23 UNL     1      -3.384  48.427 -26.849  1.00  0.00     0.018 C 
HETATM   20  C24 UNL     1      -2.515  49.468 -24.676  1.00  0.00     0.012 C 
HETATM   21  C25 UNL     1      -3.559  48.886 -23.726  1.00  0.00     0.042 C 
HETATM   22  C26 UNL     1      -2.947  48.504 -22.379  1.00  0.00     0.148 C 
ENDROOT
BRANCH   1  23
HETATM   23  C5  UNL     1       0.121  50.565 -17.166  1.00  0.00    -0.014 C 
HETATM   24  C6  UNL     1      -1.027  50.879 -16.203  1.00  0.00     0.010 C 
BRANCH  23  25
HETATM   25  C4  UNL     1       0.931  51.834 -17.530  1.00  0.00     0.009 C 
BRANCH  25  26
HETATM   26  C3  UNL     1       1.498  52.611 -16.324  1.00  0.00     0.034 C 
BRANCH  26  27
HETATM   27  C2  UNL     1       2.780  52.132 -15.662  1.00  0.00    -0.075 C 
HETATM   28  C1  UNL     1       4.006  52.470 -16.102  1.00  0.00     0.015 C 
BRANCH  27  29
HETATM   29  C27 UNL     1       2.642  51.178 -14.476  1.00  0.00     0.107 C 
HETATM   30  C28 UNL     1       3.903  50.358 -14.206  1.00  0.00     0.026 C 
BRANCH  29  31
HETATM   31  C29 UNL     1       2.232  51.931 -13.217  1.00  0.00     0.147 C 
HETATM   32  O4  UNL     1       2.820  51.951 -12.147  1.00  0.00    -0.650 OA
BRANCH  31  33
HETATM   33  O5  UNL     1       1.089  52.630 -13.374  1.00  0.00    -0.776 OA
HETATM   34  H42 UNL     1       0.966  53.075 -12.510  1.00  0.00     0.167 HD
ENDBRANCH  31  33
ENDBRANCH  29  31
ENDBRANCH  27  29
ENDBRANCH  26  27
ENDBRANCH  25  26
ENDBRANCH  23  25
ENDBRANCH   1  23
BRANCH  22  35
HETATM   35  O3  UNL     1      -4.024  48.430 -21.453  1.00  0.00    -0.391 OA
HETATM   36  H37 UNL     1      -4.623  47.728 -21.755  1.00  0.00     0.210 HD
ENDBRANCH  22  35
TORSDOF 8
ENDMDL
MODEL 9
REMARK minimizedAffinity -9.5375824
REMARK  8 active torsions:
REMARK  status: ('A' for Active; 'I' for Inactive)
REMARK    1  A    between atoms: C2_2  and  C3_3 
REMARK    2  A    between atoms: C2_2  and  C27_30 
REMARK    3  A    between atoms: C3_3  and  C4_4 
REMARK    4  A    between atoms: C4_4  and  C5_5 
REMARK    5  A    between atoms: C5_5  and  C7_7 
REMARK    6  A    between atoms: C26_28  and  O3_29 
REMARK    7  A    between atoms: C27_30  and  C29_32 
REMARK    8  A    between atoms: C29_32  and  O5_34 
ROOT
HETATM    1  C7  UNL     1      -2.006  51.778 -22.786  1.00  0.00    -0.002 C 
HETATM    2  C8  UNL     1      -2.983  52.609 -23.659  1.00  0.00     0.006 C 
HETATM    3  C9  UNL     1      -4.354  51.930 -23.544  1.00  0.00     0.010 C 
HETATM    4  C10 UNL     1      -4.207  50.986 -22.348  1.00  0.00     0.027 C 
HETATM    5  C11 UNL     1      -5.229  49.913 -22.020  1.00  0.00    -0.036 C 
HETATM    6  C12 UNL     1      -4.887  48.863 -21.229  1.00  0.00     0.002 C 
HETATM    7  C13 UNL     1      -3.430  48.690 -20.833  1.00  0.00     0.157 C 
HETATM    8  O1  UNL     1      -3.067  47.716 -20.173  1.00  0.00    -0.293 OA
HETATM    9  C14 UNL     1      -2.404  49.742 -21.219  1.00  0.00     0.093 C 
HETATM   10  C15 UNL     1      -2.767  50.442 -22.527  1.00  0.00    -0.026 C 
HETATM   11  C16 UNL     1      -2.646  49.441 -23.698  1.00  0.00     0.016 C 
HETATM   12  C17 UNL     1      -5.905  47.823 -20.708  1.00  0.00    -0.008 C 
HETATM   13  C18 UNL     1      -5.723  46.549 -21.573  1.00  0.00     0.021 C 
HETATM   14  C19 UNL     1      -5.668  47.461 -19.203  1.00  0.00     0.022 C 
HETATM   15  C20 UNL     1      -6.915  47.130 -18.383  1.00  0.00     0.080 C 
HETATM   16  C21 UNL     1      -8.007  46.539 -19.231  1.00  0.00     0.131 C 
HETATM   17  O2  UNL     1      -8.573  45.493 -18.917  1.00  0.00    -0.298 OA
HETATM   18  C22 UNL     1      -8.440  47.341 -20.448  1.00  0.00     0.056 C 
HETATM   19  C23 UNL     1      -9.802  47.969 -20.151  1.00  0.00     0.018 C 
HETATM   20  C24 UNL     1      -7.364  48.395 -20.811  1.00  0.00     0.012 C 
HETATM   21  C25 UNL     1      -7.618  48.998 -22.191  1.00  0.00     0.042 C 
HETATM   22  C26 UNL     1      -6.644  50.136 -22.498  1.00  0.00     0.148 C 
ENDROOT
BRANCH   1  23
HETATM   23  C5  UNL     1      -0.530  51.824 -23.280  1.00  0.00    -0.014 C 
HETATM   24  C6  UNL     1       0.444  52.609 -22.399  1.00  0.00     0.010 C 
BRANCH  23  25
HETATM   25  C4  UNL     1      -0.446  52.261 -24.764  1.00  0.00     0.009 C 
BRANCH  25  26
HETATM   26  C3  UNL     1       0.970  52.225 -25.372  1.00  0.00     0.034 C 
BRANCH  26  27
HETATM   27  C2  UNL     1       1.136  52.005 -26.868  1.00  0.00    -0.075 C 
HETATM   28  C1  UNL     1       2.327  51.775 -27.451  1.00  0.00     0.015 C 
BRANCH  27  29
HETATM   29  C27 UNL     1      -0.119  52.112 -27.735  1.00  0.00     0.107 C 
HETATM   30  C28 UNL     1      -1.199  51.095 -27.368  1.00  0.00     0.026 C 
BRANCH  29  31
HETATM   31  C29 UNL     1      -0.695  53.521 -27.686  1.00  0.00     0.147 C 
HETATM   32  O4  UNL     1      -0.099  54.550 -27.409  1.00  0.00    -0.650 OA
BRANCH  31  33
HETATM   33  O5  UNL     1      -2.008  53.561 -27.994  1.00  0.00    -0.776 OA
HETATM   34  H42 UNL     1      -2.231  54.514 -27.947  1.00  0.00     0.167 HD
ENDBRANCH  31  33
ENDBRANCH  29  31
ENDBRANCH  27  29
ENDBRANCH  26  27
ENDBRANCH  25  26
ENDBRANCH  23  25
ENDBRANCH   1  23
BRANCH  22  35
HETATM   35  O3  UNL     1      -6.645  50.296 -23.911  1.00  0.00    -0.391 OA
HETATM   36  H37 UNL     1      -7.544  50.551 -24.177  1.00  0.00     0.210 HD
ENDBRANCH  22  35
TORSDOF 8
ENDMDL
