MODEL 1
REMARK minimizedAffinity -8.81435394
REMARK CNNscore 0.60812223
REMARK CNNaffinity 6.76297808
REMARK  5 active torsions:
REMARK  status: ('A' for Active; 'I' for Inactive)
REMARK    1  A    between atoms: C2_2  and  C3_3 
REMARK    2  A    between atoms: C6_6  and  C7_7 
REMARK    3  A    between atoms: C7_7  and  O1_9 
REMARK    4  A    between atoms: C23_29  and  O6_30 
REMARK    5  A    between atoms: C28_36  and  O8_37 
ROOT
HETATM    1  C3  UNL     1      -5.460  51.118 -22.629  1.00  0.00     0.008 C 
HETATM    2  C4  UNL     1      -4.676  51.649 -23.833  1.00  0.00    -0.023 C 
HETATM    3  C5  UNL     1      -3.579  51.091 -24.381  1.00  0.00     0.004 C 
HETATM    4  C6  UNL     1      -2.702  51.709 -25.454  1.00  0.00     0.183 C 
HETATM    5  O2  UNL     1      -1.412  51.825 -24.822  1.00  0.00    -0.306 OA
HETATM    6  C9  UNL     1      -0.593  52.833 -25.214  1.00  0.00     0.289 C 
HETATM    7  O3  UNL     1      -0.693  53.482 -26.241  1.00  0.00    -0.260 OA
HETATM    8  C10 UNL     1       0.312  53.174 -24.058  1.00  0.00     0.010 C 
HETATM    9  C11 UNL     1       0.464  54.642 -23.809  1.00  0.00     0.054 C 
HETATM   10  C12 UNL     1       0.668  52.157 -23.241  1.00  0.00     0.004 C 
HETATM   11  C13 UNL     1       1.003  52.161 -21.762  1.00  0.00     0.147 C 
HETATM   12  C14 UNL     1       1.606  53.399 -21.084  1.00  0.00     0.233 C 
HETATM   13  O4  UNL     1       2.556  54.055 -21.478  1.00  0.00    -0.272 OA
HETATM   14  N1  UNL     1       0.922  53.630 -19.899  1.00  0.00    -0.327 N 
HETATM   15  C15 UNL     1      -0.135  52.795 -19.721  1.00  0.00     0.056 C 
HETATM   16  C16 UNL     1      -0.991  52.742 -18.697  1.00  0.00     0.084 C 
HETATM   17  C17 UNL     1      -2.110  51.747 -18.806  1.00  0.00     0.185 C 
HETATM   18  O5  UNL     1      -3.139  51.935 -18.176  1.00  0.00    -0.287 OA
HETATM   19  C18 UNL     1      -1.867  50.531 -19.658  1.00  0.00     0.040 C 
HETATM   20  C19 UNL     1      -0.791  50.569 -20.572  1.00  0.00    -0.001 C 
HETATM   21  C20 UNL     1      -0.396  49.396 -21.229  1.00  0.00     0.021 C 
HETATM   22  C21 UNL     1      -1.110  48.199 -21.062  1.00  0.00    -0.027 C 
HETATM   23  C22 UNL     1      -0.662  46.971 -21.804  1.00  0.00     0.051 C 
HETATM   24  C23 UNL     1      -2.294  48.231 -20.312  1.00  0.00     0.086 C 
HETATM   25  C24 UNL     1      -2.686  49.402 -19.639  1.00  0.00     0.058 C 
HETATM   26  C25 UNL     1      -4.100  49.514 -19.222  1.00  0.00     0.163 C 
HETATM   27  O7  UNL     1      -4.439  49.086 -18.122  1.00  0.00    -0.292 OA
HETATM   28  C26 UNL     1      -5.088  50.154 -20.216  1.00  0.00     0.084 C 
HETATM   29  C27 UNL     1      -4.547  50.348 -21.645  1.00  0.00     0.016 C 
HETATM   30  C28 UNL     1      -0.307  51.949 -20.942  1.00  0.00     0.143 C 
HETATM   31  H20 UNL     1       1.203  54.369 -19.263  1.00  0.00     0.168 HD
ENDROOT
BRANCH   4  32
HETATM   32  C7  UNL     1      -2.598  50.880 -26.759  1.00  0.00     0.147 C 
HETATM   33  C8  UNL     1      -3.587  49.721 -26.842  1.00  0.00     0.042 C 
BRANCH  32  34
HETATM   34  O1  UNL     1      -2.777  51.699 -27.918  1.00  0.00    -0.393 OA
HETATM   35  H14 UNL     1      -2.110  52.407 -27.883  1.00  0.00     0.210 HD
ENDBRANCH  32  34
ENDBRANCH   4  32
BRANCH   1  36
HETATM   36  C2  UNL     1      -6.666  50.268 -23.063  1.00  0.00     0.004 C 
HETATM   37  C1  UNL     1      -7.317  49.503 -21.917  1.00  0.00     0.006 C 
ENDBRANCH   1  36
BRANCH  30  38
HETATM   38  O8  UNL     1      -1.435  52.524 -21.644  1.00  0.00    -0.377 OA
HETATM   39  H31 UNL     1      -1.329  53.490 -21.662  1.00  0.00     0.211 HD
ENDBRANCH  30  38
BRANCH  24  40
HETATM   40  O6  UNL     1      -3.140  47.156 -20.281  1.00  0.00    -0.359 OA
HETATM   41  H26 UNL     1      -2.702  46.358 -20.615  1.00  0.00     0.217 HD
ENDBRANCH  24  40
TORSDOF 5
ENDMDL
MODEL 2
REMARK minimizedAffinity -8.05629349
REMARK CNNscore 0.459051907
REMARK CNNaffinity 6.29537058
REMARK  5 active torsions:
REMARK  status: ('A' for Active; 'I' for Inactive)
REMARK    1  A    between atoms: C2_2  and  C3_3 
REMARK    2  A    between atoms: C6_6  and  C7_7 
REMARK    3  A    between atoms: C7_7  and  O1_9 
REMARK    4  A    between atoms: C23_29  and  O6_30 
REMARK    5  A    between atoms: C28_36  and  O8_37 
ROOT
HETATM    1  C3  UNL     1      -2.223  47.991 -21.319  1.00  0.00     0.008 C 
HETATM    2  C4  UNL     1      -1.020  48.923 -21.140  1.00  0.00    -0.023 C 
HETATM    3  C5  UNL     1      -1.053  50.268 -21.085  1.00  0.00     0.004 C 
HETATM    4  C6  UNL     1       0.149  51.194 -21.089  1.00  0.00     0.183 C 
HETATM    5  O2  UNL     1      -0.026  51.984 -22.281  1.00  0.00    -0.306 OA
HETATM    6  C9  UNL     1       1.080  52.447 -22.915  1.00  0.00     0.289 C 
HETATM    7  O3  UNL     1       2.200  52.523 -22.440  1.00  0.00    -0.260 OA
HETATM    8  C10 UNL     1       0.743  52.624 -24.372  1.00  0.00     0.010 C 
HETATM    9  C11 UNL     1       1.785  52.102 -25.312  1.00  0.00     0.054 C 
HETATM   10  C12 UNL     1      -0.527  52.983 -24.666  1.00  0.00     0.004 C 
HETATM   11  C13 UNL     1      -1.372  52.682 -25.888  1.00  0.00     0.147 C 
HETATM   12  C14 UNL     1      -0.732  52.456 -27.265  1.00  0.00     0.233 C 
HETATM   13  O4  UNL     1       0.104  53.162 -27.803  1.00  0.00    -0.272 OA
HETATM   14  N1  UNL     1      -1.304  51.329 -27.838  1.00  0.00    -0.327 N 
HETATM   15  C15 UNL     1      -2.166  50.686 -27.006  1.00  0.00     0.056 C 
HETATM   16  C16 UNL     1      -2.884  49.585 -27.241  1.00  0.00     0.084 C 
HETATM   17  C17 UNL     1      -3.708  49.063 -26.101  1.00  0.00     0.185 C 
HETATM   18  O5  UNL     1      -4.015  47.881 -26.078  1.00  0.00    -0.287 OA
HETATM   19  C18 UNL     1      -4.159  50.058 -25.068  1.00  0.00     0.040 C 
HETATM   20  C19 UNL     1      -3.499  51.307 -25.020  1.00  0.00    -0.001 C 
HETATM   21  C20 UNL     1      -4.019  52.338 -24.225  1.00  0.00     0.021 C 
HETATM   22  C21 UNL     1      -5.135  52.122 -23.402  1.00  0.00    -0.027 C 
HETATM   23  C22 UNL     1      -5.644  53.252 -22.550  1.00  0.00     0.051 C 
HETATM   24  C23 UNL     1      -5.650  50.821 -23.309  1.00  0.00     0.086 C 
HETATM   25  C24 UNL     1      -5.143  49.788 -24.115  1.00  0.00     0.058 C 
HETATM   26  C25 UNL     1      -5.415  48.396 -23.700  1.00  0.00     0.163 C 
HETATM   27  O7  UNL     1      -6.437  47.840 -24.093  1.00  0.00    -0.292 OA
HETATM   28  C26 UNL     1      -4.394  47.716 -22.768  1.00  0.00     0.084 C 
HETATM   29  C27 UNL     1      -3.348  48.659 -22.144  1.00  0.00     0.016 C 
HETATM   30  C28 UNL     1      -2.135  51.340 -25.662  1.00  0.00     0.143 C 
HETATM   31  H20 UNL     1      -1.066  51.037 -28.780  1.00  0.00     0.168 HD
ENDROOT
BRANCH   4  32
HETATM   32  C7  UNL     1       0.266  52.106 -19.842  1.00  0.00     0.147 C 
HETATM   33  C8  UNL     1       0.196  53.598 -20.152  1.00  0.00     0.042 C 
BRANCH  32  34
HETATM   34  O1  UNL     1      -0.743  51.806 -18.874  1.00  0.00    -0.393 OA
HETATM   35  H14 UNL     1      -0.659  50.864 -18.644  1.00  0.00     0.210 HD
ENDBRANCH  32  34
ENDBRANCH   4  32
BRANCH   1  36
HETATM   36  C2  UNL     1      -2.745  47.469 -19.969  1.00  0.00     0.004 C 
HETATM   37  C1  UNL     1      -1.937  47.958 -18.773  1.00  0.00     0.006 C 
ENDBRANCH   1  36
BRANCH  30  38
HETATM   38  O8  UNL     1      -1.350  50.454 -24.829  1.00  0.00    -0.377 OA
HETATM   39  H31 UNL     1      -0.556  50.185 -25.323  1.00  0.00     0.211 HD
ENDBRANCH  30  38
BRANCH  24  40
HETATM   40  O6  UNL     1      -6.600  50.503 -22.375  1.00  0.00    -0.359 OA
HETATM   41  H26 UNL     1      -7.005  51.302 -22.005  1.00  0.00     0.217 HD
ENDBRANCH  24  40
TORSDOF 5
ENDMDL
MODEL 3
REMARK minimizedAffinity -7.69794798
REMARK CNNscore 0.413284332
REMARK CNNaffinity 6.04883623
REMARK  5 active torsions:
REMARK  status: ('A' for Active; 'I' for Inactive)
REMARK    1  A    between atoms: C2_2  and  C3_3 
REMARK    2  A    between atoms: C6_6  and  C7_7 
REMARK    3  A    between atoms: C7_7  and  O1_9 
REMARK    4  A    between atoms: C23_29  and  O6_30 
REMARK    5  A    between atoms: C28_36  and  O8_37 
ROOT
HETATM    1  C3  UNL     1       2.772  51.433 -14.089  1.00  0.00     0.008 C 
HETATM    2  C4  UNL     1       2.920  52.371 -12.887  1.00  0.00    -0.023 C 
HETATM    3  C5  UNL     1       2.600  52.088 -11.609  1.00  0.00     0.004 C 
HETATM    4  C6  UNL     1       2.578  53.072 -10.454  1.00  0.00     0.183 C 
HETATM    5  O2  UNL     1       1.205  53.061 -10.016  1.00  0.00    -0.306 OA
HETATM    6  C9  UNL     1       0.698  54.190  -9.462  1.00  0.00     0.289 C 
HETATM    7  O3  UNL     1       1.343  55.127  -9.022  1.00  0.00    -0.260 OA
HETATM    8  C10 UNL     1      -0.790  54.199  -9.702  1.00  0.00     0.010 C 
HETATM    9  C11 UNL     1      -1.330  55.516 -10.163  1.00  0.00     0.054 C 
HETATM   10  C12 UNL     1      -1.412  52.999  -9.724  1.00  0.00     0.004 C 
HETATM   11  C13 UNL     1      -2.645  52.549 -10.481  1.00  0.00     0.147 C 
HETATM   12  C14 UNL     1      -3.757  53.539 -10.855  1.00  0.00     0.233 C 
HETATM   13  O4  UNL     1      -4.293  54.345 -10.113  1.00  0.00    -0.272 OA
HETATM   14  N1  UNL     1      -4.102  53.335 -12.183  1.00  0.00    -0.327 N 
HETATM   15  C15 UNL     1      -3.311  52.421 -12.806  1.00  0.00     0.056 C 
HETATM   16  C16 UNL     1      -3.372  51.989 -14.068  1.00  0.00     0.084 C 
HETATM   17  C17 UNL     1      -2.316  51.013 -14.497  1.00  0.00     0.185 C 
HETATM   18  O5  UNL     1      -2.032  50.924 -15.682  1.00  0.00    -0.287 OA
HETATM   19  C18 UNL     1      -1.701  50.152 -13.428  1.00  0.00     0.040 C 
HETATM   20  C19 UNL     1      -1.867  50.550 -12.083  1.00  0.00    -0.001 C 
HETATM   21  C20 UNL     1      -1.500  49.676 -11.050  1.00  0.00     0.021 C 
HETATM   22  C21 UNL     1      -0.883  48.447 -11.329  1.00  0.00    -0.027 C 
HETATM   23  C22 UNL     1      -0.487  47.552 -10.187  1.00  0.00     0.051 C 
HETATM   24  C23 UNL     1      -0.541  48.162 -12.659  1.00  0.00     0.086 C 
HETATM   25  C24 UNL     1      -0.922  49.027 -13.699  1.00  0.00     0.058 C 
HETATM   26  C25 UNL     1      -0.204  48.910 -14.987  1.00  0.00     0.163 C 
HETATM   27  O7  UNL     1      -0.622  48.132 -15.839  1.00  0.00    -0.292 OA
HETATM   28  C26 UNL     1       1.058  49.772 -15.182  1.00  0.00     0.084 C 
HETATM   29  C27 UNL     1       1.593  50.448 -13.905  1.00  0.00     0.016 C 
HETATM   30  C28 UNL     1      -2.216  52.003 -11.878  1.00  0.00     0.143 C 
HETATM   31  H20 UNL     1      -4.863  53.846 -12.616  1.00  0.00     0.168 HD
ENDROOT
BRANCH   4  32
HETATM   32  C7  UNL     1       3.528  52.714  -9.283  1.00  0.00     0.147 C 
HETATM   33  C8  UNL     1       4.662  51.769  -9.668  1.00  0.00     0.042 C 
BRANCH  32  34
HETATM   34  O1  UNL     1       4.106  53.885  -8.698  1.00  0.00    -0.393 OA
HETATM   35  H14 UNL     1       3.375  54.459  -8.410  1.00  0.00     0.210 HD
ENDBRANCH  32  34
ENDBRANCH   4  32
BRANCH   1  36
HETATM   36  C2  UNL     1       4.084  50.693 -14.401  1.00  0.00     0.004 C 
HETATM   37  C1  UNL     1       4.317  49.470 -13.523  1.00  0.00     0.006 C 
ENDBRANCH   1  36
BRANCH  30  38
HETATM   38  O8  UNL     1      -1.037  52.700 -12.346  1.00  0.00    -0.377 OA
HETATM   39  H31 UNL     1      -1.275  53.626 -12.525  1.00  0.00     0.211 HD
ENDBRANCH  30  38
BRANCH  24  40
HETATM   40  O6  UNL     1       0.240  47.082 -12.971  1.00  0.00    -0.359 OA
HETATM   41  H26 UNL     1       0.293  46.463 -12.227  1.00  0.00     0.217 HD
ENDBRANCH  24  40
TORSDOF 5
ENDMDL
MODEL 4
REMARK minimizedAffinity -7.27368355
REMARK CNNscore 0.383672386
REMARK CNNaffinity 5.94802666
REMARK  5 active torsions:
REMARK  status: ('A' for Active; 'I' for Inactive)
REMARK    1  A    between atoms: C2_2  and  C3_3 
REMARK    2  A    between atoms: C6_6  and  C7_7 
REMARK    3  A    between atoms: C7_7  and  O1_9 
REMARK    4  A    between atoms: C23_29  and  O6_30 
REMARK    5  A    between atoms: C28_36  and  O8_37 
ROOT
HETATM    1  C3  UNL     1       2.540  51.267  -6.974  1.00  0.00     0.008 C 
HETATM    2  C4  UNL     1       3.248  50.470  -8.073  1.00  0.00    -0.023 C 
HETATM    3  C5  UNL     1       3.894  50.980  -9.139  1.00  0.00     0.004 C 
HETATM    4  C6  UNL     1       4.439  50.193 -10.317  1.00  0.00     0.183 C 
HETATM    5  O2  UNL     1       3.713  50.715 -11.447  1.00  0.00    -0.306 OA
HETATM    6  C9  UNL     1       3.481  49.891 -12.499  1.00  0.00     0.289 C 
HETATM    7  O3  UNL     1       4.062  48.845 -12.733  1.00  0.00    -0.260 OA
HETATM    8  C10 UNL     1       2.228  50.361 -13.192  1.00  0.00     0.010 C 
HETATM    9  C11 UNL     1       1.278  49.263 -13.554  1.00  0.00     0.054 C 
HETATM   10  C12 UNL     1       1.986  51.691 -13.180  1.00  0.00     0.004 C 
HETATM   11  C13 UNL     1       0.672  52.447 -13.196  1.00  0.00     0.147 C 
HETATM   12  C14 UNL     1      -0.579  51.857 -13.861  1.00  0.00     0.233 C 
HETATM   13  O4  UNL     1      -0.649  51.365 -14.975  1.00  0.00    -0.272 OA
HETATM   14  N1  UNL     1      -1.655  52.022 -13.001  1.00  0.00    -0.327 N 
HETATM   15  C15 UNL     1      -1.301  52.541 -11.795  1.00  0.00     0.056 C 
HETATM   16  C16 UNL     1      -2.081  52.830 -10.751  1.00  0.00     0.084 C 
HETATM   17  C17 UNL     1      -1.394  53.338  -9.517  1.00  0.00     0.185 C 
HETATM   18  O5  UNL     1      -1.935  53.197  -8.431  1.00  0.00    -0.287 OA
HETATM   19  C18 UNL     1      -0.082  54.049  -9.706  1.00  0.00     0.040 C 
HETATM   20  C19 UNL     1       0.591  53.880 -10.936  1.00  0.00    -0.001 C 
HETATM   21  C20 UNL     1       1.699  54.683 -11.239  1.00  0.00     0.021 C 
HETATM   22  C21 UNL     1       2.209  55.594 -10.300  1.00  0.00    -0.027 C 
HETATM   23  C22 UNL     1       3.412  56.419 -10.661  1.00  0.00     0.051 C 
HETATM   24  C23 UNL     1       1.654  55.601  -9.012  1.00  0.00     0.086 C 
HETATM   25  C24 UNL     1       0.533  54.808  -8.709  1.00  0.00     0.058 C 
HETATM   26  C25 UNL     1       0.249  54.536  -7.284  1.00  0.00     0.163 C 
HETATM   27  O7  UNL     1      -0.461  55.313  -6.653  1.00  0.00    -0.292 OA
HETATM   28  C26 UNL     1       0.888  53.282  -6.656  1.00  0.00     0.084 C 
HETATM   29  C27 UNL     1       1.980  52.607  -7.507  1.00  0.00     0.016 C 
HETATM   30  C28 UNL     1       0.188  52.661 -11.729  1.00  0.00     0.143 C 
HETATM   31  H20 UNL     1      -2.595  51.755 -13.273  1.00  0.00     0.168 HD
ENDROOT
BRANCH   4  32
HETATM   32  C7  UNL     1       5.966  50.332 -10.537  1.00  0.00     0.147 C 
HETATM   33  C8  UNL     1       6.657  51.260  -9.541  1.00  0.00     0.042 C 
BRANCH  32  34
HETATM   34  O1  UNL     1       6.622  49.062 -10.488  1.00  0.00    -0.393 OA
HETATM   35  H14 UNL     1       6.209  48.493 -11.161  1.00  0.00     0.210 HD
ENDBRANCH  32  34
ENDBRANCH   4  32
BRANCH   1  36
HETATM   36  C2  UNL     1       3.447  51.481  -5.749  1.00  0.00     0.004 C 
HETATM   37  C1  UNL     1       4.421  52.642  -5.908  1.00  0.00     0.006 C 
ENDBRANCH   1  36
BRANCH  30  38
HETATM   38  O8  UNL     1       0.620  51.560 -10.895  1.00  0.00    -0.377 OA
HETATM   39  H31 UNL     1       0.151  50.756 -11.175  1.00  0.00     0.211 HD
ENDBRANCH  30  38
BRANCH  24  40
HETATM   40  O6  UNL     1       2.234  56.312  -7.997  1.00  0.00    -0.359 OA
HETATM   41  H26 UNL     1       2.874  56.952  -8.343  1.00  0.00     0.217 HD
ENDBRANCH  24  40
TORSDOF 5
ENDMDL
MODEL 5
REMARK minimizedAffinity -6.57491827
REMARK CNNscore 0.332797587
REMARK CNNaffinity 5.70331192
REMARK  5 active torsions:
REMARK  status: ('A' for Active; 'I' for Inactive)
REMARK    1  A    between atoms: C2_2  and  C3_3 
REMARK    2  A    between atoms: C6_6  and  C7_7 
REMARK    3  A    between atoms: C7_7  and  O1_9 
REMARK    4  A    between atoms: C23_29  and  O6_30 
REMARK    5  A    between atoms: C28_36  and  O8_37 
ROOT
HETATM    1  C3  UNL     1       4.569  52.133 -10.130  1.00  0.00     0.008 C 
HETATM    2  C4  UNL     1       3.821  53.164  -9.280  1.00  0.00    -0.023 C 
HETATM    3  C5  UNL     1       2.839  52.907  -8.394  1.00  0.00     0.004 C 
HETATM    4  C6  UNL     1       1.979  53.939  -7.688  1.00  0.00     0.183 C 
HETATM    5  O2  UNL     1       0.641  53.634  -8.128  1.00  0.00    -0.306 OA
HETATM    6  C9  UNL     1      -0.257  54.648  -8.207  1.00  0.00     0.289 C 
HETATM    7  O3  UNL     1      -0.155  55.740  -7.675  1.00  0.00    -0.260 OA
HETATM    8  C10 UNL     1      -1.277  54.285  -9.254  1.00  0.00     0.010 C 
HETATM    9  C11 UNL     1      -1.614  55.399 -10.196  1.00  0.00     0.054 C 
HETATM   10  C12 UNL     1      -1.575  52.973  -9.389  1.00  0.00     0.004 C 
HETATM   11  C13 UNL     1      -2.017  52.189 -10.609  1.00  0.00     0.147 C 
HETATM   12  C14 UNL     1      -2.806  52.857 -11.743  1.00  0.00     0.233 C 
HETATM   13  O4  UNL     1      -3.793  53.564 -11.625  1.00  0.00    -0.272 OA
HETATM   14  N1  UNL     1      -2.243  52.480 -12.954  1.00  0.00    -0.327 N 
HETATM   15  C15 UNL     1      -1.113  51.738 -12.810  1.00  0.00     0.056 C 
HETATM   16  C16 UNL     1      -0.335  51.212 -13.759  1.00  0.00     0.084 C 
HETATM   17  C17 UNL     1       0.895  50.487 -13.296  1.00  0.00     0.185 C 
HETATM   18  O5  UNL     1       1.847  50.382 -14.055  1.00  0.00    -0.287 OA
HETATM   19  C18 UNL     1       0.856  49.878 -11.922  1.00  0.00     0.040 C 
HETATM   20  C19 UNL     1      -0.146  50.321 -11.031  1.00  0.00    -0.001 C 
HETATM   21  C20 UNL     1      -0.355  49.637  -9.825  1.00  0.00     0.021 C 
HETATM   22  C21 UNL     1       0.477  48.572  -9.445  1.00  0.00    -0.027 C 
HETATM   23  C22 UNL     1       0.228  47.883  -8.132  1.00  0.00     0.051 C 
HETATM   24  C23 UNL     1       1.590  48.281 -10.245  1.00  0.00     0.086 C 
HETATM   25  C24 UNL     1       1.795  48.953 -11.463  1.00  0.00     0.058 C 
HETATM   26  C25 UNL     1       3.152  48.917 -12.048  1.00  0.00     0.163 C 
HETATM   27  O7  UNL     1       3.455  48.001 -12.808  1.00  0.00    -0.292 OA
HETATM   28  C26 UNL     1       4.132  50.037 -11.649  1.00  0.00     0.084 C 
HETATM   29  C27 UNL     1       3.680  50.912 -10.465  1.00  0.00     0.016 C 
HETATM   30  C28 UNL     1      -0.756  51.661 -11.360  1.00  0.00     0.143 C 
HETATM   31  H20 UNL     1      -2.652  52.763 -13.838  1.00  0.00     0.168 HD
ENDROOT
BRANCH   4  32
HETATM   32  C7  UNL     1       2.067  53.903  -6.141  1.00  0.00     0.147 C 
HETATM   33  C8  UNL     1       2.623  55.182  -5.520  1.00  0.00     0.042 C 
BRANCH  32  34
HETATM   34  O1  UNL     1       0.793  53.639  -5.548  1.00  0.00    -0.393 OA
HETATM   35  H14 UNL     1       0.469  52.796  -5.912  1.00  0.00     0.210 HD
ENDBRANCH  32  34
ENDBRANCH   4  32
BRANCH   1  36
HETATM   36  C2  UNL     1       5.894  51.705  -9.475  1.00  0.00     0.004 C 
HETATM   37  C1  UNL     1       6.760  52.878  -9.031  1.00  0.00     0.006 C 
ENDBRANCH   1  36
BRANCH  30  38
HETATM   38  O8  UNL     1       0.348  52.582 -11.193  1.00  0.00    -0.377 OA
HETATM   39  H31 UNL     1       0.135  53.409 -11.658  1.00  0.00     0.211 HD
ENDBRANCH  30  38
BRANCH  24  40
HETATM   40  O6  UNL     1       2.549  47.398  -9.827  1.00  0.00    -0.359 OA
HETATM   41  H26 UNL     1       2.230  46.866  -9.082  1.00  0.00     0.217 HD
ENDBRANCH  24  40
TORSDOF 5
ENDMDL
MODEL 6
REMARK minimizedAffinity -6.6757865
REMARK CNNscore 0.296168447
REMARK CNNaffinity 5.36484861
REMARK  5 active torsions:
REMARK  status: ('A' for Active; 'I' for Inactive)
REMARK    1  A    between atoms: C2_2  and  C3_3 
REMARK    2  A    between atoms: C6_6  and  C7_7 
REMARK    3  A    between atoms: C7_7  and  O1_9 
REMARK    4  A    between atoms: C23_29  and  O6_30 
REMARK    5  A    between atoms: C28_36  and  O8_37 
ROOT
HETATM    1  C3  UNL     1       3.313  51.734  -6.312  1.00  0.00     0.008 C 
HETATM    2  C4  UNL     1       2.073  52.355  -5.661  1.00  0.00    -0.023 C 
HETATM    3  C5  UNL     1       1.291  53.316  -6.190  1.00  0.00     0.004 C 
HETATM    4  C6  UNL     1       0.175  54.055  -5.474  1.00  0.00     0.183 C 
HETATM    5  O2  UNL     1       0.599  55.431  -5.498  1.00  0.00    -0.306 OA
HETATM    6  C9  UNL     1       0.208  56.243  -4.485  1.00  0.00     0.289 C 
HETATM    7  O3  UNL     1      -0.701  56.027  -3.702  1.00  0.00    -0.260 OA
HETATM    8  C10 UNL     1       1.236  57.335  -4.340  1.00  0.00     0.010 C 
HETATM    9  C11 UNL     1       1.636  57.618  -2.926  1.00  0.00     0.054 C 
HETATM   10  C12 UNL     1       1.853  57.748  -5.470  1.00  0.00     0.004 C 
HETATM   11  C13 UNL     1       3.247  58.307  -5.676  1.00  0.00     0.147 C 
HETATM   12  C14 UNL     1       3.966  59.086  -4.566  1.00  0.00     0.233 C 
HETATM   13  O4  UNL     1       3.508  60.003  -3.906  1.00  0.00    -0.272 OA
HETATM   14  N1  UNL     1       5.265  58.609  -4.464  1.00  0.00    -0.327 N 
HETATM   15  C15 UNL     1       5.508  57.541  -5.269  1.00  0.00     0.056 C 
HETATM   16  C16 UNL     1       6.641  56.852  -5.419  1.00  0.00     0.084 C 
HETATM   17  C17 UNL     1       6.592  55.668  -6.341  1.00  0.00     0.185 C 
HETATM   18  O5  UNL     1       7.399  54.763  -6.193  1.00  0.00    -0.287 OA
HETATM   19  C18 UNL     1       5.569  55.698  -7.443  1.00  0.00     0.040 C 
HETATM   20  C19 UNL     1       4.505  56.620  -7.331  1.00  0.00    -0.001 C 
HETATM   21  C20 UNL     1       3.653  56.833  -8.424  1.00  0.00     0.021 C 
HETATM   22  C21 UNL     1       3.784  56.078  -9.600  1.00  0.00    -0.027 C 
HETATM   23  C22 UNL     1       2.833  56.326 -10.738  1.00  0.00     0.051 C 
HETATM   24  C23 UNL     1       4.714  55.029  -9.615  1.00  0.00     0.086 C 
HETATM   25  C24 UNL     1       5.580  54.821  -8.528  1.00  0.00     0.058 C 
HETATM   26  C25 UNL     1       6.231  53.499  -8.410  1.00  0.00     0.163 C 
HETATM   27  O7  UNL     1       7.310  53.307  -8.965  1.00  0.00    -0.292 OA
HETATM   28  C26 UNL     1       5.497  52.412  -7.601  1.00  0.00     0.084 C 
HETATM   29  C27 UNL     1       4.034  52.737  -7.244  1.00  0.00     0.016 C 
HETATM   30  C28 UNL     1       4.235  57.129  -5.937  1.00  0.00     0.143 C 
HETATM   31  H20 UNL     1       5.934  59.032  -3.829  1.00  0.00     0.168 HD
ENDROOT
BRANCH   4  32
HETATM   32  C7  UNL     1      -1.223  53.902  -6.127  1.00  0.00     0.147 C 
HETATM   33  C8  UNL     1      -1.363  52.671  -7.017  1.00  0.00     0.042 C 
BRANCH  32  34
HETATM   34  O1  UNL     1      -2.260  53.860  -5.143  1.00  0.00    -0.393 OA
HETATM   35  H14 UNL     1      -2.195  54.672  -4.612  1.00  0.00     0.210 HD
ENDBRANCH  32  34
ENDBRANCH   4  32
BRANCH   1  36
HETATM   36  C2  UNL     1       2.978  50.423  -7.044  1.00  0.00     0.004 C 
HETATM   37  C1  UNL     1       4.156  49.836  -7.812  1.00  0.00     0.006 C 
ENDBRANCH   1  36
BRANCH  30  38
HETATM   38  O8  UNL     1       3.801  55.945  -5.226  1.00  0.00    -0.377 OA
HETATM   39  H31 UNL     1       3.886  56.108  -4.271  1.00  0.00     0.211 HD
ENDBRANCH  30  38
BRANCH  24  40
HETATM   40  O6  UNL     1       4.748  54.130 -10.648  1.00  0.00    -0.359 OA
HETATM   41  H26 UNL     1       4.251  54.460 -11.412  1.00  0.00     0.217 HD
ENDBRANCH  24  40
TORSDOF 5
ENDMDL
MODEL 7
REMARK minimizedAffinity -8.93207359
REMARK CNNscore 0.291996479
REMARK CNNaffinity 5.60061789
REMARK  5 active torsions:
REMARK  status: ('A' for Active; 'I' for Inactive)
REMARK    1  A    between atoms: C2_2  and  C3_3 
REMARK    2  A    between atoms: C6_6  and  C7_7 
REMARK    3  A    between atoms: C7_7  and  O1_9 
REMARK    4  A    between atoms: C23_29  and  O6_30 
REMARK    5  A    between atoms: C28_36  and  O8_37 
ROOT
HETATM    1  C3  UNL     1      -5.254  43.547 -31.837  1.00  0.00     0.008 C 
HETATM    2  C4  UNL     1      -6.509  42.681 -31.686  1.00  0.00    -0.023 C 
HETATM    3  C5  UNL     1      -7.649  42.798 -32.395  1.00  0.00     0.004 C 
HETATM    4  C6  UNL     1      -8.949  42.063 -32.125  1.00  0.00     0.183 C 
HETATM    5  O2  UNL     1      -9.892  43.117 -31.850  1.00  0.00    -0.306 OA
HETATM    6  C9  UNL     1     -10.924  42.854 -31.010  1.00  0.00     0.289 C 
HETATM    7  O3  UNL     1     -11.320  41.748 -30.683  1.00  0.00    -0.260 OA
HETATM    8  C10 UNL     1     -11.341  44.150 -30.364  1.00  0.00     0.010 C 
HETATM    9  C11 UNL     1     -11.576  44.053 -28.889  1.00  0.00     0.054 C 
HETATM   10  C12 UNL     1     -11.212  45.272 -31.106  1.00  0.00     0.004 C 
HETATM   11  C13 UNL     1     -10.939  46.702 -30.682  1.00  0.00     0.147 C 
HETATM   12  C14 UNL     1     -11.386  47.225 -29.309  1.00  0.00     0.233 C 
HETATM   13  O4  UNL     1     -12.492  47.104 -28.809  1.00  0.00    -0.272 OA
HETATM   14  N1  UNL     1     -10.330  47.919 -28.737  1.00  0.00    -0.327 N 
HETATM   15  C15 UNL     1      -9.187  47.854 -29.470  1.00  0.00     0.056 C 
HETATM   16  C16 UNL     1      -8.000  48.409 -29.214  1.00  0.00     0.084 C 
HETATM   17  C17 UNL     1      -6.893  48.108 -30.181  1.00  0.00     0.185 C 
HETATM   18  O5  UNL     1      -5.734  48.185 -29.805  1.00  0.00    -0.287 OA
HETATM   19  C18 UNL     1      -7.288  47.776 -31.594  1.00  0.00     0.040 C 
HETATM   20  C19 UNL     1      -8.631  47.410 -31.837  1.00  0.00    -0.001 C 
HETATM   21  C20 UNL     1      -9.093  47.301 -33.156  1.00  0.00     0.021 C 
HETATM   22  C21 UNL     1      -8.220  47.459 -34.243  1.00  0.00    -0.027 C 
HETATM   23  C22 UNL     1      -8.757  47.311 -35.639  1.00  0.00     0.051 C 
HETATM   24  C23 UNL     1      -6.852  47.619 -33.978  1.00  0.00     0.086 C 
HETATM   25  C24 UNL     1      -6.386  47.745 -32.658  1.00  0.00     0.058 C 
HETATM   26  C25 UNL     1      -4.950  47.497 -32.411  1.00  0.00     0.163 C 
HETATM   27  O7  UNL     1      -4.155  48.428 -32.498  1.00  0.00    -0.292 OA
HETATM   28  C26 UNL     1      -4.522  46.056 -32.069  1.00  0.00     0.084 C 
HETATM   29  C27 UNL     1      -5.599  44.981 -32.303  1.00  0.00     0.016 C 
HETATM   30  C28 UNL     1      -9.398  46.933 -30.629  1.00  0.00     0.143 C 
HETATM   31  H20 UNL     1     -10.434  48.401 -27.851  1.00  0.00     0.168 HD
ENDROOT
BRANCH   4  32
HETATM   32  C7  UNL     1      -9.446  41.178 -33.296  1.00  0.00     0.147 C 
HETATM   33  C8  UNL     1     -10.937  40.859 -33.246  1.00  0.00     0.042 C 
BRANCH  32  34
HETATM   34  O1  UNL     1      -9.162  41.775 -34.564  1.00  0.00    -0.393 OA
HETATM   35  H14 UNL     1      -8.202  41.929 -34.607  1.00  0.00     0.210 HD
ENDBRANCH  32  34
ENDBRANCH   4  32
BRANCH   1  36
HETATM   36  C2  UNL     1      -4.214  42.887 -32.758  1.00  0.00     0.004 C 
HETATM   37  C1  UNL     1      -4.831  42.065 -33.884  1.00  0.00     0.006 C 
ENDBRANCH   1  36
BRANCH  30  38
HETATM   38  O8  UNL     1      -8.721  45.706 -30.265  1.00  0.00    -0.377 OA
HETATM   39  H31 UNL     1      -8.950  45.486 -29.346  1.00  0.00     0.211 HD
ENDBRANCH  30  38
BRANCH  24  40
HETATM   40  O6  UNL     1      -5.928  47.573 -34.987  1.00  0.00    -0.359 OA
HETATM   41  H26 UNL     1      -6.353  47.666 -35.853  1.00  0.00     0.217 HD
ENDBRANCH  24  40
TORSDOF 5
ENDMDL
MODEL 8
REMARK minimizedAffinity -6.79287195
REMARK CNNscore 0.266510725
REMARK CNNaffinity 5.30848455
REMARK  5 active torsions:
REMARK  status: ('A' for Active; 'I' for Inactive)
REMARK    1  A    between atoms: C2_2  and  C3_3 
REMARK    2  A    between atoms: C6_6  and  C7_7 
REMARK    3  A    between atoms: C7_7  and  O1_9 
REMARK    4  A    between atoms: C23_29  and  O6_30 
REMARK    5  A    between atoms: C28_36  and  O8_37 
ROOT
HETATM    1  C3  UNL     1     -13.463  42.487 -21.333  1.00  0.00     0.008 C 
HETATM    2  C4  UNL     1     -13.257  43.146 -22.700  1.00  0.00    -0.023 C 
HETATM    3  C5  UNL     1     -13.285  44.468 -22.961  1.00  0.00     0.004 C 
HETATM    4  C6  UNL     1     -13.260  45.109 -24.336  1.00  0.00     0.183 C 
HETATM    5  O2  UNL     1     -14.508  45.827 -24.407  1.00  0.00    -0.306 OA
HETATM    6  C9  UNL     1     -15.088  45.991 -25.621  1.00  0.00     0.289 C 
HETATM    7  O3  UNL     1     -14.540  45.858 -26.702  1.00  0.00    -0.260 OA
HETATM    8  C10 UNL     1     -16.574  46.127 -25.413  1.00  0.00     0.010 C 
HETATM    9  C11 UNL     1     -17.404  45.324 -26.365  1.00  0.00     0.054 C 
HETATM   10  C12 UNL     1     -16.978  46.730 -24.272  1.00  0.00     0.004 C 
HETATM   11  C13 UNL     1     -18.236  46.528 -23.451  1.00  0.00     0.147 C 
HETATM   12  C14 UNL     1     -19.548  46.068 -24.102  1.00  0.00     0.233 C 
HETATM   13  O4  UNL     1     -20.067  46.534 -25.102  1.00  0.00    -0.272 OA
HETATM   14  N1  UNL     1     -20.091  45.052 -23.328  1.00  0.00    -0.327 N 
HETATM   15  C15 UNL     1     -19.285  44.674 -22.300  1.00  0.00     0.056 C 
HETATM   16  C16 UNL     1     -19.503  43.740 -21.371  1.00  0.00     0.084 C 
HETATM   17  C17 UNL     1     -18.395  43.495 -20.390  1.00  0.00     0.185 C 
HETATM   18  O5  UNL     1     -18.322  42.412 -19.829  1.00  0.00    -0.287 OA
HETATM   19  C18 UNL     1     -17.458  44.638 -20.113  1.00  0.00     0.040 C 
HETATM   20  C19 UNL     1     -17.440  45.714 -21.028  1.00  0.00    -0.001 C 
HETATM   21  C20 UNL     1     -16.747  46.890 -20.705  1.00  0.00     0.021 C 
HETATM   22  C21 UNL     1     -15.994  46.983 -19.524  1.00  0.00    -0.027 C 
HETATM   23  C22 UNL     1     -15.250  48.256 -19.231  1.00  0.00     0.051 C 
HETATM   24  C23 UNL     1     -15.858  45.835 -18.731  1.00  0.00     0.086 C 
HETATM   25  C24 UNL     1     -16.563  44.659 -19.042  1.00  0.00     0.058 C 
HETATM   26  C25 UNL     1     -16.085  43.393 -18.447  1.00  0.00     0.163 C 
HETATM   27  O7  UNL     1     -16.514  43.044 -17.351  1.00  0.00    -0.292 OA
HETATM   28  C26 UNL     1     -15.043  42.580 -19.239  1.00  0.00     0.084 C 
HETATM   29  C27 UNL     1     -14.404  43.319 -20.431  1.00  0.00     0.016 C 
HETATM   30  C28 UNL     1     -17.984  45.404 -22.400  1.00  0.00     0.143 C 
HETATM   31  H20 UNL     1     -20.994  44.646 -23.548  1.00  0.00     0.168 HD
ENDROOT
BRANCH   4  32
HETATM   32  C7  UNL     1     -12.065  46.064 -24.582  1.00  0.00     0.147 C 
HETATM   33  C8  UNL     1     -11.120  45.606 -25.689  1.00  0.00     0.042 C 
BRANCH  32  34
HETATM   34  O1  UNL     1     -12.506  47.388 -24.894  1.00  0.00    -0.393 OA
HETATM   35  H14 UNL     1     -13.067  47.691 -24.160  1.00  0.00     0.210 HD
ENDBRANCH  32  34
ENDBRANCH   4  32
BRANCH   1  36
HETATM   36  C2  UNL     1     -12.125  42.192 -20.634  1.00  0.00     0.004 C 
HETATM   37  C1  UNL     1     -10.977  41.926 -21.601  1.00  0.00     0.006 C 
ENDBRANCH   1  36
BRANCH  30  38
HETATM   38  O8  UNL     1     -17.045  44.433 -22.922  1.00  0.00    -0.377 OA
HETATM   39  H31 UNL     1     -17.465  43.964 -23.663  1.00  0.00     0.211 HD
ENDBRANCH  30  38
BRANCH  24  40
HETATM   40  O6  UNL     1     -14.977  45.800 -17.684  1.00  0.00    -0.359 OA
HETATM   41  H26 UNL     1     -14.686  46.693 -17.445  1.00  0.00     0.217 HD
ENDBRANCH  24  40
TORSDOF 5
ENDMDL
MODEL 9
REMARK minimizedAffinity -8.16374302
REMARK CNNscore 0.260409355
REMARK CNNaffinity 5.81206465
REMARK  5 active torsions:
REMARK  status: ('A' for Active; 'I' for Inactive)
REMARK    1  A    between atoms: C2_2  and  C3_3 
REMARK    2  A    between atoms: C6_6  and  C7_7 
REMARK    3  A    between atoms: C7_7  and  O1_9 
REMARK    4  A    between atoms: C23_29  and  O6_30 
REMARK    5  A    between atoms: C28_36  and  O8_37 
ROOT
HETATM    1  C3  UNL     1     -11.454  42.960 -28.757  1.00  0.00     0.008 C 
HETATM    2  C4  UNL     1     -11.232  44.314 -28.074  1.00  0.00    -0.023 C 
HETATM    3  C5  UNL     1     -11.340  45.526 -28.651  1.00  0.00     0.004 C 
HETATM    4  C6  UNL     1     -10.947  46.852 -28.026  1.00  0.00     0.183 C 
HETATM    5  O2  UNL     1      -9.918  47.355 -28.900  1.00  0.00    -0.306 OA
HETATM    6  C9  UNL     1      -8.954  48.148 -28.369  1.00  0.00     0.289 C 
HETATM    7  O3  UNL     1      -9.010  48.727 -27.298  1.00  0.00    -0.260 OA
HETATM    8  C10 UNL     1      -7.712  47.998 -29.210  1.00  0.00     0.010 C 
HETATM    9  C11 UNL     1      -6.452  47.835 -28.420  1.00  0.00     0.054 C 
HETATM   10  C12 UNL     1      -7.892  47.774 -30.531  1.00  0.00     0.004 C 
HETATM   11  C13 UNL     1      -7.033  47.012 -31.521  1.00  0.00     0.147 C 
HETATM   12  C14 UNL     1      -5.513  46.904 -31.339  1.00  0.00     0.233 C 
HETATM   13  O4  UNL     1      -4.740  47.818 -31.107  1.00  0.00    -0.272 OA
HETATM   14  N1  UNL     1      -5.139  45.582 -31.537  1.00  0.00    -0.327 N 
HETATM   15  C15 UNL     1      -6.197  44.748 -31.720  1.00  0.00     0.056 C 
HETATM   16  C16 UNL     1      -6.191  43.432 -31.941  1.00  0.00     0.084 C 
HETATM   17  C17 UNL     1      -7.530  42.760 -32.041  1.00  0.00     0.185 C 
HETATM   18  O5  UNL     1      -7.619  41.567 -31.794  1.00  0.00    -0.287 OA
HETATM   19  C18 UNL     1      -8.688  43.603 -32.500  1.00  0.00     0.040 C 
HETATM   20  C19 UNL     1      -8.543  45.007 -32.452  1.00  0.00    -0.001 C 
HETATM   21  C20 UNL     1      -9.503  45.826 -33.064  1.00  0.00     0.021 C 
HETATM   22  C21 UNL     1     -10.657  45.276 -33.645  1.00  0.00    -0.027 C 
HETATM   23  C22 UNL     1     -11.669  46.195 -34.269  1.00  0.00     0.051 C 
HETATM   24  C23 UNL     1     -10.881  43.900 -33.501  1.00  0.00     0.086 C 
HETATM   25  C24 UNL     1      -9.914  43.073 -32.903  1.00  0.00     0.058 C 
HETATM   26  C25 UNL     1     -10.352  41.750 -32.410  1.00  0.00     0.163 C 
HETATM   27  O7  UNL     1     -10.323  40.785 -33.168  1.00  0.00    -0.292 OA
HETATM   28  C26 UNL     1     -10.846  41.659 -30.953  1.00  0.00     0.084 C 
HETATM   29  C27 UNL     1     -11.097  43.012 -30.261  1.00  0.00     0.016 C 
HETATM   30  C28 UNL     1      -7.466  45.514 -31.525  1.00  0.00     0.143 C 
HETATM   31  H20 UNL     1      -4.164  45.302 -31.523  1.00  0.00     0.168 HD
ENDROOT
BRANCH   4  32
HETATM   32  C7  UNL     1     -12.105  47.875 -27.899  1.00  0.00     0.147 C 
HETATM   33  C8  UNL     1     -13.461  47.246 -27.596  1.00  0.00     0.042 C 
BRANCH  32  34
HETATM   34  O1  UNL     1     -11.834  48.853 -26.892  1.00  0.00    -0.393 OA
HETATM   35  H14 UNL     1     -10.992  49.285 -27.121  1.00  0.00     0.210 HD
ENDBRANCH  32  34
ENDBRANCH   4  32
BRANCH   1  36
HETATM   36  C2  UNL     1     -12.883  42.436 -28.533  1.00  0.00     0.004 C 
HETATM   37  C1  UNL     1     -13.752  43.372 -27.701  1.00  0.00     0.006 C 
ENDBRANCH   1  36
BRANCH  30  38
HETATM   38  O8  UNL     1      -7.943  45.128 -30.214  1.00  0.00    -0.377 OA
HETATM   39  H31 UNL     1      -7.195  45.148 -29.594  1.00  0.00     0.211 HD
ENDBRANCH  30  38
BRANCH  24  40
HETATM   40  O6  UNL     1     -12.076  43.338 -33.862  1.00  0.00    -0.359 OA
HETATM   41  H26 UNL     1     -12.591  43.942 -34.418  1.00  0.00     0.217 HD
ENDBRANCH  24  40
TORSDOF 5
ENDMDL
