MODEL 1
REMARK minimizedAffinity -9.49911022
REMARK  4 active torsions:
REMARK  status: ('A' for Active; 'I' for Inactive)
REMARK    1  A    between atoms: C4_4  and  C5_5 
REMARK    2  A    between atoms: C5_5  and  C6_6 
REMARK    3  A    between atoms: C6_6  and  C7_7 
REMARK    4  A    between atoms: C7_7  and  C9_9 
ROOT
HETATM    1  C9  UNL     1      -4.994  47.767 -22.747  1.00  0.00    -0.002 C 
HETATM    2  C10 UNL     1      -6.315  48.300 -23.349  1.00  0.00     0.006 C 
HETATM    3  C11 UNL     1      -5.960  49.443 -24.298  1.00  0.00     0.011 C 
HETATM    4  C12 UNL     1      -4.427  49.363 -24.543  1.00  0.00    -0.032 C 
HETATM    5  C13 UNL     1      -4.231  48.280 -25.641  1.00  0.00     0.016 C 
HETATM    6  C14 UNL     1      -3.887  50.782 -25.010  1.00  0.00     0.004 C 
HETATM    7  C15 UNL     1      -3.048  50.849 -26.310  1.00  0.00     0.007 C 
HETATM    8  C16 UNL     1      -1.577  50.510 -26.131  1.00  0.00     0.007 C 
HETATM    9  C17 UNL     1      -0.836  51.291 -25.034  1.00  0.00     0.010 C 
HETATM   10  C18 UNL     1       0.234  52.328 -25.507  1.00  0.00     0.018 C 
HETATM   11  C19 UNL     1       1.453  51.605 -26.109  1.00  0.00     0.023 C 
HETATM   12  C20 UNL     1      -0.293  53.340 -26.536  1.00  0.00     0.023 C 
HETATM   13  C21 UNL     1       0.736  53.102 -24.269  1.00  0.00     0.135 C 
HETATM   14  O1  UNL     1       1.326  54.180 -24.363  1.00  0.00    -0.297 OA
HETATM   15  C22 UNL     1       0.559  52.435 -22.920  1.00  0.00     0.080 C 
HETATM   16  C23 UNL     1      -0.908  52.110 -22.644  1.00  0.00     0.018 C 
HETATM   17  C24 UNL     1      -1.705  51.884 -23.925  1.00  0.00    -0.026 A 
HETATM   18  C25 UNL     1      -2.733  52.958 -24.229  1.00  0.00     0.021 A 
HETATM   19  C26 UNL     1      -3.209  51.564 -23.880  1.00  0.00    -0.027 A 
HETATM   20  C27 UNL     1      -3.936  51.453 -22.572  1.00  0.00     0.011 C 
HETATM   21  C28 UNL     1      -3.982  50.027 -22.045  1.00  0.00     0.011 C 
HETATM   22  C29 UNL     1      -3.944  48.888 -23.106  1.00  0.00    -0.032 C 
HETATM   23  C30 UNL     1      -2.518  48.304 -23.171  1.00  0.00     0.016 C 
ENDROOT
BRANCH   1  24
HETATM   24  C7  UNL     1      -5.185  47.292 -21.273  1.00  0.00    -0.014 C 
HETATM   25  C8  UNL     1      -5.256  48.441 -20.268  1.00  0.00     0.010 C 
BRANCH  24  26
HETATM   26  C6  UNL     1      -4.110  46.264 -20.822  1.00  0.00     0.008 C 
BRANCH  26  27
HETATM   27  C5  UNL     1      -2.666  46.781 -20.809  1.00  0.00     0.028 C 
BRANCH  27  28
HETATM   28  C4  UNL     1      -2.336  47.375 -19.465  1.00  0.00    -0.025 C 
HETATM   29  C2  UNL     1      -1.547  48.433 -19.190  1.00  0.00    -0.091 C 
HETATM   30  C1  UNL     1      -1.346  48.885 -17.765  1.00  0.00     0.042 C 
HETATM   31  C3  UNL     1      -0.814  49.265 -20.206  1.00  0.00     0.042 C 
ENDBRANCH  27  28
ENDBRANCH  26  27
ENDBRANCH  24  26
ENDBRANCH   1  24
TORSDOF 4
ENDMDL
MODEL 2
REMARK minimizedAffinity -9.449646
REMARK  4 active torsions:
REMARK  status: ('A' for Active; 'I' for Inactive)
REMARK    1  A    between atoms: C4_4  and  C5_5 
REMARK    2  A    between atoms: C5_5  and  C6_6 
REMARK    3  A    between atoms: C6_6  and  C7_7 
REMARK    4  A    between atoms: C7_7  and  C9_9 
ROOT
HETATM    1  C9  UNL     1       0.182  51.602 -20.767  1.00  0.00    -0.002 C 
HETATM    2  C10 UNL     1      -0.159  52.549 -19.593  1.00  0.00     0.006 C 
HETATM    3  C11 UNL     1      -1.485  52.083 -18.996  1.00  0.00     0.011 C 
HETATM    4  C12 UNL     1      -1.759  50.663 -19.565  1.00  0.00    -0.032 C 
HETATM    5  C13 UNL     1      -0.925  49.688 -18.685  1.00  0.00     0.016 C 
HETATM    6  C14 UNL     1      -3.313  50.346 -19.485  1.00  0.00     0.004 C 
HETATM    7  C15 UNL     1      -3.754  49.030 -18.798  1.00  0.00     0.007 C 
HETATM    8  C16 UNL     1      -3.698  47.802 -19.691  1.00  0.00     0.007 C 
HETATM    9  C17 UNL     1      -4.430  47.915 -21.037  1.00  0.00     0.010 C 
HETATM   10  C18 UNL     1      -5.725  47.056 -21.211  1.00  0.00     0.018 C 
HETATM   11  C19 UNL     1      -5.369  45.560 -21.291  1.00  0.00     0.023 C 
HETATM   12  C20 UNL     1      -6.757  47.255 -20.090  1.00  0.00     0.023 C 
HETATM   13  C21 UNL     1      -6.380  47.436 -22.555  1.00  0.00     0.135 C 
HETATM   14  O1  UNL     1      -7.556  47.172 -22.811  1.00  0.00    -0.297 OA
HETATM   15  C22 UNL     1      -5.487  48.069 -23.603  1.00  0.00     0.080 C 
HETATM   16  C23 UNL     1      -4.830  49.346 -23.081  1.00  0.00     0.018 C 
HETATM   17  C24 UNL     1      -4.651  49.332 -21.567  1.00  0.00    -0.026 A 
HETATM   18  C25 UNL     1      -5.528  50.318 -20.816  1.00  0.00     0.021 A 
HETATM   19  C26 UNL     1      -4.029  50.530 -20.828  1.00  0.00    -0.027 A 
HETATM   20  C27 UNL     1      -3.567  51.744 -21.578  1.00  0.00     0.011 C 
HETATM   21  C28 UNL     1      -2.097  51.675 -21.961  1.00  0.00     0.011 C 
HETATM   22  C29 UNL     1      -1.172  50.836 -21.030  1.00  0.00    -0.032 C 
HETATM   23  C30 UNL     1      -0.908  49.463 -21.683  1.00  0.00     0.016 C 
ENDROOT
BRANCH   1  24
HETATM   24  C7  UNL     1       0.913  52.356 -21.921  1.00  0.00    -0.014 C 
HETATM   25  C8  UNL     1       1.197  53.824 -21.604  1.00  0.00     0.010 C 
BRANCH  24  26
HETATM   26  C6  UNL     1       0.173  52.246 -23.283  1.00  0.00     0.008 C 
BRANCH  26  27
HETATM   27  C5  UNL     1       0.639  53.223 -24.370  1.00  0.00     0.028 C 
BRANCH  27  28
HETATM   28  C4  UNL     1       0.261  52.706 -25.732  1.00  0.00    -0.025 C 
HETATM   29  C2  UNL     1       0.999  51.957 -26.576  1.00  0.00    -0.091 C 
HETATM   30  C1  UNL     1       0.436  51.528 -27.908  1.00  0.00     0.042 C 
HETATM   31  C3  UNL     1       2.397  51.467 -26.316  1.00  0.00     0.042 C 
ENDBRANCH  27  28
ENDBRANCH  26  27
ENDBRANCH  24  26
ENDBRANCH   1  24
TORSDOF 4
ENDMDL
MODEL 3
REMARK minimizedAffinity -9.42023563
REMARK  4 active torsions:
REMARK  status: ('A' for Active; 'I' for Inactive)
REMARK    1  A    between atoms: C4_4  and  C5_5 
REMARK    2  A    between atoms: C5_5  and  C6_6 
REMARK    3  A    between atoms: C6_6  and  C7_7 
REMARK    4  A    between atoms: C7_7  and  C9_9 
ROOT
HETATM    1  C9  UNL     1      -4.856  47.708 -22.607  1.00  0.00    -0.002 C 
HETATM    2  C10 UNL     1      -6.188  48.223 -23.200  1.00  0.00     0.006 C 
HETATM    3  C11 UNL     1      -5.857  49.386 -24.132  1.00  0.00     0.011 C 
HETATM    4  C12 UNL     1      -4.324  49.340 -24.381  1.00  0.00    -0.032 C 
HETATM    5  C13 UNL     1      -4.109  48.277 -25.496  1.00  0.00     0.016 C 
HETATM    6  C14 UNL     1      -3.812  50.776 -24.830  1.00  0.00     0.004 C 
HETATM    7  C15 UNL     1      -2.977  50.878 -26.129  1.00  0.00     0.007 C 
HETATM    8  C16 UNL     1      -1.500  50.566 -25.957  1.00  0.00     0.007 C 
HETATM    9  C17 UNL     1      -0.772  51.345 -24.851  1.00  0.00     0.010 C 
HETATM   10  C18 UNL     1       0.277  52.411 -25.310  1.00  0.00     0.018 C 
HETATM   11  C19 UNL     1       1.509  51.720 -25.925  1.00  0.00     0.023 C 
HETATM   12  C20 UNL     1      -0.272  53.426 -26.324  1.00  0.00     0.023 C 
HETATM   13  C21 UNL     1       0.765  53.176 -24.063  1.00  0.00     0.135 C 
HETATM   14  O1  UNL     1       1.334  54.266 -24.143  1.00  0.00    -0.297 OA
HETATM   15  C22 UNL     1       0.605  52.487 -22.723  1.00  0.00     0.080 C 
HETATM   16  C23 UNL     1      -0.855  52.129 -22.450  1.00  0.00     0.018 C 
HETATM   17  C24 UNL     1      -1.650  51.905 -23.732  1.00  0.00    -0.026 A 
HETATM   18  C25 UNL     1      -2.700  52.963 -24.019  1.00  0.00     0.021 A 
HETATM   19  C26 UNL     1      -3.148  51.556 -23.689  1.00  0.00    -0.027 A 
HETATM   20  C27 UNL     1      -3.870  51.411 -22.381  1.00  0.00     0.011 C 
HETATM   21  C28 UNL     1      -3.887  49.978 -21.875  1.00  0.00     0.011 C 
HETATM   22  C29 UNL     1      -3.828  48.855 -22.953  1.00  0.00    -0.032 C 
HETATM   23  C30 UNL     1      -2.391  48.299 -23.028  1.00  0.00     0.016 C 
ENDROOT
BRANCH   1  24
HETATM   24  C7  UNL     1      -5.034  47.208 -21.140  1.00  0.00    -0.014 C 
HETATM   25  C8  UNL     1      -4.291  45.903 -20.848  1.00  0.00     0.010 C 
BRANCH  24  26
HETATM   26  C6  UNL     1      -6.523  47.070 -20.721  1.00  0.00     0.008 C 
BRANCH  26  27
HETATM   27  C5  UNL     1      -7.157  48.325 -20.108  1.00  0.00     0.028 C 
BRANCH  27  28
HETATM   28  C4  UNL     1      -8.658  48.227 -20.152  1.00  0.00    -0.025 C 
HETATM   29  C2  UNL     1      -9.536  48.376 -19.140  1.00  0.00    -0.091 C 
HETATM   30  C1  UNL     1     -11.018  48.247 -19.389  1.00  0.00     0.042 C 
HETATM   31  C3  UNL     1      -9.180  48.687 -17.713  1.00  0.00     0.042 C 
ENDBRANCH  27  28
ENDBRANCH  26  27
ENDBRANCH  24  26
ENDBRANCH   1  24
TORSDOF 4
ENDMDL
MODEL 4
REMARK minimizedAffinity -9.18877888
REMARK  4 active torsions:
REMARK  status: ('A' for Active; 'I' for Inactive)
REMARK    1  A    between atoms: C4_4  and  C5_5 
REMARK    2  A    between atoms: C5_5  and  C6_6 
REMARK    3  A    between atoms: C6_6  and  C7_7 
REMARK    4  A    between atoms: C7_7  and  C9_9 
ROOT
HETATM    1  C9  UNL     1      -4.936  47.674 -22.670  1.00  0.00    -0.002 C 
HETATM    2  C10 UNL     1      -6.266  48.205 -23.253  1.00  0.00     0.006 C 
HETATM    3  C11 UNL     1      -5.929  49.375 -24.175  1.00  0.00     0.011 C 
HETATM    4  C12 UNL     1      -4.396  49.321 -24.427  1.00  0.00    -0.032 C 
HETATM    5  C13 UNL     1      -4.191  48.268 -25.553  1.00  0.00     0.016 C 
HETATM    6  C14 UNL     1      -3.876  50.758 -24.862  1.00  0.00     0.004 C 
HETATM    7  C15 UNL     1      -3.043  50.868 -26.162  1.00  0.00     0.007 C 
HETATM    8  C16 UNL     1      -1.567  50.544 -25.997  1.00  0.00     0.007 C 
HETATM    9  C17 UNL     1      -0.832  51.306 -24.884  1.00  0.00     0.010 C 
HETATM   10  C18 UNL     1       0.223  52.369 -25.335  1.00  0.00     0.018 C 
HETATM   11  C19 UNL     1       1.449  51.676 -25.959  1.00  0.00     0.023 C 
HETATM   12  C20 UNL     1      -0.321  53.398 -26.337  1.00  0.00     0.023 C 
HETATM   13  C21 UNL     1       0.720  53.118 -24.081  1.00  0.00     0.135 C 
HETATM   14  O1  UNL     1       1.296  54.205 -24.150  1.00  0.00    -0.297 OA
HETATM   15  C22 UNL     1       0.557  52.416 -22.747  1.00  0.00     0.080 C 
HETATM   16  C23 UNL     1      -0.904  52.065 -22.475  1.00  0.00     0.018 C 
HETATM   17  C24 UNL     1      -1.704  51.860 -23.758  1.00  0.00    -0.026 A 
HETATM   18  C25 UNL     1      -2.747  52.928 -24.031  1.00  0.00     0.021 A 
HETATM   19  C26 UNL     1      -3.204  51.521 -23.715  1.00  0.00    -0.027 A 
HETATM   20  C27 UNL     1      -3.924  51.368 -22.407  1.00  0.00     0.011 C 
HETATM   21  C28 UNL     1      -3.949  49.929 -21.916  1.00  0.00     0.011 C 
HETATM   22  C29 UNL     1      -3.901  48.817 -23.005  1.00  0.00    -0.032 C 
HETATM   23  C30 UNL     1      -2.468  48.253 -23.089  1.00  0.00     0.016 C 
ENDROOT
BRANCH   1  24
HETATM   24  C7  UNL     1      -5.114  47.160 -21.207  1.00  0.00    -0.014 C 
HETATM   25  C8  UNL     1      -3.992  47.600 -20.267  1.00  0.00     0.010 C 
BRANCH  24  26
HETATM   26  C6  UNL     1      -5.299  45.620 -21.123  1.00  0.00     0.008 C 
BRANCH  26  27
HETATM   27  C5  UNL     1      -6.751  45.128 -21.098  1.00  0.00     0.028 C 
BRANCH  27  28
HETATM   28  C4  UNL     1      -7.135  44.568 -22.442  1.00  0.00    -0.025 C 
HETATM   29  C2  UNL     1      -7.172  43.278 -22.831  1.00  0.00    -0.091 C 
HETATM   30  C1  UNL     1      -7.595  42.914 -24.232  1.00  0.00     0.042 C 
HETATM   31  C3  UNL     1      -6.828  42.095 -21.969  1.00  0.00     0.042 C 
ENDBRANCH  27  28
ENDBRANCH  26  27
ENDBRANCH  24  26
ENDBRANCH   1  24
TORSDOF 4
ENDMDL
MODEL 5
REMARK minimizedAffinity -9.16783714
REMARK  4 active torsions:
REMARK  status: ('A' for Active; 'I' for Inactive)
REMARK    1  A    between atoms: C4_4  and  C5_5 
REMARK    2  A    between atoms: C5_5  and  C6_6 
REMARK    3  A    between atoms: C6_6  and  C7_7 
REMARK    4  A    between atoms: C7_7  and  C9_9 
ROOT
HETATM    1  C9  UNL     1      -1.820  48.443 -18.533  1.00  0.00    -0.002 C 
HETATM    2  C10 UNL     1      -3.314  48.379 -18.140  1.00  0.00     0.006 C 
HETATM    3  C11 UNL     1      -4.129  48.794 -19.362  1.00  0.00     0.011 C 
HETATM    4  C12 UNL     1      -3.163  48.759 -20.580  1.00  0.00    -0.032 C 
HETATM    5  C13 UNL     1      -3.100  47.270 -21.024  1.00  0.00     0.016 C 
HETATM    6  C14 UNL     1      -3.724  49.695 -21.734  1.00  0.00     0.004 C 
HETATM    7  C15 UNL     1      -3.877  49.092 -23.151  1.00  0.00     0.007 C 
HETATM    8  C16 UNL     1      -2.601  49.085 -23.976  1.00  0.00     0.007 C 
HETATM    9  C17 UNL     1      -1.872  50.432 -24.099  1.00  0.00     0.010 C 
HETATM   10  C18 UNL     1      -1.886  51.117 -25.505  1.00  0.00     0.018 C 
HETATM   11  C19 UNL     1      -1.020  50.319 -26.498  1.00  0.00     0.023 C 
HETATM   12  C20 UNL     1      -3.291  51.281 -26.102  1.00  0.00     0.023 C 
HETATM   13  C21 UNL     1      -1.243  52.513 -25.368  1.00  0.00     0.135 C 
HETATM   14  O1  UNL     1      -1.403  53.395 -26.213  1.00  0.00    -0.297 OA
HETATM   15  C22 UNL     1      -0.317  52.734 -24.189  1.00  0.00     0.080 C 
HETATM   16  C23 UNL     1      -1.026  52.467 -22.863  1.00  0.00     0.018 C 
HETATM   17  C24 UNL     1      -2.159  51.456 -23.001  1.00  0.00    -0.026 A 
HETATM   18  C25 UNL     1      -3.550  52.034 -22.818  1.00  0.00     0.021 A 
HETATM   19  C26 UNL     1      -3.022  51.057 -21.791  1.00  0.00    -0.027 A 
HETATM   20  C27 UNL     1      -2.765  51.642 -20.433  1.00  0.00     0.011 C 
HETATM   21  C28 UNL     1      -1.827  50.789 -19.594  1.00  0.00     0.011 C 
HETATM   22  C29 UNL     1      -1.826  49.258 -19.884  1.00  0.00    -0.032 C 
HETATM   23  C30 UNL     1      -0.594  48.907 -20.743  1.00  0.00     0.016 C 
ENDROOT
BRANCH   1  24
HETATM   24  C7  UNL     1      -0.928  48.889 -17.333  1.00  0.00    -0.014 C 
HETATM   25  C8  UNL     1      -1.728  49.248 -16.081  1.00  0.00     0.010 C 
BRANCH  24  26
HETATM   26  C6  UNL     1       0.037  50.053 -17.692  1.00  0.00     0.008 C 
BRANCH  26  27
HETATM   27  C5  UNL     1       0.152  51.164 -16.641  1.00  0.00     0.028 C 
BRANCH  27  28
HETATM   28  C4  UNL     1       1.482  51.861 -16.763  1.00  0.00    -0.025 C 
HETATM   29  C2  UNL     1       2.447  51.989 -15.831  1.00  0.00    -0.091 C 
HETATM   30  C1  UNL     1       3.725  52.724 -16.150  1.00  0.00     0.042 C 
HETATM   31  C3  UNL     1       2.389  51.441 -14.432  1.00  0.00     0.042 C 
ENDBRANCH  27  28
ENDBRANCH  26  27
ENDBRANCH  24  26
ENDBRANCH   1  24
TORSDOF 4
ENDMDL
MODEL 6
REMARK minimizedAffinity -9.08208466
REMARK  4 active torsions:
REMARK  status: ('A' for Active; 'I' for Inactive)
REMARK    1  A    between atoms: C4_4  and  C5_5 
REMARK    2  A    between atoms: C5_5  and  C6_6 
REMARK    3  A    between atoms: C6_6  and  C7_7 
REMARK    4  A    between atoms: C7_7  and  C9_9 
ROOT
HETATM    1  C9  UNL     1      -0.737  52.555 -21.361  1.00  0.00    -0.002 C 
HETATM    2  C10 UNL     1      -0.134  52.314 -22.764  1.00  0.00     0.006 C 
HETATM    3  C11 UNL     1      -0.818  51.083 -23.353  1.00  0.00     0.011 C 
HETATM    4  C12 UNL     1      -2.068  50.800 -22.474  1.00  0.00    -0.032 C 
HETATM    5  C13 UNL     1      -3.174  51.764 -22.991  1.00  0.00     0.016 C 
HETATM    6  C14 UNL     1      -2.495  49.277 -22.627  1.00  0.00     0.004 C 
HETATM    7  C15 UNL     1      -3.966  48.967 -22.999  1.00  0.00     0.007 C 
HETATM    8  C16 UNL     1      -4.929  48.968 -21.823  1.00  0.00     0.007 C 
HETATM    9  C17 UNL     1      -4.533  48.084 -20.630  1.00  0.00     0.010 C 
HETATM   10  C18 UNL     1      -5.405  46.811 -20.375  1.00  0.00     0.018 C 
HETATM   11  C19 UNL     1      -6.808  47.211 -19.883  1.00  0.00     0.023 C 
HETATM   12  C20 UNL     1      -5.557  45.906 -21.607  1.00  0.00     0.023 C 
HETATM   13  C21 UNL     1      -4.747  45.994 -19.243  1.00  0.00     0.135 C 
HETATM   14  O1  UNL     1      -5.016  44.807 -19.048  1.00  0.00    -0.297 OA
HETATM   15  C22 UNL     1      -3.818  46.738 -18.305  1.00  0.00     0.080 C 
HETATM   16  C23 UNL     1      -2.670  47.401 -19.065  1.00  0.00     0.018 C 
HETATM   17  C24 UNL     1      -3.047  47.751 -20.501  1.00  0.00    -0.026 A 
HETATM   18  C25 UNL     1      -2.337  46.929 -21.561  1.00  0.00     0.021 A 
HETATM   19  C26 UNL     1      -2.032  48.407 -21.453  1.00  0.00    -0.027 A 
HETATM   20  C27 UNL     1      -0.642  48.735 -20.993  1.00  0.00     0.011 C 
HETATM   21  C28 UNL     1      -0.519  50.154 -20.459  1.00  0.00     0.011 C 
HETATM   22  C29 UNL     1      -1.500  51.210 -21.049  1.00  0.00    -0.032 C 
HETATM   23  C30 UNL     1      -2.648  51.450 -20.047  1.00  0.00     0.016 C 
ENDROOT
BRANCH   1  24
HETATM   24  C7  UNL     1       0.325  53.121 -20.368  1.00  0.00    -0.014 C 
HETATM   25  C8  UNL     1       1.550  53.717 -21.063  1.00  0.00     0.010 C 
BRANCH  24  26
HETATM   26  C6  UNL     1       0.777  52.083 -19.304  1.00  0.00     0.008 C 
BRANCH  26  27
HETATM   27  C5  UNL     1       0.811  52.590 -17.857  1.00  0.00     0.028 C 
BRANCH  27  28
HETATM   28  C4  UNL     1       2.234  52.731 -17.386  1.00  0.00    -0.025 C 
HETATM   29  C2  UNL     1       2.791  52.253 -16.256  1.00  0.00    -0.091 C 
HETATM   30  C1  UNL     1       4.251  52.494 -15.963  1.00  0.00     0.042 C 
HETATM   31  C3  UNL     1       2.079  51.451 -15.201  1.00  0.00     0.042 C 
ENDBRANCH  27  28
ENDBRANCH  26  27
ENDBRANCH  24  26
ENDBRANCH   1  24
TORSDOF 4
ENDMDL
MODEL 7
REMARK minimizedAffinity -8.96013641
REMARK  4 active torsions:
REMARK  status: ('A' for Active; 'I' for Inactive)
REMARK    1  A    between atoms: C4_4  and  C5_5 
REMARK    2  A    between atoms: C5_5  and  C6_6 
REMARK    3  A    between atoms: C6_6  and  C7_7 
REMARK    4  A    between atoms: C7_7  and  C9_9 
ROOT
HETATM    1  C9  UNL     1      -0.938  50.673 -22.217  1.00  0.00    -0.002 C 
HETATM    2  C10 UNL     1      -0.231  50.702 -20.842  1.00  0.00     0.006 C 
HETATM    3  C11 UNL     1      -1.032  49.811 -19.894  1.00  0.00     0.011 C 
HETATM    4  C12 UNL     1      -1.999  48.972 -20.775  1.00  0.00    -0.032 C 
HETATM    5  C13 UNL     1      -1.154  47.782 -21.312  1.00  0.00     0.016 C 
HETATM    6  C14 UNL     1      -3.226  48.476 -19.898  1.00  0.00     0.004 C 
HETATM    7  C15 UNL     1      -3.562  46.964 -19.905  1.00  0.00     0.007 C 
HETATM    8  C16 UNL     1      -4.408  46.510 -21.082  1.00  0.00     0.007 C 
HETATM    9  C17 UNL     1      -5.706  47.296 -21.320  1.00  0.00     0.010 C 
HETATM   10  C18 UNL     1      -7.048  46.547 -21.033  1.00  0.00     0.018 C 
HETATM   11  C19 UNL     1      -7.279  45.440 -22.080  1.00  0.00     0.023 C 
HETATM   12  C20 UNL     1      -7.122  45.920 -19.633  1.00  0.00     0.023 C 
HETATM   13  C21 UNL     1      -8.206  47.555 -21.183  1.00  0.00     0.135 C 
HETATM   14  O1  UNL     1      -9.325  47.345 -20.711  1.00  0.00    -0.297 OA
HETATM   15  C22 UNL     1      -7.944  48.789 -22.023  1.00  0.00     0.080 C 
HETATM   16  C23 UNL     1      -6.758  49.588 -21.488  1.00  0.00     0.018 C 
HETATM   17  C24 UNL     1      -5.751  48.713 -20.748  1.00  0.00    -0.026 A 
HETATM   18  C25 UNL     1      -5.682  48.953 -19.251  1.00  0.00     0.021 A 
HETATM   19  C26 UNL     1      -4.489  49.318 -20.108  1.00  0.00    -0.027 A 
HETATM   20  C27 UNL     1      -4.204  50.789 -20.203  1.00  0.00     0.011 C 
HETATM   21  C28 UNL     1      -3.333  51.142 -21.398  1.00  0.00     0.011 C 
HETATM   22  C29 UNL     1      -2.348  50.043 -21.895  1.00  0.00    -0.032 C 
HETATM   23  C30 UNL     1      -2.942  49.359 -23.144  1.00  0.00     0.016 C 
ENDROOT
BRANCH   1  24
HETATM   24  C7  UNL     1      -0.823  52.044 -22.951  1.00  0.00    -0.014 C 
HETATM   25  C8  UNL     1      -1.969  52.309 -23.928  1.00  0.00     0.010 C 
BRANCH  24  26
HETATM   26  C6  UNL     1       0.539  52.235 -23.674  1.00  0.00     0.008 C 
BRANCH  26  27
HETATM   27  C5  UNL     1       0.604  53.405 -24.664  1.00  0.00     0.028 C 
BRANCH  27  28
HETATM   28  C4  UNL     1       0.338  52.918 -26.064  1.00  0.00    -0.025 C 
HETATM   29  C2  UNL     1       1.106  52.120 -26.832  1.00  0.00    -0.091 C 
HETATM   30  C1  UNL     1       0.659  51.734 -28.220  1.00  0.00     0.042 C 
HETATM   31  C3  UNL     1       2.430  51.530 -26.429  1.00  0.00     0.042 C 
ENDBRANCH  27  28
ENDBRANCH  26  27
ENDBRANCH  24  26
ENDBRANCH   1  24
TORSDOF 4
ENDMDL
MODEL 8
REMARK minimizedAffinity -8.88461876
REMARK  4 active torsions:
REMARK  status: ('A' for Active; 'I' for Inactive)
REMARK    1  A    between atoms: C4_4  and  C5_5 
REMARK    2  A    between atoms: C5_5  and  C6_6 
REMARK    3  A    between atoms: C6_6  and  C7_7 
REMARK    4  A    between atoms: C7_7  and  C9_9 
ROOT
HETATM    1  C9  UNL     1      -2.928  48.086 -19.478  1.00  0.00    -0.002 C 
HETATM    2  C10 UNL     1      -4.460  48.294 -19.430  1.00  0.00     0.006 C 
HETATM    3  C11 UNL     1      -4.863  49.041 -20.700  1.00  0.00     0.011 C 
HETATM    4  C12 UNL     1      -3.650  48.966 -21.669  1.00  0.00    -0.032 C 
HETATM    5  C13 UNL     1      -3.747  47.574 -22.358  1.00  0.00     0.016 C 
HETATM    6  C14 UNL     1      -3.734  50.152 -22.722  1.00  0.00     0.004 C 
HETATM    7  C15 UNL     1      -3.639  49.798 -24.226  1.00  0.00     0.007 C 
HETATM    8  C16 UNL     1      -2.222  49.629 -24.748  1.00  0.00     0.007 C 
HETATM    9  C17 UNL     1      -1.258  50.790 -24.462  1.00  0.00     0.010 C 
HETATM   10  C18 UNL     1      -0.803  51.649 -25.687  1.00  0.00     0.018 C 
HETATM   11  C19 UNL     1       0.124  50.828 -26.603  1.00  0.00     0.023 C 
HETATM   12  C20 UNL     1      -1.966  52.195 -26.528  1.00  0.00     0.023 C 
HETATM   13  C21 UNL     1       0.025  52.840 -25.161  1.00  0.00     0.135 C 
HETATM   14  O1  UNL     1       0.237  53.845 -25.842  1.00  0.00    -0.297 OA
HETATM   15  C22 UNL     1       0.658  52.690 -23.792  1.00  0.00     0.080 C 
HETATM   16  C23 UNL     1      -0.391  52.403 -22.719  1.00  0.00     0.018 C 
HETATM   17  C24 UNL     1      -1.618  51.690 -23.280  1.00  0.00    -0.026 A 
HETATM   18  C25 UNL     1      -2.885  52.525 -23.293  1.00  0.00     0.021 A 
HETATM   19  C26 UNL     1      -2.808  51.323 -22.376  1.00  0.00    -0.027 A 
HETATM   20  C27 UNL     1      -2.792  51.645 -20.910  1.00  0.00     0.011 C 
HETATM   21  C28 UNL     1      -2.256  50.502 -20.063  1.00  0.00     0.011 C 
HETATM   22  C29 UNL     1      -2.458  49.062 -20.625  1.00  0.00    -0.032 C 
HETATM   23  C30 UNL     1      -1.135  48.575 -21.252  1.00  0.00     0.016 C 
ENDROOT
BRANCH   1  24
HETATM   24  C7  UNL     1      -2.293  48.158 -18.055  1.00  0.00    -0.014 C 
HETATM   25  C8  UNL     1      -3.233  48.740 -16.998  1.00  0.00     0.010 C 
BRANCH  24  26
HETATM   26  C6  UNL     1      -0.940  48.920 -18.031  1.00  0.00     0.008 C 
BRANCH  26  27
HETATM   27  C5  UNL     1      -0.683  49.773 -16.782  1.00  0.00     0.028 C 
BRANCH  27  28
HETATM   28  C4  UNL     1       0.282  50.885 -17.100  1.00  0.00    -0.025 C 
HETATM   29  C2  UNL     1       1.291  51.359 -16.341  1.00  0.00    -0.091 C 
HETATM   30  C1  UNL     1       2.160  52.484 -16.842  1.00  0.00     0.042 C 
HETATM   31  C3  UNL     1       1.671  50.852 -14.977  1.00  0.00     0.042 C 
ENDBRANCH  27  28
ENDBRANCH  26  27
ENDBRANCH  24  26
ENDBRANCH   1  24
TORSDOF 4
ENDMDL
MODEL 9
REMARK minimizedAffinity -8.80799675
REMARK  4 active torsions:
REMARK  status: ('A' for Active; 'I' for Inactive)
REMARK    1  A    between atoms: C4_4  and  C5_5 
REMARK    2  A    between atoms: C5_5  and  C6_6 
REMARK    3  A    between atoms: C6_6  and  C7_7 
REMARK    4  A    between atoms: C7_7  and  C9_9 
ROOT
HETATM    1  C9  UNL     1      -3.601  50.936 -25.390  1.00  0.00    -0.002 C 
HETATM    2  C10 UNL     1      -3.012  49.748 -26.186  1.00  0.00     0.006 C 
HETATM    3  C11 UNL     1      -3.025  48.527 -25.268  1.00  0.00     0.011 C 
HETATM    4  C12 UNL     1      -3.938  48.882 -24.062  1.00  0.00    -0.032 C 
HETATM    5  C13 UNL     1      -5.395  48.634 -24.549  1.00  0.00     0.016 C 
HETATM    6  C14 UNL     1      -3.567  47.961 -22.822  1.00  0.00     0.004 C 
HETATM    7  C15 UNL     1      -4.708  47.176 -22.130  1.00  0.00     0.007 C 
HETATM    8  C16 UNL     1      -5.499  47.978 -21.111  1.00  0.00     0.007 C 
HETATM    9  C17 UNL     1      -4.674  48.690 -20.028  1.00  0.00     0.010 C 
HETATM   10  C18 UNL     1      -4.796  48.137 -18.570  1.00  0.00     0.018 C 
HETATM   11  C19 UNL     1      -6.194  48.436 -17.998  1.00  0.00     0.023 C 
HETATM   12  C20 UNL     1      -4.531  46.628 -18.454  1.00  0.00     0.023 C 
HETATM   13  C21 UNL     1      -3.778  48.884 -17.684  1.00  0.00     0.135 C 
HETATM   14  O1  UNL     1      -3.420  48.452 -16.587  1.00  0.00    -0.297 OA
HETATM   15  C22 UNL     1      -3.299  50.237 -18.172  1.00  0.00     0.080 C 
HETATM   16  C23 UNL     1      -2.656  50.137 -19.555  1.00  0.00     0.018 C 
HETATM   17  C24 UNL     1      -3.213  48.976 -20.373  1.00  0.00    -0.026 A 
HETATM   18  C25 UNL     1      -2.232  47.843 -20.613  1.00  0.00     0.021 A 
HETATM   19  C26 UNL     1      -2.690  48.678 -21.789  1.00  0.00    -0.027 A 
HETATM   20  C27 UNL     1      -1.624  49.530 -22.414  1.00  0.00     0.011 C 
HETATM   21  C28 UNL     1      -2.194  50.664 -23.250  1.00  0.00     0.011 C 
HETATM   22  C29 UNL     1      -3.591  50.422 -23.897  1.00  0.00    -0.032 C 
HETATM   23  C30 UNL     1      -4.668  51.144 -23.061  1.00  0.00     0.016 C 
ENDROOT
BRANCH   1  24
HETATM   24  C7  UNL     1      -2.917  52.283 -25.777  1.00  0.00    -0.014 C 
HETATM   25  C8  UNL     1      -2.564  52.381 -27.261  1.00  0.00     0.010 C 
BRANCH  24  26
HETATM   26  C6  UNL     1      -1.662  52.598 -24.916  1.00  0.00     0.008 C 
BRANCH  26  27
HETATM   27  C5  UNL     1      -0.529  53.334 -25.642  1.00  0.00     0.028 C 
BRANCH  27  28
HETATM   28  C4  UNL     1       0.731  52.511 -25.612  1.00  0.00    -0.025 C 
HETATM   29  C2  UNL     1       1.354  51.897 -26.637  1.00  0.00    -0.091 C 
HETATM   30  C1  UNL     1       2.624  51.117 -26.404  1.00  0.00     0.042 C 
HETATM   31  C3  UNL     1       0.901  51.914 -28.071  1.00  0.00     0.042 C 
ENDBRANCH  27  28
ENDBRANCH  26  27
ENDBRANCH  24  26
ENDBRANCH   1  24
TORSDOF 4
ENDMDL
