MODEL 1
REMARK minimizedAffinity -8.63814735
REMARK  13 active torsions:
REMARK  status: ('A' for Active; 'I' for Inactive)
REMARK    1  A    between atoms: C4_4  and  C5_5 
REMARK    2  A    between atoms: C5_5  and  C6_6 
REMARK    3  A    between atoms: C6_6  and  C7_7 
REMARK    4  A    between atoms: C7_7  and  O1_9 
REMARK    5  A    between atoms: C7_7  and  C9_10 
REMARK    6  A    between atoms: C9_10  and  O2_11 
REMARK    7  A    between atoms: C9_10  and  C10_12 
REMARK    8  A    between atoms: C10_12  and  C11_13 
REMARK    9  A    between atoms: C11_13  and  C12_14 
REMARK   10  A    between atoms: C14_16  and  C15_17 
REMARK   11  A    between atoms: C15_17  and  C16_18 
REMARK   12  A    between atoms: C16_18  and  C17_19 
REMARK   13  A    between atoms: C23_25  and  O3_26 
ROOT
HETATM    1  C12 UNL     1      -3.786   3.899  11.741  1.00  0.00    -0.087 C 
HETATM    2  C13 UNL     1      -3.248   3.570  10.372  1.00  0.00     0.043 C 
HETATM    3  C14 UNL     1      -3.213   4.773  12.596  1.00  0.00    -0.024 C 
ENDROOT
BRANCH   1   4
HETATM    4  C11 UNL     1      -5.039   3.112  12.108  1.00  0.00     0.036 C 
BRANCH   4   5
HETATM    5  C10 UNL     1      -6.366   3.864  12.249  1.00  0.00     0.039 C 
BRANCH   5   6
HETATM    6  C9  UNL     1      -7.131   3.714  13.575  1.00  0.00     0.152 C 
BRANCH   6   7
HETATM    7  C7  UNL     1      -7.435   4.994  14.422  1.00  0.00     0.080 C 
HETATM    8  C8  UNL     1      -6.176   5.805  14.735  1.00  0.00     0.048 C 
BRANCH   7   9
HETATM    9  C6  UNL     1      -8.546   5.862  13.781  1.00  0.00     0.044 C 
BRANCH   9  10
HETATM   10  C5  UNL     1      -8.975   7.124  14.547  1.00  0.00     0.030 C 
BRANCH  10  11
HETATM   11  C4  UNL     1     -10.425   7.140  14.942  1.00  0.00    -0.025 C 
HETATM   12  C2  UNL     1     -11.491   7.392  14.157  1.00  0.00    -0.091 C 
HETATM   13  C1  UNL     1     -11.434   7.665  12.680  1.00  0.00     0.042 C 
HETATM   14  C3  UNL     1     -12.882   7.398  14.736  1.00  0.00     0.042 C 
ENDBRANCH  10  11
ENDBRANCH   9  10
ENDBRANCH   7   9
BRANCH   7  15
HETATM   15  O1  UNL     1      -7.906   4.507  15.696  1.00  0.00    -0.388 OA
HETATM   16  H15 UNL     1      -8.546   3.802  15.465  1.00  0.00     0.210 HD
ENDBRANCH   7  15
ENDBRANCH   6   7
BRANCH   6  17
HETATM   17  O2  UNL     1      -8.416   3.128  13.245  1.00  0.00    -0.393 OA
HETATM   18  H17 UNL     1      -8.238   2.253  12.856  1.00  0.00     0.210 HD
ENDBRANCH   6  17
ENDBRANCH   5   6
ENDBRANCH   4   5
ENDBRANCH   1   4
BRANCH   3  19
HETATM   19  C15 UNL     1      -1.994   5.669  12.518  1.00  0.00     0.030 C 
BRANCH  19  20
HETATM   20  C16 UNL     1      -2.108   7.145  12.896  1.00  0.00     0.042 C 
BRANCH  20  21
HETATM   21  C17 UNL     1      -0.820   8.009  12.779  1.00  0.00     0.065 C 
HETATM   22  C18 UNL     1      -1.219   9.438  13.221  1.00  0.00     0.046 C 
HETATM   23  C19 UNL     1       0.344   7.573  13.686  1.00  0.00     0.043 C 
HETATM   24  C20 UNL     1       1.160   6.421  13.135  1.00  0.00     0.044 C 
HETATM   25  C21 UNL     1       1.383   6.580  11.665  1.00  0.00    -0.021 A 
HETATM   26  C22 UNL     1       2.407   5.851  11.045  1.00  0.00     0.046 A 
HETATM   27  C27 UNL     1       0.575   7.417  10.891  1.00  0.00     0.082 A 
HETATM   28  C23 UNL     1       2.630   5.982   9.679  1.00  0.00     0.066 A 
HETATM   29  C24 UNL     1       1.840   6.822   8.905  1.00  0.00     0.046 A 
HETATM   30  C25 UNL     1       0.801   7.547   9.507  1.00  0.00    -0.025 A 
HETATM   31  C26 UNL     1      -0.064   8.449   8.672  1.00  0.00     0.051 C 
HETATM   32  O4  UNL     1      -0.461   8.151  11.398  1.00  0.00    -0.340 OA
BRANCH  28  33
HETATM   33  O3  UNL     1       3.652   5.261   9.131  1.00  0.00    -0.361 OA
HETATM   34  H38 UNL     1       3.699   5.466   8.184  1.00  0.00     0.217 HD
ENDBRANCH  28  33
ENDBRANCH  20  21
ENDBRANCH  19  20
ENDBRANCH   3  19
TORSDOF 13
ENDMDL
MODEL 2
REMARK minimizedAffinity -8.62855434
REMARK  13 active torsions:
REMARK  status: ('A' for Active; 'I' for Inactive)
REMARK    1  A    between atoms: C4_4  and  C5_5 
REMARK    2  A    between atoms: C5_5  and  C6_6 
REMARK    3  A    between atoms: C6_6  and  C7_7 
REMARK    4  A    between atoms: C7_7  and  O1_9 
REMARK    5  A    between atoms: C7_7  and  C9_10 
REMARK    6  A    between atoms: C9_10  and  O2_11 
REMARK    7  A    between atoms: C9_10  and  C10_12 
REMARK    8  A    between atoms: C10_12  and  C11_13 
REMARK    9  A    between atoms: C11_13  and  C12_14 
REMARK   10  A    between atoms: C14_16  and  C15_17 
REMARK   11  A    between atoms: C15_17  and  C16_18 
REMARK   12  A    between atoms: C16_18  and  C17_19 
REMARK   13  A    between atoms: C23_25  and  O3_26 
ROOT
HETATM    1  C12 UNL     1      -1.877   7.705  12.589  1.00  0.00    -0.087 C 
HETATM    2  C13 UNL     1      -1.508   9.043  12.001  1.00  0.00     0.043 C 
HETATM    3  C14 UNL     1      -3.113   7.380  13.028  1.00  0.00    -0.024 C 
ENDROOT
BRANCH   1   4
HETATM    4  C11 UNL     1      -0.703   6.739  12.692  1.00  0.00     0.036 C 
BRANCH   4   5
HETATM    5  C10 UNL     1       0.554   7.018  11.863  1.00  0.00     0.039 C 
BRANCH   5   6
HETATM    6  C9  UNL     1       0.579   6.499  10.415  1.00  0.00     0.152 C 
BRANCH   6   7
HETATM    7  C7  UNL     1       1.573   7.150   9.396  1.00  0.00     0.080 C 
HETATM    8  C8  UNL     1       0.876   8.098   8.418  1.00  0.00     0.048 C 
BRANCH   7   9
HETATM    9  C6  UNL     1       2.775   7.821  10.106  1.00  0.00     0.044 C 
BRANCH   9  10
HETATM   10  C5  UNL     1       4.016   6.950  10.353  1.00  0.00     0.030 C 
BRANCH  10  11
HETATM   11  C4  UNL     1       4.676   7.184  11.684  1.00  0.00    -0.025 C 
HETATM   12  C2  UNL     1       5.942   6.889  12.039  1.00  0.00    -0.091 C 
HETATM   13  C1  UNL     1       6.982   6.296  11.129  1.00  0.00     0.042 C 
HETATM   14  C3  UNL     1       6.426   7.166  13.438  1.00  0.00     0.042 C 
ENDBRANCH  10  11
ENDBRANCH   9  10
ENDBRANCH   7   9
BRANCH   7  15
HETATM   15  O1  UNL     1       2.063   6.058   8.590  1.00  0.00    -0.388 OA
HETATM   16  H15 UNL     1       2.280   5.356   9.238  1.00  0.00     0.210 HD
ENDBRANCH   7  15
ENDBRANCH   6   7
BRANCH   6  17
HETATM   17  O2  UNL     1       0.930   5.094  10.486  1.00  0.00    -0.393 OA
HETATM   18  H17 UNL     1       0.226   4.650  10.992  1.00  0.00     0.210 HD
ENDBRANCH   6  17
ENDBRANCH   5   6
ENDBRANCH   4   5
ENDBRANCH   1   4
BRANCH   3  19
HETATM   19  C15 UNL     1      -4.437   8.114  13.065  1.00  0.00     0.030 C 
BRANCH  19  20
HETATM   20  C16 UNL     1      -5.705   7.376  13.493  1.00  0.00     0.042 C 
BRANCH  20  21
HETATM   21  C17 UNL     1      -5.523   6.076  14.327  1.00  0.00     0.065 C 
HETATM   22  C18 UNL     1      -4.707   6.478  15.580  1.00  0.00     0.046 C 
HETATM   23  C19 UNL     1      -6.826   5.436  14.833  1.00  0.00     0.043 C 
HETATM   24  C20 UNL     1      -7.539   4.583  13.802  1.00  0.00     0.044 C 
HETATM   25  C21 UNL     1      -6.562   3.762  13.023  1.00  0.00    -0.021 A 
HETATM   26  C22 UNL     1      -7.022   2.650  12.303  1.00  0.00     0.046 A 
HETATM   27  C27 UNL     1      -5.206   4.095  12.973  1.00  0.00     0.082 A 
HETATM   28  C23 UNL     1      -6.132   1.875  11.570  1.00  0.00     0.066 A 
HETATM   29  C24 UNL     1      -4.780   2.191  11.526  1.00  0.00     0.046 A 
HETATM   30  C25 UNL     1      -4.305   3.309  12.228  1.00  0.00    -0.025 A 
HETATM   31  C26 UNL     1      -2.845   3.662  12.174  1.00  0.00     0.051 C 
HETATM   32  O4  UNL     1      -4.664   5.169  13.620  1.00  0.00    -0.340 OA
BRANCH  28  33
HETATM   33  O3  UNL     1      -6.633   0.794  10.903  1.00  0.00    -0.361 OA
HETATM   34  H38 UNL     1      -5.899   0.343  10.455  1.00  0.00     0.217 HD
ENDBRANCH  28  33
ENDBRANCH  20  21
ENDBRANCH  19  20
ENDBRANCH   3  19
TORSDOF 13
ENDMDL
MODEL 3
REMARK minimizedAffinity -8.62152958
REMARK  13 active torsions:
REMARK  status: ('A' for Active; 'I' for Inactive)
REMARK    1  A    between atoms: C4_4  and  C5_5 
REMARK    2  A    between atoms: C5_5  and  C6_6 
REMARK    3  A    between atoms: C6_6  and  C7_7 
REMARK    4  A    between atoms: C7_7  and  O1_9 
REMARK    5  A    between atoms: C7_7  and  C9_10 
REMARK    6  A    between atoms: C9_10  and  O2_11 
REMARK    7  A    between atoms: C9_10  and  C10_12 
REMARK    8  A    between atoms: C10_12  and  C11_13 
REMARK    9  A    between atoms: C11_13  and  C12_14 
REMARK   10  A    between atoms: C14_16  and  C15_17 
REMARK   11  A    between atoms: C15_17  and  C16_18 
REMARK   12  A    between atoms: C16_18  and  C17_19 
REMARK   13  A    between atoms: C23_25  and  O3_26 
ROOT
HETATM    1  C12 UNL     1      -1.952   9.034  13.225  1.00  0.00    -0.087 C 
HETATM    2  C13 UNL     1      -1.821  10.326  13.989  1.00  0.00     0.043 C 
HETATM    3  C14 UNL     1      -3.112   8.362  13.058  1.00  0.00    -0.024 C 
ENDROOT
BRANCH   1   4
HETATM    4  C11 UNL     1      -0.628   8.511  12.678  1.00  0.00     0.036 C 
BRANCH   4   5
HETATM    5  C10 UNL     1      -0.182   7.097  13.060  1.00  0.00     0.039 C 
BRANCH   5   6
HETATM    6  C9  UNL     1       0.428   6.221  11.953  1.00  0.00     0.152 C 
BRANCH   6   7
HETATM    7  C7  UNL     1       1.888   6.516  11.474  1.00  0.00     0.080 C 
HETATM    8  C8  UNL     1       2.496   5.352  10.688  1.00  0.00     0.048 C 
BRANCH   7   9
HETATM    9  C6  UNL     1       1.986   7.857  10.703  1.00  0.00     0.044 C 
BRANCH   9  10
HETATM   10  C5  UNL     1       3.203   8.046   9.783  1.00  0.00     0.030 C 
BRANCH  10  11
HETATM   11  C4  UNL     1       2.955   7.664   8.350  1.00  0.00    -0.025 C 
HETATM   12  C2  UNL     1       1.795   7.735   7.667  1.00  0.00    -0.091 C 
HETATM   13  C1  UNL     1       0.500   8.273   8.211  1.00  0.00     0.042 C 
HETATM   14  C3  UNL     1       1.723   7.273   6.235  1.00  0.00     0.042 C 
ENDBRANCH  10  11
ENDBRANCH   9  10
ENDBRANCH   7   9
BRANCH   7  15
HETATM   15  O1  UNL     1       2.674   6.618  12.680  1.00  0.00    -0.388 OA
HETATM   16  H15 UNL     1       2.136   7.184  13.273  1.00  0.00     0.210 HD
ENDBRANCH   7  15
ENDBRANCH   6   7
BRANCH   6  17
HETATM   17  O2  UNL     1       0.431   4.862  12.458  1.00  0.00    -0.393 OA
HETATM   18  H17 UNL     1      -0.498   4.614  12.612  1.00  0.00     0.210 HD
ENDBRANCH   6  17
ENDBRANCH   5   6
ENDBRANCH   4   5
ENDBRANCH   1   4
BRANCH   3  19
HETATM   19  C15 UNL     1      -4.542   8.620  13.482  1.00  0.00     0.030 C 
BRANCH  19  20
HETATM   20  C16 UNL     1      -5.582   7.505  13.373  1.00  0.00     0.042 C 
BRANCH  20  21
HETATM   21  C17 UNL     1      -5.348   6.229  14.232  1.00  0.00     0.065 C 
HETATM   22  C18 UNL     1      -4.465   6.670  15.424  1.00  0.00     0.046 C 
HETATM   23  C19 UNL     1      -6.618   5.601  14.829  1.00  0.00     0.043 C 
HETATM   24  C20 UNL     1      -7.385   4.717  13.865  1.00  0.00     0.044 C 
HETATM   25  C21 UNL     1      -6.449   3.877  13.055  1.00  0.00    -0.021 A 
HETATM   26  C22 UNL     1      -6.946   2.744  12.395  1.00  0.00     0.046 A 
HETATM   27  C27 UNL     1      -5.100   4.211  12.919  1.00  0.00     0.082 A 
HETATM   28  C23 UNL     1      -6.095   1.950  11.635  1.00  0.00     0.066 A 
HETATM   29  C24 UNL     1      -4.749   2.268  11.505  1.00  0.00     0.046 A 
HETATM   30  C25 UNL     1      -4.240   3.406  12.147  1.00  0.00    -0.025 A 
HETATM   31  C26 UNL     1      -2.786   3.761  12.000  1.00  0.00     0.051 C 
HETATM   32  O4  UNL     1      -4.527   5.305  13.504  1.00  0.00    -0.340 OA
BRANCH  28  33
HETATM   33  O3  UNL     1      -6.628   0.849  11.027  1.00  0.00    -0.361 OA
HETATM   34  H38 UNL     1      -5.919   0.387  10.552  1.00  0.00     0.217 HD
ENDBRANCH  28  33
ENDBRANCH  20  21
ENDBRANCH  19  20
ENDBRANCH   3  19
TORSDOF 13
ENDMDL
MODEL 4
REMARK minimizedAffinity -8.50820446
REMARK  13 active torsions:
REMARK  status: ('A' for Active; 'I' for Inactive)
REMARK    1  A    between atoms: C4_4  and  C5_5 
REMARK    2  A    between atoms: C5_5  and  C6_6 
REMARK    3  A    between atoms: C6_6  and  C7_7 
REMARK    4  A    between atoms: C7_7  and  O1_9 
REMARK    5  A    between atoms: C7_7  and  C9_10 
REMARK    6  A    between atoms: C9_10  and  O2_11 
REMARK    7  A    between atoms: C9_10  and  C10_12 
REMARK    8  A    between atoms: C10_12  and  C11_13 
REMARK    9  A    between atoms: C11_13  and  C12_14 
REMARK   10  A    between atoms: C14_16  and  C15_17 
REMARK   11  A    between atoms: C15_17  and  C16_18 
REMARK   12  A    between atoms: C16_18  and  C17_19 
REMARK   13  A    between atoms: C23_25  and  O3_26 
ROOT
HETATM    1  C12 UNL     1      -1.759   5.135  12.497  1.00  0.00    -0.087 C 
HETATM    2  C13 UNL     1      -2.675   5.096  13.693  1.00  0.00     0.043 C 
HETATM    3  C14 UNL     1      -0.538   5.715  12.490  1.00  0.00    -0.024 C 
ENDROOT
BRANCH   1   4
HETATM    4  C11 UNL     1      -2.355   4.489  11.251  1.00  0.00     0.036 C 
BRANCH   4   5
HETATM    5  C10 UNL     1      -2.292   2.965  11.111  1.00  0.00     0.039 C 
BRANCH   5   6
HETATM    6  C9  UNL     1      -3.433   2.147  11.738  1.00  0.00     0.152 C 
BRANCH   6   7
HETATM    7  C7  UNL     1      -4.908   2.466  11.325  1.00  0.00     0.080 C 
HETATM    8  C8  UNL     1      -5.795   1.220  11.302  1.00  0.00     0.048 C 
BRANCH   7   9
HETATM    9  C6  UNL     1      -5.518   3.602  12.183  1.00  0.00     0.044 C 
BRANCH   9  10
HETATM   10  C5  UNL     1      -7.011   3.493  12.528  1.00  0.00     0.030 C 
BRANCH  10  11
HETATM   11  C4  UNL     1      -7.351   3.916  13.930  1.00  0.00    -0.025 C 
HETATM   12  C2  UNL     1      -7.367   5.167  14.433  1.00  0.00    -0.091 C 
HETATM   13  C1  UNL     1      -7.087   6.419  13.649  1.00  0.00     0.042 C 
HETATM   14  C3  UNL     1      -7.702   5.403  15.882  1.00  0.00     0.042 C 
ENDBRANCH  10  11
ENDBRANCH   9  10
ENDBRANCH   7   9
BRANCH   7  15
HETATM   15  O1  UNL     1      -4.834   2.911   9.955  1.00  0.00    -0.388 OA
HETATM   16  H15 UNL     1      -4.083   3.540   9.944  1.00  0.00     0.210 HD
ENDBRANCH   7  15
ENDBRANCH   6   7
BRANCH   6  17
HETATM   17  O2  UNL     1      -3.197   0.763  11.371  1.00  0.00    -0.393 OA
HETATM   18  H17 UNL     1      -2.342   0.507  11.762  1.00  0.00     0.210 HD
ENDBRANCH   6  17
ENDBRANCH   5   6
ENDBRANCH   4   5
ENDBRANCH   1   4
BRANCH   3  19
HETATM   19  C15 UNL     1       0.290   6.423  13.540  1.00  0.00     0.030 C 
BRANCH  19  20
HETATM   20  C16 UNL     1       1.796   6.586  13.340  1.00  0.00     0.042 C 
BRANCH  20  21
HETATM   21  C17 UNL     1       2.278   7.852  12.573  1.00  0.00     0.065 C 
HETATM   22  C18 UNL     1       2.268   9.008  13.602  1.00  0.00     0.046 C 
HETATM   23  C19 UNL     1       3.708   7.770  12.011  1.00  0.00     0.043 C 
HETATM   24  C20 UNL     1       3.814   7.027  10.694  1.00  0.00     0.044 C 
HETATM   25  C21 UNL     1       2.678   7.382   9.789  1.00  0.00    -0.021 A 
HETATM   26  C22 UNL     1       2.786   7.112   8.417  1.00  0.00     0.046 A 
HETATM   27  C27 UNL     1       1.501   7.950  10.283  1.00  0.00     0.082 A 
HETATM   28  C23 UNL     1       1.742   7.432   7.558  1.00  0.00     0.066 A 
HETATM   29  C24 UNL     1       0.574   8.009   8.039  1.00  0.00     0.046 A 
HETATM   30  C25 UNL     1       0.443   8.272   9.411  1.00  0.00    -0.025 A 
HETATM   31  C26 UNL     1      -0.824   8.886   9.939  1.00  0.00     0.051 C 
HETATM   32  O4  UNL     1       1.291   8.230  11.604  1.00  0.00    -0.340 OA
BRANCH  28  33
HETATM   33  O3  UNL     1       1.908   7.163   6.230  1.00  0.00    -0.361 OA
HETATM   34  H38 UNL     1       1.113   7.454   5.756  1.00  0.00     0.217 HD
ENDBRANCH  28  33
ENDBRANCH  20  21
ENDBRANCH  19  20
ENDBRANCH   3  19
TORSDOF 13
ENDMDL
MODEL 5
REMARK minimizedAffinity -8.45149422
REMARK  13 active torsions:
REMARK  status: ('A' for Active; 'I' for Inactive)
REMARK    1  A    between atoms: C4_4  and  C5_5 
REMARK    2  A    between atoms: C5_5  and  C6_6 
REMARK    3  A    between atoms: C6_6  and  C7_7 
REMARK    4  A    between atoms: C7_7  and  O1_9 
REMARK    5  A    between atoms: C7_7  and  C9_10 
REMARK    6  A    between atoms: C9_10  and  O2_11 
REMARK    7  A    between atoms: C9_10  and  C10_12 
REMARK    8  A    between atoms: C10_12  and  C11_13 
REMARK    9  A    between atoms: C11_13  and  C12_14 
REMARK   10  A    between atoms: C14_16  and  C15_17 
REMARK   11  A    between atoms: C15_17  and  C16_18 
REMARK   12  A    between atoms: C16_18  and  C17_19 
REMARK   13  A    between atoms: C23_25  and  O3_26 
ROOT
HETATM    1  C12 UNL     1      -1.014   5.083  12.365  1.00  0.00    -0.087 C 
HETATM    2  C13 UNL     1      -0.783   5.446  13.809  1.00  0.00     0.043 C 
HETATM    3  C14 UNL     1      -0.049   5.067  11.420  1.00  0.00    -0.024 C 
ENDROOT
BRANCH   1   4
HETATM    4  C11 UNL     1      -2.470   4.771  12.039  1.00  0.00     0.036 C 
BRANCH   4   5
HETATM    5  C10 UNL     1      -2.784   3.550  11.170  1.00  0.00     0.039 C 
BRANCH   5   6
HETATM    6  C9  UNL     1      -3.799   2.531  11.716  1.00  0.00     0.152 C 
BRANCH   6   7
HETATM    7  C7  UNL     1      -5.268   2.565  11.178  1.00  0.00     0.080 C 
HETATM    8  C8  UNL     1      -5.964   1.207  11.284  1.00  0.00     0.048 C 
BRANCH   7   9
HETATM    9  C6  UNL     1      -6.097   3.700  11.828  1.00  0.00     0.044 C 
BRANCH   9  10
HETATM   10  C5  UNL     1      -6.837   3.365  13.133  1.00  0.00     0.030 C 
BRANCH  10  11
HETATM   11  C4  UNL     1      -7.458   4.556  13.810  1.00  0.00    -0.025 C 
HETATM   12  C2  UNL     1      -6.830   5.620  14.348  1.00  0.00    -0.091 C 
HETATM   13  C1  UNL     1      -5.344   5.849  14.329  1.00  0.00     0.042 C 
HETATM   14  C3  UNL     1      -7.619   6.713  15.021  1.00  0.00     0.042 C 
ENDBRANCH  10  11
ENDBRANCH   9  10
ENDBRANCH   7   9
BRANCH   7  15
HETATM   15  O1  UNL     1      -5.152   2.829   9.764  1.00  0.00    -0.388 OA
HETATM   16  H15 UNL     1      -4.499   3.558   9.706  1.00  0.00     0.210 HD
ENDBRANCH   7  15
ENDBRANCH   6   7
BRANCH   6  17
HETATM   17  O2  UNL     1      -3.276   1.217  11.394  1.00  0.00    -0.393 OA
HETATM   18  H17 UNL     1      -2.425   1.128  11.858  1.00  0.00     0.210 HD
ENDBRANCH   6  17
ENDBRANCH   5   6
ENDBRANCH   4   5
ENDBRANCH   1   4
BRANCH   3  19
HETATM   19  C15 UNL     1       1.442   5.334  11.440  1.00  0.00     0.030 C 
BRANCH  19  20
HETATM   20  C16 UNL     1       2.148   5.809  10.171  1.00  0.00     0.042 C 
BRANCH  20  21
HETATM   21  C17 UNL     1       2.899   7.170  10.244  1.00  0.00     0.065 C 
HETATM   22  C18 UNL     1       2.976   7.696   8.790  1.00  0.00     0.046 C 
HETATM   23  C19 UNL     1       2.198   8.259  11.073  1.00  0.00     0.043 C 
HETATM   24  C20 UNL     1       2.426   8.143  12.567  1.00  0.00     0.044 C 
HETATM   25  C21 UNL     1       3.846   7.781  12.863  1.00  0.00    -0.021 A 
HETATM   26  C22 UNL     1       4.352   7.994  14.153  1.00  0.00     0.046 A 
HETATM   27  C27 UNL     1       4.671   7.210  11.891  1.00  0.00     0.082 A 
HETATM   28  C23 UNL     1       5.668   7.663  14.452  1.00  0.00     0.066 A 
HETATM   29  C24 UNL     1       6.500   7.108  13.487  1.00  0.00     0.046 A 
HETATM   30  C25 UNL     1       6.005   6.874  12.195  1.00  0.00    -0.025 A 
HETATM   31  C26 UNL     1       6.897   6.263  11.151  1.00  0.00     0.051 C 
HETATM   32  O4  UNL     1       4.266   6.944  10.614  1.00  0.00    -0.340 OA
BRANCH  28  33
HETATM   33  O3  UNL     1       6.113   7.907  15.719  1.00  0.00    -0.361 OA
HETATM   34  H38 UNL     1       7.046   7.645  15.773  1.00  0.00     0.217 HD
ENDBRANCH  28  33
ENDBRANCH  20  21
ENDBRANCH  19  20
ENDBRANCH   3  19
TORSDOF 13
ENDMDL
MODEL 6
REMARK minimizedAffinity -8.42221451
REMARK  13 active torsions:
REMARK  status: ('A' for Active; 'I' for Inactive)
REMARK    1  A    between atoms: C4_4  and  C5_5 
REMARK    2  A    between atoms: C5_5  and  C6_6 
REMARK    3  A    between atoms: C6_6  and  C7_7 
REMARK    4  A    between atoms: C7_7  and  O1_9 
REMARK    5  A    between atoms: C7_7  and  C9_10 
REMARK    6  A    between atoms: C9_10  and  O2_11 
REMARK    7  A    between atoms: C9_10  and  C10_12 
REMARK    8  A    between atoms: C10_12  and  C11_13 
REMARK    9  A    between atoms: C11_13  and  C12_14 
REMARK   10  A    between atoms: C14_16  and  C15_17 
REMARK   11  A    between atoms: C15_17  and  C16_18 
REMARK   12  A    between atoms: C16_18  and  C17_19 
REMARK   13  A    between atoms: C23_25  and  O3_26 
ROOT
HETATM    1  C12 UNL     1      -0.560   5.078  12.259  1.00  0.00    -0.087 C 
HETATM    2  C13 UNL     1      -0.566   4.792  13.739  1.00  0.00     0.043 C 
HETATM    3  C14 UNL     1      -0.934   4.193  11.310  1.00  0.00    -0.024 C 
ENDROOT
BRANCH   1   4
HETATM    4  C11 UNL     1      -0.042   6.469  11.909  1.00  0.00     0.036 C 
BRANCH   4   5
HETATM    5  C10 UNL     1       1.179   6.590  10.994  1.00  0.00     0.039 C 
BRANCH   5   6
HETATM    6  C9  UNL     1       2.567   6.593  11.657  1.00  0.00     0.152 C 
BRANCH   6   7
HETATM    7  C7  UNL     1       3.833   6.383  10.762  1.00  0.00     0.080 C 
HETATM    8  C8  UNL     1       3.630   5.302   9.699  1.00  0.00     0.048 C 
BRANCH   7   9
HETATM    9  C6  UNL     1       4.341   7.714  10.154  1.00  0.00     0.044 C 
BRANCH   9  10
HETATM   10  C5  UNL     1       3.323   8.555   9.367  1.00  0.00     0.030 C 
BRANCH  10  11
HETATM   11  C4  UNL     1       2.963   7.985   8.024  1.00  0.00    -0.025 C 
HETATM   12  C2  UNL     1       1.732   7.815   7.503  1.00  0.00    -0.091 C 
HETATM   13  C1  UNL     1       0.446   8.223   8.168  1.00  0.00     0.042 C 
HETATM   14  C3  UNL     1       1.557   7.191   6.143  1.00  0.00     0.042 C 
ENDBRANCH  10  11
ENDBRANCH   9  10
ENDBRANCH   7   9
BRANCH   7  15
HETATM   15  O1  UNL     1       4.846   5.864  11.649  1.00  0.00    -0.388 OA
HETATM   16  H15 UNL     1       4.790   6.435  12.444  1.00  0.00     0.210 HD
ENDBRANCH   7  15
ENDBRANCH   6   7
BRANCH   6  17
HETATM   17  O2  UNL     1       2.721   7.892  12.284  1.00  0.00    -0.393 OA
HETATM   18  H17 UNL     1       2.023   7.966  12.959  1.00  0.00     0.210 HD
ENDBRANCH   6  17
ENDBRANCH   5   6
ENDBRANCH   4   5
ENDBRANCH   1   4
BRANCH   3  19
HETATM   19  C15 UNL     1      -1.465   2.776  11.351  1.00  0.00     0.030 C 
BRANCH  19  20
HETATM   20  C16 UNL     1      -2.883   2.508  11.854  1.00  0.00     0.042 C 
BRANCH  20  21
HETATM   21  C17 UNL     1      -4.032   3.339  11.215  1.00  0.00     0.065 C 
HETATM   22  C18 UNL     1      -3.520   3.781   9.822  1.00  0.00     0.046 C 
HETATM   23  C19 UNL     1      -5.343   2.570  10.981  1.00  0.00     0.043 C 
HETATM   24  C20 UNL     1      -6.219   2.450  12.212  1.00  0.00     0.044 C 
HETATM   25  C21 UNL     1      -6.237   3.733  12.980  1.00  0.00    -0.021 A 
HETATM   26  C22 UNL     1      -7.258   3.957  13.914  1.00  0.00     0.046 A 
HETATM   27  C27 UNL     1      -5.243   4.700  12.807  1.00  0.00     0.082 A 
HETATM   28  C23 UNL     1      -7.293   5.142  14.640  1.00  0.00     0.066 A 
HETATM   29  C24 UNL     1      -6.316   6.114  14.465  1.00  0.00     0.046 A 
HETATM   30  C25 UNL     1      -5.279   5.899  13.546  1.00  0.00    -0.025 A 
HETATM   31  C26 UNL     1      -4.214   6.944  13.360  1.00  0.00     0.051 C 
HETATM   32  O4  UNL     1      -4.197   4.566  11.939  1.00  0.00    -0.340 OA
BRANCH  28  33
HETATM   33  O3  UNL     1      -8.319   5.314  15.524  1.00  0.00    -0.361 OA
HETATM   34  H38 UNL     1      -8.222   6.186  15.940  1.00  0.00     0.217 HD
ENDBRANCH  28  33
ENDBRANCH  20  21
ENDBRANCH  19  20
ENDBRANCH   3  19
TORSDOF 13
ENDMDL
MODEL 7
REMARK minimizedAffinity -8.40037441
REMARK  13 active torsions:
REMARK  status: ('A' for Active; 'I' for Inactive)
REMARK    1  A    between atoms: C4_4  and  C5_5 
REMARK    2  A    between atoms: C5_5  and  C6_6 
REMARK    3  A    between atoms: C6_6  and  C7_7 
REMARK    4  A    between atoms: C7_7  and  O1_9 
REMARK    5  A    between atoms: C7_7  and  C9_10 
REMARK    6  A    between atoms: C9_10  and  O2_11 
REMARK    7  A    between atoms: C9_10  and  C10_12 
REMARK    8  A    between atoms: C10_12  and  C11_13 
REMARK    9  A    between atoms: C11_13  and  C12_14 
REMARK   10  A    between atoms: C14_16  and  C15_17 
REMARK   11  A    between atoms: C15_17  and  C16_18 
REMARK   12  A    between atoms: C16_18  and  C17_19 
REMARK   13  A    between atoms: C23_25  and  O3_26 
ROOT
HETATM    1  C12 UNL     1      -0.530   8.629  15.491  1.00  0.00    -0.087 C 
HETATM    2  C13 UNL     1      -0.425   9.706  16.540  1.00  0.00     0.043 C 
HETATM    3  C14 UNL     1      -1.676   7.991  15.166  1.00  0.00    -0.024 C 
ENDROOT
BRANCH   1   4
HETATM    4  C11 UNL     1       0.804   8.278  14.841  1.00  0.00     0.036 C 
BRANCH   4   5
HETATM    5  C10 UNL     1       1.115   8.842  13.452  1.00  0.00     0.039 C 
BRANCH   5   6
HETATM    6  C9  UNL     1       0.847   7.932  12.241  1.00  0.00     0.152 C 
BRANCH   6   7
HETATM    7  C7  UNL     1       1.455   6.490  12.229  1.00  0.00     0.080 C 
HETATM    8  C8  UNL     1       0.732   5.539  13.184  1.00  0.00     0.048 C 
BRANCH   7   9
HETATM    9  C6  UNL     1       1.554   5.915  10.793  1.00  0.00     0.044 C 
BRANCH   9  10
HETATM   10  C5  UNL     1       2.837   6.222  10.005  1.00  0.00     0.030 C 
BRANCH  10  11
HETATM   11  C4  UNL     1       2.636   6.315   8.518  1.00  0.00    -0.025 C 
HETATM   12  C2  UNL     1       1.894   7.214   7.840  1.00  0.00    -0.091 C 
HETATM   13  C1  UNL     1       1.142   8.359   8.460  1.00  0.00     0.042 C 
HETATM   14  C3  UNL     1       1.779   7.134   6.341  1.00  0.00     0.042 C 
ENDBRANCH  10  11
ENDBRANCH   9  10
ENDBRANCH   7   9
BRANCH   7  15
HETATM   15  O1  UNL     1       2.788   6.632  12.762  1.00  0.00    -0.388 OA
HETATM   16  H15 UNL     1       3.153   7.415  12.300  1.00  0.00     0.210 HD
ENDBRANCH   7  15
ENDBRANCH   6   7
BRANCH   6  17
HETATM   17  O2  UNL     1      -0.592   7.770  12.158  1.00  0.00    -0.393 OA
HETATM   18  H17 UNL     1      -0.969   8.654  12.007  1.00  0.00     0.210 HD
ENDBRANCH   6  17
ENDBRANCH   5   6
ENDBRANCH   4   5
ENDBRANCH   1   4
BRANCH   3  19
HETATM   19  C15 UNL     1      -3.110   8.111  15.634  1.00  0.00     0.030 C 
BRANCH  19  20
HETATM   20  C16 UNL     1      -4.126   7.032  15.262  1.00  0.00     0.042 C 
BRANCH  20  21
HETATM   21  C17 UNL     1      -4.587   6.973  13.777  1.00  0.00     0.065 C 
HETATM   22  C18 UNL     1      -4.409   8.404  13.214  1.00  0.00     0.046 C 
HETATM   23  C19 UNL     1      -3.765   6.037  12.875  1.00  0.00     0.043 C 
HETATM   24  C20 UNL     1      -4.159   4.577  12.974  1.00  0.00     0.044 C 
HETATM   25  C21 UNL     1      -5.646   4.430  13.039  1.00  0.00    -0.021 A 
HETATM   26  C22 UNL     1      -6.224   3.185  12.755  1.00  0.00     0.046 A 
HETATM   27  C27 UNL     1      -6.469   5.498  13.405  1.00  0.00     0.082 A 
HETATM   28  C23 UNL     1      -7.603   3.025  12.811  1.00  0.00     0.066 A 
HETATM   29  C24 UNL     1      -8.430   4.086  13.161  1.00  0.00     0.046 A 
HETATM   30  C25 UNL     1      -7.867   5.334  13.464  1.00  0.00    -0.025 A 
HETATM   31  C26 UNL     1      -8.756   6.482  13.854  1.00  0.00     0.051 C 
HETATM   32  O4  UNL     1      -6.001   6.742  13.722  1.00  0.00    -0.340 OA
BRANCH  28  33
HETATM   33  O3  UNL     1      -8.113   1.795  12.508  1.00  0.00    -0.361 OA
HETATM   34  H38 UNL     1      -9.081   1.840  12.572  1.00  0.00     0.217 HD
ENDBRANCH  28  33
ENDBRANCH  20  21
ENDBRANCH  19  20
ENDBRANCH   3  19
TORSDOF 13
ENDMDL
MODEL 8
REMARK minimizedAffinity -8.39087772
REMARK  13 active torsions:
REMARK  status: ('A' for Active; 'I' for Inactive)
REMARK    1  A    between atoms: C4_4  and  C5_5 
REMARK    2  A    between atoms: C5_5  and  C6_6 
REMARK    3  A    between atoms: C6_6  and  C7_7 
REMARK    4  A    between atoms: C7_7  and  O1_9 
REMARK    5  A    between atoms: C7_7  and  C9_10 
REMARK    6  A    between atoms: C9_10  and  O2_11 
REMARK    7  A    between atoms: C9_10  and  C10_12 
REMARK    8  A    between atoms: C10_12  and  C11_13 
REMARK    9  A    between atoms: C11_13  and  C12_14 
REMARK   10  A    between atoms: C14_16  and  C15_17 
REMARK   11  A    between atoms: C15_17  and  C16_18 
REMARK   12  A    between atoms: C16_18  and  C17_19 
REMARK   13  A    between atoms: C23_25  and  O3_26 
ROOT
HETATM    1  C12 UNL     1      -1.693   8.957  12.725  1.00  0.00    -0.087 C 
HETATM    2  C13 UNL     1      -0.891   9.444  13.904  1.00  0.00     0.043 C 
HETATM    3  C14 UNL     1      -3.036   8.808  12.726  1.00  0.00    -0.024 C 
ENDROOT
BRANCH   1   4
HETATM    4  C11 UNL     1      -0.840   8.595  11.514  1.00  0.00     0.036 C 
BRANCH   4   5
HETATM    5  C10 UNL     1       0.685   8.636  11.651  1.00  0.00     0.039 C 
BRANCH   5   6
HETATM    6  C9  UNL     1       1.498   7.617  10.834  1.00  0.00     0.152 C 
BRANCH   6   7
HETATM    7  C7  UNL     1       1.923   6.272  11.510  1.00  0.00     0.080 C 
HETATM    8  C8  UNL     1       0.796   5.644  12.332  1.00  0.00     0.048 C 
BRANCH   7   9
HETATM    9  C6  UNL     1       2.528   5.275  10.489  1.00  0.00     0.044 C 
BRANCH   9  10
HETATM   10  C5  UNL     1       3.453   5.857   9.409  1.00  0.00     0.030 C 
BRANCH  10  11
HETATM   11  C4  UNL     1       3.270   5.245   8.048  1.00  0.00    -0.025 C 
HETATM   12  C2  UNL     1       3.797   4.095   7.583  1.00  0.00    -0.091 C 
HETATM   13  C1  UNL     1       4.655   3.152   8.380  1.00  0.00     0.042 C 
HETATM   14  C3  UNL     1       3.530   3.649   6.170  1.00  0.00     0.042 C 
ENDBRANCH  10  11
ENDBRANCH   9  10
ENDBRANCH   7   9
BRANCH   7  15
HETATM   15  O1  UNL     1       2.943   6.629  12.466  1.00  0.00    -0.388 OA
HETATM   16  H15 UNL     1       3.532   7.240  11.976  1.00  0.00     0.210 HD
ENDBRANCH   7  15
ENDBRANCH   6   7
BRANCH   6  17
HETATM   17  O2  UNL     1       0.681   7.259   9.691  1.00  0.00    -0.393 OA
HETATM   18  H17 UNL     1       0.541   8.073   9.174  1.00  0.00     0.210 HD
ENDBRANCH   6  17
ENDBRANCH   5   6
ENDBRANCH   4   5
ENDBRANCH   1   4
BRANCH   3  19
HETATM   19  C15 UNL     1      -4.117   9.067  13.753  1.00  0.00     0.030 C 
BRANCH  19  20
HETATM   20  C16 UNL     1      -5.265   8.072  13.918  1.00  0.00     0.042 C 
BRANCH  20  21
HETATM   21  C17 UNL     1      -4.956   6.751  14.679  1.00  0.00     0.065 C 
HETATM   22  C18 UNL     1      -3.629   6.994  15.440  1.00  0.00     0.046 C 
HETATM   23  C19 UNL     1      -6.001   6.343  15.731  1.00  0.00     0.043 C 
HETATM   24  C20 UNL     1      -7.214   5.637  15.157  1.00  0.00     0.044 C 
HETATM   25  C21 UNL     1      -6.811   4.666  14.093  1.00  0.00    -0.021 A 
HETATM   26  C22 UNL     1      -7.708   3.659  13.711  1.00  0.00     0.046 A 
HETATM   27  C27 UNL     1      -5.573   4.759  13.452  1.00  0.00     0.082 A 
HETATM   28  C23 UNL     1      -7.356   2.748  12.723  1.00  0.00     0.066 A 
HETATM   29  C24 UNL     1      -6.122   2.824  12.089  1.00  0.00     0.046 A 
HETATM   30  C25 UNL     1      -5.219   3.836  12.449  1.00  0.00    -0.025 A 
HETATM   31  C26 UNL     1      -3.886   3.931  11.759  1.00  0.00     0.051 C 
HETATM   32  O4  UNL     1      -4.642   5.717  13.737  1.00  0.00    -0.340 OA
BRANCH  28  33
HETATM   33  O3  UNL     1      -8.261   1.777  12.402  1.00  0.00    -0.361 OA
HETATM   34  H38 UNL     1      -7.873   1.210  11.717  1.00  0.00     0.217 HD
ENDBRANCH  28  33
ENDBRANCH  20  21
ENDBRANCH  19  20
ENDBRANCH   3  19
TORSDOF 13
ENDMDL
MODEL 9
REMARK minimizedAffinity -8.28301144
REMARK  13 active torsions:
REMARK  status: ('A' for Active; 'I' for Inactive)
REMARK    1  A    between atoms: C4_4  and  C5_5 
REMARK    2  A    between atoms: C5_5  and  C6_6 
REMARK    3  A    between atoms: C6_6  and  C7_7 
REMARK    4  A    between atoms: C7_7  and  O1_9 
REMARK    5  A    between atoms: C7_7  and  C9_10 
REMARK    6  A    between atoms: C9_10  and  O2_11 
REMARK    7  A    between atoms: C9_10  and  C10_12 
REMARK    8  A    between atoms: C10_12  and  C11_13 
REMARK    9  A    between atoms: C11_13  and  C12_14 
REMARK   10  A    between atoms: C14_16  and  C15_17 
REMARK   11  A    between atoms: C15_17  and  C16_18 
REMARK   12  A    between atoms: C16_18  and  C17_19 
REMARK   13  A    between atoms: C23_25  and  O3_26 
ROOT
HETATM    1  C12 UNL     1      -4.633   7.494  14.549  1.00  0.00    -0.087 C 
HETATM    2  C13 UNL     1      -4.778   8.292  13.278  1.00  0.00     0.043 C 
HETATM    3  C14 UNL     1      -3.592   6.678  14.823  1.00  0.00    -0.024 C 
ENDROOT
BRANCH   1   4
HETATM    4  C11 UNL     1      -5.809   7.655  15.507  1.00  0.00     0.036 C 
BRANCH   4   5
HETATM    5  C10 UNL     1      -6.517   6.398  16.019  1.00  0.00     0.039 C 
BRANCH   5   6
HETATM    6  C9  UNL     1      -8.055   6.402  16.024  1.00  0.00     0.152 C 
BRANCH   6   7
HETATM    7  C7  UNL     1      -8.815   6.930  14.762  1.00  0.00     0.080 C 
HETATM    8  C8  UNL     1      -9.152   8.419  14.858  1.00  0.00     0.048 C 
BRANCH   7   9
HETATM    9  C6  UNL     1      -8.069   6.582  13.449  1.00  0.00     0.044 C 
BRANCH   9  10
HETATM   10  C5  UNL     1      -7.796   5.095  13.174  1.00  0.00     0.030 C 
BRANCH  10  11
HETATM   11  C4  UNL     1      -6.348   4.770  12.935  1.00  0.00    -0.025 C 
HETATM   12  C2  UNL     1      -5.826   3.611  12.487  1.00  0.00    -0.091 C 
HETATM   13  C1  UNL     1      -6.622   2.401  12.081  1.00  0.00     0.042 C 
HETATM   14  C3  UNL     1      -4.335   3.452  12.339  1.00  0.00     0.042 C 
ENDBRANCH  10  11
ENDBRANCH   9  10
ENDBRANCH   7   9
BRANCH   7  15
HETATM   15  O1  UNL     1     -10.085   6.246  14.766  1.00  0.00    -0.388 OA
HETATM   16  H15 UNL     1      -9.858   5.312  14.954  1.00  0.00     0.210 HD
ENDBRANCH   7  15
ENDBRANCH   6   7
BRANCH   6  17
HETATM   17  O2  UNL     1      -8.470   5.023  16.203  1.00  0.00    -0.393 OA
HETATM   18  H17 UNL     1      -8.130   4.734  17.068  1.00  0.00     0.210 HD
ENDBRANCH   6  17
ENDBRANCH   5   6
ENDBRANCH   4   5
ENDBRANCH   1   4
BRANCH   3  19
HETATM   19  C15 UNL     1      -2.322   6.317  14.082  1.00  0.00     0.030 C 
BRANCH  19  20
HETATM   20  C16 UNL     1      -2.010   6.975  12.738  1.00  0.00     0.042 C 
BRANCH  20  21
HETATM   21  C17 UNL     1      -0.728   7.852  12.657  1.00  0.00     0.065 C 
HETATM   22  C18 UNL     1      -1.140   9.262  13.147  1.00  0.00     0.046 C 
HETATM   23  C19 UNL     1       0.435   7.394  13.554  1.00  0.00     0.043 C 
HETATM   24  C20 UNL     1       1.262   6.267  12.967  1.00  0.00     0.044 C 
HETATM   25  C21 UNL     1       1.490   6.480  11.504  1.00  0.00    -0.021 A 
HETATM   26  C22 UNL     1       2.523   5.780  10.864  1.00  0.00     0.046 A 
HETATM   27  C27 UNL     1       0.679   7.337  10.757  1.00  0.00     0.082 A 
HETATM   28  C23 UNL     1       2.751   5.960   9.505  1.00  0.00     0.066 A 
HETATM   29  C24 UNL     1       1.957   6.821   8.757  1.00  0.00     0.046 A 
HETATM   30  C25 UNL     1       0.910   7.517   9.379  1.00  0.00    -0.025 A 
HETATM   31  C26 UNL     1       0.041   8.441   8.572  1.00  0.00     0.051 C 
HETATM   32  O4  UNL     1      -0.364   8.045  11.283  1.00  0.00    -0.340 OA
BRANCH  28  33
HETATM   33  O3  UNL     1       3.780   5.267   8.937  1.00  0.00    -0.361 OA
HETATM   34  H38 UNL     1       3.829   5.505   7.997  1.00  0.00     0.217 HD
ENDBRANCH  28  33
ENDBRANCH  20  21
ENDBRANCH  19  20
ENDBRANCH   3  19
TORSDOF 13
ENDMDL
