MODEL 1
REMARK minimizedAffinity -8.35317612
REMARK CNNscore 0.58730191
REMARK CNNaffinity 6.70195389
REMARK  12 active torsions:
REMARK  status: ('A' for Active; 'I' for Inactive)
REMARK    1  A    between atoms: O1_2  and  C2_3 
REMARK    2  A    between atoms: C3_5  and  C4_6 
REMARK    3  A    between atoms: C4_6  and  O3_7 
REMARK    4  A    between atoms: C4_6  and  C5_8 
REMARK    5  A    between atoms: C5_8  and  O4_10 
REMARK    6  A    between atoms: C5_8  and  C7_11 
REMARK    7  A    between atoms: C7_11  and  O5_12 
REMARK    8  A    between atoms: C9_14  and  C10_15 
REMARK    9  A    between atoms: C23_28  and  O6_29 
REMARK   10  A    between atoms: O6_29  and  C24_30 
REMARK   11  A    between atoms: C24_30  and  C25_32 
REMARK   12  A    between atoms: C34_41  and  O8_42 
ROOT
HETATM    1  C10 UNL     1      -8.135  46.637 -29.231  1.00  0.00     0.004 C 
HETATM    2  C11 UNL     1      -8.851  47.594 -30.210  1.00  0.00     0.007 C 
HETATM    3  C12 UNL     1     -10.345  47.478 -29.863  1.00  0.00     0.011 C 
HETATM    4  C13 UNL     1     -10.392  47.113 -28.383  1.00  0.00    -0.021 A 
HETATM    5  C14 UNL     1      -9.549  47.983 -27.468  1.00  0.00     0.022 A 
HETATM    6  C15 UNL     1      -9.013  46.657 -27.977  1.00  0.00    -0.027 A 
HETATM    7  C16 UNL     1      -8.809  45.570 -26.950  1.00  0.00     0.011 C 
HETATM    8  C17 UNL     1     -10.078  44.807 -26.551  1.00  0.00     0.007 C 
HETATM    9  C18 UNL     1     -11.312  45.727 -26.421  1.00  0.00     0.005 C 
HETATM   10  C19 UNL     1     -12.543  45.123 -25.607  1.00  0.00    -0.035 C 
HETATM   11  C20 UNL     1     -13.028  43.779 -26.199  1.00  0.00     0.016 C 
HETATM   12  C21 UNL     1     -12.089  44.848 -24.138  1.00  0.00     0.012 C 
HETATM   13  C22 UNL     1     -13.236  44.541 -23.176  1.00  0.00     0.034 C 
HETATM   14  C23 UNL     1     -14.310  45.628 -23.170  1.00  0.00     0.140 C 
HETATM   15  C29 UNL     1     -14.871  45.951 -24.592  1.00  0.00    -0.016 C 
HETATM   16  C30 UNL     1     -15.745  47.230 -24.453  1.00  0.00     0.018 C 
HETATM   17  C31 UNL     1     -15.820  44.844 -25.095  1.00  0.00     0.018 C 
HETATM   18  C32 UNL     1     -13.658  46.237 -25.552  1.00  0.00     0.007 C 
HETATM   19  C33 UNL     1     -14.047  46.722 -26.970  1.00  0.00     0.038 C 
HETATM   20  C34 UNL     1     -12.847  47.342 -27.702  1.00  0.00     0.128 C 
HETATM   21  C35 UNL     1     -11.649  46.358 -27.834  1.00  0.00    -0.005 C 
HETATM   22  C36 UNL     1     -12.038  45.268 -28.875  1.00  0.00     0.019 C 
ENDROOT
BRANCH   1  23
HETATM   23  C9  UNL     1      -6.655  46.915 -28.927  1.00  0.00     0.048 C 
HETATM   24  C2  UNL     1      -5.722  47.096 -30.125  1.00  0.00     0.264 C 
HETATM   25  O2  UNL     1      -4.517  47.671 -29.588  1.00  0.00    -0.353 OA
HETATM   26  C3  UNL     1      -4.809  48.231 -28.295  1.00  0.00     0.157 C 
HETATM   27  C8  UNL     1      -6.324  48.156 -28.119  1.00  0.00     0.044 C 
BRANCH  24  28
HETATM   28  O1  UNL     1      -6.283  47.969 -31.095  1.00  0.00    -0.366 OA
HETATM   29  C1  UNL     1      -5.348  48.315 -32.107  1.00  0.00     0.204 C 
ENDBRANCH  24  28
BRANCH  26  30
HETATM   30  C4  UNL     1      -4.225  49.645 -28.117  1.00  0.00     0.183 C 
BRANCH  30  31
HETATM   31  O3  UNL     1      -3.650  50.115 -29.349  1.00  0.00    -0.390 OA
HETATM   32  H7  UNL     1      -3.158  50.933 -29.118  1.00  0.00     0.210 HD
ENDBRANCH  30  31
BRANCH  30  33
HETATM   33  C5  UNL     1      -3.172  49.813 -26.983  1.00  0.00     0.103 C 
HETATM   34  C6  UNL     1      -2.687  48.466 -26.437  1.00  0.00     0.051 C 
BRANCH  33  35
HETATM   35  O4  UNL     1      -3.861  50.496 -25.903  1.00  0.00    -0.385 OA
HETATM   36  H11 UNL     1      -4.520  49.885 -25.527  1.00  0.00     0.210 HD
ENDBRANCH  33  35
BRANCH  33  37
HETATM   37  C7  UNL     1      -1.949  50.691 -27.356  1.00  0.00     0.204 C 
BRANCH  37  38
HETATM   38  O5  UNL     1      -0.865  50.580 -26.433  1.00  0.00    -0.398 OA
HETATM   39  H14 UNL     1      -1.248  50.711 -25.539  1.00  0.00     0.209 HD
ENDBRANCH  37  38
ENDBRANCH  33  37
ENDBRANCH  30  33
ENDBRANCH  26  30
ENDBRANCH   1  23
BRANCH  20  40
HETATM   40  O8  UNL     1     -12.466  48.514 -26.973  1.00  0.00    -0.395 OA
HETATM   41  H55 UNL     1     -13.142  49.192 -27.145  1.00  0.00     0.210 HD
ENDBRANCH  20  40
BRANCH  14  42
HETATM   42  O6  UNL     1     -15.398  45.204 -22.323  1.00  0.00    -0.312 OA
BRANCH  42  43
HETATM   43  C24 UNL     1     -15.348  45.587 -21.027  1.00  0.00     0.283 C 
HETATM   44  O7  UNL     1     -14.358  45.617 -20.313  1.00  0.00    -0.260 OA
BRANCH  43  45
HETATM   45  C25 UNL     1     -16.669  46.068 -20.570  1.00  0.00     0.084 C 
HETATM   46  C26 UNL     1     -16.932  47.032 -19.665  1.00  0.00    -0.082 C 
HETATM   47  C27 UNL     1     -15.904  47.882 -18.968  1.00  0.00     0.043 C 
HETATM   48  C28 UNL     1     -18.355  47.360 -19.299  1.00  0.00     0.043 C 
ENDBRANCH  43  45
ENDBRANCH  42  43
ENDBRANCH  14  42
TORSDOF 12
ENDMDL
MODEL 2
REMARK minimizedAffinity -7.60022593
REMARK CNNscore 0.517920673
REMARK CNNaffinity 6.57075739
REMARK  12 active torsions:
REMARK  status: ('A' for Active; 'I' for Inactive)
REMARK    1  A    between atoms: O1_2  and  C2_3 
REMARK    2  A    between atoms: C3_5  and  C4_6 
REMARK    3  A    between atoms: C4_6  and  O3_7 
REMARK    4  A    between atoms: C4_6  and  C5_8 
REMARK    5  A    between atoms: C5_8  and  O4_10 
REMARK    6  A    between atoms: C5_8  and  C7_11 
REMARK    7  A    between atoms: C7_11  and  O5_12 
REMARK    8  A    between atoms: C9_14  and  C10_15 
REMARK    9  A    between atoms: C23_28  and  O6_29 
REMARK   10  A    between atoms: O6_29  and  C24_30 
REMARK   11  A    between atoms: C24_30  and  C25_32 
REMARK   12  A    between atoms: C34_41  and  O8_42 
ROOT
HETATM    1  C10 UNL     1      -8.436  46.325 -25.034  1.00  0.00     0.004 C 
HETATM    2  C11 UNL     1      -7.943  45.525 -26.260  1.00  0.00     0.007 C 
HETATM    3  C12 UNL     1      -9.159  44.703 -26.718  1.00  0.00     0.011 C 
HETATM    4  C13 UNL     1     -10.380  45.516 -26.300  1.00  0.00    -0.021 A 
HETATM    5  C14 UNL     1     -10.359  46.980 -26.704  1.00  0.00     0.022 A 
HETATM    6  C15 UNL     1      -9.923  46.559 -25.312  1.00  0.00    -0.027 A 
HETATM    7  C16 UNL     1     -10.799  47.001 -24.165  1.00  0.00     0.011 C 
HETATM    8  C17 UNL     1     -12.051  46.146 -23.937  1.00  0.00     0.007 C 
HETATM    9  C18 UNL     1     -12.723  45.708 -25.257  1.00  0.00     0.005 C 
HETATM   10  C19 UNL     1     -14.231  45.204 -25.132  1.00  0.00    -0.035 C 
HETATM   11  C20 UNL     1     -14.372  44.033 -24.132  1.00  0.00     0.016 C 
HETATM   12  C21 UNL     1     -15.112  46.379 -24.601  1.00  0.00     0.012 C 
HETATM   13  C22 UNL     1     -16.617  46.129 -24.705  1.00  0.00     0.034 C 
HETATM   14  C23 UNL     1     -17.060  45.776 -26.123  1.00  0.00     0.140 C 
HETATM   15  C29 UNL     1     -16.272  44.576 -26.738  1.00  0.00    -0.016 C 
HETATM   16  C30 UNL     1     -16.650  44.509 -28.245  1.00  0.00     0.018 C 
HETATM   17  C31 UNL     1     -16.718  43.230 -26.131  1.00  0.00     0.018 C 
HETATM   18  C32 UNL     1     -14.733  44.864 -26.588  1.00  0.00     0.007 C 
HETATM   19  C33 UNL     1     -13.804  43.838 -27.283  1.00  0.00     0.038 C 
HETATM   20  C34 UNL     1     -12.374  44.380 -27.430  1.00  0.00     0.128 C 
HETATM   21  C35 UNL     1     -11.736  44.770 -26.065  1.00  0.00    -0.005 C 
HETATM   22  C36 UNL     1     -11.425  43.456 -25.290  1.00  0.00     0.019 C 
ENDROOT
BRANCH   1  23
HETATM   23  C9  UNL     1      -7.684  47.618 -24.685  1.00  0.00     0.048 C 
HETATM   24  C2  UNL     1      -7.115  47.732 -23.270  1.00  0.00     0.264 C 
HETATM   25  O2  UNL     1      -6.195  48.837 -23.315  1.00  0.00    -0.353 OA
HETATM   26  C3  UNL     1      -5.854  49.099 -24.688  1.00  0.00     0.157 C 
HETATM   27  C8  UNL     1      -6.459  47.964 -25.512  1.00  0.00     0.044 C 
BRANCH  24  28
HETATM   28  O1  UNL     1      -6.430  46.548 -22.888  1.00  0.00    -0.366 OA
HETATM   29  C1  UNL     1      -6.447  46.351 -21.481  1.00  0.00     0.204 C 
ENDBRANCH  24  28
BRANCH  26  30
HETATM   30  C4  UNL     1      -4.339  49.289 -24.896  1.00  0.00     0.183 C 
BRANCH  30  31
HETATM   31  O3  UNL     1      -3.595  48.429 -24.015  1.00  0.00    -0.390 OA
HETATM   32  H7  UNL     1      -2.660  48.723 -24.083  1.00  0.00     0.210 HD
ENDBRANCH  30  31
BRANCH  30  33
HETATM   33  C5  UNL     1      -3.803  50.742 -24.740  1.00  0.00     0.103 C 
HETATM   34  C6  UNL     1      -2.852  50.884 -23.548  1.00  0.00     0.051 C 
BRANCH  33  35
HETATM   35  O4  UNL     1      -4.968  51.564 -24.467  1.00  0.00    -0.385 OA
HETATM   36  H11 UNL     1      -5.301  51.337 -23.581  1.00  0.00     0.210 HD
ENDBRANCH  33  35
BRANCH  33  37
HETATM   37  C7  UNL     1      -3.132  51.327 -26.010  1.00  0.00     0.204 C 
BRANCH  37  38
HETATM   38  O5  UNL     1      -3.189  52.752 -26.078  1.00  0.00    -0.398 OA
HETATM   39  H14 UNL     1      -4.124  53.001 -25.918  1.00  0.00     0.209 HD
ENDBRANCH  37  38
ENDBRANCH  33  37
ENDBRANCH  30  33
ENDBRANCH  26  30
ENDBRANCH   1  23
BRANCH  20  40
HETATM   40  O8  UNL     1     -12.438  45.513 -28.304  1.00  0.00    -0.395 OA
HETATM   41  H55 UNL     1     -12.586  45.173 -29.204  1.00  0.00     0.210 HD
ENDBRANCH  20  40
BRANCH  14  42
HETATM   42  O6  UNL     1     -18.467  45.451 -26.105  1.00  0.00    -0.312 OA
BRANCH  42  43
HETATM   43  C24 UNL     1     -19.217  46.043 -25.149  1.00  0.00     0.283 C 
HETATM   44  O7  UNL     1     -19.336  47.243 -24.953  1.00  0.00    -0.260 OA
BRANCH  43  45
HETATM   45  C25 UNL     1     -19.980  45.036 -24.380  1.00  0.00     0.084 C 
HETATM   46  C26 UNL     1     -19.877  44.743 -23.069  1.00  0.00    -0.082 C 
HETATM   47  C27 UNL     1     -18.986  45.448 -22.082  1.00  0.00     0.043 C 
HETATM   48  C28 UNL     1     -20.721  43.650 -22.468  1.00  0.00     0.043 C 
ENDBRANCH  43  45
ENDBRANCH  42  43
ENDBRANCH  14  42
TORSDOF 12
ENDMDL
MODEL 3
REMARK minimizedAffinity -9.60280895
REMARK CNNscore 0.471313745
REMARK CNNaffinity 6.85017967
REMARK  12 active torsions:
REMARK  status: ('A' for Active; 'I' for Inactive)
REMARK    1  A    between atoms: O1_2  and  C2_3 
REMARK    2  A    between atoms: C3_5  and  C4_6 
REMARK    3  A    between atoms: C4_6  and  O3_7 
REMARK    4  A    between atoms: C4_6  and  C5_8 
REMARK    5  A    between atoms: C5_8  and  O4_10 
REMARK    6  A    between atoms: C5_8  and  C7_11 
REMARK    7  A    between atoms: C7_11  and  O5_12 
REMARK    8  A    between atoms: C9_14  and  C10_15 
REMARK    9  A    between atoms: C23_28  and  O6_29 
REMARK   10  A    between atoms: O6_29  and  C24_30 
REMARK   11  A    between atoms: C24_30  and  C25_32 
REMARK   12  A    between atoms: C34_41  and  O8_42 
ROOT
HETATM    1  C10 UNL     1      -7.289  47.316 -24.757  1.00  0.00     0.004 C 
HETATM    2  C11 UNL     1      -8.335  47.015 -23.660  1.00  0.00     0.007 C 
HETATM    3  C12 UNL     1      -7.558  47.092 -22.335  1.00  0.00     0.011 C 
HETATM    4  C13 UNL     1      -6.417  48.073 -22.588  1.00  0.00    -0.021 A 
HETATM    5  C14 UNL     1      -6.820  49.395 -23.216  1.00  0.00     0.022 A 
HETATM    6  C15 UNL     1      -6.295  48.262 -24.079  1.00  0.00    -0.027 A 
HETATM    7  C16 UNL     1      -4.956  48.480 -24.742  1.00  0.00     0.011 C 
HETATM    8  C17 UNL     1      -3.739  48.243 -23.841  1.00  0.00     0.007 C 
HETATM    9  C18 UNL     1      -3.949  48.770 -22.404  1.00  0.00     0.005 C 
HETATM   10  C19 UNL     1      -2.624  48.966 -21.538  1.00  0.00    -0.035 C 
HETATM   11  C20 UNL     1      -1.798  47.662 -21.437  1.00  0.00     0.016 C 
HETATM   12  C21 UNL     1      -1.722  50.035 -22.232  1.00  0.00     0.012 C 
HETATM   13  C22 UNL     1      -0.561  50.530 -21.370  1.00  0.00     0.034 C 
HETATM   14  C23 UNL     1      -1.020  51.068 -20.015  1.00  0.00     0.140 C 
HETATM   15  C29 UNL     1      -1.895  50.055 -19.211  1.00  0.00    -0.016 C 
HETATM   16  C30 UNL     1      -2.487  50.831 -17.999  1.00  0.00     0.018 C 
HETATM   17  C31 UNL     1      -1.044  48.919 -18.609  1.00  0.00     0.018 C 
HETATM   18  C32 UNL     1      -3.060  49.556 -20.143  1.00  0.00     0.007 C 
HETATM   19  C33 UNL     1      -4.112  48.655 -19.449  1.00  0.00     0.038 C 
HETATM   20  C34 UNL     1      -5.392  48.533 -20.291  1.00  0.00     0.128 C 
HETATM   21  C35 UNL     1      -5.124  47.964 -21.714  1.00  0.00    -0.005 C 
HETATM   22  C36 UNL     1      -4.778  46.453 -21.567  1.00  0.00     0.019 C 
ENDROOT
BRANCH   1  23
HETATM   23  C9  UNL     1      -7.809  47.858 -26.098  1.00  0.00     0.048 C 
HETATM   24  C2  UNL     1      -7.303  47.172 -27.367  1.00  0.00     0.264 C 
HETATM   25  O2  UNL     1      -8.178  47.621 -28.419  1.00  0.00    -0.353 OA
HETATM   26  C3  UNL     1      -9.379  48.148 -27.827  1.00  0.00     0.157 C 
HETATM   27  C8  UNL     1      -9.307  47.828 -26.336  1.00  0.00     0.044 C 
BRANCH  24  28
HETATM   28  O1  UNL     1      -7.368  45.758 -27.256  1.00  0.00    -0.366 OA
HETATM   29  C1  UNL     1      -7.504  45.128 -28.522  1.00  0.00     0.204 C 
ENDBRANCH  24  28
BRANCH  26  30
HETATM   30  C4  UNL     1     -10.655  47.633 -28.520  1.00  0.00     0.183 C 
BRANCH  30  31
HETATM   31  O3  UNL     1     -10.951  48.421 -29.687  1.00  0.00    -0.390 OA
HETATM   32  H7  UNL     1     -11.850  48.148 -29.971  1.00  0.00     0.210 HD
ENDBRANCH  30  31
BRANCH  30  33
HETATM   33  C5  UNL     1     -11.933  47.560 -27.635  1.00  0.00     0.103 C 
HETATM   34  C6  UNL     1     -13.131  46.977 -28.392  1.00  0.00     0.051 C 
BRANCH  33  35
HETATM   35  O4  UNL     1     -12.259  48.934 -27.298  1.00  0.00    -0.385 OA
HETATM   36  H11 UNL     1     -12.556  49.384 -28.108  1.00  0.00     0.210 HD
ENDBRANCH  33  35
BRANCH  33  37
HETATM   37  C7  UNL     1     -11.753  46.803 -26.293  1.00  0.00     0.204 C 
BRANCH  37  38
HETATM   38  O5  UNL     1     -12.393  47.442 -25.188  1.00  0.00    -0.398 OA
HETATM   39  H14 UNL     1     -12.108  48.382 -25.208  1.00  0.00     0.209 HD
ENDBRANCH  37  38
ENDBRANCH  33  37
ENDBRANCH  30  33
ENDBRANCH  26  30
ENDBRANCH   1  23
BRANCH  20  40
HETATM   40  O8  UNL     1      -5.975  49.838 -20.366  1.00  0.00    -0.395 OA
HETATM   41  H55 UNL     1      -6.361  50.031 -19.493  1.00  0.00     0.210 HD
ENDBRANCH  20  40
BRANCH  14  42
HETATM   42  O6  UNL     1       0.143  51.408 -19.230  1.00  0.00    -0.312 OA
BRANCH  42  43
HETATM   43  C24 UNL     1       0.296  52.710 -18.899  1.00  0.00     0.283 C 
HETATM   44  O7  UNL     1      -0.500  53.613 -19.102  1.00  0.00    -0.260 OA
BRANCH  43  45
HETATM   45  C25 UNL     1       1.556  52.918 -18.153  1.00  0.00     0.084 C 
HETATM   46  C26 UNL     1       1.924  52.368 -16.980  1.00  0.00    -0.082 C 
HETATM   47  C27 UNL     1       1.132  51.350 -16.203  1.00  0.00     0.043 C 
HETATM   48  C28 UNL     1       3.244  52.733 -16.352  1.00  0.00     0.043 C 
ENDBRANCH  43  45
ENDBRANCH  42  43
ENDBRANCH  14  42
TORSDOF 12
ENDMDL
MODEL 4
REMARK minimizedAffinity -7.97517443
REMARK CNNscore 0.470677376
REMARK CNNaffinity 6.86998034
REMARK  12 active torsions:
REMARK  status: ('A' for Active; 'I' for Inactive)
REMARK    1  A    between atoms: O1_2  and  C2_3 
REMARK    2  A    between atoms: C3_5  and  C4_6 
REMARK    3  A    between atoms: C4_6  and  O3_7 
REMARK    4  A    between atoms: C4_6  and  C5_8 
REMARK    5  A    between atoms: C5_8  and  O4_10 
REMARK    6  A    between atoms: C5_8  and  C7_11 
REMARK    7  A    between atoms: C7_11  and  O5_12 
REMARK    8  A    between atoms: C9_14  and  C10_15 
REMARK    9  A    between atoms: C23_28  and  O6_29 
REMARK   10  A    between atoms: O6_29  and  C24_30 
REMARK   11  A    between atoms: C24_30  and  C25_32 
REMARK   12  A    between atoms: C34_41  and  O8_42 
ROOT
HETATM    1  C10 UNL     1      -2.626  50.241 -22.378  1.00  0.00     0.004 C 
HETATM    2  C11 UNL     1      -2.211  51.403 -21.449  1.00  0.00     0.007 C 
HETATM    3  C12 UNL     1      -2.525  50.911 -20.026  1.00  0.00     0.011 C 
HETATM    4  C13 UNL     1      -2.397  49.392 -20.083  1.00  0.00    -0.021 A 
HETATM    5  C14 UNL     1      -1.120  48.868 -20.715  1.00  0.00     0.022 A 
HETATM    6  C15 UNL     1      -2.393  48.984 -21.534  1.00  0.00    -0.027 A 
HETATM    7  C16 UNL     1      -3.022  47.692 -21.995  1.00  0.00     0.011 C 
HETATM    8  C17 UNL     1      -3.869  46.970 -20.941  1.00  0.00     0.007 C 
HETATM    9  C18 UNL     1      -3.242  47.027 -19.531  1.00  0.00     0.005 C 
HETATM   10  C19 UNL     1      -3.801  45.964 -18.481  1.00  0.00    -0.035 C 
HETATM   11  C20 UNL     1      -5.335  46.067 -18.310  1.00  0.00     0.016 C 
HETATM   12  C21 UNL     1      -3.486  44.527 -19.005  1.00  0.00     0.012 C 
HETATM   13  C22 UNL     1      -3.706  43.422 -17.971  1.00  0.00     0.034 C 
HETATM   14  C23 UNL     1      -2.931  43.662 -16.676  1.00  0.00     0.140 C 
HETATM   15  C29 UNL     1      -3.209  45.060 -16.038  1.00  0.00    -0.016 C 
HETATM   16  C30 UNL     1      -2.171  45.251 -14.896  1.00  0.00     0.018 C 
HETATM   17  C31 UNL     1      -4.594  45.113 -15.363  1.00  0.00     0.018 C 
HETATM   18  C32 UNL     1      -2.994  46.162 -17.141  1.00  0.00     0.007 C 
HETATM   19  C33 UNL     1      -3.085  47.622 -16.633  1.00  0.00     0.038 C 
HETATM   20  C34 UNL     1      -2.491  48.610 -17.650  1.00  0.00     0.128 C 
HETATM   21  C35 UNL     1      -3.185  48.532 -19.040  1.00  0.00    -0.005 C 
HETATM   22  C36 UNL     1      -4.609  49.147 -18.898  1.00  0.00     0.019 C 
ENDROOT
BRANCH   1  23
HETATM   23  C9  UNL     1      -1.956  50.165 -23.758  1.00  0.00     0.048 C 
HETATM   24  C2  UNL     1      -2.720  49.432 -24.862  1.00  0.00     0.264 C 
HETATM   25  O2  UNL     1      -2.063  49.798 -26.089  1.00  0.00    -0.353 OA
HETATM   26  C3  UNL     1      -1.282  50.984 -25.859  1.00  0.00     0.157 C 
HETATM   27  C8  UNL     1      -1.634  51.474 -24.457  1.00  0.00     0.044 C 
BRANCH  24  28
HETATM   28  O1  UNL     1      -4.082  49.831 -24.906  1.00  0.00    -0.366 OA
HETATM   29  C1  UNL     1      -4.963  48.718 -24.979  1.00  0.00     0.204 C 
ENDBRANCH  24  28
BRANCH  26  30
HETATM   30  C4  UNL     1      -1.475  52.043 -26.962  1.00  0.00     0.183 C 
BRANCH  30  31
HETATM   31  O3  UNL     1      -2.126  51.468 -28.108  1.00  0.00    -0.390 OA
HETATM   32  H7  UNL     1      -2.063  52.143 -28.818  1.00  0.00     0.210 HD
ENDBRANCH  30  31
BRANCH  30  33
HETATM   33  C5  UNL     1      -0.188  52.777 -27.439  1.00  0.00     0.103 C 
HETATM   34  C6  UNL     1       0.755  51.851 -28.213  1.00  0.00     0.051 C 
BRANCH  33  35
HETATM   35  O4  UNL     1       0.502  53.188 -26.230  1.00  0.00    -0.385 OA
HETATM   36  H11 UNL     1       0.836  52.390 -25.783  1.00  0.00     0.210 HD
ENDBRANCH  33  35
BRANCH  33  37
HETATM   37  C7  UNL     1      -0.443  54.064 -28.266  1.00  0.00     0.204 C 
BRANCH  37  38
HETATM   38  O5  UNL     1      -1.827  54.346 -28.470  1.00  0.00    -0.398 OA
HETATM   39  H14 UNL     1      -2.232  53.518 -28.806  1.00  0.00     0.209 HD
ENDBRANCH  37  38
ENDBRANCH  33  37
ENDBRANCH  30  33
ENDBRANCH  26  30
ENDBRANCH   1  23
BRANCH  20  40
HETATM   40  O8  UNL     1      -1.094  48.315 -17.761  1.00  0.00    -0.395 OA
HETATM   41  H55 UNL     1      -0.669  48.630 -16.945  1.00  0.00     0.210 HD
ENDBRANCH  20  40
BRANCH  14  42
HETATM   42  O6  UNL     1      -3.282  42.636 -15.725  1.00  0.00    -0.312 OA
BRANCH  42  43
HETATM   43  C24 UNL     1      -2.445  41.578 -15.631  1.00  0.00     0.283 C 
HETATM   44  O7  UNL     1      -2.724  40.460 -15.226  1.00  0.00    -0.260 OA
BRANCH  43  45
HETATM   45  C25 UNL     1      -1.112  41.913 -16.174  1.00  0.00     0.084 C 
HETATM   46  C26 UNL     1      -0.002  42.259 -15.493  1.00  0.00    -0.082 C 
HETATM   47  C27 UNL     1       0.123  42.312 -13.993  1.00  0.00     0.043 C 
HETATM   48  C28 UNL     1       1.265  42.603 -16.230  1.00  0.00     0.043 C 
ENDBRANCH  43  45
ENDBRANCH  42  43
ENDBRANCH  14  42
TORSDOF 12
ENDMDL
MODEL 5
REMARK minimizedAffinity -7.53384924
REMARK CNNscore 0.417476565
REMARK CNNaffinity 6.27221155
REMARK  12 active torsions:
REMARK  status: ('A' for Active; 'I' for Inactive)
REMARK    1  A    between atoms: O1_2  and  C2_3 
REMARK    2  A    between atoms: C3_5  and  C4_6 
REMARK    3  A    between atoms: C4_6  and  O3_7 
REMARK    4  A    between atoms: C4_6  and  C5_8 
REMARK    5  A    between atoms: C5_8  and  O4_10 
REMARK    6  A    between atoms: C5_8  and  C7_11 
REMARK    7  A    between atoms: C7_11  and  O5_12 
REMARK    8  A    between atoms: C9_14  and  C10_15 
REMARK    9  A    between atoms: C23_28  and  O6_29 
REMARK   10  A    between atoms: O6_29  and  C24_30 
REMARK   11  A    between atoms: C24_30  and  C25_32 
REMARK   12  A    between atoms: C34_41  and  O8_42 
ROOT
HETATM    1  C10 UNL     1      -9.758  45.657 -30.151  1.00  0.00     0.004 C 
HETATM    2  C11 UNL     1     -10.638  46.645 -30.949  1.00  0.00     0.007 C 
HETATM    3  C12 UNL     1     -11.966  46.713 -30.176  1.00  0.00     0.011 C 
HETATM    4  C13 UNL     1     -11.606  46.422 -28.723  1.00  0.00    -0.021 A 
HETATM    5  C14 UNL     1     -10.451  47.232 -28.161  1.00  0.00     0.022 A 
HETATM    6  C15 UNL     1     -10.218  45.832 -28.701  1.00  0.00    -0.027 A 
HETATM    7  C16 UNL     1      -9.823  44.776 -27.698  1.00  0.00     0.011 C 
HETATM    8  C17 UNL     1     -10.982  44.179 -26.892  1.00  0.00     0.007 C 
HETATM    9  C18 UNL     1     -12.029  45.238 -26.479  1.00  0.00     0.005 C 
HETATM   10  C19 UNL     1     -13.015  44.813 -25.300  1.00  0.00    -0.035 C 
HETATM   11  C20 UNL     1     -13.778  43.508 -25.622  1.00  0.00     0.016 C 
HETATM   12  C21 UNL     1     -12.174  44.555 -24.010  1.00  0.00     0.012 C 
HETATM   13  C22 UNL     1     -13.007  44.422 -22.735  1.00  0.00     0.034 C 
HETATM   14  C23 UNL     1     -13.923  45.622 -22.501  1.00  0.00     0.140 C 
HETATM   15  C29 UNL     1     -14.848  45.942 -23.718  1.00  0.00    -0.016 C 
HETATM   16  C30 UNL     1     -15.516  47.316 -23.429  1.00  0.00     0.018 C 
HETATM   17  C31 UNL     1     -16.003  44.928 -23.839  1.00  0.00     0.018 C 
HETATM   18  C32 UNL     1     -13.953  46.046 -25.008  1.00  0.00     0.007 C 
HETATM   19  C33 UNL     1     -14.697  46.509 -26.285  1.00  0.00     0.038 C 
HETATM   20  C34 UNL     1     -13.715  46.957 -27.378  1.00  0.00     0.128 C 
HETATM   21  C35 UNL     1     -12.709  45.839 -27.777  1.00  0.00    -0.005 C 
HETATM   22  C36 UNL     1     -13.491  44.754 -28.575  1.00  0.00     0.019 C 
ENDROOT
BRANCH   1  23
HETATM   23  C9  UNL     1      -8.235  45.780 -30.311  1.00  0.00     0.048 C 
HETATM   24  C2  UNL     1      -7.429  44.481 -30.305  1.00  0.00     0.264 C 
HETATM   25  O2  UNL     1      -6.127  44.835 -30.806  1.00  0.00    -0.353 OA
HETATM   26  C3  UNL     1      -6.225  46.095 -31.495  1.00  0.00     0.157 C 
HETATM   27  C8  UNL     1      -7.712  46.433 -31.578  1.00  0.00     0.044 C 
BRANCH  24  28
HETATM   28  O1  UNL     1      -8.018  43.498 -31.145  1.00  0.00    -0.366 OA
HETATM   29  C1  UNL     1      -7.093  42.484 -31.512  1.00  0.00     0.204 C 
ENDBRANCH  24  28
BRANCH  26  30
HETATM   30  C4  UNL     1      -5.506  46.082 -32.857  1.00  0.00     0.183 C 
BRANCH  30  31
HETATM   31  O3  UNL     1      -4.494  45.059 -32.886  1.00  0.00    -0.390 OA
HETATM   32  H7  UNL     1      -3.976  45.221 -33.704  1.00  0.00     0.210 HD
ENDBRANCH  30  31
BRANCH  30  33
HETATM   33  C5  UNL     1      -4.864  47.427 -33.306  1.00  0.00     0.103 C 
HETATM   34  C6  UNL     1      -5.007  48.521 -32.243  1.00  0.00     0.051 C 
BRANCH  33  35
HETATM   35  O4  UNL     1      -5.618  47.853 -34.471  1.00  0.00    -0.385 OA
HETATM   36  H11 UNL     1      -6.513  48.102 -34.181  1.00  0.00     0.210 HD
ENDBRANCH  33  35
BRANCH  33  37
HETATM   37  C7  UNL     1      -3.381  47.325 -33.747  1.00  0.00     0.204 C 
BRANCH  37  38
HETATM   38  O5  UNL     1      -2.779  48.591 -34.019  1.00  0.00    -0.398 OA
HETATM   39  H14 UNL     1      -3.390  49.064 -34.625  1.00  0.00     0.209 HD
ENDBRANCH  37  38
ENDBRANCH  33  37
ENDBRANCH  30  33
ENDBRANCH  26  30
ENDBRANCH   1  23
BRANCH  20  40
HETATM   40  O8  UNL     1     -13.026  48.110 -26.882  1.00  0.00    -0.395 OA
HETATM   41  H55 UNL     1     -13.655  48.851 -26.902  1.00  0.00     0.210 HD
ENDBRANCH  20  40
BRANCH  14  42
HETATM   42  O6  UNL     1     -14.746  45.361 -21.344  1.00  0.00    -0.312 OA
BRANCH  42  43
HETATM   43  C24 UNL     1     -14.543  46.145 -20.261  1.00  0.00     0.283 C 
HETATM   44  O7  UNL     1     -13.502  46.271 -19.637  1.00  0.00    -0.260 OA
BRANCH  43  45
HETATM   45  C25 UNL     1     -15.754  46.934 -19.949  1.00  0.00     0.084 C 
HETATM   46  C26 UNL     1     -16.943  46.485 -19.502  1.00  0.00    -0.082 C 
HETATM   47  C27 UNL     1     -17.266  45.055 -19.159  1.00  0.00     0.043 C 
HETATM   48  C28 UNL     1     -18.080  47.446 -19.274  1.00  0.00     0.043 C 
ENDBRANCH  43  45
ENDBRANCH  42  43
ENDBRANCH  14  42
TORSDOF 12
ENDMDL
MODEL 6
REMARK minimizedAffinity -9.18380451
REMARK CNNscore 0.371327817
REMARK CNNaffinity 6.86325788
REMARK  12 active torsions:
REMARK  status: ('A' for Active; 'I' for Inactive)
REMARK    1  A    between atoms: O1_2  and  C2_3 
REMARK    2  A    between atoms: C3_5  and  C4_6 
REMARK    3  A    between atoms: C4_6  and  O3_7 
REMARK    4  A    between atoms: C4_6  and  C5_8 
REMARK    5  A    between atoms: C5_8  and  O4_10 
REMARK    6  A    between atoms: C5_8  and  C7_11 
REMARK    7  A    between atoms: C7_11  and  O5_12 
REMARK    8  A    between atoms: C9_14  and  C10_15 
REMARK    9  A    between atoms: C23_28  and  O6_29 
REMARK   10  A    between atoms: O6_29  and  C24_30 
REMARK   11  A    between atoms: C24_30  and  C25_32 
REMARK   12  A    between atoms: C34_41  and  O8_42 
ROOT
HETATM    1  C10 UNL     1      -1.296  50.343 -16.403  1.00  0.00     0.004 C 
HETATM    2  C11 UNL     1       0.212  50.657 -16.283  1.00  0.00     0.007 C 
HETATM    3  C12 UNL     1       0.720  50.743 -17.732  1.00  0.00     0.011 C 
HETATM    4  C13 UNL     1      -0.479  51.198 -18.558  1.00  0.00    -0.021 A 
HETATM    5  C14 UNL     1      -1.216  52.413 -18.024  1.00  0.00     0.022 A 
HETATM    6  C15 UNL     1      -1.715  51.013 -17.714  1.00  0.00    -0.027 A 
HETATM    7  C16 UNL     1      -3.038  50.616 -18.324  1.00  0.00     0.011 C 
HETATM    8  C17 UNL     1      -2.970  50.174 -19.791  1.00  0.00     0.007 C 
HETATM    9  C18 UNL     1      -1.996  51.033 -20.628  1.00  0.00     0.005 C 
HETATM   10  C19 UNL     1      -2.178  50.942 -22.209  1.00  0.00    -0.035 C 
HETATM   11  C20 UNL     1      -2.073  49.488 -22.725  1.00  0.00     0.016 C 
HETATM   12  C21 UNL     1      -3.601  51.467 -22.583  1.00  0.00     0.012 C 
HETATM   13  C22 UNL     1      -3.807  51.707 -24.079  1.00  0.00     0.034 C 
HETATM   14  C23 UNL     1      -2.758  52.643 -24.677  1.00  0.00     0.140 C 
HETATM   15  C29 UNL     1      -1.290  52.184 -24.402  1.00  0.00    -0.016 C 
HETATM   16  C30 UNL     1      -0.362  53.353 -24.839  1.00  0.00     0.018 C 
HETATM   17  C31 UNL     1      -0.895  50.980 -25.281  1.00  0.00     0.018 C 
HETATM   18  C32 UNL     1      -1.131  51.927 -22.858  1.00  0.00     0.007 C 
HETATM   19  C33 UNL     1       0.312  51.608 -22.393  1.00  0.00     0.038 C 
HETATM   20  C34 UNL     1       0.459  51.755 -20.871  1.00  0.00     0.128 C 
HETATM   21  C35 UNL     1      -0.522  50.841 -20.081  1.00  0.00    -0.005 C 
HETATM   22  C36 UNL     1      -0.035  49.371 -20.237  1.00  0.00     0.019 C 
ENDROOT
BRANCH   1  23
HETATM   23  C9  UNL     1      -2.195  50.733 -15.220  1.00  0.00     0.048 C 
HETATM   24  C2  UNL     1      -2.859  49.593 -14.447  1.00  0.00     0.264 C 
HETATM   25  O2  UNL     1      -3.339  50.187 -13.227  1.00  0.00    -0.353 OA
HETATM   26  C3  UNL     1      -2.657  51.438 -13.022  1.00  0.00     0.157 C 
HETATM   27  C8  UNL     1      -1.563  51.517 -14.085  1.00  0.00     0.044 C 
BRANCH  24  28
HETATM   28  O1  UNL     1      -1.933  48.559 -14.148  1.00  0.00    -0.366 OA
HETATM   29  C1  UNL     1      -2.356  47.300 -14.653  1.00  0.00     0.204 C 
ENDBRANCH  24  28
BRANCH  26  30
HETATM   30  C4  UNL     1      -2.145  51.604 -11.579  1.00  0.00     0.183 C 
BRANCH  30  31
HETATM   31  O3  UNL     1      -2.510  50.466 -10.778  1.00  0.00    -0.390 OA
HETATM   32  H7  UNL     1      -2.303  50.715  -9.851  1.00  0.00     0.210 HD
ENDBRANCH  30  31
BRANCH  30  33
HETATM   33  C5  UNL     1      -2.594  52.896 -10.837  1.00  0.00     0.103 C 
HETATM   34  C6  UNL     1      -4.049  53.265 -11.143  1.00  0.00     0.051 C 
BRANCH  33  35
HETATM   35  O4  UNL     1      -1.758  53.961 -11.361  1.00  0.00    -0.385 OA
HETATM   36  H11 UNL     1      -2.009  54.120 -12.288  1.00  0.00     0.210 HD
ENDBRANCH  33  35
BRANCH  33  37
HETATM   37  C7  UNL     1      -2.378  52.874  -9.302  1.00  0.00     0.204 C 
BRANCH  37  38
HETATM   38  O5  UNL     1      -1.267  53.660  -8.871  1.00  0.00    -0.398 OA
HETATM   39  H14 UNL     1      -0.505  53.392  -9.429  1.00  0.00     0.209 HD
ENDBRANCH  37  38
ENDBRANCH  33  37
ENDBRANCH  30  33
ENDBRANCH  26  30
ENDBRANCH   1  23
BRANCH  20  40
HETATM   40  O8  UNL     1       0.236  53.134 -20.555  1.00  0.00    -0.395 OA
HETATM   41  H55 UNL     1       1.020  53.627 -20.852  1.00  0.00     0.210 HD
ENDBRANCH  20  40
BRANCH  14  42
HETATM   42  O6  UNL     1      -2.963  52.723 -26.103  1.00  0.00    -0.312 OA
BRANCH  42  43
HETATM   43  C24 UNL     1      -3.055  51.552 -26.774  1.00  0.00     0.283 C 
HETATM   44  O7  UNL     1      -2.475  51.257 -27.807  1.00  0.00    -0.260 OA
BRANCH  43  45
HETATM   45  C25 UNL     1      -3.909  50.593 -26.043  1.00  0.00     0.084 C 
HETATM   46  C26 UNL     1      -3.960  49.254 -26.185  1.00  0.00    -0.082 C 
HETATM   47  C27 UNL     1      -3.083  48.437 -27.096  1.00  0.00     0.043 C 
HETATM   48  C28 UNL     1      -4.930  48.441 -25.369  1.00  0.00     0.043 C 
ENDBRANCH  43  45
ENDBRANCH  42  43
ENDBRANCH  14  42
TORSDOF 12
ENDMDL
MODEL 7
REMARK minimizedAffinity -7.35077381
REMARK CNNscore 0.367518038
REMARK CNNaffinity 6.68251562
REMARK  12 active torsions:
REMARK  status: ('A' for Active; 'I' for Inactive)
REMARK    1  A    between atoms: O1_2  and  C2_3 
REMARK    2  A    between atoms: C3_5  and  C4_6 
REMARK    3  A    between atoms: C4_6  and  O3_7 
REMARK    4  A    between atoms: C4_6  and  C5_8 
REMARK    5  A    between atoms: C5_8  and  O4_10 
REMARK    6  A    between atoms: C5_8  and  C7_11 
REMARK    7  A    between atoms: C7_11  and  O5_12 
REMARK    8  A    between atoms: C9_14  and  C10_15 
REMARK    9  A    between atoms: C23_28  and  O6_29 
REMARK   10  A    between atoms: O6_29  and  C24_30 
REMARK   11  A    between atoms: C24_30  and  C25_32 
REMARK   12  A    between atoms: C34_41  and  O8_42 
ROOT
HETATM    1  C10 UNL     1      -1.794  50.022 -21.782  1.00  0.00     0.004 C 
HETATM    2  C11 UNL     1      -0.879  49.184 -20.861  1.00  0.00     0.007 C 
HETATM    3  C12 UNL     1      -1.832  48.493 -19.870  1.00  0.00     0.011 C 
HETATM    4  C13 UNL     1      -3.153  48.336 -20.618  1.00  0.00    -0.021 A 
HETATM    5  C14 UNL     1      -3.050  47.722 -22.003  1.00  0.00     0.022 A 
HETATM    6  C15 UNL     1      -3.103  49.229 -21.832  1.00  0.00    -0.027 A 
HETATM    7  C16 UNL     1      -4.336  49.927 -22.352  1.00  0.00     0.011 C 
HETATM    8  C17 UNL     1      -5.557  49.866 -21.426  1.00  0.00     0.007 C 
HETATM    9  C18 UNL     1      -5.717  48.491 -20.740  1.00  0.00     0.005 C 
HETATM   10  C19 UNL     1      -7.155  48.191 -20.121  1.00  0.00    -0.035 C 
HETATM   11  C20 UNL     1      -7.586  49.270 -19.100  1.00  0.00     0.016 C 
HETATM   12  C21 UNL     1      -8.209  48.192 -21.273  1.00  0.00     0.012 C 
HETATM   13  C22 UNL     1      -9.576  47.637 -20.871  1.00  0.00     0.034 C 
HETATM   14  C23 UNL     1      -9.491  46.233 -20.274  1.00  0.00     0.140 C 
HETATM   15  C29 UNL     1      -8.494  46.128 -19.076  1.00  0.00    -0.016 C 
HETATM   16  C30 UNL     1      -8.329  44.616 -18.755  1.00  0.00     0.018 C 
HETATM   17  C31 UNL     1      -9.070  46.770 -17.798  1.00  0.00     0.018 C 
HETATM   18  C32 UNL     1      -7.112  46.731 -19.526  1.00  0.00     0.007 C 
HETATM   19  C33 UNL     1      -5.963  46.568 -18.501  1.00  0.00     0.038 C 
HETATM   20  C34 UNL     1      -4.591  46.817 -19.148  1.00  0.00     0.128 C 
HETATM   21  C35 UNL     1      -4.477  48.229 -19.790  1.00  0.00    -0.005 C 
HETATM   22  C36 UNL     1      -4.401  49.274 -18.638  1.00  0.00     0.019 C 
ENDROOT
BRANCH   1  23
HETATM   23  C9  UNL     1      -1.258  50.377 -23.176  1.00  0.00     0.048 C 
HETATM   24  C2  UNL     1      -1.867  49.632 -24.365  1.00  0.00     0.264 C 
HETATM   25  O2  UNL     1      -1.460  50.373 -25.530  1.00  0.00    -0.353 OA
HETATM   26  C3  UNL     1      -1.046  51.689 -25.119  1.00  0.00     0.157 C 
HETATM   27  C8  UNL     1      -1.400  51.816 -23.640  1.00  0.00     0.044 C 
BRANCH  24  28
HETATM   28  O1  UNL     1      -3.285  49.597 -24.287  1.00  0.00    -0.366 OA
HETATM   29  C1  UNL     1      -3.880  49.258 -25.531  1.00  0.00     0.204 C 
ENDBRANCH  24  28
BRANCH  26  30
HETATM   30  C4  UNL     1      -1.640  52.800 -26.006  1.00  0.00     0.183 C 
BRANCH  30  31
HETATM   31  O3  UNL     1      -3.078  52.753 -25.981  1.00  0.00    -0.390 OA
HETATM   32  H7  UNL     1      -3.376  53.368 -26.687  1.00  0.00     0.210 HD
ENDBRANCH  30  31
BRANCH  30  33
HETATM   33  C5  UNL     1      -1.170  52.818 -27.489  1.00  0.00     0.103 C 
HETATM   34  C6  UNL     1      -1.555  54.117 -28.204  1.00  0.00     0.051 C 
BRANCH  33  35
HETATM   35  O4  UNL     1      -1.884  51.736 -28.142  1.00  0.00    -0.385 OA
HETATM   36  H11 UNL     1      -2.827  51.976 -28.188  1.00  0.00     0.210 HD
ENDBRANCH  33  35
BRANCH  33  37
HETATM   37  C7  UNL     1       0.342  52.542 -27.696  1.00  0.00     0.204 C 
BRANCH  37  38
HETATM   38  O5  UNL     1       0.695  51.167 -27.551  1.00  0.00    -0.398 OA
HETATM   39  H14 UNL     1       0.304  50.868 -26.702  1.00  0.00     0.209 HD
ENDBRANCH  37  38
ENDBRANCH  33  37
ENDBRANCH  30  33
ENDBRANCH  26  30
ENDBRANCH   1  23
BRANCH  20  40
HETATM   40  O8  UNL     1      -4.394  45.793 -20.129  1.00  0.00    -0.395 OA
HETATM   41  H55 UNL     1      -4.211  44.967 -19.649  1.00  0.00     0.210 HD
ENDBRANCH  20  40
BRANCH  14  42
HETATM   42  O6  UNL     1     -10.805  45.837 -19.825  1.00  0.00    -0.312 OA
BRANCH  42  43
HETATM   43  C24 UNL     1     -11.854  46.243 -20.575  1.00  0.00     0.283 C 
HETATM   44  O7  UNL     1     -12.110  45.898 -21.718  1.00  0.00    -0.260 OA
BRANCH  43  45
HETATM   45  C25 UNL     1     -12.747  47.127 -19.796  1.00  0.00     0.084 C 
HETATM   46  C26 UNL     1     -13.906  47.689 -20.190  1.00  0.00    -0.082 C 
HETATM   47  C27 UNL     1     -14.578  47.469 -21.520  1.00  0.00     0.043 C 
HETATM   48  C28 UNL     1     -14.663  48.599 -19.259  1.00  0.00     0.043 C 
ENDBRANCH  43  45
ENDBRANCH  42  43
ENDBRANCH  14  42
TORSDOF 12
ENDMDL
MODEL 8
REMARK minimizedAffinity -7.94418478
REMARK CNNscore 0.36152637
REMARK CNNaffinity 5.87926149
REMARK  12 active torsions:
REMARK  status: ('A' for Active; 'I' for Inactive)
REMARK    1  A    between atoms: O1_2  and  C2_3 
REMARK    2  A    between atoms: C3_5  and  C4_6 
REMARK    3  A    between atoms: C4_6  and  O3_7 
REMARK    4  A    between atoms: C4_6  and  C5_8 
REMARK    5  A    between atoms: C5_8  and  O4_10 
REMARK    6  A    between atoms: C5_8  and  C7_11 
REMARK    7  A    between atoms: C7_11  and  O5_12 
REMARK    8  A    between atoms: C9_14  and  C10_15 
REMARK    9  A    between atoms: C23_28  and  O6_29 
REMARK   10  A    between atoms: O6_29  and  C24_30 
REMARK   11  A    between atoms: C24_30  and  C25_32 
REMARK   12  A    between atoms: C34_41  and  O8_42 
ROOT
HETATM    1  C10 UNL     1       5.653  66.099 -37.722  1.00  0.00     0.004 C 
HETATM    2  C11 UNL     1       6.609  66.722 -38.764  1.00  0.00     0.007 C 
HETATM    3  C12 UNL     1       5.738  67.700 -39.572  1.00  0.00     0.011 C 
HETATM    4  C13 UNL     1       4.640  68.152 -38.616  1.00  0.00    -0.021 A 
HETATM    5  C14 UNL     1       5.114  68.631 -37.255  1.00  0.00     0.022 A 
HETATM    6  C15 UNL     1       4.630  67.204 -37.443  1.00  0.00    -0.027 A 
HETATM    7  C16 UNL     1       3.348  66.825 -36.742  1.00  0.00     0.011 C 
HETATM    8  C17 UNL     1       2.064  67.263 -37.455  1.00  0.00     0.007 C 
HETATM    9  C18 UNL     1       2.179  68.672 -38.079  1.00  0.00     0.005 C 
HETATM   10  C19 UNL     1       0.799  69.379 -38.449  1.00  0.00    -0.035 C 
HETATM   11  C20 UNL     1      -0.058  68.517 -39.406  1.00  0.00     0.016 C 
HETATM   12  C21 UNL     1      -0.029  69.584 -37.141  1.00  0.00     0.012 C 
HETATM   13  C22 UNL     1      -1.239  70.504 -37.303  1.00  0.00     0.034 C 
HETATM   14  C23 UNL     1      -0.870  71.870 -37.879  1.00  0.00     0.140 C 
HETATM   15  C29 UNL     1      -0.076  71.783 -39.221  1.00  0.00    -0.016 C 
HETATM   16  C30 UNL     1       0.441  73.215 -39.536  1.00  0.00     0.018 C 
HETATM   17  C31 UNL     1      -0.992  71.396 -40.400  1.00  0.00     0.018 C 
HETATM   18  C32 UNL     1       1.143  70.810 -39.014  1.00  0.00     0.007 C 
HETATM   19  C33 UNL     1       2.124  70.727 -40.211  1.00  0.00     0.038 C 
HETATM   20  C34 UNL     1       3.459  70.086 -39.802  1.00  0.00     0.128 C 
HETATM   21  C35 UNL     1       3.284  68.656 -39.214  1.00  0.00    -0.005 C 
HETATM   22  C36 UNL     1       2.898  67.703 -40.382  1.00  0.00     0.019 C 
ENDROOT
BRANCH   1  23
HETATM   23  C9  UNL     1       6.279  65.529 -36.441  1.00  0.00     0.048 C 
HETATM   24  C2  UNL     1       5.524  65.769 -35.132  1.00  0.00     0.264 C 
HETATM   25  O2  UNL     1       6.116  64.868 -34.179  1.00  0.00    -0.353 OA
HETATM   26  C3  UNL     1       6.831  63.843 -34.893  1.00  0.00     0.157 C 
HETATM   27  C8  UNL     1       6.497  64.028 -36.372  1.00  0.00     0.044 C 
BRANCH  24  28
HETATM   28  O1  UNL     1       4.140  65.485 -35.270  1.00  0.00    -0.366 OA
HETATM   29  C1  UNL     1       3.631  64.754 -34.163  1.00  0.00     0.204 C 
ENDBRANCH  24  28
BRANCH  26  30
HETATM   30  C4  UNL     1       6.537  62.430 -34.354  1.00  0.00     0.183 C 
BRANCH  30  31
HETATM   31  O3  UNL     1       6.111  62.490 -32.981  1.00  0.00    -0.390 OA
HETATM   32  H7  UNL     1       6.107  61.561 -32.663  1.00  0.00     0.210 HD
ENDBRANCH  30  31
BRANCH  30  33
HETATM   33  C5  UNL     1       7.696  61.398 -34.470  1.00  0.00     0.103 C 
HETATM   34  C6  UNL     1       8.748  61.583 -33.372  1.00  0.00     0.051 C 
BRANCH  33  35
HETATM   35  O4  UNL     1       8.342  61.672 -35.740  1.00  0.00    -0.385 OA
HETATM   36  H11 UNL     1       8.794  62.531 -35.674  1.00  0.00     0.210 HD
ENDBRANCH  33  35
BRANCH  33  37
HETATM   37  C7  UNL     1       7.244  59.915 -34.509  1.00  0.00     0.204 C 
BRANCH  37  38
HETATM   38  O5  UNL     1       7.737  59.200 -35.642  1.00  0.00    -0.398 OA
HETATM   39  H14 UNL     1       7.526  59.747 -36.429  1.00  0.00     0.209 HD
ENDBRANCH  37  38
ENDBRANCH  33  37
ENDBRANCH  30  33
ENDBRANCH  26  30
ENDBRANCH   1  23
BRANCH  20  40
HETATM   40  O8  UNL     1       4.072  70.958 -38.846  1.00  0.00    -0.395 OA
HETATM   41  H55 UNL     1       4.397  71.735 -39.334  1.00  0.00     0.210 HD
ENDBRANCH  20  40
BRANCH  14  42
HETATM   42  O6  UNL     1      -2.080  72.626 -38.099  1.00  0.00    -0.312 OA
BRANCH  42  43
HETATM   43  C24 UNL     1      -2.930  72.735 -37.054  1.00  0.00     0.283 C 
HETATM   44  O7  UNL     1      -2.630  72.933 -35.887  1.00  0.00    -0.260 OA
BRANCH  43  45
HETATM   45  C25 UNL     1      -4.335  72.669 -37.509  1.00  0.00     0.084 C 
HETATM   46  C26 UNL     1      -5.453  72.758 -36.762  1.00  0.00    -0.082 C 
HETATM   47  C27 UNL     1      -5.497  73.017 -35.280  1.00  0.00     0.043 C 
HETATM   48  C28 UNL     1      -6.808  72.630 -37.407  1.00  0.00     0.043 C 
ENDBRANCH  43  45
ENDBRANCH  42  43
ENDBRANCH  14  42
TORSDOF 12
ENDMDL
MODEL 9
REMARK minimizedAffinity -8.21742439
REMARK CNNscore 0.346444994
REMARK CNNaffinity 5.93263006
REMARK  12 active torsions:
REMARK  status: ('A' for Active; 'I' for Inactive)
REMARK    1  A    between atoms: O1_2  and  C2_3 
REMARK    2  A    between atoms: C3_5  and  C4_6 
REMARK    3  A    between atoms: C4_6  and  O3_7 
REMARK    4  A    between atoms: C4_6  and  C5_8 
REMARK    5  A    between atoms: C5_8  and  O4_10 
REMARK    6  A    between atoms: C5_8  and  C7_11 
REMARK    7  A    between atoms: C7_11  and  O5_12 
REMARK    8  A    between atoms: C9_14  and  C10_15 
REMARK    9  A    between atoms: C23_28  and  O6_29 
REMARK   10  A    between atoms: O6_29  and  C24_30 
REMARK   11  A    between atoms: C24_30  and  C25_32 
REMARK   12  A    between atoms: C34_41  and  O8_42 
ROOT
HETATM    1  C10 UNL     1       5.506  68.046 -36.770  1.00  0.00     0.004 C 
HETATM    2  C11 UNL     1       5.063  68.787 -35.488  1.00  0.00     0.007 C 
HETATM    3  C12 UNL     1       3.881  69.669 -35.923  1.00  0.00     0.011 C 
HETATM    4  C13 UNL     1       3.241  68.940 -37.101  1.00  0.00    -0.021 A 
HETATM    5  C14 UNL     1       2.942  67.469 -36.874  1.00  0.00     0.022 A 
HETATM    6  C15 UNL     1       4.216  67.896 -37.581  1.00  0.00    -0.027 A 
HETATM    7  C16 UNL     1       4.334  67.534 -39.042  1.00  0.00     0.011 C 
HETATM    8  C17 UNL     1       3.591  68.468 -40.004  1.00  0.00     0.007 C 
HETATM    9  C18 UNL     1       2.216  68.914 -39.459  1.00  0.00     0.005 C 
HETATM   10  C19 UNL     1       1.204  69.510 -40.538  1.00  0.00    -0.035 C 
HETATM   11  C20 UNL     1       1.810  70.711 -41.302  1.00  0.00     0.016 C 
HETATM   12  C21 UNL     1       0.882  68.403 -41.591  1.00  0.00     0.012 C 
HETATM   13  C22 UNL     1      -0.289  68.740 -42.515  1.00  0.00     0.034 C 
HETATM   14  C23 UNL     1      -1.565  69.086 -41.749  1.00  0.00     0.140 C 
HETATM   15  C29 UNL     1      -1.366  70.222 -40.695  1.00  0.00    -0.016 C 
HETATM   16  C30 UNL     1      -2.661  70.276 -39.837  1.00  0.00     0.018 C 
HETATM   17  C31 UNL     1      -1.246  71.606 -41.365  1.00  0.00     0.018 C 
HETATM   18  C32 UNL     1      -0.140  69.845 -39.785  1.00  0.00     0.007 C 
HETATM   19  C33 UNL     1       0.103  70.798 -38.587  1.00  0.00     0.038 C 
HETATM   20  C34 UNL     1       1.042  70.167 -37.547  1.00  0.00     0.128 C 
HETATM   21  C35 UNL     1       2.423  69.772 -38.144  1.00  0.00    -0.005 C 
HETATM   22  C36 UNL     1       3.213  71.083 -38.429  1.00  0.00     0.019 C 
ENDROOT
BRANCH   1  23
HETATM   23  C9  UNL     1       6.259  66.719 -36.594  1.00  0.00     0.048 C 
HETATM   24  C2  UNL     1       7.127  66.573 -35.344  1.00  0.00     0.264 C 
HETATM   25  O2  UNL     1       7.426  65.168 -35.248  1.00  0.00    -0.353 OA
HETATM   26  C3  UNL     1       6.482  64.439 -36.053  1.00  0.00     0.157 C 
HETATM   27  C8  UNL     1       5.434  65.447 -36.517  1.00  0.00     0.044 C 
BRANCH  24  28
HETATM   28  O1  UNL     1       6.438  67.001 -34.178  1.00  0.00    -0.366 OA
HETATM   29  C1  UNL     1       7.184  66.751 -32.995  1.00  0.00     0.204 C 
ENDBRANCH  24  28
BRANCH  26  30
HETATM   30  C4  UNL     1       5.899  63.216 -35.321  1.00  0.00     0.183 C 
BRANCH  30  31
HETATM   31  O3  UNL     1       5.205  62.356 -36.242  1.00  0.00    -0.390 OA
HETATM   32  H7  UNL     1       4.726  61.703 -35.688  1.00  0.00     0.210 HD
ENDBRANCH  30  31
BRANCH  30  33
HETATM   33  C5  UNL     1       4.954  63.522 -34.122  1.00  0.00     0.103 C 
HETATM   34  C6  UNL     1       3.923  64.605 -34.458  1.00  0.00     0.051 C 
BRANCH  33  35
HETATM   35  O4  UNL     1       5.807  64.047 -33.072  1.00  0.00    -0.385 OA
HETATM   36  H11 UNL     1       6.130  64.923 -33.349  1.00  0.00     0.210 HD
ENDBRANCH  33  35
BRANCH  33  37
HETATM   37  C7  UNL     1       4.230  62.285 -33.532  1.00  0.00     0.204 C 
BRANCH  37  38
HETATM   38  O5  UNL     1       4.006  62.373 -32.125  1.00  0.00    -0.398 OA
HETATM   39  H14 UNL     1       4.868  62.615 -31.722  1.00  0.00     0.209 HD
ENDBRANCH  37  38
ENDBRANCH  33  37
ENDBRANCH  30  33
ENDBRANCH  26  30
ENDBRANCH   1  23
BRANCH  20  40
HETATM   40  O8  UNL     1       0.371  69.020 -37.012  1.00  0.00    -0.395 OA
HETATM   41  H55 UNL     1      -0.336  69.347 -36.430  1.00  0.00     0.210 HD
ENDBRANCH  20  40
BRANCH  14  42
HETATM   42  O6  UNL     1      -2.578  69.495 -42.691  1.00  0.00    -0.312 OA
BRANCH  42  43
HETATM   43  C24 UNL     1      -3.728  68.784 -42.699  1.00  0.00     0.283 C 
HETATM   44  O7  UNL     1      -3.833  67.568 -42.746  1.00  0.00    -0.260 OA
BRANCH  43  45
HETATM   45  C25 UNL     1      -4.899  69.674 -42.553  1.00  0.00     0.084 C 
HETATM   46  C26 UNL     1      -6.074  69.406 -41.950  1.00  0.00    -0.082 C 
HETATM   47  C27 UNL     1      -6.414  68.131 -41.224  1.00  0.00     0.043 C 
HETATM   48  C28 UNL     1      -7.171  70.437 -41.934  1.00  0.00     0.043 C 
ENDBRANCH  43  45
ENDBRANCH  42  43
ENDBRANCH  14  42
TORSDOF 12
ENDMDL
