MODEL 1
REMARK minimizedAffinity -7.08482885
REMARK CNNscore 0.392222196
REMARK CNNaffinity 5.98109102
REMARK  6 active torsions:
REMARK  status: ('A' for Active; 'I' for Inactive)
REMARK    1  A    between atoms: C3_3  and  C4_4 
REMARK    2  A    between atoms: C4_4  and  O2_6 
REMARK    3  A    between atoms: O2_6  and  C5_7 
REMARK    4  A    between atoms: C5_7  and  C6_8 
REMARK    5  A    between atoms: C6_8  and  C7_9 
REMARK    6  A    between atoms: C13_15  and  C14_16 
ROOT
HETATM    1  C1  UNL     1      -8.859  -6.087  -3.461  1.00  0.00     0.069 C 
HETATM    2  C2  UNL     1      -9.291  -5.157  -4.566  1.00  0.00     0.018 A 
HETATM    3  C3  UNL     1      -9.992  -5.533  -5.661  1.00  0.00     0.052 A 
HETATM    4  C13 UNL     1     -10.350  -4.543  -6.766  1.00  0.00     0.104 A 
HETATM    5  C23 UNL     1      -9.789  -3.149  -6.511  1.00  0.00     0.024 A 
HETATM    6  C24 UNL     1      -9.123  -2.852  -5.375  1.00  0.00     0.020 A 
HETATM    7  C25 UNL     1      -8.623  -1.466  -5.056  1.00  0.00     0.058 C 
HETATM    8  C26 UNL     1      -9.373  -0.397  -5.841  1.00  0.00     0.014 C 
HETATM    9  C27 UNL     1      -9.392  -0.729  -7.323  1.00  0.00     0.084 C 
HETATM   10  C28 UNL     1      -9.939  -2.117  -7.575  1.00  0.00     0.158 C 
HETATM   11  O5  UNL     1     -10.432  -2.411  -8.663  1.00  0.00    -0.293 OA
HETATM   12  N1  UNL     1      -8.888  -3.836  -4.433  1.00  0.00    -0.362 N 
HETATM   13  H24 UNL     1      -8.440  -3.565  -3.563  1.00  0.00     0.165 HD
ENDROOT
BRANCH   4  14
HETATM   14  C14 UNL     1     -11.848  -4.527  -7.029  1.00  0.00     0.029 A 
HETATM   15  C15 UNL     1     -12.393  -4.997  -8.162  1.00  0.00     0.154 A 
HETATM   16  O3  UNL     1     -13.725  -5.036  -8.485  1.00  0.00    -0.321 OA
HETATM   17  C16 UNL     1     -14.615  -4.545  -7.567  1.00  0.00     0.089 A 
HETATM   18  C17 UNL     1     -15.969  -4.592  -7.901  1.00  0.00     0.040 A 
HETATM   19  C21 UNL     1     -14.216  -4.017  -6.342  1.00  0.00     0.050 A 
HETATM   20  C18 UNL     1     -16.922  -4.108  -7.002  1.00  0.00     0.026 A 
HETATM   21  C19 UNL     1     -16.516  -3.579  -5.775  1.00  0.00     0.035 A 
HETATM   22 CL1  UNL     1     -17.695  -2.986  -4.674  1.00  0.00    -0.084 Cl
HETATM   23  C20 UNL     1     -15.166  -3.529  -5.437  1.00  0.00     0.042 A 
HETATM   24  C22 UNL     1     -12.781  -3.977  -6.014  1.00  0.00     0.194 A 
HETATM   25  O4  UNL     1     -12.402  -3.507  -4.948  1.00  0.00    -0.287 OA
ENDBRANCH   4  14
BRANCH   3  26
HETATM   26  C4  UNL     1     -10.441  -6.920  -5.902  1.00  0.00     0.292 C 
HETATM   27  O1  UNL     1     -11.352  -7.446  -5.279  1.00  0.00    -0.259 OA
BRANCH  26  28
HETATM   28  O2  UNL     1      -9.647  -7.521  -6.820  1.00  0.00    -0.317 OA
BRANCH  28  29
HETATM   29  C5  UNL     1      -8.440  -8.109  -6.306  1.00  0.00     0.183 C 
BRANCH  29  30
HETATM   30  C6  UNL     1      -8.707  -9.527  -5.804  1.00  0.00     0.065 C 
BRANCH  30  31
HETATM   31  C7  UNL     1      -7.717  -9.943  -4.749  1.00  0.00    -0.056 A 
HETATM   32  C8  UNL     1      -7.462  -9.119  -3.646  1.00  0.00     0.007 A 
HETATM   33  C9  UNL     1      -6.561  -9.518  -2.658  1.00  0.00     0.001 A 
HETATM   34  C10 UNL     1      -5.911 -10.746  -2.762  1.00  0.00     0.000 A 
HETATM   35  C11 UNL     1      -6.160 -11.576  -3.854  1.00  0.00     0.001 A 
HETATM   36  C12 UNL     1      -7.060 -11.177  -4.843  1.00  0.00     0.007 A 
ENDBRANCH  30  31
ENDBRANCH  29  30
ENDBRANCH  28  29
ENDBRANCH  26  28
ENDBRANCH   3  26
TORSDOF 6
ENDMDL
MODEL 2
REMARK minimizedAffinity -8.17840958
REMARK CNNscore 0.322304279
REMARK CNNaffinity 6.69227457
REMARK  6 active torsions:
REMARK  status: ('A' for Active; 'I' for Inactive)
REMARK    1  A    between atoms: C3_3  and  C4_4 
REMARK    2  A    between atoms: C4_4  and  O2_6 
REMARK    3  A    between atoms: O2_6  and  C5_7 
REMARK    4  A    between atoms: C5_7  and  C6_8 
REMARK    5  A    between atoms: C6_8  and  C7_9 
REMARK    6  A    between atoms: C13_15  and  C14_16 
ROOT
HETATM    1  C1  UNL     1      -2.900   6.960  12.814  1.00  0.00     0.069 C 
HETATM    2  C2  UNL     1      -4.072   6.024  12.958  1.00  0.00     0.018 A 
HETATM    3  C3  UNL     1      -5.155   6.258  13.736  1.00  0.00     0.052 A 
HETATM    4  C13 UNL     1      -6.281   5.237  13.874  1.00  0.00     0.104 A 
HETATM    5  C23 UNL     1      -6.009   3.953  13.100  1.00  0.00     0.024 A 
HETATM    6  C24 UNL     1      -4.914   3.814  12.325  1.00  0.00     0.020 A 
HETATM    7  C25 UNL     1      -4.653   2.588  11.485  1.00  0.00     0.058 C 
HETATM    8  C26 UNL     1      -5.933   1.813  11.200  1.00  0.00     0.014 C 
HETATM    9  C27 UNL     1      -6.697   1.540  12.485  1.00  0.00     0.084 C 
HETATM   10  C28 UNL     1      -6.957   2.814  13.258  1.00  0.00     0.158 C 
HETATM   11  O5  UNL     1      -7.888   2.885  14.058  1.00  0.00    -0.293 OA
HETATM   12  N1  UNL     1      -3.978   4.829  12.261  1.00  0.00    -0.362 N 
HETATM   13  H24 UNL     1      -3.197   4.717  11.619  1.00  0.00     0.165 HD
ENDROOT
BRANCH   4  14
HETATM   14  C14 UNL     1      -7.628   5.852  13.525  1.00  0.00     0.029 A 
HETATM   15  C15 UNL     1      -8.082   5.942  12.265  1.00  0.00     0.154 A 
HETATM   16  O3  UNL     1      -9.280   6.467  11.853  1.00  0.00    -0.321 OA
HETATM   17  C16 UNL     1     -10.122   6.960  12.815  1.00  0.00     0.089 A 
HETATM   18  C17 UNL     1     -11.340   7.487  12.388  1.00  0.00     0.040 A 
HETATM   19  C21 UNL     1      -9.802   6.946  14.170  1.00  0.00     0.050 A 
HETATM   20  C18 UNL     1     -12.239   8.001  13.325  1.00  0.00     0.026 A 
HETATM   21  C19 UNL     1     -11.915   7.985  14.683  1.00  0.00     0.035 A 
HETATM   22 CL1  UNL     1     -13.026   8.619  15.831  1.00  0.00    -0.084 Cl
HETATM   23  C20 UNL     1     -10.699   7.460  15.114  1.00  0.00     0.042 A 
HETATM   24  C22 UNL     1      -8.509   6.385  14.595  1.00  0.00     0.194 A 
HETATM   25  O4  UNL     1      -8.199   6.371  15.779  1.00  0.00    -0.287 OA
ENDBRANCH   4  14
BRANCH   3  26
HETATM   26  C4  UNL     1      -5.331   7.488  14.536  1.00  0.00     0.292 C 
HETATM   27  O1  UNL     1      -6.193   8.321  14.299  1.00  0.00    -0.259 OA
BRANCH  26  28
HETATM   28  O2  UNL     1      -4.359   7.585  15.474  1.00  0.00    -0.317 OA
BRANCH  28  29
HETATM   29  C5  UNL     1      -4.195   8.884  16.066  1.00  0.00     0.183 C 
BRANCH  29  30
HETATM   30  C6  UNL     1      -2.876   8.961  16.831  1.00  0.00     0.065 C 
BRANCH  30  31
HETATM   31  C7  UNL     1      -1.689   8.818  15.916  1.00  0.00    -0.056 A 
HETATM   32  C8  UNL     1      -0.913   7.652  15.932  1.00  0.00     0.007 A 
HETATM   33  C9  UNL     1       0.172   7.513  15.066  1.00  0.00     0.001 A 
HETATM   34  C10 UNL     1       0.489   8.536  14.175  1.00  0.00     0.000 A 
HETATM   35  C11 UNL     1      -0.278   9.700  14.149  1.00  0.00     0.001 A 
HETATM   36  C12 UNL     1      -1.363   9.841  15.015  1.00  0.00     0.007 A 
ENDBRANCH  30  31
ENDBRANCH  29  30
ENDBRANCH  28  29
ENDBRANCH  26  28
ENDBRANCH   3  26
TORSDOF 6
ENDMDL
MODEL 3
REMARK minimizedAffinity -8.4517374
REMARK CNNscore 0.176651403
REMARK CNNaffinity 6.44821405
REMARK  6 active torsions:
REMARK  status: ('A' for Active; 'I' for Inactive)
REMARK    1  A    between atoms: C3_3  and  C4_4 
REMARK    2  A    between atoms: C4_4  and  O2_6 
REMARK    3  A    between atoms: O2_6  and  C5_7 
REMARK    4  A    between atoms: C5_7  and  C6_8 
REMARK    5  A    between atoms: C6_8  and  C7_9 
REMARK    6  A    between atoms: C13_15  and  C14_16 
ROOT
HETATM    1  C1  UNL     1       1.333   7.663  15.578  1.00  0.00     0.069 C 
HETATM    2  C2  UNL     1      -0.030   8.293  15.691  1.00  0.00     0.018 A 
HETATM    3  C3  UNL     1      -1.034   8.125  14.799  1.00  0.00     0.052 A 
HETATM    4  C13 UNL     1      -2.375   8.839  14.952  1.00  0.00     0.104 A 
HETATM    5  C23 UNL     1      -2.410   9.769  16.159  1.00  0.00     0.024 A 
HETATM    6  C24 UNL     1      -1.372   9.855  17.016  1.00  0.00     0.020 A 
HETATM    7  C25 UNL     1      -1.403  10.705  18.261  1.00  0.00     0.058 C 
HETATM    8  C26 UNL     1      -2.829  11.007  18.706  1.00  0.00     0.014 C 
HETATM    9  C27 UNL     1      -3.651  11.556  17.553  1.00  0.00     0.084 C 
HETATM   10  C28 UNL     1      -3.605  10.638  16.352  1.00  0.00     0.158 C 
HETATM   11  O5  UNL     1      -4.502  10.660  15.509  1.00  0.00    -0.293 OA
HETATM   12  N1  UNL     1      -0.219   9.130  16.780  1.00  0.00    -0.362 N 
HETATM   13  H24 UNL     1       0.520   9.170  17.478  1.00  0.00     0.165 HD
ENDROOT
BRANCH   4  14
HETATM   14  C14 UNL     1      -3.531   7.850  14.946  1.00  0.00     0.029 A 
HETATM   15  C15 UNL     1      -3.717   6.944  15.919  1.00  0.00     0.154 A 
HETATM   16  O3  UNL     1      -4.729   6.022  16.007  1.00  0.00    -0.321 OA
HETATM   17  C16 UNL     1      -5.662   6.006  15.004  1.00  0.00     0.089 A 
HETATM   18  C17 UNL     1      -6.690   5.068  15.104  1.00  0.00     0.040 A 
HETATM   19  C21 UNL     1      -5.613   6.876  13.918  1.00  0.00     0.050 A 
HETATM   20  C18 UNL     1      -7.670   5.007  14.111  1.00  0.00     0.026 A 
HETATM   21  C19 UNL     1      -7.617   5.882  13.025  1.00  0.00     0.035 A 
HETATM   22 CL1  UNL     1      -8.828   5.801  11.807  1.00  0.00    -0.084 Cl
HETATM   23  C20 UNL     1      -6.592   6.820  12.920  1.00  0.00     0.042 A 
HETATM   24  C22 UNL     1      -4.516   7.855  13.836  1.00  0.00     0.194 A 
HETATM   25  O4  UNL     1      -4.443   8.625  12.886  1.00  0.00    -0.287 OA
ENDBRANCH   4  14
BRANCH   3  26
HETATM   26  C4  UNL     1      -0.919   7.275  13.595  1.00  0.00     0.292 C 
HETATM   27  O1  UNL     1      -0.863   6.055  13.641  1.00  0.00    -0.259 OA
BRANCH  26  28
HETATM   28  O2  UNL     1      -0.792   8.042  12.486  1.00  0.00    -0.317 OA
BRANCH  28  29
HETATM   29  C5  UNL     1       0.398   7.819  11.711  1.00  0.00     0.183 C 
BRANCH  29  30
HETATM   30  C6  UNL     1       0.260   8.447  10.325  1.00  0.00     0.065 C 
BRANCH  30  31
HETATM   31  C7  UNL     1       1.046   7.692   9.287  1.00  0.00    -0.056 A 
HETATM   32  C8  UNL     1       0.941   8.024   7.931  1.00  0.00     0.007 A 
HETATM   33  C9  UNL     1       1.690   7.338   6.974  1.00  0.00     0.001 A 
HETATM   34  C10 UNL     1       2.551   6.315   7.365  1.00  0.00     0.000 A 
HETATM   35  C11 UNL     1       2.666   5.976   8.713  1.00  0.00     0.001 A 
HETATM   36  C12 UNL     1       1.917   6.662   9.670  1.00  0.00     0.007 A 
ENDBRANCH  30  31
ENDBRANCH  29  30
ENDBRANCH  28  29
ENDBRANCH  26  28
ENDBRANCH   3  26
TORSDOF 6
ENDMDL
MODEL 4
REMARK minimizedAffinity -8.84142685
REMARK CNNscore 0.154349744
REMARK CNNaffinity 6.88206339
REMARK  6 active torsions:
REMARK  status: ('A' for Active; 'I' for Inactive)
REMARK    1  A    between atoms: C3_3  and  C4_4 
REMARK    2  A    between atoms: C4_4  and  O2_6 
REMARK    3  A    between atoms: O2_6  and  C5_7 
REMARK    4  A    between atoms: C5_7  and  C6_8 
REMARK    5  A    between atoms: C6_8  and  C7_9 
REMARK    6  A    between atoms: C13_15  and  C14_16 
ROOT
HETATM    1  C1  UNL     1      -5.198   3.075  10.235  1.00  0.00     0.069 C 
HETATM    2  C2  UNL     1      -5.346   3.882  11.499  1.00  0.00     0.018 A 
HETATM    3  C3  UNL     1      -4.323   4.244  12.307  1.00  0.00     0.052 A 
HETATM    4  C13 UNL     1      -4.555   5.019  13.602  1.00  0.00     0.104 A 
HETATM    5  C23 UNL     1      -6.033   5.269  13.880  1.00  0.00     0.024 A 
HETATM    6  C24 UNL     1      -6.989   4.897  13.004  1.00  0.00     0.020 A 
HETATM    7  C25 UNL     1      -8.453   5.198  13.210  1.00  0.00     0.058 C 
HETATM    8  C26 UNL     1      -8.663   6.361  14.172  1.00  0.00     0.014 C 
HETATM    9  C27 UNL     1      -7.880   6.148  15.456  1.00  0.00     0.084 C 
HETATM   10  C28 UNL     1      -6.416   5.889  15.179  1.00  0.00     0.158 C 
HETATM   11  O5  UNL     1      -5.564   6.116  16.037  1.00  0.00    -0.293 OA
HETATM   12  N1  UNL     1      -6.644   4.225  11.847  1.00  0.00    -0.362 N 
HETATM   13  H24 UNL     1      -7.382   4.015  11.180  1.00  0.00     0.165 HD
ENDROOT
BRANCH   4  14
HETATM   14  C14 UNL     1      -3.733   6.298  13.635  1.00  0.00     0.029 A 
HETATM   15  C15 UNL     1      -4.067   7.395  12.936  1.00  0.00     0.154 A 
HETATM   16  O3  UNL     1      -3.399   8.592  12.908  1.00  0.00    -0.321 OA
HETATM   17  C16 UNL     1      -2.265   8.705  13.669  1.00  0.00     0.089 A 
HETATM   18  C17 UNL     1      -1.595   9.928  13.638  1.00  0.00     0.040 A 
HETATM   19  C21 UNL     1      -1.778   7.660  14.450  1.00  0.00     0.050 A 
HETATM   20  C18 UNL     1      -0.434  10.100  14.396  1.00  0.00     0.026 A 
HETATM   21  C19 UNL     1       0.049   9.050  15.178  1.00  0.00     0.035 A 
HETATM   22 CL1  UNL     1       1.478   9.270  16.109  1.00  0.00    -0.084 Cl
HETATM   23  C20 UNL     1      -0.616   7.827  15.211  1.00  0.00     0.042 A 
HETATM   24  C22 UNL     1      -2.504   6.378  14.463  1.00  0.00     0.194 A 
HETATM   25  O4  UNL     1      -2.091   5.440  15.133  1.00  0.00    -0.287 OA
ENDBRANCH   4  14
BRANCH   3  26
HETATM   26  C4  UNL     1      -2.911   3.903  12.035  1.00  0.00     0.292 C 
HETATM   27  O1  UNL     1      -2.389   2.864  12.413  1.00  0.00    -0.259 OA
BRANCH  26  28
HETATM   28  O2  UNL     1      -2.289   4.930  11.408  1.00  0.00    -0.317 OA
BRANCH  28  29
HETATM   29  C5  UNL     1      -0.874   4.771  11.210  1.00  0.00     0.183 C 
BRANCH  29  30
HETATM   30  C6  UNL     1      -0.134   6.053  11.588  1.00  0.00     0.065 C 
BRANCH  30  31
HETATM   31  C7  UNL     1       0.533   6.686  10.396  1.00  0.00    -0.056 A 
HETATM   32  C8  UNL     1       1.698   6.131   9.852  1.00  0.00     0.007 A 
HETATM   33  C9  UNL     1       2.300   6.706   8.733  1.00  0.00     0.001 A 
HETATM   34  C10 UNL     1       1.741   7.840   8.146  1.00  0.00     0.000 A 
HETATM   35  C11 UNL     1       0.580   8.400   8.677  1.00  0.00     0.001 A 
HETATM   36  C12 UNL     1      -0.022   7.825   9.797  1.00  0.00     0.007 A 
ENDBRANCH  30  31
ENDBRANCH  29  30
ENDBRANCH  28  29
ENDBRANCH  26  28
ENDBRANCH   3  26
TORSDOF 6
ENDMDL
MODEL 5
REMARK minimizedAffinity -8.79557705
REMARK CNNscore 0.144650966
REMARK CNNaffinity 6.67653084
REMARK  6 active torsions:
REMARK  status: ('A' for Active; 'I' for Inactive)
REMARK    1  A    between atoms: C3_3  and  C4_4 
REMARK    2  A    between atoms: C4_4  and  O2_6 
REMARK    3  A    between atoms: O2_6  and  C5_7 
REMARK    4  A    between atoms: C5_7  and  C6_8 
REMARK    5  A    between atoms: C6_8  and  C7_9 
REMARK    6  A    between atoms: C13_15  and  C14_16 
ROOT
HETATM    1  C1  UNL     1      -2.649   3.714  10.705  1.00  0.00     0.069 C 
HETATM    2  C2  UNL     1      -3.488   4.312  11.804  1.00  0.00     0.018 A 
HETATM    3  C3  UNL     1      -2.996   4.984  12.871  1.00  0.00     0.052 A 
HETATM    4  C13 UNL     1      -3.906   5.518  13.975  1.00  0.00     0.104 A 
HETATM    5  C23 UNL     1      -5.371   5.160  13.753  1.00  0.00     0.024 A 
HETATM    6  C24 UNL     1      -5.779   4.509  12.644  1.00  0.00     0.020 A 
HETATM    7  C25 UNL     1      -7.229   4.208  12.357  1.00  0.00     0.058 C 
HETATM    8  C26 UNL     1      -8.164   5.131  13.128  1.00  0.00     0.014 C 
HETATM    9  C27 UNL     1      -7.809   5.148  14.605  1.00  0.00     0.084 C 
HETATM   10  C28 UNL     1      -6.353   5.493  14.823  1.00  0.00     0.158 C 
HETATM   11  O5  UNL     1      -5.973   5.971  15.891  1.00  0.00    -0.293 OA
HETATM   12  N1  UNL     1      -4.855   4.103  11.700  1.00  0.00    -0.362 N 
HETATM   13  H24 UNL     1      -5.203   3.672  10.848  1.00  0.00     0.165 HD
ENDROOT
BRANCH   4  14
HETATM   14  C14 UNL     1      -3.699   7.010  14.187  1.00  0.00     0.029 A 
HETATM   15  C15 UNL     1      -4.032   7.929  13.266  1.00  0.00     0.154 A 
HETATM   16  O3  UNL     1      -3.893   9.289  13.369  1.00  0.00    -0.321 OA
HETATM   17  C16 UNL     1      -3.359   9.788  14.528  1.00  0.00     0.089 A 
HETATM   18  C17 UNL     1      -3.227  11.173  14.625  1.00  0.00     0.040 A 
HETATM   19  C21 UNL     1      -2.958   8.971  15.582  1.00  0.00     0.050 A 
HETATM   20  C18 UNL     1      -2.691  11.737  15.785  1.00  0.00     0.026 A 
HETATM   21  C19 UNL     1      -2.290  10.914  16.839  1.00  0.00     0.035 A 
HETATM   22 CL1  UNL     1      -1.631  11.616  18.263  1.00  0.00    -0.084 Cl
HETATM   23  C20 UNL     1      -2.419   9.531  16.746  1.00  0.00     0.042 A 
HETATM   24  C22 UNL     1      -3.107   7.512  15.452  1.00  0.00     0.194 A 
HETATM   25  O4  UNL     1      -2.751   6.770  16.360  1.00  0.00    -0.287 OA
ENDBRANCH   4  14
BRANCH   3  26
HETATM   26  C4  UNL     1      -1.555   5.233  13.082  1.00  0.00     0.292 C 
HETATM   27  O1  UNL     1      -0.980   4.984  14.131  1.00  0.00    -0.259 OA
BRANCH  26  28
HETATM   28  O2  UNL     1      -1.019   5.848  12.000  1.00  0.00    -0.317 OA
BRANCH  28  29
HETATM   29  C5  UNL     1       0.175   6.608  12.247  1.00  0.00     0.183 C 
BRANCH  29  30
HETATM   30  C6  UNL     1       1.350   6.032  11.458  1.00  0.00     0.065 C 
BRANCH  30  31
HETATM   31  C7  UNL     1       1.432   6.615  10.072  1.00  0.00    -0.056 A 
HETATM   32  C8  UNL     1       0.637   7.710   9.710  1.00  0.00     0.007 A 
HETATM   33  C9  UNL     1       0.734   8.262   8.433  1.00  0.00     0.001 A 
HETATM   34  C10 UNL     1       1.627   7.727   7.507  1.00  0.00     0.000 A 
HETATM   35  C11 UNL     1       2.425   6.639   7.857  1.00  0.00     0.001 A 
HETATM   36  C12 UNL     1       2.329   6.085   9.134  1.00  0.00     0.007 A 
ENDBRANCH  30  31
ENDBRANCH  29  30
ENDBRANCH  28  29
ENDBRANCH  26  28
ENDBRANCH   3  26
TORSDOF 6
ENDMDL
MODEL 6
REMARK minimizedAffinity -9.15709496
REMARK CNNscore 0.121906318
REMARK CNNaffinity 6.02614355
REMARK  6 active torsions:
REMARK  status: ('A' for Active; 'I' for Inactive)
REMARK    1  A    between atoms: C3_3  and  C4_4 
REMARK    2  A    between atoms: C4_4  and  O2_6 
REMARK    3  A    between atoms: O2_6  and  C5_7 
REMARK    4  A    between atoms: C5_7  and  C6_8 
REMARK    5  A    between atoms: C6_8  and  C7_9 
REMARK    6  A    between atoms: C13_15  and  C14_16 
ROOT
HETATM    1  C1  UNL     1      -6.213   8.565  14.755  1.00  0.00     0.069 C 
HETATM    2  C2  UNL     1      -4.787   8.975  15.020  1.00  0.00     0.018 A 
HETATM    3  C3  UNL     1      -3.753   8.115  15.172  1.00  0.00     0.052 A 
HETATM    4  C13 UNL     1      -2.342   8.602  15.492  1.00  0.00     0.104 A 
HETATM    5  C23 UNL     1      -2.268  10.115  15.666  1.00  0.00     0.024 A 
HETATM    6  C24 UNL     1      -3.345  10.902  15.467  1.00  0.00     0.020 A 
HETATM    7  C25 UNL     1      -3.289  12.407  15.555  1.00  0.00     0.058 C 
HETATM    8  C26 UNL     1      -1.873  12.934  15.364  1.00  0.00     0.014 C 
HETATM    9  C27 UNL     1      -0.901  12.217  16.285  1.00  0.00     0.084 C 
HETATM   10  C28 UNL     1      -0.983  10.716  16.120  1.00  0.00     0.158 C 
HETATM   11  O5  UNL     1      -0.032   9.996  16.425  1.00  0.00    -0.293 OA
HETATM   12  N1  UNL     1      -4.567  10.337  15.151  1.00  0.00    -0.362 N 
HETATM   13  H24 UNL     1      -5.342  10.963  14.947  1.00  0.00     0.165 HD
ENDROOT
BRANCH   4  14
HETATM   14  C14 UNL     1      -1.336   8.084  14.476  1.00  0.00     0.029 A 
HETATM   15  C15 UNL     1      -0.418   7.151  14.772  1.00  0.00     0.154 A 
HETATM   16  O3  UNL     1       0.520   6.616  13.927  1.00  0.00    -0.321 OA
HETATM   17  C16 UNL     1       0.541   7.069  12.634  1.00  0.00     0.089 A 
HETATM   18  C17 UNL     1       1.495   6.515  11.779  1.00  0.00     0.040 A 
HETATM   19  C21 UNL     1      -0.341   8.038  12.163  1.00  0.00     0.050 A 
HETATM   20  C18 UNL     1       1.561   6.938  10.449  1.00  0.00     0.026 A 
HETATM   21  C19 UNL     1       0.675   7.910   9.982  1.00  0.00     0.035 A 
HETATM   22 CL1  UNL     1       0.762   8.424   8.344  1.00  0.00    -0.084 Cl
HETATM   23  C20 UNL     1      -0.279   8.466  10.832  1.00  0.00     0.042 A 
HETATM   24  C22 UNL     1      -1.337   8.607  13.087  1.00  0.00     0.194 A 
HETATM   25  O4  UNL     1      -2.117   9.469  12.702  1.00  0.00    -0.287 OA
ENDBRANCH   4  14
BRANCH   3  26
HETATM   26  C4  UNL     1      -3.895   6.647  15.077  1.00  0.00     0.292 C 
HETATM   27  O1  UNL     1      -3.869   5.908  16.050  1.00  0.00    -0.259 OA
BRANCH  26  28
HETATM   28  O2  UNL     1      -3.956   6.262  13.780  1.00  0.00    -0.317 OA
BRANCH  28  29
HETATM   29  C5  UNL     1      -3.417   4.961  13.493  1.00  0.00     0.183 C 
BRANCH  29  30
HETATM   30  C6  UNL     1      -3.903   4.469  12.131  1.00  0.00     0.065 C 
BRANCH  30  31
HETATM   31  C7  UNL     1      -5.132   3.608  12.253  1.00  0.00    -0.056 A 
HETATM   32  C8  UNL     1      -5.251   2.425  11.513  1.00  0.00     0.007 A 
HETATM   33  C9  UNL     1      -6.382   1.619  11.646  1.00  0.00     0.001 A 
HETATM   34  C10 UNL     1      -7.401   1.985  12.523  1.00  0.00     0.000 A 
HETATM   35  C11 UNL     1      -7.292   3.159  13.266  1.00  0.00     0.001 A 
HETATM   36  C12 UNL     1      -6.162   3.967  13.133  1.00  0.00     0.007 A 
ENDBRANCH  30  31
ENDBRANCH  29  30
ENDBRANCH  28  29
ENDBRANCH  26  28
ENDBRANCH   3  26
TORSDOF 6
ENDMDL
MODEL 7
REMARK minimizedAffinity -6.79688931
REMARK CNNscore 0.120462276
REMARK CNNaffinity 5.34435987
REMARK  6 active torsions:
REMARK  status: ('A' for Active; 'I' for Inactive)
REMARK    1  A    between atoms: C3_3  and  C4_4 
REMARK    2  A    between atoms: C4_4  and  O2_6 
REMARK    3  A    between atoms: O2_6  and  C5_7 
REMARK    4  A    between atoms: C5_7  and  C6_8 
REMARK    5  A    between atoms: C6_8  and  C7_9 
REMARK    6  A    between atoms: C13_15  and  C14_16 
ROOT
HETATM    1  C1  UNL     1      -0.261   7.058  15.145  1.00  0.00     0.069 C 
HETATM    2  C2  UNL     1      -0.132   8.511  15.520  1.00  0.00     0.018 A 
HETATM    3  C3  UNL     1      -0.823   9.521  14.941  1.00  0.00     0.052 A 
HETATM    4  C13 UNL     1      -0.601  10.979  15.337  1.00  0.00     0.104 A 
HETATM    5  C23 UNL     1       0.494  11.143  16.384  1.00  0.00     0.024 A 
HETATM    6  C24 UNL     1       1.115  10.077  16.931  1.00  0.00     0.020 A 
HETATM    7  C25 UNL     1       2.147  10.199  18.024  1.00  0.00     0.058 C 
HETATM    8  C26 UNL     1       2.025  11.519  18.774  1.00  0.00     0.014 C 
HETATM    9  C27 UNL     1       1.996  12.690  17.807  1.00  0.00     0.084 C 
HETATM   10  C28 UNL     1       0.916  12.521  16.761  1.00  0.00     0.158 C 
HETATM   11  O5  UNL     1       0.446  13.497  16.178  1.00  0.00    -0.293 OA
HETATM   12  N1  UNL     1       0.801   8.800  16.505  1.00  0.00    -0.362 N 
HETATM   13  H24 UNL     1       1.241   8.017  16.981  1.00  0.00     0.165 HD
ENDROOT
BRANCH   4  14
HETATM   14  C14 UNL     1      -1.905  11.642  15.752  1.00  0.00     0.029 A 
HETATM   15  C15 UNL     1      -2.593  11.274  16.844  1.00  0.00     0.154 A 
HETATM   16  O3  UNL     1      -3.767  11.816  17.303  1.00  0.00    -0.321 OA
HETATM   17  C16 UNL     1      -4.315  12.845  16.585  1.00  0.00     0.089 A 
HETATM   18  C17 UNL     1      -5.506  13.393  17.062  1.00  0.00     0.040 A 
HETATM   19  C21 UNL     1      -3.731  13.345  15.424  1.00  0.00     0.050 A 
HETATM   20  C18 UNL     1      -6.109  14.446  16.370  1.00  0.00     0.026 A 
HETATM   21  C19 UNL     1      -5.520  14.944  15.208  1.00  0.00     0.035 A 
HETATM   22 CL1  UNL     1      -6.268  16.241  14.362  1.00  0.00    -0.084 Cl
HETATM   23  C20 UNL     1      -4.331  14.400  14.727  1.00  0.00     0.042 A 
HETATM   24  C22 UNL     1      -2.474  12.748  14.941  1.00  0.00     0.194 A 
HETATM   25  O4  UNL     1      -1.945  13.162  13.917  1.00  0.00    -0.287 OA
ENDBRANCH   4  14
BRANCH   3  26
HETATM   26  C4  UNL     1      -1.817   9.315  13.867  1.00  0.00     0.292 C 
HETATM   27  O1  UNL     1      -2.872   8.723  14.037  1.00  0.00    -0.259 OA
BRANCH  26  28
HETATM   28  O2  UNL     1      -1.342   9.785  12.688  1.00  0.00    -0.317 OA
BRANCH  28  29
HETATM   29  C5  UNL     1      -1.467   8.892  11.569  1.00  0.00     0.183 C 
BRANCH  29  30
HETATM   30  C6  UNL     1      -0.474   7.737  11.693  1.00  0.00     0.065 C 
BRANCH  30  31
HETATM   31  C7  UNL     1       0.353   7.574  10.446  1.00  0.00    -0.056 A 
HETATM   32  C8  UNL     1       1.329   6.572  10.363  1.00  0.00     0.007 A 
HETATM   33  C9  UNL     1       2.077   6.409   9.197  1.00  0.00     0.001 A 
HETATM   34  C10 UNL     1       1.855   7.242   8.103  1.00  0.00     0.000 A 
HETATM   35  C11 UNL     1       0.884   8.241   8.173  1.00  0.00     0.001 A 
HETATM   36  C12 UNL     1       0.136   8.405   9.339  1.00  0.00     0.007 A 
ENDBRANCH  30  31
ENDBRANCH  29  30
ENDBRANCH  28  29
ENDBRANCH  26  28
ENDBRANCH   3  26
TORSDOF 6
ENDMDL
MODEL 8
REMARK minimizedAffinity -7.61887503
REMARK CNNscore 0.113386728
REMARK CNNaffinity 5.54040289
REMARK  6 active torsions:
REMARK  status: ('A' for Active; 'I' for Inactive)
REMARK    1  A    between atoms: C3_3  and  C4_4 
REMARK    2  A    between atoms: C4_4  and  O2_6 
REMARK    3  A    between atoms: O2_6  and  C5_7 
REMARK    4  A    between atoms: C5_7  and  C6_8 
REMARK    5  A    between atoms: C6_8  and  C7_9 
REMARK    6  A    between atoms: C13_15  and  C14_16 
ROOT
HETATM    1  C1  UNL     1       2.830  10.562  14.575  1.00  0.00     0.069 C 
HETATM    2  C2  UNL     1       1.446   9.988  14.735  1.00  0.00     0.018 A 
HETATM    3  C3  UNL     1       0.851   9.728  15.923  1.00  0.00     0.052 A 
HETATM    4  C13 UNL     1      -0.536   9.097  16.008  1.00  0.00     0.104 A 
HETATM    5  C23 UNL     1      -1.113   8.761  14.637  1.00  0.00     0.024 A 
HETATM    6  C24 UNL     1      -0.463   9.081  13.499  1.00  0.00     0.020 A 
HETATM    7  C25 UNL     1      -1.040   8.833  12.128  1.00  0.00     0.058 C 
HETATM    8  C26 UNL     1      -2.556   8.695  12.166  1.00  0.00     0.014 C 
HETATM    9  C27 UNL     1      -2.981   7.683  13.216  1.00  0.00     0.084 C 
HETATM   10  C28 UNL     1      -2.399   8.011  14.572  1.00  0.00     0.158 C 
HETATM   11  O5  UNL     1      -2.935   7.604  15.602  1.00  0.00    -0.293 OA
HETATM   12  N1  UNL     1       0.781   9.681  13.558  1.00  0.00    -0.362 N 
HETATM   13  H24 UNL     1       1.214   9.965  12.683  1.00  0.00     0.165 HD
ENDROOT
BRANCH   4  14
HETATM   14  C14 UNL     1      -1.480   9.949  16.842  1.00  0.00     0.029 A 
HETATM   15  C15 UNL     1      -1.952   9.555  18.036  1.00  0.00     0.154 A 
HETATM   16  O3  UNL     1      -2.795  10.253  18.863  1.00  0.00    -0.321 OA
HETATM   17  C16 UNL     1      -3.215  11.488  18.445  1.00  0.00     0.089 A 
HETATM   18  C17 UNL     1      -4.067  12.193  19.295  1.00  0.00     0.040 A 
HETATM   19  C21 UNL     1      -2.822  12.044  17.230  1.00  0.00     0.050 A 
HETATM   20  C18 UNL     1      -4.526  13.459  18.922  1.00  0.00     0.026 A 
HETATM   21  C19 UNL     1      -4.129  14.011  17.702  1.00  0.00     0.035 A 
HETATM   22 CL1  UNL     1      -4.697  15.570  17.250  1.00  0.00    -0.084 Cl
HETATM   23  C20 UNL     1      -3.278  13.311  16.850  1.00  0.00     0.042 A 
HETATM   24  C22 UNL     1      -1.922  11.278  16.351  1.00  0.00     0.194 A 
HETATM   25  O4  UNL     1      -1.571  11.739  15.272  1.00  0.00    -0.287 OA
ENDBRANCH   4  14
BRANCH   3  26
HETATM   26  C4  UNL     1       1.490   9.997  17.229  1.00  0.00     0.292 C 
HETATM   27  O1  UNL     1       2.264   9.219  17.767  1.00  0.00    -0.259 OA
BRANCH  26  28
HETATM   28  O2  UNL     1       1.021  11.153  17.755  1.00  0.00    -0.317 OA
BRANCH  28  29
HETATM   29  C5  UNL     1       1.618  11.556  18.999  1.00  0.00     0.183 C 
BRANCH  29  30
HETATM   30  C6  UNL     1       1.025  10.762  20.161  1.00  0.00     0.065 C 
BRANCH  30  31
HETATM   31  C7  UNL     1       2.076  10.370  21.165  1.00  0.00    -0.056 A 
HETATM   32  C8  UNL     1       1.941   9.196  21.917  1.00  0.00     0.007 A 
HETATM   33  C9  UNL     1       2.929   8.825  22.830  1.00  0.00     0.001 A 
HETATM   34  C10 UNL     1       4.060   9.621  22.997  1.00  0.00     0.000 A 
HETATM   35  C11 UNL     1       4.206  10.790  22.252  1.00  0.00     0.001 A 
HETATM   36  C12 UNL     1       3.219  11.163  21.339  1.00  0.00     0.007 A 
ENDBRANCH  30  31
ENDBRANCH  29  30
ENDBRANCH  28  29
ENDBRANCH  26  28
ENDBRANCH   3  26
TORSDOF 6
ENDMDL
MODEL 9
REMARK minimizedAffinity -6.75110865
REMARK CNNscore 0.105760813
REMARK CNNaffinity 4.93520308
REMARK  6 active torsions:
REMARK  status: ('A' for Active; 'I' for Inactive)
REMARK    1  A    between atoms: C3_3  and  C4_4 
REMARK    2  A    between atoms: C4_4  and  O2_6 
REMARK    3  A    between atoms: O2_6  and  C5_7 
REMARK    4  A    between atoms: C5_7  and  C6_8 
REMARK    5  A    between atoms: C6_8  and  C7_9 
REMARK    6  A    between atoms: C13_15  and  C14_16 
ROOT
HETATM    1  C1  UNL     1       2.139   9.804  17.311  1.00  0.00     0.069 C 
HETATM    2  C2  UNL     1       0.960   9.762  16.374  1.00  0.00     0.018 A 
HETATM    3  C3  UNL     1      -0.283  10.202  16.678  1.00  0.00     0.052 A 
HETATM    4  C13 UNL     1      -1.444  10.079  15.694  1.00  0.00     0.104 A 
HETATM    5  C23 UNL     1      -1.046   9.374  14.402  1.00  0.00     0.024 A 
HETATM    6  C24 UNL     1       0.226   8.992  14.168  1.00  0.00     0.020 A 
HETATM    7  C25 UNL     1       0.669   8.363  12.871  1.00  0.00     0.058 C 
HETATM    8  C26 UNL     1      -0.288   8.683  11.729  1.00  0.00     0.014 C 
HETATM    9  C27 UNL     1      -1.721   8.367  12.121  1.00  0.00     0.084 C 
HETATM   10  C28 UNL     1      -2.111   9.058  13.409  1.00  0.00     0.158 C 
HETATM   11  O5  UNL     1      -3.291   9.288  13.666  1.00  0.00    -0.293 OA
HETATM   12  N1  UNL     1       1.196   9.187  15.134  1.00  0.00    -0.362 N 
HETATM   13  H24 UNL     1       2.156   8.945  14.901  1.00  0.00     0.165 HD
ENDROOT
BRANCH   4  14
HETATM   14  C14 UNL     1      -2.099  11.428  15.441  1.00  0.00     0.029 A 
HETATM   15  C15 UNL     1      -1.504  12.405  14.738  1.00  0.00     0.154 A 
HETATM   16  O3  UNL     1      -2.014  13.645  14.450  1.00  0.00    -0.321 OA
HETATM   17  C16 UNL     1      -3.266  13.941  14.922  1.00  0.00     0.089 A 
HETATM   18  C17 UNL     1      -3.779  15.203  14.620  1.00  0.00     0.040 A 
HETATM   19  C21 UNL     1      -4.018  13.041  15.672  1.00  0.00     0.050 A 
HETATM   20  C18 UNL     1      -5.052  15.559  15.073  1.00  0.00     0.026 A 
HETATM   21  C19 UNL     1      -5.802  14.653  15.824  1.00  0.00     0.035 A 
HETATM   22 CL1  UNL     1      -7.368  15.098  16.377  1.00  0.00    -0.084 Cl
HETATM   23  C20 UNL     1      -5.294  13.392  16.129  1.00  0.00     0.042 A 
HETATM   24  C22 UNL     1      -3.452  11.716  15.978  1.00  0.00     0.194 A 
HETATM   25  O4  UNL     1      -4.088  10.910  16.645  1.00  0.00    -0.287 OA
ENDBRANCH   4  14
BRANCH   3  26
HETATM   26  C4  UNL     1      -0.637  10.803  17.981  1.00  0.00     0.292 C 
HETATM   27  O1  UNL     1      -1.584  10.427  18.656  1.00  0.00    -0.259 OA
BRANCH  26  28
HETATM   28  O2  UNL     1       0.166  11.861  18.246  1.00  0.00    -0.317 OA
BRANCH  28  29
HETATM   29  C5  UNL     1       0.490  12.061  19.632  1.00  0.00     0.183 C 
BRANCH  29  30
HETATM   30  C6  UNL     1       0.752  10.723  20.320  1.00  0.00     0.065 C 
BRANCH  30  31
HETATM   31  C7  UNL     1       1.991  10.766  21.175  1.00  0.00    -0.056 A 
HETATM   32  C8  UNL     1       2.521  11.989  21.602  1.00  0.00     0.007 A 
HETATM   33  C9  UNL     1       3.656  12.024  22.413  1.00  0.00     0.001 A 
HETATM   34  C10 UNL     1       4.268  10.836  22.807  1.00  0.00     0.000 A 
HETATM   35  C11 UNL     1       3.748   9.612  22.390  1.00  0.00     0.001 A 
HETATM   36  C12 UNL     1       2.613   9.576  21.578  1.00  0.00     0.007 A 
ENDBRANCH  30  31
ENDBRANCH  29  30
ENDBRANCH  28  29
ENDBRANCH  26  28
ENDBRANCH   3  26
TORSDOF 6
ENDMDL
