MODEL 1
REMARK minimizedAffinity -7.68382645
REMARK  8 active torsions:
REMARK  status: ('A' for Active; 'I' for Inactive)
REMARK    1  A    between atoms: C5_5  and  C6_6 
REMARK    2  A    between atoms: C6_6  and  O1_9 
REMARK    3  A    between atoms: C14_16  and  C15_17 
REMARK    4  A    between atoms: C16_19  and  O4_20 
REMARK    5  A    between atoms: C17_21  and  C18_22 
REMARK    6  A    between atoms: C19_24  and  O6_25 
REMARK    7  A    between atoms: C21_27  and  C22_28 
REMARK    8  A    between atoms: C22_28  and  C23_29 
ROOT
HETATM    1  C1  UNL     1      -0.309   8.860   9.643  1.00  0.00     0.019 C 
HETATM    2  C2  UNL     1      -0.035   8.741  10.956  1.00  0.00    -0.068 C 
HETATM    3  C3  UNL     1       1.343   8.456  11.336  1.00  0.00     0.003 C 
HETATM    4  C4  UNL     1       1.903   7.896  12.425  1.00  0.00    -0.019 C 
HETATM    5  C5  UNL     1       1.279   7.349  13.697  1.00  0.00     0.042 C 
HETATM    6  C9  UNL     1       0.869   5.854  13.546  1.00  0.00     0.014 C 
HETATM    7  C10 UNL     1       0.101   5.455  12.270  1.00  0.00     0.039 C 
HETATM    8  C11 UNL     1      -1.455   5.569  12.252  1.00  0.00     0.068 C 
HETATM    9  C12 UNL     1      -1.856   5.430  10.755  1.00  0.00     0.047 C 
HETATM   10  O2  UNL     1      -1.921   4.354  12.935  1.00  0.00    -0.338 OA
HETATM   11  C13 UNL     1      -3.297   4.253  12.898  1.00  0.00     0.095 A 
HETATM   12  C14 UNL     1      -3.898   3.073  12.458  1.00  0.00     0.070 A 
HETATM   13  C16 UNL     1      -5.288   3.035  12.294  1.00  0.00     0.097 A 
HETATM   14  C17 UNL     1      -6.048   4.181  12.559  1.00  0.00     0.069 A 
HETATM   15  C19 UNL     1      -5.426   5.354  13.040  1.00  0.00     0.091 A 
HETATM   16  C20 UNL     1      -4.050   5.382  13.270  1.00  0.00     0.015 A 
HETATM   17  C21 UNL     1      -3.221   6.464  13.927  1.00  0.00     0.031 C 
HETATM   18  C26 UNL     1      -2.035   6.847  12.972  1.00  0.00     0.029 C 
HETATM   19  C27 UNL     1      -2.303   8.072  12.062  1.00  0.00     0.013 C 
HETATM   20  C28 UNL     1      -1.127   9.071  11.948  1.00  0.00     0.038 C 
ENDROOT
BRANCH   5  21
HETATM   21  C6  UNL     1       2.161   7.612  14.979  1.00  0.00     0.057 C 
HETATM   22  C7  UNL     1       3.406   8.445  14.633  1.00  0.00     0.046 C 
HETATM   23  C8  UNL     1       1.417   8.279  16.144  1.00  0.00     0.046 C 
BRANCH  21  24
HETATM   24  O1  UNL     1       2.642   6.338  15.443  1.00  0.00    -0.390 OA
HETATM   25  H12 UNL     1       3.194   6.487  16.230  1.00  0.00     0.210 HD
ENDBRANCH  21  24
ENDBRANCH   5  21
BRANCH  17  26
HETATM   26  C22 UNL     1      -3.862   7.673  14.658  1.00  0.00     0.014 C 
BRANCH  26  27
HETATM   27  C23 UNL     1      -2.902   8.614  15.432  1.00  0.00    -0.022 C 
HETATM   28  C24 UNL     1      -2.125   7.870  16.525  1.00  0.00     0.009 C 
HETATM   29  C25 UNL     1      -3.561   9.860  16.016  1.00  0.00     0.009 C 
ENDBRANCH  26  27
ENDBRANCH  17  26
BRANCH  12  30
HETATM   30  C15 UNL     1      -3.061   1.902  12.144  1.00  0.00     0.275 C 
HETATM   31  O3  UNL     1      -3.582   0.857  11.760  1.00  0.00    -0.301 OA
ENDBRANCH  12  30
BRANCH  13  32
HETATM   32  O4  UNL     1      -5.930   1.905  11.849  1.00  0.00    -0.359 OA
HETATM   33  H21 UNL     1      -5.259   1.198  11.700  1.00  0.00     0.217 HD
ENDBRANCH  13  32
BRANCH  15  34
HETATM   34  O6  UNL     1      -6.150   6.490  13.270  1.00  0.00    -0.359 OA
HETATM   35  H23 UNL     1      -7.097   6.320  13.056  1.00  0.00     0.217 HD
ENDBRANCH  15  34
BRANCH  14  36
HETATM   36  C18 UNL     1      -7.508   4.143  12.330  1.00  0.00     0.275 C 
HETATM   37  O5  UNL     1      -8.214   3.343  12.941  1.00  0.00    -0.301 OA
ENDBRANCH  14  36
TORSDOF 8
ENDMDL
MODEL 2
REMARK minimizedAffinity -7.54108572
REMARK  8 active torsions:
REMARK  status: ('A' for Active; 'I' for Inactive)
REMARK    1  A    between atoms: C5_5  and  C6_6 
REMARK    2  A    between atoms: C6_6  and  O1_9 
REMARK    3  A    between atoms: C14_16  and  C15_17 
REMARK    4  A    between atoms: C16_19  and  O4_20 
REMARK    5  A    between atoms: C17_21  and  C18_22 
REMARK    6  A    between atoms: C19_24  and  O6_25 
REMARK    7  A    between atoms: C21_27  and  C22_28 
REMARK    8  A    between atoms: C22_28  and  C23_29 
ROOT
HETATM    1  C1  UNL     1       7.499  12.536  11.757  1.00  0.00     0.019 C 
HETATM    2  C2  UNL     1       7.377  11.803  12.881  1.00  0.00    -0.068 C 
HETATM    3  C3  UNL     1       8.593  11.239  13.456  1.00  0.00     0.003 C 
HETATM    4  C4  UNL     1       8.830  10.191  14.266  1.00  0.00    -0.019 C 
HETATM    5  C5  UNL     1       7.883   9.190  14.903  1.00  0.00     0.042 C 
HETATM    6  C9  UNL     1       7.601   7.978  13.965  1.00  0.00     0.014 C 
HETATM    7  C10 UNL     1       7.262   8.286  12.493  1.00  0.00     0.039 C 
HETATM    8  C11 UNL     1       5.778   8.552  12.093  1.00  0.00     0.068 C 
HETATM    9  C12 UNL     1       5.843   9.152  10.660  1.00  0.00     0.047 C 
HETATM   10  O2  UNL     1       5.185   7.213  11.970  1.00  0.00    -0.338 OA
HETATM   11  C13 UNL     1       3.887   7.279  11.506  1.00  0.00     0.095 A 
HETATM   12  C14 UNL     1       3.494   6.497  10.418  1.00  0.00     0.070 A 
HETATM   13  C16 UNL     1       2.218   6.679   9.872  1.00  0.00     0.097 A 
HETATM   14  C17 UNL     1       1.365   7.648  10.415  1.00  0.00     0.069 A 
HETATM   15  C19 UNL     1       1.764   8.402  11.539  1.00  0.00     0.091 A 
HETATM   16  C20 UNL     1       3.008   8.183  12.132  1.00  0.00     0.015 A 
HETATM   17  C21 UNL     1       3.559   8.756  13.420  1.00  0.00     0.031 C 
HETATM   18  C26 UNL     1       4.956   9.411  13.130  1.00  0.00     0.029 C 
HETATM   19  C27 UNL     1       4.916  10.936  12.861  1.00  0.00     0.013 C 
HETATM   20  C28 UNL     1       6.028  11.753  13.561  1.00  0.00     0.038 C 
ENDROOT
BRANCH   5  21
HETATM   21  C6  UNL     1       8.335   8.747  16.349  1.00  0.00     0.057 C 
HETATM   22  C7  UNL     1       9.453   7.694  16.281  1.00  0.00     0.046 C 
HETATM   23  C8  UNL     1       8.783   9.898  17.261  1.00  0.00     0.046 C 
BRANCH  21  24
HETATM   24  O1  UNL     1       7.212   8.107  16.979  1.00  0.00    -0.390 OA
HETATM   25  H12 UNL     1       7.480   7.823  17.869  1.00  0.00     0.210 HD
ENDBRANCH  21  24
ENDBRANCH   5  21
BRANCH  17  26
HETATM   26  C22 UNL     1       2.678   9.555  14.416  1.00  0.00     0.014 C 
BRANCH  26  27
HETATM   27  C23 UNL     1       2.384   8.886  15.785  1.00  0.00    -0.022 C 
HETATM   28  C24 UNL     1       2.723   7.391  15.778  1.00  0.00     0.009 C 
HETATM   29  C25 UNL     1       0.968   9.099  16.309  1.00  0.00     0.009 C 
ENDBRANCH  26  27
ENDBRANCH  17  26
BRANCH  12  30
HETATM   30  C15 UNL     1       4.437   5.521   9.844  1.00  0.00     0.275 C 
HETATM   31  O3  UNL     1       4.016   4.507   9.293  1.00  0.00    -0.301 OA
ENDBRANCH  12  30
BRANCH  13  32
HETATM   32  O4  UNL     1       1.786   5.948   8.793  1.00  0.00    -0.359 OA
HETATM   33  H21 UNL     1       2.502   5.323   8.526  1.00  0.00     0.217 HD
ENDBRANCH  13  32
BRANCH  15  34
HETATM   34  O6  UNL     1       0.956   9.375  12.057  1.00  0.00    -0.359 OA
HETATM   35  H23 UNL     1       0.123   9.418  11.533  1.00  0.00     0.217 HD
ENDBRANCH  15  34
BRANCH  14  36
HETATM   36  C18 UNL     1       0.040   7.866   9.795  1.00  0.00     0.275 C 
HETATM   37  O5  UNL     1      -0.245   8.952   9.296  1.00  0.00    -0.301 OA
ENDBRANCH  14  36
TORSDOF 8
ENDMDL
MODEL 3
REMARK minimizedAffinity -7.20659304
REMARK  8 active torsions:
REMARK  status: ('A' for Active; 'I' for Inactive)
REMARK    1  A    between atoms: C5_5  and  C6_6 
REMARK    2  A    between atoms: C6_6  and  O1_9 
REMARK    3  A    between atoms: C14_16  and  C15_17 
REMARK    4  A    between atoms: C16_19  and  O4_20 
REMARK    5  A    between atoms: C17_21  and  C18_22 
REMARK    6  A    between atoms: C19_24  and  O6_25 
REMARK    7  A    between atoms: C21_27  and  C22_28 
REMARK    8  A    between atoms: C22_28  and  C23_29 
ROOT
HETATM    1  C1  UNL     1       0.376  10.387  17.845  1.00  0.00     0.019 C 
HETATM    2  C2  UNL     1       0.066  11.143  16.774  1.00  0.00    -0.068 C 
HETATM    3  C3  UNL     1      -0.352  12.518  17.015  1.00  0.00     0.003 C 
HETATM    4  C4  UNL     1      -1.087  13.397  16.307  1.00  0.00    -0.019 C 
HETATM    5  C5  UNL     1      -1.758  13.270  14.951  1.00  0.00     0.042 C 
HETATM    6  C9  UNL     1      -3.191  12.670  15.067  1.00  0.00     0.014 C 
HETATM    7  C10 UNL     1      -3.368  11.421  15.954  1.00  0.00     0.039 C 
HETATM    8  C11 UNL     1      -3.156  10.008  15.328  1.00  0.00     0.068 C 
HETATM    9  C12 UNL     1      -3.068   9.036  16.539  1.00  0.00     0.047 C 
HETATM   10  O2  UNL     1      -4.419   9.719  14.636  1.00  0.00    -0.338 OA
HETATM   11  C13 UNL     1      -4.429   8.439  14.121  1.00  0.00     0.095 A 
HETATM   12  C14 UNL     1      -5.500   7.585  14.391  1.00  0.00     0.070 A 
HETATM   13  C16 UNL     1      -5.428   6.249  13.980  1.00  0.00     0.097 A 
HETATM   14  C17 UNL     1      -4.282   5.788  13.320  1.00  0.00     0.069 A 
HETATM   15  C19 UNL     1      -3.225   6.675  13.021  1.00  0.00     0.091 A 
HETATM   16  C20 UNL     1      -3.314   8.024  13.368  1.00  0.00     0.015 A 
HETATM   17  C21 UNL     1      -2.384   9.159  13.003  1.00  0.00     0.031 C 
HETATM   18  C26 UNL     1      -1.952   9.906  14.314  1.00  0.00     0.029 C 
HETATM   19  C27 UNL     1      -0.602   9.438  14.914  1.00  0.00     0.013 C 
HETATM   20  C28 UNL     1       0.328  10.575  15.398  1.00  0.00     0.038 C 
ENDROOT
BRANCH   5  21
HETATM   21  C6  UNL     1      -1.725  14.610  14.119  1.00  0.00     0.057 C 
HETATM   22  C7  UNL     1      -3.145  15.151  13.883  1.00  0.00     0.046 C 
HETATM   23  C8  UNL     1      -0.858  15.721  14.728  1.00  0.00     0.046 C 
BRANCH  21  24
HETATM   24  O1  UNL     1      -1.187  14.303  12.821  1.00  0.00    -0.390 OA
HETATM   25  H12 UNL     1      -1.168  15.120  12.295  1.00  0.00     0.210 HD
ENDBRANCH  21  24
ENDBRANCH   5  21
BRANCH  17  26
HETATM   26  C22 UNL     1      -1.246   8.998  11.960  1.00  0.00     0.014 C 
BRANCH  26  27
HETATM   27  C23 UNL     1      -0.326   7.758  12.112  1.00  0.00    -0.022 C 
HETATM   28  C24 UNL     1       0.975   8.095  12.851  1.00  0.00     0.009 C 
HETATM   29  C25 UNL     1      -0.013   7.031  10.808  1.00  0.00     0.009 C 
ENDBRANCH  26  27
ENDBRANCH  17  26
BRANCH  12  30
HETATM   30  C15 UNL     1      -6.669   8.095  15.131  1.00  0.00     0.275 C 
HETATM   31  O3  UNL     1      -7.016   7.557  16.179  1.00  0.00    -0.301 OA
ENDBRANCH  12  30
BRANCH  13  32
HETATM   32  O4  UNL     1      -6.446   5.362  14.234  1.00  0.00    -0.359 OA
HETATM   33  H21 UNL     1      -7.168   5.837  14.711  1.00  0.00     0.217 HD
ENDBRANCH  13  32
BRANCH  15  34
HETATM   34  O6  UNL     1      -2.087   6.231  12.409  1.00  0.00    -0.359 OA
HETATM   35  H23 UNL     1      -2.168   5.265  12.235  1.00  0.00     0.217 HD
ENDBRANCH  15  34
BRANCH  14  36
HETATM   36  C18 UNL     1      -4.199   4.361  12.939  1.00  0.00     0.275 C 
HETATM   37  O5  UNL     1      -4.121   4.035  11.757  1.00  0.00    -0.301 OA
ENDBRANCH  14  36
TORSDOF 8
ENDMDL
MODEL 4
REMARK minimizedAffinity -7.09861708
REMARK  8 active torsions:
REMARK  status: ('A' for Active; 'I' for Inactive)
REMARK    1  A    between atoms: C5_5  and  C6_6 
REMARK    2  A    between atoms: C6_6  and  O1_9 
REMARK    3  A    between atoms: C14_16  and  C15_17 
REMARK    4  A    between atoms: C16_19  and  O4_20 
REMARK    5  A    between atoms: C17_21  and  C18_22 
REMARK    6  A    between atoms: C19_24  and  O6_25 
REMARK    7  A    between atoms: C21_27  and  C22_28 
REMARK    8  A    between atoms: C22_28  and  C23_29 
ROOT
HETATM    1  C1  UNL     1      -3.032   5.062  15.069  1.00  0.00     0.019 C 
HETATM    2  C2  UNL     1      -2.840   6.361  15.370  1.00  0.00    -0.068 C 
HETATM    3  C3  UNL     1      -4.006   7.237  15.363  1.00  0.00     0.003 C 
HETATM    4  C4  UNL     1      -4.160   8.565  15.211  1.00  0.00    -0.019 C 
HETATM    5  C5  UNL     1      -3.141   9.669  14.994  1.00  0.00     0.042 C 
HETATM    6  C9  UNL     1      -2.812   9.868  13.485  1.00  0.00     0.014 C 
HETATM    7  C10 UNL     1      -2.529   8.604  12.648  1.00  0.00     0.039 C 
HETATM    8  C11 UNL     1      -1.073   8.048  12.580  1.00  0.00     0.068 C 
HETATM    9  C12 UNL     1      -1.210   6.625  11.967  1.00  0.00     0.047 C 
HETATM   10  O2  UNL     1      -0.406   8.886  11.574  1.00  0.00    -0.338 OA
HETATM   11  C13 UNL     1       0.874   8.439  11.316  1.00  0.00     0.095 A 
HETATM   12  C14 UNL     1       1.285   8.219  10.000  1.00  0.00     0.070 A 
HETATM   13  C16 UNL     1       2.534   7.633   9.764  1.00  0.00     0.097 A 
HETATM   14  C17 UNL     1       3.342   7.265  10.847  1.00  0.00     0.069 A 
HETATM   15  C19 UNL     1       2.927   7.530  12.170  1.00  0.00     0.091 A 
HETATM   16  C20 UNL     1       1.713   8.173  12.415  1.00  0.00     0.015 A 
HETATM   17  C21 UNL     1       1.163   8.691  13.726  1.00  0.00     0.031 C 
HETATM   18  C26 UNL     1      -0.277   8.104  13.941  1.00  0.00     0.029 C 
HETATM   19  C27 UNL     1      -0.333   6.821  14.809  1.00  0.00     0.013 C 
HETATM   20  C28 UNL     1      -1.473   6.789  15.854  1.00  0.00     0.038 C 
ENDROOT
BRANCH   5  21
HETATM   21  C6  UNL     1      -3.530  11.018  15.715  1.00  0.00     0.057 C 
HETATM   22  C7  UNL     1      -3.277  10.930  17.229  1.00  0.00     0.046 C 
HETATM   23  C8  UNL     1      -2.829  12.266  15.160  1.00  0.00     0.046 C 
BRANCH  21  24
HETATM   24  O1  UNL     1      -4.946  11.206  15.550  1.00  0.00    -0.390 OA
HETATM   25  H12 UNL     1      -5.200  12.032  15.997  1.00  0.00     0.210 HD
ENDBRANCH  21  24
ENDBRANCH   5  21
BRANCH  17  26
HETATM   26  C22 UNL     1       2.020   8.759  15.017  1.00  0.00     0.014 C 
BRANCH  26  27
HETATM   27  C23 UNL     1       1.884  10.039  15.883  1.00  0.00    -0.022 C 
HETATM   28  C24 UNL     1       3.183  10.368  16.628  1.00  0.00     0.009 C 
HETATM   29  C25 UNL     1       0.710  10.032  16.857  1.00  0.00     0.009 C 
ENDBRANCH  26  27
ENDBRANCH  17  26
BRANCH  12  30
HETATM   30  C15 UNL     1       0.386   8.576   8.888  1.00  0.00     0.275 C 
HETATM   31  O3  UNL     1       0.404   7.922   7.847  1.00  0.00    -0.301 OA
ENDBRANCH  12  30
BRANCH  13  32
HETATM   32  O4  UNL     1       2.981   7.381   8.490  1.00  0.00    -0.359 OA
HETATM   33  H21 UNL     1       2.297   7.686   7.848  1.00  0.00     0.217 HD
ENDBRANCH  13  32
BRANCH  15  34
HETATM   34  O6  UNL     1       3.690   7.146  13.236  1.00  0.00    -0.359 OA
HETATM   35  H23 UNL     1       4.505   6.700  12.908  1.00  0.00     0.217 HD
ENDBRANCH  15  34
BRANCH  14  36
HETATM   36  C18 UNL     1       4.636   6.599  10.583  1.00  0.00     0.275 C 
HETATM   37  O5  UNL     1       4.676   5.535   9.969  1.00  0.00    -0.301 OA
ENDBRANCH  14  36
TORSDOF 8
ENDMDL
MODEL 5
REMARK minimizedAffinity -6.67105198
REMARK  8 active torsions:
REMARK  status: ('A' for Active; 'I' for Inactive)
REMARK    1  A    between atoms: C5_5  and  C6_6 
REMARK    2  A    between atoms: C6_6  and  O1_9 
REMARK    3  A    between atoms: C14_16  and  C15_17 
REMARK    4  A    between atoms: C16_19  and  O4_20 
REMARK    5  A    between atoms: C17_21  and  C18_22 
REMARK    6  A    between atoms: C19_24  and  O6_25 
REMARK    7  A    between atoms: C21_27  and  C22_28 
REMARK    8  A    between atoms: C22_28  and  C23_29 
ROOT
HETATM    1  C1  UNL     1      16.772  -9.370   5.952  1.00  0.00     0.019 C 
HETATM    2  C2  UNL     1      15.453  -9.575   5.773  1.00  0.00    -0.068 C 
HETATM    3  C3  UNL     1      15.046 -10.781   5.061  1.00  0.00     0.003 C 
HETATM    4  C4  UNL     1      13.942 -11.114   4.368  1.00  0.00    -0.019 C 
HETATM    5  C5  UNL     1      12.674 -10.331   4.076  1.00  0.00     0.042 C 
HETATM    6  C9  UNL     1      12.814  -9.457   2.794  1.00  0.00     0.014 C 
HETATM    7  C10 UNL     1      14.097  -8.616   2.645  1.00  0.00     0.039 C 
HETATM    8  C11 UNL     1      14.143  -7.183   3.260  1.00  0.00     0.068 C 
HETATM    9  C12 UNL     1      15.643  -6.776   3.234  1.00  0.00     0.047 C 
HETATM   10  O2  UNL     1      13.452  -6.338   2.275  1.00  0.00    -0.338 OA
HETATM   11  C13 UNL     1      13.510  -5.005   2.627  1.00  0.00     0.095 A 
HETATM   12  C14 UNL     1      13.946  -4.057   1.700  1.00  0.00     0.070 A 
HETATM   13  C16 UNL     1      14.133  -2.733   2.115  1.00  0.00     0.097 A 
HETATM   14  C17 UNL     1      13.895  -2.386   3.451  1.00  0.00     0.069 A 
HETATM   15  C19 UNL     1      13.417  -3.350   4.365  1.00  0.00     0.091 A 
HETATM   16  C20 UNL     1      13.165  -4.657   3.947  1.00  0.00     0.015 A 
HETATM   17  C21 UNL     1      12.508  -5.787   4.710  1.00  0.00     0.031 C 
HETATM   18  C26 UNL     1      13.448  -7.043   4.669  1.00  0.00     0.029 C 
HETATM   19  C27 UNL     1      14.377  -7.201   5.898  1.00  0.00     0.013 C 
HETATM   20  C28 UNL     1      14.484  -8.639   6.457  1.00  0.00     0.038 C 
ENDROOT
BRANCH   5  21
HETATM   21  C6  UNL     1      11.381 -11.236   4.058  1.00  0.00     0.057 C 
HETATM   22  C7  UNL     1      10.130 -10.406   3.726  1.00  0.00     0.046 C 
HETATM   23  C8  UNL     1      11.454 -12.439   3.106  1.00  0.00     0.046 C 
BRANCH  21  24
HETATM   24  O1  UNL     1      11.189 -11.746   5.389  1.00  0.00    -0.390 OA
HETATM   25  H12 UNL     1      10.390 -12.300   5.392  1.00  0.00     0.210 HD
ENDBRANCH  21  24
ENDBRANCH   5  21
BRANCH  17  26
HETATM   26  C22 UNL     1      11.802  -5.566   6.074  1.00  0.00     0.014 C 
BRANCH  26  27
HETATM   27  C23 UNL     1      12.603  -5.944   7.347  1.00  0.00    -0.022 C 
HETATM   28  C24 UNL     1      11.681  -6.293   8.523  1.00  0.00     0.009 C 
HETATM   29  C25 UNL     1      13.637  -4.912   7.783  1.00  0.00     0.009 C 
ENDBRANCH  26  27
ENDBRANCH  17  26
BRANCH  12  30
HETATM   30  C15 UNL     1      14.232  -4.470   0.315  1.00  0.00     0.275 C 
HETATM   31  O3  UNL     1      13.323  -4.865  -0.411  1.00  0.00    -0.301 OA
ENDBRANCH  12  30
BRANCH  13  32
HETATM   32  O4  UNL     1      14.574  -1.763   1.249  1.00  0.00    -0.359 OA
HETATM   33  H21 UNL     1      14.704  -2.168   0.358  1.00  0.00     0.217 HD
ENDBRANCH  13  32
BRANCH  15  34
HETATM   34  O6  UNL     1      13.214  -3.034   5.678  1.00  0.00    -0.359 OA
HETATM   35  H23 UNL     1      13.442  -2.086   5.823  1.00  0.00     0.217 HD
ENDBRANCH  15  34
BRANCH  14  36
HETATM   36  C18 UNL     1      14.147  -0.995   3.887  1.00  0.00     0.275 C 
HETATM   37  O5  UNL     1      14.884  -0.765   4.843  1.00  0.00    -0.301 OA
ENDBRANCH  14  36
TORSDOF 8
ENDMDL
MODEL 6
REMARK minimizedAffinity -6.56710339
REMARK  8 active torsions:
REMARK  status: ('A' for Active; 'I' for Inactive)
REMARK    1  A    between atoms: C5_5  and  C6_6 
REMARK    2  A    between atoms: C6_6  and  O1_9 
REMARK    3  A    between atoms: C14_16  and  C15_17 
REMARK    4  A    between atoms: C16_19  and  O4_20 
REMARK    5  A    between atoms: C17_21  and  C18_22 
REMARK    6  A    between atoms: C19_24  and  O6_25 
REMARK    7  A    between atoms: C21_27  and  C22_28 
REMARK    8  A    between atoms: C22_28  and  C23_29 
ROOT
HETATM    1  C1  UNL     1     -18.867   4.926  26.503  1.00  0.00     0.019 C 
HETATM    2  C2  UNL     1     -17.767   4.211  26.809  1.00  0.00    -0.068 C 
HETATM    3  C3  UNL     1     -17.472   3.996  28.221  1.00  0.00     0.003 C 
HETATM    4  C4  UNL     1     -16.340   3.717  28.894  1.00  0.00    -0.019 C 
HETATM    5  C5  UNL     1     -14.916   3.512  28.408  1.00  0.00     0.042 C 
HETATM    6  C9  UNL     1     -14.136   4.856  28.310  1.00  0.00     0.014 C 
HETATM    7  C10 UNL     1     -14.848   6.041  27.626  1.00  0.00     0.039 C 
HETATM    8  C11 UNL     1     -14.729   6.209  26.079  1.00  0.00     0.068 C 
HETATM    9  C12 UNL     1     -15.815   7.256  25.700  1.00  0.00     0.047 C 
HETATM   10  O2  UNL     1     -13.424   6.853  25.879  1.00  0.00    -0.338 OA
HETATM   11  C13 UNL     1     -13.221   7.175  24.552  1.00  0.00     0.095 A 
HETATM   12  C14 UNL     1     -12.830   8.467  24.200  1.00  0.00     0.070 A 
HETATM   13  C16 UNL     1     -12.765   8.815  22.845  1.00  0.00     0.097 A 
HETATM   14  C17 UNL     1     -13.106   7.869  21.870  1.00  0.00     0.069 A 
HETATM   15  C19 UNL     1     -13.461   6.555  22.244  1.00  0.00     0.091 A 
HETATM   16  C20 UNL     1     -13.466   6.179  23.588  1.00  0.00     0.015 A 
HETATM   17  C21 UNL     1     -13.653   4.802  24.186  1.00  0.00     0.031 C 
HETATM   18  C26 UNL     1     -14.798   4.864  25.259  1.00  0.00     0.029 C 
HETATM   19  C27 UNL     1     -16.200   4.462  24.737  1.00  0.00     0.013 C 
HETATM   20  C28 UNL     1     -17.011   3.545  25.683  1.00  0.00     0.038 C 
ENDROOT
BRANCH   5  21
HETATM   21  C6  UNL     1     -14.136   2.414  29.232  1.00  0.00     0.057 C 
HETATM   22  C7  UNL     1     -12.646   2.393  28.853  1.00  0.00     0.046 C 
HETATM   23  C8  UNL     1     -14.267   2.544  30.756  1.00  0.00     0.046 C 
BRANCH  21  24
HETATM   24  O1  UNL     1     -14.668   1.131  28.858  1.00  0.00    -0.390 OA
HETATM   25  H12 UNL     1     -14.190   0.445  29.355  1.00  0.00     0.210 HD
ENDBRANCH  21  24
ENDBRANCH   5  21
BRANCH  17  26
HETATM   26  C22 UNL     1     -13.665   3.515  23.319  1.00  0.00     0.014 C 
BRANCH  26  27
HETATM   27  C23 UNL     1     -12.953   2.268  23.905  1.00  0.00    -0.022 C 
HETATM   28  C24 UNL     1     -13.788   1.589  24.998  1.00  0.00     0.009 C 
HETATM   29  C25 UNL     1     -11.536   2.519  24.411  1.00  0.00     0.009 C 
ENDBRANCH  26  27
ENDBRANCH  17  26
BRANCH  12  30
HETATM   30  C15 UNL     1     -12.525   9.450  25.255  1.00  0.00     0.275 C 
HETATM   31  O3  UNL     1     -11.401   9.938  25.337  1.00  0.00    -0.301 OA
ENDBRANCH  12  30
BRANCH  13  32
HETATM   32  O4  UNL     1     -12.402  10.077  22.442  1.00  0.00    -0.359 OA
HETATM   33  H21 UNL     1     -12.206  10.621  23.242  1.00  0.00     0.217 HD
ENDBRANCH  13  32
BRANCH  15  34
HETATM   34  O6  UNL     1     -13.830   5.632  21.306  1.00  0.00    -0.359 OA
HETATM   35  H23 UNL     1     -13.786   6.044  20.412  1.00  0.00     0.217 HD
ENDBRANCH  15  34
BRANCH  14  36
HETATM   36  C18 UNL     1     -13.084   8.267  20.446  1.00  0.00     0.275 C 
HETATM   37  O5  UNL     1     -12.065   8.736  19.945  1.00  0.00    -0.301 OA
ENDBRANCH  14  36
TORSDOF 8
ENDMDL
MODEL 7
REMARK minimizedAffinity -6.56091356
REMARK  8 active torsions:
REMARK  status: ('A' for Active; 'I' for Inactive)
REMARK    1  A    between atoms: C5_5  and  C6_6 
REMARK    2  A    between atoms: C6_6  and  O1_9 
REMARK    3  A    between atoms: C14_16  and  C15_17 
REMARK    4  A    between atoms: C16_19  and  O4_20 
REMARK    5  A    between atoms: C17_21  and  C18_22 
REMARK    6  A    between atoms: C19_24  and  O6_25 
REMARK    7  A    between atoms: C21_27  and  C22_28 
REMARK    8  A    between atoms: C22_28  and  C23_29 
ROOT
HETATM    1  C1  UNL     1       2.174  13.819  14.558  1.00  0.00     0.019 C 
HETATM    2  C2  UNL     1       1.961  12.958  15.572  1.00  0.00    -0.068 C 
HETATM    3  C3  UNL     1       2.046  13.479  16.931  1.00  0.00     0.003 C 
HETATM    4  C4  UNL     1       2.292  12.906  18.124  1.00  0.00    -0.019 C 
HETATM    5  C5  UNL     1       2.570  11.461  18.498  1.00  0.00     0.042 C 
HETATM    6  C9  UNL     1       4.084  11.114  18.390  1.00  0.00     0.014 C 
HETATM    7  C10 UNL     1       4.827  11.568  17.118  1.00  0.00     0.039 C 
HETATM    8  C11 UNL     1       4.835  10.633  15.868  1.00  0.00     0.068 C 
HETATM    9  C12 UNL     1       5.350  11.521  14.700  1.00  0.00     0.047 C 
HETATM   10  O2  UNL     1       5.887   9.647  16.153  1.00  0.00    -0.338 OA
HETATM   11  C13 UNL     1       6.094   8.808  15.077  1.00  0.00     0.095 A 
HETATM   12  C14 UNL     1       7.386   8.610  14.586  1.00  0.00     0.070 A 
HETATM   13  C16 UNL     1       7.563   7.871  13.410  1.00  0.00     0.097 A 
HETATM   14  C17 UNL     1       6.445   7.356  12.742  1.00  0.00     0.069 A 
HETATM   15  C19 UNL     1       5.150   7.533  13.274  1.00  0.00     0.091 A 
HETATM   16  C20 UNL     1       4.967   8.213  14.480  1.00  0.00     0.015 A 
HETATM   17  C21 UNL     1       3.704   8.371  15.297  1.00  0.00     0.031 C 
HETATM   18  C26 UNL     1       3.470   9.897  15.582  1.00  0.00     0.029 C 
HETATM   19  C27 UNL     1       2.516  10.605  14.588  1.00  0.00     0.013 C 
HETATM   20  C28 UNL     1       1.488  11.562  15.237  1.00  0.00     0.038 C 
ENDROOT
BRANCH   5  21
HETATM   21  C6  UNL     1       1.950  11.055  19.892  1.00  0.00     0.057 C 
HETATM   22  C7  UNL     1       2.399  12.021  21.000  1.00  0.00     0.046 C 
HETATM   23  C8  UNL     1       0.418  10.950  19.906  1.00  0.00     0.046 C 
BRANCH  21  24
HETATM   24  O1  UNL     1       2.476   9.763  20.241  1.00  0.00    -0.390 OA
HETATM   25  H12 UNL     1       2.106   9.504  21.102  1.00  0.00     0.210 HD
ENDBRANCH  21  24
ENDBRANCH   5  21
BRANCH  17  26
HETATM   26  C22 UNL     1       2.408   7.578  14.984  1.00  0.00     0.014 C 
BRANCH  26  27
HETATM   27  C23 UNL     1       1.806   7.750  13.564  1.00  0.00    -0.022 C 
HETATM   28  C24 UNL     1       0.578   8.668  13.568  1.00  0.00     0.009 C 
HETATM   29  C25 UNL     1       1.480   6.444  12.846  1.00  0.00     0.009 C 
ENDBRANCH  26  27
ENDBRANCH  17  26
BRANCH  12  30
HETATM   30  C15 UNL     1       8.533   9.208  15.291  1.00  0.00     0.275 C 
HETATM   31  O3  UNL     1       9.531   8.531  15.530  1.00  0.00    -0.301 OA
ENDBRANCH  12  30
BRANCH  13  32
HETATM   32  O4  UNL     1       8.809   7.658  12.875  1.00  0.00    -0.359 OA
HETATM   33  H21 UNL     1       9.481   8.090  13.454  1.00  0.00     0.217 HD
ENDBRANCH  13  32
BRANCH  15  34
HETATM   34  O6  UNL     1       4.048   7.067  12.614  1.00  0.00    -0.359 OA
HETATM   35  H23 UNL     1       4.332   6.622  11.783  1.00  0.00     0.217 HD
ENDBRANCH  15  34
BRANCH  14  36
HETATM   36  C18 UNL     1       6.643   6.622  11.473  1.00  0.00     0.275 C 
HETATM   37  O5  UNL     1       7.132   7.185  10.496  1.00  0.00    -0.301 OA
ENDBRANCH  14  36
TORSDOF 8
ENDMDL
MODEL 8
REMARK minimizedAffinity -6.45170021
REMARK  8 active torsions:
REMARK  status: ('A' for Active; 'I' for Inactive)
REMARK    1  A    between atoms: C5_5  and  C6_6 
REMARK    2  A    between atoms: C6_6  and  O1_9 
REMARK    3  A    between atoms: C14_16  and  C15_17 
REMARK    4  A    between atoms: C16_19  and  O4_20 
REMARK    5  A    between atoms: C17_21  and  C18_22 
REMARK    6  A    between atoms: C19_24  and  O6_25 
REMARK    7  A    between atoms: C21_27  and  C22_28 
REMARK    8  A    between atoms: C22_28  and  C23_29 
ROOT
HETATM    1  C1  UNL     1       5.663  13.043  12.588  1.00  0.00     0.019 C 
HETATM    2  C2  UNL     1       5.224  11.827  12.967  1.00  0.00    -0.068 C 
HETATM    3  C3  UNL     1       3.783  11.616  13.024  1.00  0.00     0.003 C 
HETATM    4  C4  UNL     1       3.004  10.750  13.700  1.00  0.00    -0.019 C 
HETATM    5  C5  UNL     1       3.359   9.638  14.670  1.00  0.00     0.042 C 
HETATM    6  C9  UNL     1       3.478  10.161  16.133  1.00  0.00     0.014 C 
HETATM    7  C10 UNL     1       4.289  11.451  16.362  1.00  0.00     0.039 C 
HETATM    8  C11 UNL     1       5.829  11.350  16.595  1.00  0.00     0.068 C 
HETATM    9  C12 UNL     1       6.360  12.803  16.442  1.00  0.00     0.047 C 
HETATM   10  O2  UNL     1       5.963  10.991  18.014  1.00  0.00    -0.338 OA
HETATM   11  C13 UNL     1       7.286  10.975  18.405  1.00  0.00     0.095 A 
HETATM   12  C14 UNL     1       7.686  11.680  19.542  1.00  0.00     0.070 A 
HETATM   13  C16 UNL     1       9.050  11.770  19.844  1.00  0.00     0.097 A 
HETATM   14  C17 UNL     1       9.988  11.165  18.998  1.00  0.00     0.069 A 
HETATM   15  C19 UNL     1       9.563  10.423  17.875  1.00  0.00     0.091 A 
HETATM   16  C20 UNL     1       8.203  10.273  17.600  1.00  0.00     0.015 A 
HETATM   17  C21 UNL     1       7.537   9.399  16.560  1.00  0.00     0.031 C 
HETATM   18  C26 UNL     1       6.566  10.282  15.698  1.00  0.00     0.029 C 
HETATM   19  C27 UNL     1       7.174  10.814  14.376  1.00  0.00     0.013 C 
HETATM   20  C28 UNL     1       6.241  10.723  13.145  1.00  0.00     0.038 C 
ENDROOT
BRANCH   5  21
HETATM   21  C6  UNL     1       2.407   8.385  14.547  1.00  0.00     0.057 C 
HETATM   22  C7  UNL     1       2.056   7.818  15.932  1.00  0.00     0.046 C 
HETATM   23  C8  UNL     1       1.112   8.639  13.764  1.00  0.00     0.046 C 
BRANCH  21  24
HETATM   24  O1  UNL     1       3.135   7.353  13.859  1.00  0.00    -0.390 OA
HETATM   25  H12 UNL     1       2.561   6.572  13.782  1.00  0.00     0.210 HD
ENDBRANCH  21  24
ENDBRANCH   5  21
BRANCH  17  26
HETATM   26  C22 UNL     1       8.319   8.335  15.745  1.00  0.00     0.014 C 
BRANCH  26  27
HETATM   27  C23 UNL     1       8.591   8.656  14.252  1.00  0.00    -0.022 C 
HETATM   28  C24 UNL     1       7.938   7.631  13.317  1.00  0.00     0.009 C 
HETATM   29  C25 UNL     1      10.063   8.827  13.893  1.00  0.00     0.009 C 
ENDBRANCH  26  27
ENDBRANCH  17  26
BRANCH  12  30
HETATM   30  C15 UNL     1       6.673  12.344  20.382  1.00  0.00     0.275 C 
HETATM   31  O3  UNL     1       6.058  11.701  21.230  1.00  0.00    -0.301 OA
ENDBRANCH  12  30
BRANCH  13  32
HETATM   32  O4  UNL     1       9.500  12.463  20.941  1.00  0.00    -0.359 OA
HETATM   33  H21 UNL     1       8.723  12.835  21.422  1.00  0.00     0.217 HD
ENDBRANCH  13  32
BRANCH  15  34
HETATM   34  O6  UNL     1      10.468   9.858  17.022  1.00  0.00    -0.359 OA
HETATM   35  H23 UNL     1      11.380  10.055  17.339  1.00  0.00     0.217 HD
ENDBRANCH  15  34
BRANCH  14  36
HETATM   36  C18 UNL     1      11.428  11.312  19.302  1.00  0.00     0.275 C 
HETATM   37  O5  UNL     1      11.906  10.812  20.317  1.00  0.00    -0.301 OA
ENDBRANCH  14  36
TORSDOF 8
ENDMDL
MODEL 9
REMARK minimizedAffinity -6.43676949
REMARK  8 active torsions:
REMARK  status: ('A' for Active; 'I' for Inactive)
REMARK    1  A    between atoms: C5_5  and  C6_6 
REMARK    2  A    between atoms: C6_6  and  O1_9 
REMARK    3  A    between atoms: C14_16  and  C15_17 
REMARK    4  A    between atoms: C16_19  and  O4_20 
REMARK    5  A    between atoms: C17_21  and  C18_22 
REMARK    6  A    between atoms: C19_24  and  O6_25 
REMARK    7  A    between atoms: C21_27  and  C22_28 
REMARK    8  A    between atoms: C22_28  and  C23_29 
ROOT
HETATM    1  C1  UNL     1     -16.403 -14.153  24.046  1.00  0.00     0.019 C 
HETATM    2  C2  UNL     1     -16.111 -12.965  24.609  1.00  0.00    -0.068 C 
HETATM    3  C3  UNL     1     -16.603 -11.763  23.945  1.00  0.00     0.003 C 
HETATM    4  C4  UNL     1     -16.206 -10.476  23.955  1.00  0.00    -0.019 C 
HETATM    5  C5  UNL     1     -15.072  -9.789  24.694  1.00  0.00     0.042 C 
HETATM    6  C9  UNL     1     -13.737  -9.850  23.893  1.00  0.00     0.014 C 
HETATM    7  C10 UNL     1     -13.334 -11.209  23.288  1.00  0.00     0.039 C 
HETATM    8  C11 UNL     1     -12.508 -12.212  24.153  1.00  0.00     0.068 C 
HETATM    9  C12 UNL     1     -12.581 -13.564  23.388  1.00  0.00     0.047 C 
HETATM   10  O2  UNL     1     -11.123 -11.734  24.048  1.00  0.00    -0.338 OA
HETATM   11  C13 UNL     1     -10.246 -12.594  24.676  1.00  0.00     0.095 A 
HETATM   12  C14 UNL     1      -9.117 -13.057  23.998  1.00  0.00     0.070 A 
HETATM   13  C16 UNL     1      -8.315 -14.036  24.597  1.00  0.00     0.097 A 
HETATM   14  C17 UNL     1      -8.664 -14.543  25.854  1.00  0.00     0.069 A 
HETATM   15  C19 UNL     1      -9.787 -14.035  26.542  1.00  0.00     0.091 A 
HETATM   16  C20 UNL     1     -10.556 -13.013  25.984  1.00  0.00     0.015 A 
HETATM   17  C21 UNL     1     -11.685 -12.225  26.611  1.00  0.00     0.031 C 
HETATM   18  C26 UNL     1     -12.938 -12.290  25.669  1.00  0.00     0.029 C 
HETATM   19  C27 UNL     1     -13.962 -13.398  26.024  1.00  0.00     0.013 C 
HETATM   20  C28 UNL     1     -15.444 -12.960  25.965  1.00  0.00     0.038 C 
ENDROOT
BRANCH   5  21
HETATM   21  C6  UNL     1     -15.436  -8.325  25.158  1.00  0.00     0.057 C 
HETATM   22  C7  UNL     1     -16.885  -8.251  25.667  1.00  0.00     0.046 C 
HETATM   23  C8  UNL     1     -14.499  -7.739  26.224  1.00  0.00     0.046 C 
BRANCH  21  24
HETATM   24  O1  UNL     1     -15.367  -7.472  24.003  1.00  0.00    -0.390 OA
HETATM   25  H12 UNL     1     -15.597  -6.567  24.275  1.00  0.00     0.210 HD
ENDBRANCH  21  24
ENDBRANCH   5  21
BRANCH  17  26
HETATM   26  C22 UNL     1     -12.022 -12.318  28.123  1.00  0.00     0.014 C 
BRANCH  26  27
HETATM   27  C23 UNL     1     -13.013 -11.266  28.687  1.00  0.00    -0.022 C 
HETATM   28  C24 UNL     1     -12.480  -9.836  28.534  1.00  0.00     0.009 C 
HETATM   29  C25 UNL     1     -13.452 -11.509  30.127  1.00  0.00     0.009 C 
ENDBRANCH  26  27
ENDBRANCH  17  26
BRANCH  12  30
HETATM   30  C15 UNL     1      -8.808 -12.534  22.655  1.00  0.00     0.275 C 
HETATM   31  O3  UNL     1      -8.059 -11.568  22.527  1.00  0.00    -0.301 OA
ENDBRANCH  12  30
BRANCH  13  32
HETATM   32  O4  UNL     1      -7.202 -14.538  23.968  1.00  0.00    -0.359 OA
HETATM   33  H21 UNL     1      -7.101 -14.089  23.095  1.00  0.00     0.217 HD
ENDBRANCH  13  32
BRANCH  15  34
HETATM   34  O6  UNL     1     -10.160 -14.545  27.754  1.00  0.00    -0.359 OA
HETATM   35  H23 UNL     1      -9.532 -15.259  28.012  1.00  0.00     0.217 HD
ENDBRANCH  15  34
BRANCH  14  36
HETATM   36  C18 UNL     1      -7.837 -15.615  26.451  1.00  0.00     0.275 C 
HETATM   37  O5  UNL     1      -6.723 -15.868  25.998  1.00  0.00    -0.301 OA
ENDBRANCH  14  36
TORSDOF 8
ENDMDL
