MODEL 1
REMARK minimizedAffinity -7.31691742
REMARK CNNscore 0.538349867
REMARK CNNaffinity 6.8551383
REMARK  4 active torsions:
REMARK  status: ('A' for Active; 'I' for Inactive)
REMARK    1  A    between atoms: C4_4  and  C5_5 
REMARK    2  A    between atoms: C5_5  and  C6_6 
REMARK    3  A    between atoms: C6_6  and  C7_7 
REMARK    4  A    between atoms: C7_7  and  C9_9 
ROOT
HETATM    1  C9  UNL     1      -0.321  53.098 -10.395  1.00  0.00    -0.002 C 
HETATM    2  C10 UNL     1       0.240  52.486 -11.700  1.00  0.00     0.006 C 
HETATM    3  C11 UNL     1       1.764  52.527 -11.609  1.00  0.00     0.011 C 
HETATM    4  C12 UNL     1       2.118  52.823 -10.125  1.00  0.00    -0.032 C 
HETATM    5  C13 UNL     1       2.028  51.456  -9.389  1.00  0.00     0.016 C 
HETATM    6  C14 UNL     1       3.577  53.444 -10.038  1.00  0.00     0.004 C 
HETATM    7  C15 UNL     1       4.592  52.787  -9.072  1.00  0.00     0.007 C 
HETATM    8  C16 UNL     1       4.472  53.238  -7.626  1.00  0.00     0.007 C 
HETATM    9  C17 UNL     1       4.492  54.756  -7.392  1.00  0.00     0.010 C 
HETATM   10  C18 UNL     1       5.757  55.344  -6.682  1.00  0.00     0.018 C 
HETATM   11  C19 UNL     1       5.797  54.904  -5.207  1.00  0.00     0.023 C 
HETATM   12  C20 UNL     1       7.083  54.948  -7.348  1.00  0.00     0.023 C 
HETATM   13  C21 UNL     1       5.643  56.883  -6.690  1.00  0.00     0.135 C 
HETATM   14  O1  UNL     1       6.617  57.614  -6.501  1.00  0.00    -0.297 OA
HETATM   15  C22 UNL     1       4.255  57.472  -6.846  1.00  0.00     0.080 C 
HETATM   16  C23 UNL     1       3.587  56.996  -8.135  1.00  0.00     0.018 C 
HETATM   17  C24 UNL     1       4.092  55.628  -8.582  1.00  0.00    -0.026 A 
HETATM   18  C25 UNL     1       4.922  55.643  -9.852  1.00  0.00     0.021 A 
HETATM   19  C26 UNL     1       3.568  54.968  -9.869  1.00  0.00    -0.027 A 
HETATM   20  C27 UNL     1       2.533  55.646 -10.718  1.00  0.00     0.011 C 
HETATM   21  C28 UNL     1       1.114  55.235 -10.356  1.00  0.00     0.011 C 
HETATM   22  C29 UNL     1       0.932  53.811  -9.752  1.00  0.00    -0.032 C 
HETATM   23  C30 UNL     1       0.772  53.926  -8.222  1.00  0.00     0.016 C 
ENDROOT
BRANCH   1  24
HETATM   24  C7  UNL     1      -1.645  53.883 -10.650  1.00  0.00    -0.014 C 
HETATM   25  C8  UNL     1      -1.562  55.358 -10.257  1.00  0.00     0.010 C 
BRANCH  24  26
HETATM   26  C6  UNL     1      -2.880  53.227  -9.975  1.00  0.00     0.008 C 
BRANCH  26  27
HETATM   27  C5  UNL     1      -4.091  52.999 -10.889  1.00  0.00     0.028 C 
BRANCH  27  28
HETATM   28  C4  UNL     1      -3.635  52.681 -12.288  1.00  0.00    -0.025 C 
HETATM   29  C2  UNL     1      -3.275  51.486 -12.798  1.00  0.00    -0.091 C 
HETATM   30  C1  UNL     1      -2.851  51.368 -14.241  1.00  0.00     0.042 C 
HETATM   31  C3  UNL     1      -3.259  50.183 -12.047  1.00  0.00     0.042 C 
ENDBRANCH  27  28
ENDBRANCH  26  27
ENDBRANCH  24  26
ENDBRANCH   1  24
TORSDOF 4
ENDMDL
MODEL 2
REMARK minimizedAffinity -7.58737183
REMARK CNNscore 0.531985641
REMARK CNNaffinity 6.12628937
REMARK  4 active torsions:
REMARK  status: ('A' for Active; 'I' for Inactive)
REMARK    1  A    between atoms: C4_4  and  C5_5 
REMARK    2  A    between atoms: C5_5  and  C6_6 
REMARK    3  A    between atoms: C6_6  and  C7_7 
REMARK    4  A    between atoms: C7_7  and  C9_9 
ROOT
HETATM    1  C9  UNL     1       1.484  54.856  -9.510  1.00  0.00    -0.002 C 
HETATM    2  C10 UNL     1       1.917  55.670 -10.751  1.00  0.00     0.006 C 
HETATM    3  C11 UNL     1       3.370  56.090 -10.542  1.00  0.00     0.011 C 
HETATM    4  C12 UNL     1       3.919  55.239  -9.363  1.00  0.00    -0.032 C 
HETATM    5  C13 UNL     1       4.317  53.868  -9.981  1.00  0.00     0.016 C 
HETATM    6  C14 UNL     1       5.164  55.974  -8.708  1.00  0.00     0.004 C 
HETATM    7  C15 UNL     1       6.479  55.172  -8.541  1.00  0.00     0.007 C 
HETATM    8  C16 UNL     1       6.530  54.294  -7.302  1.00  0.00     0.007 C 
HETATM    9  C17 UNL     1       6.216  54.992  -5.970  1.00  0.00     0.010 C 
HETATM   10  C18 UNL     1       7.405  55.175  -4.970  1.00  0.00     0.018 C 
HETATM   11  C19 UNL     1       7.838  53.813  -4.396  1.00  0.00     0.023 C 
HETATM   12  C20 UNL     1       8.634  55.861  -5.587  1.00  0.00     0.023 C 
HETATM   13  C21 UNL     1       6.911  56.028  -3.783  1.00  0.00     0.135 C 
HETATM   14  O1  UNL     1       7.688  56.600  -3.017  1.00  0.00    -0.297 OA
HETATM   15  C22 UNL     1       5.417  56.060  -3.530  1.00  0.00     0.080 C 
HETATM   16  C23 UNL     1       4.653  56.563  -4.754  1.00  0.00     0.018 C 
HETATM   17  C24 UNL     1       5.388  56.274  -6.059  1.00  0.00    -0.026 A 
HETATM   18  C25 UNL     1       5.926  57.503  -6.768  1.00  0.00     0.021 A 
HETATM   19  C26 UNL     1       4.807  56.715  -7.414  1.00  0.00    -0.027 A 
HETATM   20  C27 UNL     1       3.492  57.433  -7.493  1.00  0.00     0.011 C 
HETATM   21  C28 UNL     1       2.319  56.488  -7.702  1.00  0.00     0.011 C 
HETATM   22  C29 UNL     1       2.618  55.158  -8.455  1.00  0.00    -0.032 C 
HETATM   23  C30 UNL     1       2.733  54.011  -7.429  1.00  0.00     0.016 C 
ENDROOT
BRANCH   1  24
HETATM   24  C7  UNL     1      -0.018  55.095  -9.161  1.00  0.00    -0.014 C 
HETATM   25  C8  UNL     1      -0.489  54.311  -7.935  1.00  0.00     0.010 C 
BRANCH  24  26
HETATM   26  C6  UNL     1      -0.971  54.823 -10.357  1.00  0.00     0.008 C 
BRANCH  26  27
HETATM   27  C5  UNL     1      -0.731  53.507 -11.108  1.00  0.00     0.028 C 
BRANCH  27  28
HETATM   28  C4  UNL     1      -1.610  52.420 -10.549  1.00  0.00    -0.025 C 
HETATM   29  C2  UNL     1      -2.950  52.422 -10.401  1.00  0.00    -0.091 C 
HETATM   30  C1  UNL     1      -3.656  51.222  -9.822  1.00  0.00     0.042 C 
HETATM   31  C3  UNL     1      -3.870  53.549 -10.781  1.00  0.00     0.042 C 
ENDBRANCH  27  28
ENDBRANCH  26  27
ENDBRANCH  24  26
ENDBRANCH   1  24
TORSDOF 4
ENDMDL
MODEL 3
REMARK minimizedAffinity -7.51313877
REMARK CNNscore 0.494105935
REMARK CNNaffinity 6.49583435
REMARK  4 active torsions:
REMARK  status: ('A' for Active; 'I' for Inactive)
REMARK    1  A    between atoms: C4_4  and  C5_5 
REMARK    2  A    between atoms: C5_5  and  C6_6 
REMARK    3  A    between atoms: C6_6  and  C7_7 
REMARK    4  A    between atoms: C7_7  and  C9_9 
ROOT
HETATM    1  C9  UNL     1       2.925  55.204  -8.599  1.00  0.00    -0.002 C 
HETATM    2  C10 UNL     1       2.214  56.323  -7.802  1.00  0.00     0.006 C 
HETATM    3  C11 UNL     1       0.753  55.911  -7.633  1.00  0.00     0.011 C 
HETATM    4  C12 UNL     1       0.666  54.404  -8.005  1.00  0.00    -0.032 C 
HETATM    5  C13 UNL     1       1.117  53.629  -6.734  1.00  0.00     0.016 C 
HETATM    6  C14 UNL     1      -0.825  54.042  -8.418  1.00  0.00     0.004 C 
HETATM    7  C15 UNL     1      -1.506  52.845  -7.710  1.00  0.00     0.007 C 
HETATM    8  C16 UNL     1      -1.167  51.486  -8.299  1.00  0.00     0.007 C 
HETATM    9  C17 UNL     1      -1.379  51.338  -9.813  1.00  0.00     0.010 C 
HETATM   10  C18 UNL     1      -2.549  50.408 -10.275  1.00  0.00     0.018 C 
HETATM   11  C19 UNL     1      -2.219  48.936  -9.964  1.00  0.00     0.023 C 
HETATM   12  C20 UNL     1      -3.903  50.752  -9.637  1.00  0.00     0.023 C 
HETATM   13  C21 UNL     1      -2.682  50.526 -11.807  1.00  0.00     0.135 C 
HETATM   14  O1  UNL     1      -3.700  50.174 -12.407  1.00  0.00    -0.297 OA
HETATM   15  C22 UNL     1      -1.466  51.007 -12.572  1.00  0.00     0.080 C 
HETATM   16  C23 UNL     1      -1.007  52.381 -12.085  1.00  0.00     0.018 C 
HETATM   17  C24 UNL     1      -1.370  52.633 -10.625  1.00  0.00    -0.026 A 
HETATM   18  C25 UNL     1      -2.432  53.695 -10.411  1.00  0.00     0.021 A 
HETATM   19  C26 UNL     1      -1.021  53.964  -9.936  1.00  0.00    -0.027 A 
HETATM   20  C27 UNL     1      -0.299  55.051 -10.677  1.00  0.00     0.011 C 
HETATM   21  C28 UNL     1       1.210  54.977 -10.506  1.00  0.00     0.011 C 
HETATM   22  C29 UNL     1       1.732  54.349  -9.180  1.00  0.00    -0.032 C 
HETATM   23  C30 UNL     1       2.179  52.897  -9.450  1.00  0.00     0.016 C 
ENDROOT
BRANCH   1  24
HETATM   24  C7  UNL     1       4.029  55.780  -9.538  1.00  0.00    -0.014 C 
HETATM   25  C8  UNL     1       3.475  56.383 -10.829  1.00  0.00     0.010 C 
BRANCH  24  26
HETATM   26  C6  UNL     1       5.140  54.747  -9.875  1.00  0.00     0.008 C 
BRANCH  26  27
HETATM   27  C5  UNL     1       6.427  54.868  -9.050  1.00  0.00     0.028 C 
BRANCH  27  28
HETATM   28  C4  UNL     1       6.294  55.971  -8.034  1.00  0.00    -0.025 C 
HETATM   29  C2  UNL     1       6.721  55.986  -6.756  1.00  0.00    -0.091 C 
HETATM   30  C1  UNL     1       6.498  57.201  -5.890  1.00  0.00     0.042 C 
HETATM   31  C3  UNL     1       7.447  54.865  -6.063  1.00  0.00     0.042 C 
ENDBRANCH  27  28
ENDBRANCH  26  27
ENDBRANCH  24  26
ENDBRANCH   1  24
TORSDOF 4
ENDMDL
MODEL 4
REMARK minimizedAffinity -7.4641695
REMARK CNNscore 0.477521002
REMARK CNNaffinity 6.23984766
REMARK  4 active torsions:
REMARK  status: ('A' for Active; 'I' for Inactive)
REMARK    1  A    between atoms: C4_4  and  C5_5 
REMARK    2  A    between atoms: C5_5  and  C6_6 
REMARK    3  A    between atoms: C6_6  and  C7_7 
REMARK    4  A    between atoms: C7_7  and  C9_9 
ROOT
HETATM    1  C9  UNL     1       5.009  55.864  -7.575  1.00  0.00    -0.002 C 
HETATM    2  C10 UNL     1       4.595  57.352  -7.518  1.00  0.00     0.006 C 
HETATM    3  C11 UNL     1       3.091  57.421  -7.773  1.00  0.00     0.011 C 
HETATM    4  C12 UNL     1       2.543  55.974  -7.626  1.00  0.00    -0.032 C 
HETATM    5  C13 UNL     1       2.358  55.747  -6.098  1.00  0.00     0.016 C 
HETATM    6  C14 UNL     1       1.170  55.839  -8.413  1.00  0.00     0.004 C 
HETATM    7  C15 UNL     1      -0.053  55.275  -7.651  1.00  0.00     0.007 C 
HETATM    8  C16 UNL     1      -0.111  53.758  -7.584  1.00  0.00     0.007 C 
HETATM    9  C17 UNL     1       0.006  53.020  -8.926  1.00  0.00     0.010 C 
HETATM   10  C18 UNL     1      -1.277  52.296  -9.449  1.00  0.00     0.018 C 
HETATM   11  C19 UNL     1      -1.600  51.075  -8.567  1.00  0.00     0.023 C 
HETATM   12  C20 UNL     1      -2.519  53.198  -9.510  1.00  0.00     0.023 C 
HETATM   13  C21 UNL     1      -0.987  51.762 -10.867  1.00  0.00     0.135 C 
HETATM   14  O1  UNL     1      -1.887  51.441 -11.645  1.00  0.00    -0.297 OA
HETATM   15  C22 UNL     1       0.466  51.553 -11.242  1.00  0.00     0.080 C 
HETATM   16  C23 UNL     1       1.270  52.845 -11.108  1.00  0.00     0.018 C 
HETATM   17  C24 UNL     1       0.688  53.788 -10.059  1.00  0.00    -0.026 A 
HETATM   18  C25 UNL     1       0.076  55.058 -10.619  1.00  0.00     0.021 A 
HETATM   19  C26 UNL     1       1.329  55.157  -9.776  1.00  0.00    -0.027 A 
HETATM   20  C27 UNL     1       2.556  55.603 -10.516  1.00  0.00     0.011 C 
HETATM   21  C28 UNL     1       3.842  55.250  -9.786  1.00  0.00     0.011 C 
HETATM   22  C29 UNL     1       3.762  55.156  -8.233  1.00  0.00    -0.032 C 
HETATM   23  C30 UNL     1       3.690  53.672  -7.819  1.00  0.00     0.016 C 
ENDROOT
BRANCH   1  24
HETATM   24  C7  UNL     1       6.438  55.687  -8.175  1.00  0.00    -0.014 C 
HETATM   25  C8  UNL     1       6.497  54.673  -9.318  1.00  0.00     0.010 C 
BRANCH  24  26
HETATM   26  C6  UNL     1       7.508  55.335  -7.105  1.00  0.00     0.008 C 
BRANCH  26  27
HETATM   27  C5  UNL     1       7.658  56.346  -5.961  1.00  0.00     0.028 C 
BRANCH  27  28
HETATM   28  C4  UNL     1       9.087  56.394  -5.491  1.00  0.00    -0.025 C 
HETATM   29  C2  UNL     1       9.795  57.463  -5.074  1.00  0.00    -0.091 C 
HETATM   30  C1  UNL     1      11.228  57.305  -4.631  1.00  0.00     0.042 C 
HETATM   31  C3  UNL     1       9.279  58.873  -4.987  1.00  0.00     0.042 C 
ENDBRANCH  27  28
ENDBRANCH  26  27
ENDBRANCH  24  26
ENDBRANCH   1  24
TORSDOF 4
ENDMDL
MODEL 5
REMARK minimizedAffinity -7.46658134
REMARK CNNscore 0.458919913
REMARK CNNaffinity 5.65043402
REMARK  4 active torsions:
REMARK  status: ('A' for Active; 'I' for Inactive)
REMARK    1  A    between atoms: C4_4  and  C5_5 
REMARK    2  A    between atoms: C5_5  and  C6_6 
REMARK    3  A    between atoms: C6_6  and  C7_7 
REMARK    4  A    between atoms: C7_7  and  C9_9 
ROOT
HETATM    1  C9  UNL     1       6.116  67.887 -36.121  1.00  0.00    -0.002 C 
HETATM    2  C10 UNL     1       6.762  66.673 -36.827  1.00  0.00     0.006 C 
HETATM    3  C11 UNL     1       5.981  66.421 -38.115  1.00  0.00     0.011 C 
HETATM    4  C12 UNL     1       5.107  67.681 -38.364  1.00  0.00    -0.032 C 
HETATM    5  C13 UNL     1       6.048  68.719 -39.041  1.00  0.00     0.016 C 
HETATM    6  C14 UNL     1       3.879  67.303 -39.298  1.00  0.00     0.004 C 
HETATM    7  C15 UNL     1       3.640  68.155 -40.569  1.00  0.00     0.007 C 
HETATM    8  C16 UNL     1       2.874  69.446 -40.330  1.00  0.00     0.007 C 
HETATM    9  C17 UNL     1       1.540  69.307 -39.582  1.00  0.00     0.010 C 
HETATM   10  C18 UNL     1       0.237  69.568 -40.407  1.00  0.00     0.018 C 
HETATM   11  C19 UNL     1       0.121  71.061 -40.767  1.00  0.00     0.023 C 
HETATM   12  C20 UNL     1       0.145  68.744 -41.700  1.00  0.00     0.023 C 
HETATM   13  C21 UNL     1      -0.976  69.224 -39.518  1.00  0.00     0.135 C 
HETATM   14  O1  UNL     1      -2.098  69.022 -39.986  1.00  0.00    -0.297 OA
HETATM   15  C22 UNL     1      -0.758  69.237 -38.018  1.00  0.00     0.080 C 
HETATM   16  C23 UNL     1       0.352  68.272 -37.606  1.00  0.00     0.018 C 
HETATM   17  C24 UNL     1       1.381  68.060 -38.711  1.00  0.00    -0.026 A 
HETATM   18  C25 UNL     1       1.372  66.674 -39.328  1.00  0.00     0.021 A 
HETATM   19  C26 UNL     1       2.574  67.108 -38.517  1.00  0.00    -0.027 A 
HETATM   20  C27 UNL     1       2.768  66.367 -37.226  1.00  0.00     0.011 C 
HETATM   21  C28 UNL     1       3.663  67.113 -36.250  1.00  0.00     0.011 C 
HETATM   22  C29 UNL     1       4.736  68.059 -36.867  1.00  0.00    -0.032 C 
HETATM   23  C30 UNL     1       4.240  69.517 -36.774  1.00  0.00     0.016 C 
ENDROOT
BRANCH   1  24
HETATM   24  C7  UNL     1       6.173  67.746 -34.568  1.00  0.00    -0.014 C 
HETATM   25  C8  UNL     1       7.019  68.825 -33.891  1.00  0.00     0.010 C 
BRANCH  24  26
HETATM   26  C6  UNL     1       6.642  66.340 -34.102  1.00  0.00     0.008 C 
BRANCH  26  27
HETATM   27  C5  UNL     1       5.552  65.446 -33.497  1.00  0.00     0.028 C 
BRANCH  27  28
HETATM   28  C4  UNL     1       5.635  64.059 -34.075  1.00  0.00    -0.025 C 
HETATM   29  C2  UNL     1       4.996  62.944 -33.668  1.00  0.00    -0.091 C 
HETATM   30  C1  UNL     1       5.207  61.636 -34.390  1.00  0.00     0.042 C 
HETATM   31  C3  UNL     1       4.034  62.859 -32.516  1.00  0.00     0.042 C 
ENDBRANCH  27  28
ENDBRANCH  26  27
ENDBRANCH  24  26
ENDBRANCH   1  24
TORSDOF 4
ENDMDL
MODEL 6
REMARK minimizedAffinity -6.89589977
REMARK CNNscore 0.456208318
REMARK CNNaffinity 6.51468658
REMARK  4 active torsions:
REMARK  status: ('A' for Active; 'I' for Inactive)
REMARK    1  A    between atoms: C4_4  and  C5_5 
REMARK    2  A    between atoms: C5_5  and  C6_6 
REMARK    3  A    between atoms: C6_6  and  C7_7 
REMARK    4  A    between atoms: C7_7  and  C9_9 
ROOT
HETATM    1  C9  UNL     1       4.083  54.743  -8.795  1.00  0.00    -0.002 C 
HETATM    2  C10 UNL     1       4.177  55.955  -9.751  1.00  0.00     0.006 C 
HETATM    3  C11 UNL     1       2.883  56.005 -10.559  1.00  0.00     0.011 C 
HETATM    4  C12 UNL     1       1.874  55.059  -9.851  1.00  0.00    -0.032 C 
HETATM    5  C13 UNL     1       1.271  55.885  -8.679  1.00  0.00     0.016 C 
HETATM    6  C14 UNL     1       0.758  54.600 -10.884  1.00  0.00     0.004 C 
HETATM    7  C15 UNL     1      -0.726  54.790 -10.485  1.00  0.00     0.007 C 
HETATM    8  C16 UNL     1      -1.291  53.687  -9.607  1.00  0.00     0.007 C 
HETATM    9  C17 UNL     1      -1.110  52.253 -10.128  1.00  0.00     0.010 C 
HETATM   10  C18 UNL     1      -2.400  51.505 -10.602  1.00  0.00     0.018 C 
HETATM   11  C19 UNL     1      -3.302  51.177  -9.397  1.00  0.00     0.023 C 
HETATM   12  C20 UNL     1      -3.226  52.286 -11.635  1.00  0.00     0.023 C 
HETATM   13  C21 UNL     1      -1.976  50.160 -11.226  1.00  0.00     0.135 C 
HETATM   14  O1  UNL     1      -2.722  49.513 -11.964  1.00  0.00    -0.297 OA
HETATM   15  C22 UNL     1      -0.626  49.604 -10.818  1.00  0.00     0.080 C 
HETATM   16  C23 UNL     1       0.501  50.586 -11.134  1.00  0.00     0.018 C 
HETATM   17  C24 UNL     1       0.031  52.037 -11.122  1.00  0.00    -0.026 A 
HETATM   18  C25 UNL     1       0.018  52.709 -12.483  1.00  0.00     0.021 A 
HETATM   19  C26 UNL     1       0.999  53.190 -11.436  1.00  0.00    -0.027 A 
HETATM   20  C27 UNL     1       2.442  52.923 -11.751  1.00  0.00     0.011 C 
HETATM   21  C28 UNL     1       3.333  52.984 -10.520  1.00  0.00     0.011 C 
HETATM   22  C29 UNL     1       2.864  53.917  -9.364  1.00  0.00    -0.032 C 
HETATM   23  C30 UNL     1       2.215  53.062  -8.255  1.00  0.00     0.016 C 
ENDROOT
BRANCH   1  24
HETATM   24  C7  UNL     1       5.474  54.070  -8.580  1.00  0.00    -0.014 C 
HETATM   25  C8  UNL     1       6.594  54.716  -9.396  1.00  0.00     0.010 C 
BRANCH  24  26
HETATM   26  C6  UNL     1       5.454  52.538  -8.834  1.00  0.00     0.008 C 
BRANCH  26  27
HETATM   27  C5  UNL     1       6.752  51.944  -9.396  1.00  0.00     0.028 C 
BRANCH  27  28
HETATM   28  C4  UNL     1       6.656  50.442  -9.455  1.00  0.00    -0.025 C 
HETATM   29  C2  UNL     1       7.421  49.530  -8.822  1.00  0.00    -0.091 C 
HETATM   30  C1  UNL     1       7.160  48.056  -9.004  1.00  0.00     0.042 C 
HETATM   31  C3  UNL     1       8.563  49.840  -7.894  1.00  0.00     0.042 C 
ENDBRANCH  27  28
ENDBRANCH  26  27
ENDBRANCH  24  26
ENDBRANCH   1  24
TORSDOF 4
ENDMDL
MODEL 7
REMARK minimizedAffinity -7.55249882
REMARK CNNscore 0.426979959
REMARK CNNaffinity 5.93861198
REMARK  4 active torsions:
REMARK  status: ('A' for Active; 'I' for Inactive)
REMARK    1  A    between atoms: C4_4  and  C5_5 
REMARK    2  A    between atoms: C5_5  and  C6_6 
REMARK    3  A    between atoms: C6_6  and  C7_7 
REMARK    4  A    between atoms: C7_7  and  C9_9 
ROOT
HETATM    1  C9  UNL     1      -6.897  47.716 -28.356  1.00  0.00    -0.002 C 
HETATM    2  C10 UNL     1      -5.458  47.911 -28.887  1.00  0.00     0.006 C 
HETATM    3  C11 UNL     1      -5.433  47.430 -30.336  1.00  0.00     0.011 C 
HETATM    4  C12 UNL     1      -6.913  47.285 -30.787  1.00  0.00    -0.032 C 
HETATM    5  C13 UNL     1      -7.376  48.716 -31.183  1.00  0.00     0.016 C 
HETATM    6  C14 UNL     1      -7.002  46.277 -32.011  1.00  0.00     0.004 C 
HETATM    7  C15 UNL     1      -7.739  46.746 -33.289  1.00  0.00     0.007 C 
HETATM    8  C16 UNL     1      -9.250  46.591 -33.241  1.00  0.00     0.007 C 
HETATM    9  C17 UNL     1      -9.771  45.196 -32.865  1.00  0.00     0.010 C 
HETATM   10  C18 UNL     1     -10.477  44.378 -33.996  1.00  0.00     0.018 C 
HETATM   11  C19 UNL     1     -11.831  45.018 -34.355  1.00  0.00     0.023 C 
HETATM   12  C20 UNL     1      -9.643  44.244 -35.279  1.00  0.00     0.023 C 
HETATM   13  C21 UNL     1     -10.776  42.964 -33.455  1.00  0.00     0.135 C 
HETATM   14  O1  UNL     1     -11.025  42.015 -34.200  1.00  0.00    -0.297 OA
HETATM   15  C22 UNL     1     -10.849  42.802 -31.950  1.00  0.00     0.080 C 
HETATM   16  C23 UNL     1      -9.550  43.242 -31.277  1.00  0.00     0.018 C 
HETATM   17  C24 UNL     1      -8.808  44.305 -32.081  1.00  0.00    -0.026 A 
HETATM   18  C25 UNL     1      -7.502  43.836 -32.696  1.00  0.00     0.021 A 
HETATM   19  C26 UNL     1      -7.463  44.875 -31.597  1.00  0.00    -0.027 A 
HETATM   20  C27 UNL     1      -6.847  44.411 -30.309  1.00  0.00     0.011 C 
HETATM   21  C28 UNL     1      -7.235  45.282 -29.125  1.00  0.00     0.011 C 
HETATM   22  C29 UNL     1      -7.564  46.773 -29.432  1.00  0.00    -0.032 C 
HETATM   23  C30 UNL     1      -9.095  46.960 -29.452  1.00  0.00     0.016 C 
ENDROOT
BRANCH   1  24
HETATM   24  C7  UNL     1      -6.906  47.334 -26.843  1.00  0.00    -0.014 C 
HETATM   25  C8  UNL     1      -8.250  47.588 -26.160  1.00  0.00     0.010 C 
BRANCH  24  26
HETATM   26  C6  UNL     1      -5.768  48.019 -26.037  1.00  0.00     0.008 C 
BRANCH  26  27
HETATM   27  C5  UNL     1      -5.928  47.990 -24.512  1.00  0.00     0.028 C 
BRANCH  27  28
HETATM   28  C4  UNL     1      -4.716  48.589 -23.849  1.00  0.00    -0.025 C 
HETATM   29  C2  UNL     1      -3.496  48.811 -24.381  1.00  0.00    -0.091 C 
HETATM   30  C1  UNL     1      -2.403  49.435 -23.549  1.00  0.00     0.042 C 
HETATM   31  C3  UNL     1      -3.088  48.498 -25.794  1.00  0.00     0.042 C 
ENDBRANCH  27  28
ENDBRANCH  26  27
ENDBRANCH  24  26
ENDBRANCH   1  24
TORSDOF 4
ENDMDL
MODEL 8
REMARK minimizedAffinity -7.13766909
REMARK CNNscore 0.36789307
REMARK CNNaffinity 6.24713087
REMARK  4 active torsions:
REMARK  status: ('A' for Active; 'I' for Inactive)
REMARK    1  A    between atoms: C4_4  and  C5_5 
REMARK    2  A    between atoms: C5_5  and  C6_6 
REMARK    3  A    between atoms: C6_6  and  C7_7 
REMARK    4  A    between atoms: C7_7  and  C9_9 
ROOT
HETATM    1  C9  UNL     1       4.264  54.398  -9.269  1.00  0.00    -0.002 C 
HETATM    2  C10 UNL     1       4.297  55.647 -10.179  1.00  0.00     0.006 C 
HETATM    3  C11 UNL     1       2.930  55.763 -10.850  1.00  0.00     0.011 C 
HETATM    4  C12 UNL     1       1.970  54.812 -10.082  1.00  0.00    -0.032 C 
HETATM    5  C13 UNL     1       1.512  55.602  -8.823  1.00  0.00     0.016 C 
HETATM    6  C14 UNL     1       0.744  54.424 -11.014  1.00  0.00     0.004 C 
HETATM    7  C15 UNL     1      -0.687  54.633 -10.459  1.00  0.00     0.007 C 
HETATM    8  C16 UNL     1      -1.192  53.506  -9.573  1.00  0.00     0.007 C 
HETATM    9  C17 UNL     1      -1.104  52.093 -10.167  1.00  0.00     0.010 C 
HETATM   10  C18 UNL     1      -2.455  51.396 -10.537  1.00  0.00     0.018 C 
HETATM   11  C19 UNL     1      -3.240  51.039  -9.261  1.00  0.00     0.023 C 
HETATM   12  C20 UNL     1      -3.358  52.240 -11.449  1.00  0.00     0.023 C 
HETATM   13  C21 UNL     1      -2.133  50.069 -11.254  1.00  0.00     0.135 C 
HETATM   14  O1  UNL     1      -2.968  49.473 -11.938  1.00  0.00    -0.297 OA
HETATM   15  C22 UNL     1      -0.766  49.464 -11.008  1.00  0.00     0.080 C 
HETATM   16  C23 UNL     1       0.351  50.431 -11.397  1.00  0.00     0.018 C 
HETATM   17  C24 UNL     1      -0.075  51.891 -11.280  1.00  0.00    -0.026 A 
HETATM   18  C25 UNL     1      -0.205  52.621 -12.604  1.00  0.00     0.021 A 
HETATM   19  C26 UNL     1       0.889  53.034 -11.644  1.00  0.00    -0.027 A 
HETATM   20  C27 UNL     1       2.285  52.746 -12.113  1.00  0.00     0.011 C 
HETATM   21  C28 UNL     1       3.296  52.733 -10.977  1.00  0.00     0.011 C 
HETATM   22  C29 UNL     1       2.972  53.627  -9.743  1.00  0.00    -0.032 C 
HETATM   23  C30 UNL     1       2.414  52.741  -8.610  1.00  0.00     0.016 C 
ENDROOT
BRANCH   1  24
HETATM   24  C7  UNL     1       5.651  53.684  -9.222  1.00  0.00    -0.014 C 
HETATM   25  C8  UNL     1       5.552  52.160  -9.296  1.00  0.00     0.010 C 
BRANCH  24  26
HETATM   26  C6  UNL     1       6.506  54.096  -7.993  1.00  0.00     0.008 C 
BRANCH  26  27
HETATM   27  C5  UNL     1       7.045  55.533  -8.013  1.00  0.00     0.028 C 
BRANCH  27  28
HETATM   28  C4  UNL     1       6.822  56.192  -6.678  1.00  0.00    -0.025 C 
HETATM   29  C2  UNL     1       5.817  57.010  -6.307  1.00  0.00    -0.091 C 
HETATM   30  C1  UNL     1       5.765  57.569  -4.907  1.00  0.00     0.042 C 
HETATM   31  C3  UNL     1       4.673  57.443  -7.182  1.00  0.00     0.042 C 
ENDBRANCH  27  28
ENDBRANCH  26  27
ENDBRANCH  24  26
ENDBRANCH   1  24
TORSDOF 4
ENDMDL
MODEL 9
REMARK minimizedAffinity -6.73160267
REMARK CNNscore 0.351716459
REMARK CNNaffinity 5.54485464
REMARK  4 active torsions:
REMARK  status: ('A' for Active; 'I' for Inactive)
REMARK    1  A    between atoms: C4_4  and  C5_5 
REMARK    2  A    between atoms: C5_5  and  C6_6 
REMARK    3  A    between atoms: C6_6  and  C7_7 
REMARK    4  A    between atoms: C7_7  and  C9_9 
ROOT
HETATM    1  C9  UNL     1      -9.532  46.468 -29.272  1.00  0.00    -0.002 C 
HETATM    2  C10 UNL     1      -8.739  45.142 -29.198  1.00  0.00     0.006 C 
HETATM    3  C11 UNL     1      -9.664  44.087 -28.595  1.00  0.00     0.011 C 
HETATM    4  C12 UNL     1     -11.103  44.671 -28.641  1.00  0.00    -0.032 C 
HETATM    5  C13 UNL     1     -11.617  44.415 -30.086  1.00  0.00     0.016 C 
HETATM    6  C14 UNL     1     -12.008  43.946 -27.556  1.00  0.00     0.004 C 
HETATM    7  C15 UNL     1     -13.353  43.335 -28.020  1.00  0.00     0.007 C 
HETATM    8  C16 UNL     1     -14.502  44.326 -28.104  1.00  0.00     0.007 C 
HETATM    9  C17 UNL     1     -14.760  45.164 -26.843  1.00  0.00     0.010 C 
HETATM   10  C18 UNL     1     -16.072  44.859 -26.048  1.00  0.00     0.018 C 
HETATM   11  C19 UNL     1     -17.305  45.309 -26.855  1.00  0.00     0.023 C 
HETATM   12  C20 UNL     1     -16.243  43.378 -25.678  1.00  0.00     0.023 C 
HETATM   13  C21 UNL     1     -16.055  45.692 -24.750  1.00  0.00     0.135 C 
HETATM   14  O1  UNL     1     -16.779  45.425 -23.789  1.00  0.00    -0.297 OA
HETATM   15  C22 UNL     1     -15.174  46.925 -24.732  1.00  0.00     0.080 C 
HETATM   16  C23 UNL     1     -13.716  46.575 -25.024  1.00  0.00     0.018 C 
HETATM   17  C24 UNL     1     -13.579  45.324 -25.886  1.00  0.00    -0.026 A 
HETATM   18  C25 UNL     1     -12.986  44.124 -25.170  1.00  0.00     0.021 A 
HETATM   19  C26 UNL     1     -12.196  44.779 -26.282  1.00  0.00    -0.027 A 
HETATM   20  C27 UNL     1     -10.938  45.470 -25.843  1.00  0.00     0.011 C 
HETATM   21  C28 UNL     1     -10.436  46.480 -26.862  1.00  0.00     0.011 C 
HETATM   22  C29 UNL     1     -10.787  46.201 -28.354  1.00  0.00    -0.032 C 
HETATM   23  C30 UNL     1     -11.972  47.096 -28.771  1.00  0.00     0.016 C 
ENDROOT
BRANCH   1  24
HETATM   24  C7  UNL     1      -8.610  47.703 -29.029  1.00  0.00    -0.014 C 
HETATM   25  C8  UNL     1      -8.679  48.742 -30.149  1.00  0.00     0.010 C 
BRANCH  24  26
HETATM   26  C6  UNL     1      -7.130  47.315 -28.763  1.00  0.00     0.008 C 
BRANCH  26  27
HETATM   27  C5  UNL     1      -6.594  47.669 -27.370  1.00  0.00     0.028 C 
BRANCH  27  28
HETATM   28  C4  UNL     1      -5.125  47.994 -27.444  1.00  0.00    -0.025 C 
HETATM   29  C2  UNL     1      -4.300  48.365 -26.445  1.00  0.00    -0.091 C 
HETATM   30  C1  UNL     1      -2.843  48.643 -26.720  1.00  0.00     0.042 C 
HETATM   31  C3  UNL     1      -4.693  48.532 -25.002  1.00  0.00     0.042 C 
ENDBRANCH  27  28
ENDBRANCH  26  27
ENDBRANCH  24  26
ENDBRANCH   1  24
TORSDOF 4
ENDMDL
