MODEL 1
REMARK minimizedAffinity -9.1079855
REMARK  4 active torsions:
REMARK  status: ('A' for Active; 'I' for Inactive)
REMARK    1  A    between atoms: C2_2  and  C4_4 
REMARK    2  A    between atoms: C13_13  and  C15_15 
REMARK    3  A    between atoms: C15_15  and  O1_16 
REMARK    4  A    between atoms: C18_19  and  O2_20 
ROOT
HETATM    1  C4  UNL     1      -0.177  51.386 -20.463  1.00  0.00     0.021 C 
HETATM    2  C5  UNL     1       0.800  52.527 -20.818  1.00  0.00     0.008 C 
HETATM    3  C6  UNL     1       0.786  52.978 -22.295  1.00  0.00     0.009 C 
HETATM    4  C7  UNL     1      -0.033  52.068 -23.236  1.00  0.00     0.034 C 
HETATM    5  C8  UNL     1      -0.031  52.489 -24.765  1.00  0.00    -0.033 C 
HETATM    6  C9  UNL     1      -0.037  54.028 -24.927  1.00  0.00     0.016 C 
HETATM    7  C10 UNL     1       1.281  51.953 -25.403  1.00  0.00     0.010 C 
HETATM    8  C11 UNL     1       1.280  51.994 -26.926  1.00  0.00     0.002 C 
HETATM    9  C12 UNL     1       0.130  51.172 -27.491  1.00  0.00     0.012 C 
HETATM   10  C13 UNL     1      -1.269  51.633 -27.008  1.00  0.00    -0.018 C 
HETATM   11  C14 UNL     1      -1.669  52.916 -27.769  1.00  0.00     0.018 C 
HETATM   12  C16 UNL     1      -1.268  51.786 -25.436  1.00  0.00     0.007 C 
HETATM   13  C17 UNL     1      -2.604  52.310 -24.854  1.00  0.00     0.041 C 
HETATM   14  C18 UNL     1      -2.556  52.641 -23.356  1.00  0.00     0.156 C 
HETATM   15  C19 UNL     1      -1.431  51.935 -22.663  1.00  0.00     0.118 A 
HETATM   16  O3  UNL     1      -1.777  50.623 -22.181  1.00  0.00    -0.366 OA
HETATM   17  C20 UNL     1      -1.485  51.614 -21.186  1.00  0.00     0.165 A 
ENDROOT
BRANCH  10  18
HETATM   18  C15 UNL     1      -2.298  50.525 -27.398  1.00  0.00     0.173 C 
BRANCH  18  19
HETATM   19  O1  UNL     1      -2.972  50.815 -28.618  1.00  0.00    -0.400 OA
HETATM   20  H28 UNL     1      -3.631  51.507 -28.436  1.00  0.00     0.209 HD
ENDBRANCH  18  19
ENDBRANCH  10  18
BRANCH  14  21
HETATM   21  O2  UNL     1      -3.816  52.297 -22.774  1.00  0.00    -0.392 OA
HETATM   22  H33 UNL     1      -3.783  51.331 -22.626  1.00  0.00     0.210 HD
ENDBRANCH  14  21
BRANCH   1  23
HETATM   23  C2  UNL     1      -0.392  51.223 -18.934  1.00  0.00    -0.016 C 
HETATM   24  C1  UNL     1      -1.841  51.496 -18.515  1.00  0.00     0.010 C 
HETATM   25  C3  UNL     1       0.535  52.156 -18.143  1.00  0.00     0.010 C 
ENDBRANCH   1  23
TORSDOF 4
ENDMDL
MODEL 2
REMARK minimizedAffinity -8.13791656
REMARK  4 active torsions:
REMARK  status: ('A' for Active; 'I' for Inactive)
REMARK    1  A    between atoms: C2_2  and  C4_4 
REMARK    2  A    between atoms: C13_13  and  C15_15 
REMARK    3  A    between atoms: C15_15  and  O1_16 
REMARK    4  A    between atoms: C18_19  and  O2_20 
ROOT
HETATM    1  C4  UNL     1      -1.083  51.902 -26.463  1.00  0.00     0.021 C 
HETATM    2  C5  UNL     1      -0.104  51.698 -25.287  1.00  0.00     0.008 C 
HETATM    3  C6  UNL     1      -0.704  51.026 -24.033  1.00  0.00     0.009 C 
HETATM    4  C7  UNL     1      -2.239  50.871 -24.060  1.00  0.00     0.034 C 
HETATM    5  C8  UNL     1      -2.883  50.218 -22.766  1.00  0.00    -0.033 C 
HETATM    6  C9  UNL     1      -1.972  49.113 -22.179  1.00  0.00     0.016 C 
HETATM    7  C10 UNL     1      -3.024  51.332 -21.693  1.00  0.00     0.010 C 
HETATM    8  C11 UNL     1      -3.914  50.941 -20.520  1.00  0.00     0.002 C 
HETATM    9  C12 UNL     1      -5.316  50.589 -20.997  1.00  0.00     0.012 C 
HETATM   10  C13 UNL     1      -5.357  49.429 -22.025  1.00  0.00    -0.018 C 
HETATM   11  C14 UNL     1      -5.155  48.089 -21.284  1.00  0.00     0.018 C 
HETATM   12  C16 UNL     1      -4.310  49.698 -23.176  1.00  0.00     0.007 C 
HETATM   13  C17 UNL     1      -4.222  48.562 -24.225  1.00  0.00     0.041 C 
HETATM   14  C18 UNL     1      -3.080  48.723 -25.238  1.00  0.00     0.156 C 
HETATM   15  C19 UNL     1      -2.616  50.144 -25.337  1.00  0.00     0.118 A 
HETATM   16  O3  UNL     1      -3.345  50.928 -26.301  1.00  0.00    -0.366 OA
HETATM   17  C20 UNL     1      -1.962  50.680 -26.591  1.00  0.00     0.165 A 
ENDROOT
BRANCH  10  18
HETATM   18  C15 UNL     1      -6.787  49.398 -22.653  1.00  0.00     0.173 C 
BRANCH  18  19
HETATM   19  O1  UNL     1      -7.319  50.703 -22.859  1.00  0.00    -0.400 OA
HETATM   20  H28 UNL     1      -7.595  51.050 -21.994  1.00  0.00     0.209 HD
ENDBRANCH  18  19
ENDBRANCH  10  18
BRANCH  14  21
HETATM   21  O2  UNL     1      -3.528  48.238 -26.507  1.00  0.00    -0.392 OA
HETATM   22  H33 UNL     1      -4.058  48.963 -26.894  1.00  0.00     0.210 HD
ENDBRANCH  14  21
BRANCH   1  23
HETATM   23  C2  UNL     1      -0.367  52.232 -27.801  1.00  0.00    -0.016 C 
HETATM   24  C1  UNL     1       1.067  51.693 -27.844  1.00  0.00     0.010 C 
HETATM   25  C3  UNL     1      -0.333  53.747 -28.050  1.00  0.00     0.010 C 
ENDBRANCH   1  23
TORSDOF 4
ENDMDL
MODEL 3
REMARK minimizedAffinity -8.04639053
REMARK  4 active torsions:
REMARK  status: ('A' for Active; 'I' for Inactive)
REMARK    1  A    between atoms: C2_2  and  C4_4 
REMARK    2  A    between atoms: C13_13  and  C15_15 
REMARK    3  A    between atoms: C15_15  and  O1_16 
REMARK    4  A    between atoms: C18_19  and  O2_20 
ROOT
HETATM    1  C4  UNL     1      -3.382  48.679 -26.384  1.00  0.00     0.021 C 
HETATM    2  C5  UNL     1      -4.374  48.280 -25.271  1.00  0.00     0.008 C 
HETATM    3  C6  UNL     1      -4.044  48.820 -23.862  1.00  0.00     0.009 C 
HETATM    4  C7  UNL     1      -2.655  49.482 -23.739  1.00  0.00     0.034 C 
HETATM    5  C8  UNL     1      -2.277  50.011 -22.292  1.00  0.00    -0.033 C 
HETATM    6  C9  UNL     1      -3.513  50.591 -21.562  1.00  0.00     0.016 C 
HETATM    7  C10 UNL     1      -1.765  48.801 -21.463  1.00  0.00     0.010 C 
HETATM    8  C11 UNL     1      -1.065  49.199 -20.169  1.00  0.00     0.002 C 
HETATM    9  C12 UNL     1       0.132  50.095 -20.454  1.00  0.00     0.012 C 
HETATM   10  C13 UNL     1      -0.224  51.398 -21.215  1.00  0.00    -0.018 C 
HETATM   11  C14 UNL     1      -0.876  52.396 -20.232  1.00  0.00     0.018 C 
HETATM   12  C16 UNL     1      -1.114  51.055 -22.474  1.00  0.00     0.007 C 
HETATM   13  C17 UNL     1      -1.584  52.297 -23.271  1.00  0.00     0.041 C 
HETATM   14  C18 UNL     1      -2.599  51.991 -24.381  1.00  0.00     0.156 C 
HETATM   15  C19 UNL     1      -2.547  50.555 -24.806  1.00  0.00     0.118 A 
HETATM   16  O3  UNL     1      -1.592  50.292 -25.850  1.00  0.00    -0.366 OA
HETATM   17  C20 UNL     1      -2.975  50.121 -26.190  1.00  0.00     0.165 A 
ENDROOT
BRANCH  10  18
HETATM   18  C15 UNL     1       1.110  52.042 -21.710  1.00  0.00     0.173 C 
BRANCH  18  19
HETATM   19  O1  UNL     1       1.523  53.131 -20.892  1.00  0.00    -0.400 OA
HETATM   20  H28 UNL     1       0.958  53.893 -21.104  1.00  0.00     0.209 HD
ENDBRANCH  18  19
ENDBRANCH  10  18
BRANCH  14  21
HETATM   21  O2  UNL     1      -2.341  52.864 -25.484  1.00  0.00    -0.392 OA
HETATM   22  H33 UNL     1      -1.594  52.461 -25.970  1.00  0.00     0.210 HD
ENDBRANCH  14  21
BRANCH   1  23
HETATM   23  C2  UNL     1      -3.939  48.431 -27.812  1.00  0.00    -0.016 C 
HETATM   24  C1  UNL     1      -3.838  49.674 -28.702  1.00  0.00     0.010 C 
HETATM   25  C3  UNL     1      -5.404  47.976 -27.763  1.00  0.00     0.010 C 
ENDBRANCH   1  23
TORSDOF 4
ENDMDL
MODEL 4
REMARK minimizedAffinity -8.00381374
REMARK  4 active torsions:
REMARK  status: ('A' for Active; 'I' for Inactive)
REMARK    1  A    between atoms: C2_2  and  C4_4 
REMARK    2  A    between atoms: C13_13  and  C15_15 
REMARK    3  A    between atoms: C15_15  and  O1_16 
REMARK    4  A    between atoms: C18_19  and  O2_20 
ROOT
HETATM    1  C4  UNL     1       0.451  52.011 -23.625  1.00  0.00     0.021 C 
HETATM    2  C5  UNL     1      -1.057  51.688 -23.668  1.00  0.00     0.008 C 
HETATM    3  C6  UNL     1      -1.701  51.341 -22.308  1.00  0.00     0.009 C 
HETATM    4  C7  UNL     1      -0.694  51.146 -21.153  1.00  0.00     0.034 C 
HETATM    5  C8  UNL     1      -1.328  50.751 -19.754  1.00  0.00    -0.033 C 
HETATM    6  C9  UNL     1      -2.685  51.461 -19.529  1.00  0.00     0.016 C 
HETATM    7  C10 UNL     1      -1.595  49.220 -19.769  1.00  0.00     0.010 C 
HETATM    8  C11 UNL     1      -1.898  48.640 -18.393  1.00  0.00     0.002 C 
HETATM    9  C12 UNL     1      -0.746  48.892 -17.432  1.00  0.00     0.012 C 
HETATM   10  C13 UNL     1      -0.401  50.392 -17.243  1.00  0.00    -0.018 C 
HETATM   11  C14 UNL     1      -1.456  51.041 -16.320  1.00  0.00     0.018 C 
HETATM   12  C16 UNL     1      -0.257  51.088 -18.653  1.00  0.00     0.007 C 
HETATM   13  C17 UNL     1       0.022  52.610 -18.578  1.00  0.00     0.041 C 
HETATM   14  C18 UNL     1      -0.023  53.330 -19.933  1.00  0.00     0.156 C 
HETATM   15  C19 UNL     1       0.180  52.383 -21.077  1.00  0.00     0.118 A 
HETATM   16  O3  UNL     1       1.562  52.184 -21.428  1.00  0.00    -0.366 OA
HETATM   17  C20 UNL     1       0.743  52.848 -22.401  1.00  0.00     0.165 A 
ENDROOT
BRANCH  10  18
HETATM   18  C15 UNL     1       0.973  50.477 -16.505  1.00  0.00     0.173 C 
BRANCH  18  19
HETATM   19  O1  UNL     1       1.605  51.741 -16.677  1.00  0.00    -0.400 OA
HETATM   20  H28 UNL     1       1.972  51.769 -17.578  1.00  0.00     0.209 HD
ENDBRANCH  18  19
ENDBRANCH  10  18
BRANCH  14  21
HETATM   21  O2  UNL     1       0.970  54.359 -19.934  1.00  0.00    -0.392 OA
HETATM   22  H33 UNL     1       1.815  53.908 -20.130  1.00  0.00     0.210 HD
ENDBRANCH  14  21
BRANCH   1  23
HETATM   23  C2  UNL     1       0.963  52.699 -24.920  1.00  0.00    -0.016 C 
HETATM   24  C1  UNL     1      -0.032  53.728 -25.468  1.00  0.00     0.010 C 
HETATM   25  C3  UNL     1       1.257  51.664 -26.016  1.00  0.00     0.010 C 
ENDBRANCH   1  23
TORSDOF 4
ENDMDL
MODEL 5
REMARK minimizedAffinity -7.87960815
REMARK  4 active torsions:
REMARK  status: ('A' for Active; 'I' for Inactive)
REMARK    1  A    between atoms: C2_2  and  C4_4 
REMARK    2  A    between atoms: C13_13  and  C15_15 
REMARK    3  A    between atoms: C15_15  and  O1_16 
REMARK    4  A    between atoms: C18_19  and  O2_20 
ROOT
HETATM    1  C4  UNL     1       8.630  63.203 -35.552  1.00  0.00     0.021 C 
HETATM    2  C5  UNL     1       9.329  64.381 -36.263  1.00  0.00     0.008 C 
HETATM    3  C6  UNL     1       8.420  65.579 -36.613  1.00  0.00     0.009 C 
HETATM    4  C7  UNL     1       6.912  65.323 -36.406  1.00  0.00     0.034 C 
HETATM    5  C8  UNL     1       5.955  66.526 -36.795  1.00  0.00    -0.033 C 
HETATM    6  C9  UNL     1       6.595  67.892 -36.446  1.00  0.00     0.016 C 
HETATM    7  C10 UNL     1       5.742  66.485 -38.333  1.00  0.00     0.010 C 
HETATM    8  C11 UNL     1       4.600  67.371 -38.816  1.00  0.00     0.002 C 
HETATM    9  C12 UNL     1       3.286  66.964 -38.163  1.00  0.00     0.012 C 
HETATM   10  C13 UNL     1       3.307  67.027 -36.614  1.00  0.00    -0.018 C 
HETATM   11  C14 UNL     1       3.200  68.502 -36.167  1.00  0.00     0.018 C 
HETATM   12  C16 UNL     1       4.584  66.275 -36.066  1.00  0.00     0.007 C 
HETATM   13  C17 UNL     1       4.738  66.336 -34.527  1.00  0.00     0.041 C 
HETATM   14  C18 UNL     1       6.066  65.775 -34.000  1.00  0.00     0.156 C 
HETATM   15  C19 UNL     1       6.708  64.843 -34.982  1.00  0.00     0.118 A 
HETATM   16  O3  UNL     1       6.280  63.474 -34.848  1.00  0.00    -0.366 OA
HETATM   17  C20 UNL     1       7.653  63.749 -34.536  1.00  0.00     0.165 A 
ENDROOT
BRANCH  10  18
HETATM   18  C15 UNL     1       2.034  66.291 -36.089  1.00  0.00     0.173 C 
BRANCH  18  19
HETATM   19  O1  UNL     1       2.328  64.994 -35.579  1.00  0.00    -0.400 OA
HETATM   20  H28 UNL     1       2.480  64.405 -36.337  1.00  0.00     0.209 HD
ENDBRANCH  18  19
ENDBRANCH  10  18
BRANCH  14  21
HETATM   21  O2  UNL     1       5.819  65.120 -32.753  1.00  0.00    -0.392 OA
HETATM   22  H33 UNL     1       5.466  64.239 -32.984  1.00  0.00     0.210 HD
ENDBRANCH  14  21
BRANCH   1  23
HETATM   23  C2  UNL     1       9.628  62.205 -34.903  1.00  0.00    -0.016 C 
HETATM   24  C1  UNL     1       9.091  61.609 -33.598  1.00  0.00     0.010 C 
HETATM   25  C3  UNL     1      10.978  62.879 -34.621  1.00  0.00     0.010 C 
ENDBRANCH   1  23
TORSDOF 4
ENDMDL
MODEL 6
REMARK minimizedAffinity -7.86003304
REMARK  4 active torsions:
REMARK  status: ('A' for Active; 'I' for Inactive)
REMARK    1  A    between atoms: C2_2  and  C4_4 
REMARK    2  A    between atoms: C13_13  and  C15_15 
REMARK    3  A    between atoms: C15_15  and  O1_16 
REMARK    4  A    between atoms: C18_19  and  O2_20 
ROOT
HETATM    1  C4  UNL     1      -0.736  51.396 -27.167  1.00  0.00     0.021 C 
HETATM    2  C5  UNL     1      -2.264  51.492 -27.362  1.00  0.00     0.008 C 
HETATM    3  C6  UNL     1      -3.117  51.114 -26.132  1.00  0.00     0.009 C 
HETATM    4  C7  UNL     1      -2.321  50.480 -24.971  1.00  0.00     0.034 C 
HETATM    5  C8  UNL     1      -3.181  50.047 -23.710  1.00  0.00    -0.033 C 
HETATM    6  C9  UNL     1      -4.335  51.045 -23.445  1.00  0.00     0.016 C 
HETATM    7  C10 UNL     1      -3.815  48.664 -24.020  1.00  0.00     0.010 C 
HETATM    8  C11 UNL     1      -4.401  47.972 -22.795  1.00  0.00     0.002 C 
HETATM    9  C12 UNL     1      -3.332  47.755 -21.732  1.00  0.00     0.012 C 
HETATM   10  C13 UNL     1      -2.648  49.061 -21.253  1.00  0.00    -0.018 C 
HETATM   11  C14 UNL     1      -3.603  49.810 -20.296  1.00  0.00     0.018 C 
HETATM   12  C16 UNL     1      -2.184  49.911 -22.500  1.00  0.00     0.007 C 
HETATM   13  C17 UNL     1      -1.546  51.274 -22.132  1.00  0.00     0.041 C 
HETATM   14  C18 UNL     1      -1.265  52.186 -23.334  1.00  0.00     0.156 C 
HETATM   15  C19 UNL     1      -1.181  51.415 -24.615  1.00  0.00     0.118 A 
HETATM   16  O3  UNL     1       0.138  50.918 -24.909  1.00  0.00    -0.366 OA
HETATM   17  C20 UNL     1      -0.380  51.920 -25.795  1.00  0.00     0.165 A 
ENDROOT
BRANCH  10  18
HETATM   18  C15 UNL     1      -1.384  48.663 -20.426  1.00  0.00     0.173 C 
BRANCH  18  19
HETATM   19  O1  UNL     1      -0.711  47.534 -20.973  1.00  0.00    -0.400 OA
HETATM   20  H28 UNL     1      -1.231  46.743 -20.751  1.00  0.00     0.209 HD
ENDBRANCH  18  19
ENDBRANCH  10  18
BRANCH  14  21
HETATM   21  O2  UNL     1      -0.053  52.904 -23.084  1.00  0.00    -0.392 OA
HETATM   22  H33 UNL     1       0.670  52.284 -23.306  1.00  0.00     0.210 HD
ENDBRANCH  14  21
BRANCH   1  23
HETATM   23  C2  UNL     1       0.067  52.122 -28.280  1.00  0.00    -0.016 C 
HETATM   24  C1  UNL     1       1.571  51.845 -28.190  1.00  0.00     0.010 C 
HETATM   25  C3  UNL     1      -0.161  53.639 -28.226  1.00  0.00     0.010 C 
ENDBRANCH   1  23
TORSDOF 4
ENDMDL
MODEL 7
REMARK minimizedAffinity -7.63405466
REMARK  4 active torsions:
REMARK  status: ('A' for Active; 'I' for Inactive)
REMARK    1  A    between atoms: C2_2  and  C4_4 
REMARK    2  A    between atoms: C13_13  and  C15_15 
REMARK    3  A    between atoms: C15_15  and  O1_16 
REMARK    4  A    between atoms: C18_19  and  O2_20 
ROOT
HETATM    1  C4  UNL     1      -1.428  51.783 -25.321  1.00  0.00     0.021 C 
HETATM    2  C5  UNL     1      -1.043  51.276 -23.915  1.00  0.00     0.008 C 
HETATM    3  C6  UNL     1      -2.083  50.361 -23.231  1.00  0.00     0.009 C 
HETATM    4  C7  UNL     1      -3.441  50.277 -23.959  1.00  0.00     0.034 C 
HETATM    5  C8  UNL     1      -4.538  49.373 -23.256  1.00  0.00    -0.033 C 
HETATM    6  C9  UNL     1      -3.902  48.127 -22.594  1.00  0.00     0.016 C 
HETATM    7  C10 UNL     1      -5.201  50.217 -22.133  1.00  0.00     0.010 C 
HETATM    8  C11 UNL     1      -6.484  49.604 -21.585  1.00  0.00     0.002 C 
HETATM    9  C12 UNL     1      -7.516  49.428 -22.691  1.00  0.00     0.012 C 
HETATM   10  C13 UNL     1      -7.033  48.537 -23.864  1.00  0.00    -0.018 C 
HETATM   11  C14 UNL     1      -7.086  47.055 -23.429  1.00  0.00     0.018 C 
HETATM   12  C16 UNL     1      -5.611  49.019 -24.352  1.00  0.00     0.007 C 
HETATM   13  C17 UNL     1      -5.004  48.150 -25.481  1.00  0.00     0.041 C 
HETATM   14  C18 UNL     1      -3.550  48.492 -25.832  1.00  0.00     0.156 C 
HETATM   15  C19 UNL     1      -3.181  49.878 -25.399  1.00  0.00     0.118 A 
HETATM   16  O3  UNL     1      -3.469  50.890 -26.382  1.00  0.00    -0.366 OA
HETATM   17  C20 UNL     1      -2.084  50.659 -26.089  1.00  0.00     0.165 A 
ENDROOT
BRANCH  10  18
HETATM   18  C15 UNL     1      -8.046  48.707 -25.041  1.00  0.00     0.173 C 
BRANCH  18  19
HETATM   19  O1  UNL     1      -8.846  49.877 -24.904  1.00  0.00    -0.400 OA
HETATM   20  H28 UNL     1      -9.514  49.701 -24.220  1.00  0.00     0.209 HD
ENDBRANCH  18  19
ENDBRANCH  10  18
BRANCH  14  21
HETATM   21  O2  UNL     1      -3.372  48.328 -27.242  1.00  0.00    -0.392 OA
HETATM   22  H33 UNL     1      -3.728  49.143 -27.648  1.00  0.00     0.210 HD
ENDBRANCH  14  21
BRANCH   1  23
HETATM   23  C2  UNL     1      -0.226  52.381 -26.102  1.00  0.00    -0.016 C 
HETATM   24  C1  UNL     1       1.003  51.467 -26.070  1.00  0.00     0.010 C 
HETATM   25  C3  UNL     1       0.166  53.757 -25.545  1.00  0.00     0.010 C 
ENDBRANCH   1  23
TORSDOF 4
ENDMDL
MODEL 8
REMARK minimizedAffinity -7.62753582
REMARK  4 active torsions:
REMARK  status: ('A' for Active; 'I' for Inactive)
REMARK    1  A    between atoms: C2_2  and  C4_4 
REMARK    2  A    between atoms: C13_13  and  C15_15 
REMARK    3  A    between atoms: C15_15  and  O1_16 
REMARK    4  A    between atoms: C18_19  and  O2_20 
ROOT
HETATM    1  C4  UNL     1       0.535  51.902 -16.993  1.00  0.00     0.021 C 
HETATM    2  C5  UNL     1       0.469  50.361 -16.963  1.00  0.00     0.008 C 
HETATM    3  C6  UNL     1      -0.277  49.704 -18.144  1.00  0.00     0.009 C 
HETATM    4  C7  UNL     1      -1.038  50.694 -19.052  1.00  0.00     0.034 C 
HETATM    5  C8  UNL     1      -1.844  50.039 -20.251  1.00  0.00    -0.033 C 
HETATM    6  C9  UNL     1      -1.090  48.823 -20.840  1.00  0.00     0.016 C 
HETATM    7  C10 UNL     1      -3.198  49.526 -19.688  1.00  0.00     0.010 C 
HETATM    8  C11 UNL     1      -4.211  49.167 -20.769  1.00  0.00     0.002 C 
HETATM    9  C12 UNL     1      -4.512  50.369 -21.652  1.00  0.00     0.012 C 
HETATM   10  C13 UNL     1      -3.263  50.959 -22.357  1.00  0.00    -0.018 C 
HETATM   11  C14 UNL     1      -2.873  50.048 -23.542  1.00  0.00     0.018 C 
HETATM   12  C16 UNL     1      -2.108  51.179 -21.302  1.00  0.00     0.007 C 
HETATM   13  C17 UNL     1      -0.787  51.704 -21.916  1.00  0.00     0.041 C 
HETATM   14  C18 UNL     1       0.395  51.743 -20.937  1.00  0.00     0.156 C 
HETATM   15  C19 UNL     1      -0.061  51.760 -19.510  1.00  0.00     0.118 A 
HETATM   16  O3  UNL     1      -0.304  53.082 -18.993  1.00  0.00    -0.366 OA
HETATM   17  C20 UNL     1       0.790  52.358 -18.412  1.00  0.00     0.165 A 
ENDROOT
BRANCH  10  18
HETATM   18  C15 UNL     1      -3.661  52.346 -22.954  1.00  0.00     0.173 C 
BRANCH  18  19
HETATM   19  O1  UNL     1      -5.053  52.616 -22.820  1.00  0.00    -0.400 OA
HETATM   20  H28 UNL     1      -5.523  52.081 -23.483  1.00  0.00     0.209 HD
ENDBRANCH  18  19
ENDBRANCH  10  18
BRANCH  14  21
HETATM   21  O2  UNL     1       1.194  52.891 -21.235  1.00  0.00    -0.392 OA
HETATM   22  H33 UNL     1       0.739  53.646 -20.814  1.00  0.00     0.210 HD
ENDBRANCH  14  21
BRANCH   1  23
HETATM   23  C2  UNL     1       1.585  52.486 -16.010  1.00  0.00    -0.016 C 
HETATM   24  C1  UNL     1       2.936  52.745 -16.685  1.00  0.00     0.010 C 
HETATM   25  C3  UNL     1       1.802  51.551 -14.812  1.00  0.00     0.010 C 
ENDBRANCH   1  23
TORSDOF 4
ENDMDL
MODEL 9
REMARK minimizedAffinity -7.5778985
REMARK  4 active torsions:
REMARK  status: ('A' for Active; 'I' for Inactive)
REMARK    1  A    between atoms: C2_2  and  C4_4 
REMARK    2  A    between atoms: C13_13  and  C15_15 
REMARK    3  A    between atoms: C15_15  and  O1_16 
REMARK    4  A    between atoms: C18_19  and  O2_20 
ROOT
HETATM    1  C4  UNL     1       0.007  51.485 -19.377  1.00  0.00     0.021 C 
HETATM    2  C5  UNL     1       0.337  52.817 -20.085  1.00  0.00     0.008 C 
HETATM    3  C6  UNL     1      -0.151  52.932 -21.545  1.00  0.00     0.009 C 
HETATM    4  C7  UNL     1      -0.691  51.616 -22.147  1.00  0.00     0.034 C 
HETATM    5  C8  UNL     1      -1.162  51.700 -23.659  1.00  0.00    -0.033 C 
HETATM    6  C9  UNL     1      -1.834  53.061 -23.965  1.00  0.00     0.016 C 
HETATM    7  C10 UNL     1       0.100  51.584 -24.557  1.00  0.00     0.010 C 
HETATM    8  C11 UNL     1      -0.218  51.325 -26.025  1.00  0.00     0.002 C 
HETATM    9  C12 UNL     1      -1.013  50.037 -26.188  1.00  0.00     0.012 C 
HETATM   10  C13 UNL     1      -2.353  50.022 -25.409  1.00  0.00    -0.018 C 
HETATM   11  C14 UNL     1      -3.387  50.886 -26.164  1.00  0.00     0.018 C 
HETATM   12  C16 UNL     1      -2.106  50.468 -23.914  1.00  0.00     0.007 C 
HETATM   13  C17 UNL     1      -3.396  50.552 -23.061  1.00  0.00     0.041 C 
HETATM   14  C18 UNL     1      -3.195  51.163 -21.667  1.00  0.00     0.156 C 
HETATM   15  C19 UNL     1      -1.766  51.081 -21.221  1.00  0.00     0.118 A 
HETATM   16  O3  UNL     1      -1.440  49.857 -20.539  1.00  0.00    -0.366 OA
HETATM   17  C20 UNL     1      -1.393  51.058 -19.756  1.00  0.00     0.165 A 
ENDROOT
BRANCH  10  18
HETATM   18  C15 UNL     1      -2.889  48.555 -25.408  1.00  0.00     0.173 C 
BRANCH  18  19
HETATM   19  O1  UNL     1      -4.178  48.447 -26.003  1.00  0.00    -0.400 OA
HETATM   20  H28 UNL     1      -4.828  48.794 -25.369  1.00  0.00     0.209 HD
ENDBRANCH  18  19
ENDBRANCH  10  18
BRANCH  14  21
HETATM   21  O2  UNL     1      -4.060  50.490 -20.748  1.00  0.00    -0.392 OA
HETATM   22  H33 UNL     1      -3.603  49.657 -20.518  1.00  0.00     0.210 HD
ENDBRANCH  14  21
BRANCH   1  23
HETATM   23  C2  UNL     1       0.184  51.554 -17.836  1.00  0.00    -0.016 C 
HETATM   24  C1  UNL     1       1.472  52.277 -17.428  1.00  0.00     0.010 C 
HETATM   25  C3  UNL     1       0.188  50.149 -17.217  1.00  0.00     0.010 C 
ENDBRANCH   1  23
TORSDOF 4
ENDMDL
