MODEL 1
REMARK minimizedAffinity -8.43814087
REMARK CNNscore 0.666848063
REMARK CNNaffinity 7.47327471
REMARK  2 active torsions:
REMARK  status: ('A' for Active; 'I' for Inactive)
REMARK    1  A    between atoms: C14_15  and  C15_16 
REMARK    2  A    between atoms: C19_21  and  O3_22 
ROOT
HETATM    1  C1  UNL     1       1.732   8.845  11.425  1.00  0.00     0.023 C 
HETATM    2  C2  UNL     1       1.327   7.700  12.378  1.00  0.00     0.017 C 
HETATM    3  C3  UNL     1       2.141   7.871  13.676  1.00  0.00     0.023 C 
HETATM    4  C4  UNL     1       1.748   6.394  11.691  1.00  0.00     0.135 C 
HETATM    5  O1  UNL     1       2.888   5.937  11.778  1.00  0.00    -0.297 OA
HETATM    6  C5  UNL     1       0.721   5.731  10.812  1.00  0.00     0.080 C 
HETATM    7  C6  UNL     1      -0.568   5.408  11.559  1.00  0.00     0.017 C 
HETATM    8  C7  UNL     1      -0.872   6.292  12.820  1.00  0.00    -0.035 C 
HETATM    9  C8  UNL     1      -0.262   5.557  14.035  1.00  0.00     0.016 C 
HETATM   10  C9  UNL     1      -2.449   6.457  12.943  1.00  0.00     0.003 C 
HETATM   11  C10 UNL     1      -3.222   5.116  13.048  1.00  0.00     0.006 C 
HETATM   12  C11 UNL     1      -4.751   5.268  12.988  1.00  0.00     0.006 C 
HETATM   13  C12 UNL     1      -5.215   6.283  14.025  1.00  0.00    -0.000 C 
HETATM   14  C13 UNL     1      -6.716   6.449  14.256  1.00  0.00     0.008 C 
HETATM   15  C14 UNL     1      -7.722   5.297  14.154  1.00  0.00     0.030 C 
HETATM   16  C18 UNL     1      -8.942   5.828  14.969  1.00  0.00     0.040 C 
HETATM   17  C19 UNL     1      -8.471   7.119  15.680  1.00  0.00     0.127 C 
HETATM   18  C20 UNL     1      -6.935   6.997  15.695  1.00  0.00    -0.013 C 
HETATM   19  C21 UNL     1      -6.564   6.012  16.844  1.00  0.00     0.018 C 
HETATM   20  C22 UNL     1      -6.116   8.288  15.922  1.00  0.00     0.013 C 
HETATM   21  C23 UNL     1      -5.253   8.775  14.740  1.00  0.00     0.011 C 
HETATM   22  C24 UNL     1      -4.575   7.704  13.791  1.00  0.00    -0.032 C 
HETATM   23  C25 UNL     1      -4.912   8.226  12.347  1.00  0.00     0.016 C 
HETATM   24  C26 UNL     1      -2.972   7.550  13.971  1.00  0.00    -0.032 C 
HETATM   25  C27 UNL     1      -2.668   7.164  15.446  1.00  0.00     0.016 C 
HETATM   26  C28 UNL     1      -2.223   8.878  13.669  1.00  0.00     0.011 C 
HETATM   27  C29 UNL     1      -0.697   8.747  13.619  1.00  0.00     0.007 C 
HETATM   28  C30 UNL     1      -0.231   7.707  12.584  1.00  0.00     0.009 C 
ENDROOT
BRANCH  15  29
HETATM   29  C15 UNL     1      -8.120   4.899  12.746  1.00  0.00     0.083 A 
HETATM   30  C16 UNL     1      -8.777   5.908  11.851  1.00  0.00     0.049 C 
HETATM   31  C17 UNL     1      -7.472   3.685  12.105  1.00  0.00     0.207 A 
HETATM   32  O2  UNL     1      -8.769   3.612  12.701  1.00  0.00    -0.375 OA
ENDBRANCH  15  29
BRANCH  17  33
HETATM   33  O3  UNL     1      -8.878   8.254  14.918  1.00  0.00    -0.395 OA
HETATM   34  H30 UNL     1      -9.850   8.260  14.906  1.00  0.00     0.210 HD
ENDBRANCH  17  33
TORSDOF 2
ENDMDL
MODEL 2
REMARK minimizedAffinity -7.70403719
REMARK CNNscore 0.403306484
REMARK CNNaffinity 7.19732714
REMARK  2 active torsions:
REMARK  status: ('A' for Active; 'I' for Inactive)
REMARK    1  A    between atoms: C14_15  and  C15_16 
REMARK    2  A    between atoms: C19_21  and  O3_22 
ROOT
HETATM    1  C1  UNL     1       0.275   5.562  10.870  1.00  0.00     0.023 C 
HETATM    2  C2  UNL     1      -0.529   4.749  11.907  1.00  0.00     0.017 C 
HETATM    3  C3  UNL     1       0.386   4.525  13.128  1.00  0.00     0.023 C 
HETATM    4  C4  UNL     1      -0.836   3.395  11.256  1.00  0.00     0.135 C 
HETATM    5  O1  UNL     1      -0.041   2.454  11.276  1.00  0.00    -0.297 OA
HETATM    6  C5  UNL     1      -2.131   3.288  10.494  1.00  0.00     0.080 C 
HETATM    7  C6  UNL     1      -3.345   3.617  11.355  1.00  0.00     0.017 C 
HETATM    8  C7  UNL     1      -3.080   4.548  12.591  1.00  0.00    -0.035 C 
HETATM    9  C8  UNL     1      -2.776   3.621  13.789  1.00  0.00     0.016 C 
HETATM   10  C9  UNL     1      -4.376   5.438  12.830  1.00  0.00     0.003 C 
HETATM   11  C10 UNL     1      -5.675   4.621  13.061  1.00  0.00     0.006 C 
HETATM   12  C11 UNL     1      -6.951   5.476  13.115  1.00  0.00     0.006 C 
HETATM   13  C12 UNL     1      -6.787   6.597  14.133  1.00  0.00    -0.000 C 
HETATM   14  C13 UNL     1      -8.005   7.453  14.473  1.00  0.00     0.008 C 
HETATM   15  C14 UNL     1      -9.439   6.910  14.508  1.00  0.00     0.030 C 
HETATM   16  C18 UNL     1     -10.185   7.960  15.389  1.00  0.00     0.040 C 
HETATM   17  C19 UNL     1      -9.101   8.881  15.996  1.00  0.00     0.127 C 
HETATM   18  C20 UNL     1      -7.807   8.049  15.896  1.00  0.00    -0.013 C 
HETATM   19  C21 UNL     1      -7.836   7.013  17.060  1.00  0.00     0.018 C 
HETATM   20  C22 UNL     1      -6.461   8.803  15.993  1.00  0.00     0.013 C 
HETATM   21  C23 UNL     1      -5.585   8.817  14.724  1.00  0.00     0.011 C 
HETATM   22  C24 UNL     1      -5.579   7.546  13.779  1.00  0.00    -0.032 C 
HETATM   23  C25 UNL     1      -5.765   8.156  12.342  1.00  0.00     0.016 C 
HETATM   24  C26 UNL     1      -4.227   6.656  13.840  1.00  0.00    -0.032 C 
HETATM   25  C27 UNL     1      -4.004   6.182  15.304  1.00  0.00     0.016 C 
HETATM   26  C28 UNL     1      -2.974   7.471  13.414  1.00  0.00     0.011 C 
HETATM   27  C29 UNL     1      -1.701   6.635  13.251  1.00  0.00     0.007 C 
HETATM   28  C30 UNL     1      -1.875   5.492  12.235  1.00  0.00     0.009 C 
ENDROOT
BRANCH  15  29
HETATM   29  C15 UNL     1     -10.106   6.738  13.157  1.00  0.00     0.083 A 
HETATM   30  C16 UNL     1      -9.305   6.219  11.999  1.00  0.00     0.049 C 
HETATM   31  C17 UNL     1     -11.619   6.649  13.081  1.00  0.00     0.207 A 
HETATM   32  O2  UNL     1     -10.927   7.868  12.802  1.00  0.00    -0.375 OA
ENDBRANCH  15  29
BRANCH  17  33
HETATM   33  O3  UNL     1      -8.996  10.068  15.212  1.00  0.00    -0.395 OA
HETATM   34  H30 UNL     1      -9.848  10.532  15.277  1.00  0.00     0.210 HD
ENDBRANCH  17  33
TORSDOF 2
ENDMDL
MODEL 3
REMARK minimizedAffinity -6.8305831
REMARK CNNscore 0.401345253
REMARK CNNaffinity 5.90743589
REMARK  2 active torsions:
REMARK  status: ('A' for Active; 'I' for Inactive)
REMARK    1  A    between atoms: C14_15  and  C15_16 
REMARK    2  A    between atoms: C19_21  and  O3_22 
ROOT
HETATM    1  C1  UNL     1       2.096   8.464   8.012  1.00  0.00     0.023 C 
HETATM    2  C2  UNL     1       2.278   7.614   9.289  1.00  0.00     0.017 C 
HETATM    3  C3  UNL     1       2.721   6.206   8.846  1.00  0.00     0.023 C 
HETATM    4  C4  UNL     1       0.897   7.521   9.949  1.00  0.00     0.135 C 
HETATM    5  O1  UNL     1       0.061   6.677   9.621  1.00  0.00    -0.297 OA
HETATM    6  C5  UNL     1       0.560   8.579  10.967  1.00  0.00     0.080 C 
HETATM    7  C6  UNL     1       1.564   8.629  12.112  1.00  0.00     0.017 C 
HETATM    8  C7  UNL     1       3.003   8.087  11.792  1.00  0.00    -0.035 C 
HETATM    9  C8  UNL     1       3.007   6.588  12.166  1.00  0.00     0.016 C 
HETATM   10  C9  UNL     1       4.051   8.926  12.644  1.00  0.00     0.003 C 
HETATM   11  C10 UNL     1       3.806   8.880  14.176  1.00  0.00     0.006 C 
HETATM   12  C11 UNL     1       4.708   9.829  14.982  1.00  0.00     0.006 C 
HETATM   13  C12 UNL     1       6.169   9.590  14.625  1.00  0.00    -0.000 C 
HETATM   14  C13 UNL     1       7.243  10.303  15.446  1.00  0.00     0.008 C 
HETATM   15  C14 UNL     1       7.104  10.604  16.943  1.00  0.00     0.030 C 
HETATM   16  C18 UNL     1       8.584  10.816  17.391  1.00  0.00     0.040 C 
HETATM   17  C19 UNL     1       9.474  10.387  16.201  1.00  0.00     0.127 C 
HETATM   18  C20 UNL     1       8.558   9.477  15.360  1.00  0.00    -0.013 C 
HETATM   19  C21 UNL     1       8.516   8.089  16.065  1.00  0.00     0.018 C 
HETATM   20  C22 UNL     1       8.954   9.226  13.887  1.00  0.00     0.013 C 
HETATM   21  C23 UNL     1       8.010   9.800  12.811  1.00  0.00     0.011 C 
HETATM   22  C24 UNL     1       6.452   9.835  13.094  1.00  0.00    -0.032 C 
HETATM   23  C25 UNL     1       6.036  11.295  12.686  1.00  0.00     0.016 C 
HETATM   24  C26 UNL     1       5.583   8.751  12.261  1.00  0.00    -0.032 C 
HETATM   25  C27 UNL     1       6.112   7.325  12.588  1.00  0.00     0.016 C 
HETATM   26  C28 UNL     1       5.711   8.958  10.726  1.00  0.00     0.011 C 
HETATM   27  C29 UNL     1       4.756   8.102   9.889  1.00  0.00     0.007 C 
HETATM   28  C30 UNL     1       3.281   8.331  10.264  1.00  0.00     0.009 C 
ENDROOT
BRANCH  15  29
HETATM   29  C15 UNL     1       6.236  11.796  17.293  1.00  0.00     0.083 A 
HETATM   30  C16 UNL     1       6.198  12.979  16.370  1.00  0.00     0.049 C 
HETATM   31  C17 UNL     1       5.101  11.623  18.286  1.00  0.00     0.207 A 
HETATM   32  O2  UNL     1       6.359  12.177  18.678  1.00  0.00    -0.375 OA
ENDBRANCH  15  29
BRANCH  17  33
HETATM   33  O3  UNL     1       9.857  11.541  15.457  1.00  0.00    -0.395 OA
HETATM   34  H30 UNL     1      10.396  12.098  16.044  1.00  0.00     0.210 HD
ENDBRANCH  17  33
TORSDOF 2
ENDMDL
MODEL 4
REMARK minimizedAffinity -6.29339933
REMARK CNNscore 0.379010051
REMARK CNNaffinity 5.61303854
REMARK  2 active torsions:
REMARK  status: ('A' for Active; 'I' for Inactive)
REMARK    1  A    between atoms: C14_15  and  C15_16 
REMARK    2  A    between atoms: C19_21  and  O3_22 
ROOT
HETATM    1  C1  UNL     1      -6.621 -11.060  12.322  1.00  0.00     0.023 C 
HETATM    2  C2  UNL     1      -6.918 -10.018  11.222  1.00  0.00     0.017 C 
HETATM    3  C3  UNL     1      -6.309  -8.678  11.680  1.00  0.00     0.023 C 
HETATM    4  C4  UNL     1      -8.444  -9.879  11.155  1.00  0.00     0.135 C 
HETATM    5  O1  UNL     1      -9.075  -9.130  11.902  1.00  0.00    -0.297 OA
HETATM    6  C5  UNL     1      -9.164 -10.781  10.187  1.00  0.00     0.080 C 
HETATM    7  C6  UNL     1      -8.670 -10.615   8.755  1.00  0.00     0.017 C 
HETATM    8  C7  UNL     1      -7.206 -10.073   8.589  1.00  0.00    -0.035 C 
HETATM    9  C8  UNL     1      -7.311  -8.535   8.481  1.00  0.00     0.016 C 
HETATM   10  C9  UNL     1      -6.578 -10.728   7.284  1.00  0.00     0.003 C 
HETATM   11  C10 UNL     1      -7.383 -10.458   5.986  1.00  0.00     0.006 C 
HETATM   12  C11 UNL     1      -6.875 -11.236   4.761  1.00  0.00     0.006 C 
HETATM   13  C12 UNL     1      -5.383 -10.997   4.572  1.00  0.00    -0.000 C 
HETATM   14  C13 UNL     1      -4.716 -11.531   3.307  1.00  0.00     0.008 C 
HETATM   15  C14 UNL     1      -5.417 -11.605   1.945  1.00  0.00     0.030 C 
HETATM   16  C18 UNL     1      -4.223 -11.687   0.944  1.00  0.00     0.040 C 
HETATM   17  C19 UNL     1      -2.939 -11.410   1.762  1.00  0.00     0.127 C 
HETATM   18  C20 UNL     1      -3.449 -10.677   3.018  1.00  0.00    -0.013 C 
HETATM   19  C21 UNL     1      -3.724  -9.199   2.608  1.00  0.00     0.018 C 
HETATM   20  C22 UNL     1      -2.519 -10.639   4.252  1.00  0.00     0.013 C 
HETATM   21  C23 UNL     1      -2.997 -11.408   5.500  1.00  0.00     0.011 C 
HETATM   22  C24 UNL     1      -4.545 -11.461   5.825  1.00  0.00    -0.032 C 
HETATM   23  C25 UNL     1      -4.808 -12.982   6.126  1.00  0.00     0.016 C 
HETATM   24  C26 UNL     1      -5.011 -10.553   7.084  1.00  0.00    -0.032 C 
HETATM   25  C27 UNL     1      -4.615  -9.075   6.809  1.00  0.00     0.016 C 
HETATM   26  C28 UNL     1      -4.315 -10.988   8.404  1.00  0.00     0.011 C 
HETATM   27  C29 UNL     1      -4.863 -10.309   9.662  1.00  0.00     0.007 C 
HETATM   28  C30 UNL     1      -6.375 -10.537   9.840  1.00  0.00     0.009 C 
ENDROOT
BRANCH  15  29
HETATM   29  C15 UNL     1      -6.379 -12.763   1.766  1.00  0.00     0.083 A 
HETATM   30  C16 UNL     1      -7.154 -12.889   0.487  1.00  0.00     0.049 C 
HETATM   31  C17 UNL     1      -6.229 -13.995   2.640  1.00  0.00     0.207 A 
HETATM   32  O2  UNL     1      -7.195 -12.984   2.934  1.00  0.00    -0.375 OA
ENDBRANCH  15  29
BRANCH  17  33
HETATM   33  O3  UNL     1      -2.328 -12.648   2.116  1.00  0.00    -0.395 OA
HETATM   34  H30 UNL     1      -2.063 -13.087   1.289  1.00  0.00     0.210 HD
ENDBRANCH  17  33
TORSDOF 2
ENDMDL
MODEL 5
REMARK minimizedAffinity -5.78143978
REMARK CNNscore 0.356837988
REMARK CNNaffinity 6.37985563
REMARK  2 active torsions:
REMARK  status: ('A' for Active; 'I' for Inactive)
REMARK    1  A    between atoms: C14_15  and  C15_16 
REMARK    2  A    between atoms: C19_21  and  O3_22 
ROOT
HETATM    1  C1  UNL     1      -7.569  -8.825   5.342  1.00  0.00     0.023 C 
HETATM    2  C2  UNL     1      -7.698  -9.938   4.280  1.00  0.00     0.017 C 
HETATM    3  C3  UNL     1      -8.504 -11.089   4.913  1.00  0.00     0.023 C 
HETATM    4  C4  UNL     1      -6.274 -10.425   3.986  1.00  0.00     0.135 C 
HETATM    5  O1  UNL     1      -5.710 -11.278   4.673  1.00  0.00    -0.297 OA
HETATM    6  C5  UNL     1      -5.542  -9.741   2.862  1.00  0.00     0.080 C 
HETATM    7  C6  UNL     1      -6.291  -9.829   1.537  1.00  0.00     0.017 C 
HETATM    8  C7  UNL     1      -7.845 -10.025   1.636  1.00  0.00    -0.035 C 
HETATM    9  C8  UNL     1      -8.103 -11.548   1.614  1.00  0.00     0.016 C 
HETATM   10  C9  UNL     1      -8.519  -9.279   0.405  1.00  0.00     0.003 C 
HETATM   11  C10 UNL     1      -8.021  -9.764  -0.983  1.00  0.00     0.006 C 
HETATM   12  C11 UNL     1      -8.539  -8.925  -2.162  1.00  0.00     0.006 C 
HETATM   13  C12 UNL     1     -10.057  -8.820  -2.101  1.00  0.00    -0.000 C 
HETATM   14  C13 UNL     1     -10.789  -8.182  -3.280  1.00  0.00     0.008 C 
HETATM   15  C14 UNL     1     -10.324  -8.310  -4.736  1.00  0.00     0.030 C 
HETATM   16  C18 UNL     1     -11.619  -7.984  -5.543  1.00  0.00     0.040 C 
HETATM   17  C19 UNL     1     -12.779  -7.935  -4.520  1.00  0.00     0.127 C 
HETATM   18  C20 UNL     1     -12.244  -8.729  -3.312  1.00  0.00    -0.013 C 
HETATM   19  C21 UNL     1     -12.376 -10.242  -3.663  1.00  0.00     0.018 C 
HETATM   20  C22 UNL     1     -12.941  -8.518  -1.949  1.00  0.00     0.013 C 
HETATM   21  C23 UNL     1     -12.104  -7.844  -0.843  1.00  0.00     0.011 C 
HETATM   22  C24 UNL     1     -10.551  -8.140  -0.767  1.00  0.00    -0.032 C 
HETATM   23  C25 UNL     1      -9.911  -6.713  -0.610  1.00  0.00     0.016 C 
HETATM   24  C26 UNL     1     -10.097  -9.095   0.461  1.00  0.00    -0.032 C 
HETATM   25  C27 UNL     1     -10.852 -10.450   0.348  1.00  0.00     0.016 C 
HETATM   26  C28 UNL     1     -10.450  -8.474   1.842  1.00  0.00     0.011 C 
HETATM   27  C29 UNL     1      -9.865  -9.226   3.042  1.00  0.00     0.007 C 
HETATM   28  C30 UNL     1      -8.332  -9.347   2.968  1.00  0.00     0.009 C 
ENDROOT
BRANCH  15  29
HETATM   29  C15 UNL     1      -9.173  -7.410  -5.136  1.00  0.00     0.083 A 
HETATM   30  C16 UNL     1      -7.911  -8.018  -5.676  1.00  0.00     0.049 C 
HETATM   31  C17 UNL     1      -9.440  -5.942  -5.420  1.00  0.00     0.207 A 
HETATM   32  O2  UNL     1      -8.918  -6.377  -4.163  1.00  0.00    -0.375 OA
ENDBRANCH  15  29
BRANCH  17  33
HETATM   33  O3  UNL     1     -13.032  -6.579  -4.157  1.00  0.00    -0.395 OA
HETATM   34  H30 UNL     1     -13.326  -6.115  -4.959  1.00  0.00     0.210 HD
ENDBRANCH  17  33
TORSDOF 2
ENDMDL
MODEL 6
REMARK minimizedAffinity -7.32756424
REMARK CNNscore 0.352839082
REMARK CNNaffinity 7.06093073
REMARK  2 active torsions:
REMARK  status: ('A' for Active; 'I' for Inactive)
REMARK    1  A    between atoms: C14_15  and  C15_16 
REMARK    2  A    between atoms: C19_21  and  O3_22 
ROOT
HETATM    1  C1  UNL     1     -11.868   8.033  12.658  1.00  0.00     0.023 C 
HETATM    2  C2  UNL     1     -11.204   7.701  14.012  1.00  0.00     0.017 C 
HETATM    3  C3  UNL     1     -11.832   6.388  14.523  1.00  0.00     0.023 C 
HETATM    4  C4  UNL     1     -11.575   8.840  14.969  1.00  0.00     0.135 C 
HETATM    5  O1  UNL     1     -12.633   8.858  15.600  1.00  0.00    -0.297 OA
HETATM    6  C5  UNL     1     -10.622  10.004  15.038  1.00  0.00     0.080 C 
HETATM    7  C6  UNL     1      -9.210   9.581  15.425  1.00  0.00     0.017 C 
HETATM    8  C7  UNL     1      -8.822   8.095  15.101  1.00  0.00    -0.035 C 
HETATM    9  C8  UNL     1      -9.163   7.263  16.358  1.00  0.00     0.016 C 
HETATM   10  C9  UNL     1      -7.273   8.051  14.749  1.00  0.00     0.003 C 
HETATM   11  C10 UNL     1      -6.349   8.597  15.870  1.00  0.00     0.006 C 
HETATM   12  C11 UNL     1      -4.872   8.718  15.461  1.00  0.00     0.006 C 
HETATM   13  C12 UNL     1      -4.375   7.392  14.901  1.00  0.00    -0.000 C 
HETATM   14  C13 UNL     1      -2.884   7.243  14.604  1.00  0.00     0.008 C 
HETATM   15  C14 UNL     1      -1.783   7.915  15.434  1.00  0.00     0.030 C 
HETATM   16  C18 UNL     1      -0.523   7.060  15.094  1.00  0.00     0.040 C 
HETATM   17  C19 UNL     1      -1.023   5.828  14.303  1.00  0.00     0.127 C 
HETATM   18  C20 UNL     1      -2.517   5.733  14.667  1.00  0.00    -0.013 C 
HETATM   19  C21 UNL     1      -2.605   5.088  16.083  1.00  0.00     0.018 C 
HETATM   20  C22 UNL     1      -3.431   4.906  13.735  1.00  0.00     0.013 C 
HETATM   21  C23 UNL     1      -4.506   5.687  12.952  1.00  0.00     0.011 C 
HETATM   22  C24 UNL     1      -5.195   6.939  13.633  1.00  0.00    -0.032 C 
HETATM   23  C25 UNL     1      -5.134   8.046  12.518  1.00  0.00     0.016 C 
HETATM   24  C26 UNL     1      -6.727   6.704  14.105  1.00  0.00    -0.032 C 
HETATM   25  C27 UNL     1      -6.767   5.515  15.106  1.00  0.00     0.016 C 
HETATM   26  C28 UNL     1      -7.654   6.343  12.910  1.00  0.00     0.011 C 
HETATM   27  C29 UNL     1      -9.147   6.312  13.254  1.00  0.00     0.007 C 
HETATM   28  C30 UNL     1      -9.643   7.647  13.838  1.00  0.00     0.009 C 
ENDROOT
BRANCH  15  29
HETATM   29  C15 UNL     1      -1.556   9.386  15.148  1.00  0.00     0.083 A 
HETATM   30  C16 UNL     1      -1.719   9.902  13.748  1.00  0.00     0.049 C 
HETATM   31  C17 UNL     1      -1.615  10.383  16.292  1.00  0.00     0.207 A 
HETATM   32  O2  UNL     1      -0.369   9.893  15.791  1.00  0.00    -0.375 OA
ENDBRANCH  15  29
BRANCH  17  33
HETATM   33  O3  UNL     1      -0.860   6.064  12.907  1.00  0.00    -0.395 OA
HETATM   34  H30 UNL     1       0.093   6.157  12.739  1.00  0.00     0.210 HD
ENDBRANCH  17  33
TORSDOF 2
ENDMDL
MODEL 7
REMARK minimizedAffinity -6.98294306
REMARK CNNscore 0.3343198
REMARK CNNaffinity 6.1356101
REMARK  2 active torsions:
REMARK  status: ('A' for Active; 'I' for Inactive)
REMARK    1  A    between atoms: C14_15  and  C15_16 
REMARK    2  A    between atoms: C19_21  and  O3_22 
ROOT
HETATM    1  C1  UNL     1      -7.062  -8.624  -3.361  1.00  0.00     0.023 C 
HETATM    2  C2  UNL     1      -7.775  -9.611  -2.411  1.00  0.00     0.017 C 
HETATM    3  C3  UNL     1      -7.976 -10.930  -3.183  1.00  0.00     0.023 C 
HETATM    4  C4  UNL     1      -9.147  -8.999  -2.099  1.00  0.00     0.135 C 
HETATM    5  O1  UNL     1     -10.123  -9.150  -2.835  1.00  0.00    -0.297 OA
HETATM    6  C5  UNL     1      -9.232  -8.112  -0.885  1.00  0.00     0.080 C 
HETATM    7  C6  UNL     1      -8.797  -8.824   0.391  1.00  0.00     0.017 C 
HETATM    8  C7  UNL     1      -7.812 -10.032   0.203  1.00  0.00    -0.035 C 
HETATM    9  C8  UNL     1      -8.685 -11.301   0.075  1.00  0.00     0.016 C 
HETATM   10  C9  UNL     1      -6.848 -10.088   1.466  1.00  0.00     0.003 C 
HETATM   11  C10 UNL     1      -7.586 -10.223   2.825  1.00  0.00     0.006 C 
HETATM   12  C11 UNL     1      -6.668 -10.099   4.051  1.00  0.00     0.006 C 
HETATM   13  C12 UNL     1      -5.502 -11.071   3.931  1.00  0.00    -0.000 C 
HETATM   14  C13 UNL     1      -4.569 -11.238   5.129  1.00  0.00     0.008 C 
HETATM   15  C14 UNL     1      -5.038 -11.149   6.587  1.00  0.00     0.030 C 
HETATM   16  C18 UNL     1      -3.905 -11.894   7.360  1.00  0.00     0.040 C 
HETATM   17  C19 UNL     1      -3.006 -12.564   6.295  1.00  0.00     0.127 C 
HETATM   18  C20 UNL     1      -3.905 -12.642   5.045  1.00  0.00    -0.013 C 
HETATM   19  C21 UNL     1      -4.872 -13.847   5.250  1.00  0.00     0.018 C 
HETATM   20  C22 UNL     1      -3.214 -12.842   3.677  1.00  0.00     0.013 C 
HETATM   21  C23 UNL     1      -3.314 -11.673   2.676  1.00  0.00     0.011 C 
HETATM   22  C24 UNL     1      -4.633 -10.799   2.644  1.00  0.00    -0.032 C 
HETATM   23  C25 UNL     1      -4.097  -9.321   2.647  1.00  0.00     0.016 C 
HETATM   24  C26 UNL     1      -5.585 -11.046   1.355  1.00  0.00    -0.032 C 
HETATM   25  C27 UNL     1      -5.987 -12.547   1.309  1.00  0.00     0.016 C 
HETATM   26  C28 UNL     1      -4.857 -10.714   0.023  1.00  0.00     0.011 C 
HETATM   27  C29 UNL     1      -5.762 -10.728  -1.213  1.00  0.00     0.007 C 
HETATM   28  C30 UNL     1      -6.950  -9.758  -1.081  1.00  0.00     0.009 C 
ENDROOT
BRANCH  15  29
HETATM   29  C15 UNL     1      -5.252  -9.747   7.120  1.00  0.00     0.083 A 
HETATM   30  C16 UNL     1      -6.569  -9.063   6.895  1.00  0.00     0.049 C 
HETATM   31  C17 UNL     1      -4.355  -9.228   8.229  1.00  0.00     0.207 A 
HETATM   32  O2  UNL     1      -4.128  -8.882   6.861  1.00  0.00    -0.375 OA
ENDBRANCH  15  29
BRANCH  17  33
HETATM   33  O3  UNL     1      -1.871 -11.737   6.046  1.00  0.00    -0.395 OA
HETATM   34  H30 UNL     1      -1.363 -11.688   6.874  1.00  0.00     0.210 HD
ENDBRANCH  17  33
TORSDOF 2
ENDMDL
MODEL 8
REMARK minimizedAffinity -6.22568274
REMARK CNNscore 0.331424475
REMARK CNNaffinity 6.1861043
REMARK  2 active torsions:
REMARK  status: ('A' for Active; 'I' for Inactive)
REMARK    1  A    between atoms: C14_15  and  C15_16 
REMARK    2  A    between atoms: C19_21  and  O3_22 
ROOT
HETATM    1  C1  UNL     1      -6.863  18.317   9.390  1.00  0.00     0.023 C 
HETATM    2  C2  UNL     1      -6.152  19.096   8.264  1.00  0.00     0.017 C 
HETATM    3  C3  UNL     1      -5.721  20.457   8.846  1.00  0.00     0.023 C 
HETATM    4  C4  UNL     1      -7.200  19.329   7.168  1.00  0.00     0.135 C 
HETATM    5  O1  UNL     1      -7.989  20.275   7.195  1.00  0.00    -0.297 OA
HETATM    6  C5  UNL     1      -7.293  18.285   6.087  1.00  0.00     0.080 C 
HETATM    7  C6  UNL     1      -5.970  18.080   5.357  1.00  0.00     0.017 C 
HETATM    8  C7  UNL     1      -4.675  18.459   6.160  1.00  0.00    -0.035 C 
HETATM    9  C8  UNL     1      -4.360  19.934   5.824  1.00  0.00     0.016 C 
HETATM   10  C9  UNL     1      -3.508  17.476   5.713  1.00  0.00     0.003 C 
HETATM   11  C10 UNL     1      -3.203  17.499   4.191  1.00  0.00     0.006 C 
HETATM   12  C11 UNL     1      -2.202  16.425   3.737  1.00  0.00     0.006 C 
HETATM   13  C12 UNL     1      -0.935  16.503   4.578  1.00  0.00    -0.000 C 
HETATM   14  C13 UNL     1       0.260  15.643   4.172  1.00  0.00     0.008 C 
HETATM   15  C14 UNL     1       0.609  15.310   2.716  1.00  0.00     0.030 C 
HETATM   16  C18 UNL     1       2.115  14.912   2.803  1.00  0.00     0.040 C 
HETATM   17  C19 UNL     1       2.588  15.273   4.232  1.00  0.00     0.127 C 
HETATM   18  C20 UNL     1       1.556  16.311   4.714  1.00  0.00    -0.013 C 
HETATM   19  C21 UNL     1       1.928  17.671   4.051  1.00  0.00     0.018 C 
HETATM   20  C22 UNL     1       1.449  16.562   6.235  1.00  0.00     0.013 C 
HETATM   21  C23 UNL     1       0.131  16.139   6.914  1.00  0.00     0.011 C 
HETATM   22  C24 UNL     1      -1.227  16.278   6.111  1.00  0.00    -0.032 C 
HETATM   23  C25 UNL     1      -1.932  14.891   6.337  1.00  0.00     0.016 C 
HETATM   24  C26 UNL     1      -2.192  17.483   6.603  1.00  0.00    -0.032 C 
HETATM   25  C27 UNL     1      -1.413  18.825   6.493  1.00  0.00     0.016 C 
HETATM   26  C28 UNL     1      -2.624  17.313   8.087  1.00  0.00     0.011 C 
HETATM   27  C29 UNL     1      -3.698  18.302   8.550  1.00  0.00     0.007 C 
HETATM   28  C30 UNL     1      -4.970  18.235   7.687  1.00  0.00     0.009 C 
ENDROOT
BRANCH  15  29
HETATM   29  C15 UNL     1      -0.223  14.217   2.077  1.00  0.00     0.083 A 
HETATM   30  C16 UNL     1      -0.532  12.972   2.856  1.00  0.00     0.049 C 
HETATM   31  C17 UNL     1      -1.097  14.551   0.881  1.00  0.00     0.207 A 
HETATM   32  O2  UNL     1       0.184  13.937   0.722  1.00  0.00    -0.375 OA
ENDBRANCH  15  29
BRANCH  17  33
HETATM   33  O3  UNL     1       2.548  14.107   5.052  1.00  0.00    -0.395 OA
HETATM   34  H30 UNL     1       3.185  13.472   4.682  1.00  0.00     0.210 HD
ENDBRANCH  17  33
TORSDOF 2
ENDMDL
MODEL 9
REMARK minimizedAffinity -5.98390293
REMARK CNNscore 0.327067554
REMARK CNNaffinity 5.72541809
REMARK  2 active torsions:
REMARK  status: ('A' for Active; 'I' for Inactive)
REMARK    1  A    between atoms: C14_15  and  C15_16 
REMARK    2  A    between atoms: C19_21  and  O3_22 
ROOT
HETATM    1  C1  UNL     1      -7.327 -11.389  -3.307  1.00  0.00     0.023 C 
HETATM    2  C2  UNL     1      -7.060 -12.478  -2.245  1.00  0.00     0.017 C 
HETATM    3  C3  UNL     1      -6.000 -13.437  -2.824  1.00  0.00     0.023 C 
HETATM    4  C4  UNL     1      -8.379 -13.239  -2.063  1.00  0.00     0.135 C 
HETATM    5  O1  UNL     1      -8.713 -14.171  -2.797  1.00  0.00    -0.297 OA
HETATM    6  C5  UNL     1      -9.310 -12.734  -0.993  1.00  0.00     0.080 C 
HETATM    7  C6  UNL     1      -8.656 -12.704   0.384  1.00  0.00     0.017 C 
HETATM    8  C7  UNL     1      -7.091 -12.591   0.401  1.00  0.00    -0.035 C 
HETATM    9  C8  UNL     1      -6.542 -14.035   0.432  1.00  0.00     0.016 C 
HETATM   10  C9  UNL     1      -6.666 -11.755   1.685  1.00  0.00     0.003 C 
HETATM   11  C10 UNL     1      -7.160 -12.357   3.028  1.00  0.00     0.006 C 
HETATM   12  C11 UNL     1      -6.902 -11.459   4.248  1.00  0.00     0.006 C 
HETATM   13  C12 UNL     1      -5.434 -11.059   4.302  1.00  0.00    -0.000 C 
HETATM   14  C13 UNL     1      -4.928 -10.316   5.538  1.00  0.00     0.008 C 
HETATM   15  C14 UNL     1      -5.463 -10.564   6.953  1.00  0.00     0.030 C 
HETATM   16  C18 UNL     1      -4.319 -10.009   7.857  1.00  0.00     0.040 C 
HETATM   17  C19 UNL     1      -3.120  -9.714   6.925  1.00  0.00     0.127 C 
HETATM   18  C20 UNL     1      -3.401 -10.571   5.676  1.00  0.00    -0.013 C 
HETATM   19  C21 UNL     1      -3.001 -12.037   6.025  1.00  0.00     0.018 C 
HETATM   20  C22 UNL     1      -2.661 -10.199   4.370  1.00  0.00     0.013 C 
HETATM   21  C23 UNL     1      -3.531  -9.678   3.209  1.00  0.00     0.011 C 
HETATM   22  C24 UNL     1      -4.987 -10.268   3.014  1.00  0.00    -0.032 C 
HETATM   23  C25 UNL     1      -5.881  -8.990   2.819  1.00  0.00     0.016 C 
HETATM   24  C26 UNL     1      -5.156 -11.267   1.749  1.00  0.00    -0.032 C 
HETATM   25  C27 UNL     1      -4.160 -12.451   1.909  1.00  0.00     0.016 C 
HETATM   26  C28 UNL     1      -4.831 -10.560   0.403  1.00  0.00     0.011 C 
HETATM   27  C29 UNL     1      -5.169 -11.385  -0.843  1.00  0.00     0.007 C 
HETATM   28  C30 UNL     1      -6.650 -11.804  -0.886  1.00  0.00     0.009 C 
ENDROOT
BRANCH  15  29
HETATM   29  C15 UNL     1      -6.795  -9.913   7.272  1.00  0.00     0.083 A 
HETATM   30  C16 UNL     1      -7.222  -8.693   6.511  1.00  0.00     0.049 C 
HETATM   31  C17 UNL     1      -7.859 -10.716   7.999  1.00  0.00     0.207 A 
HETATM   32  O2  UNL     1      -7.019  -9.789   8.691  1.00  0.00    -0.375 OA
ENDBRANCH  15  29
BRANCH  17  33
HETATM   33  O3  UNL     1      -3.111  -8.328   6.592  1.00  0.00    -0.395 OA
HETATM   34  H30 UNL     1      -2.973  -7.833   7.417  1.00  0.00     0.210 HD
ENDBRANCH  17  33
TORSDOF 2
ENDMDL
