MODEL 1
REMARK minimizedAffinity -10.0745401
REMARK  7 active torsions:
REMARK  status: ('A' for Active; 'I' for Inactive)
REMARK    1  A    between atoms: C2_2  and  C30_32 
REMARK    2  A    between atoms: C3_3  and  C4_4 
REMARK    3  A    between atoms: C4_4  and  O1_5 
REMARK    4  A    between atoms: C4_4  and  C5_6 
REMARK    5  A    between atoms: C5_6  and  C6_7 
REMARK    6  A    between atoms: C6_7  and  C8_9 
REMARK    7  A    between atoms: C30_32  and  O4_34 
ROOT
HETATM    1  C8  UNL     1      -4.169  50.109 -24.753  1.00  0.00    -0.002 C 
HETATM    2  C9  UNL     1      -5.419  49.287 -24.324  1.00  0.00     0.006 C 
HETATM    3  C10 UNL     1      -5.371  49.127 -22.795  1.00  0.00     0.011 C 
HETATM    4  C11 UNL     1      -4.280  50.108 -22.324  1.00  0.00    -0.032 C 
HETATM    5  C12 UNL     1      -4.968  51.504 -22.199  1.00  0.00     0.016 C 
HETATM    6  C13 UNL     1      -3.608  49.708 -20.982  1.00  0.00     0.004 C 
HETATM    7  C14 UNL     1      -4.502  49.911 -19.750  1.00  0.00     0.007 C 
HETATM    8  C15 UNL     1      -3.793  49.394 -18.502  1.00  0.00     0.007 C 
HETATM    9  C16 UNL     1      -2.589  50.282 -18.155  1.00  0.00     0.010 C 
HETATM   10  C17 UNL     1      -1.766  49.833 -16.900  1.00  0.00     0.018 C 
HETATM   11  C18 UNL     1      -2.218  50.643 -15.667  1.00  0.00     0.023 C 
HETATM   12  C19 UNL     1      -1.932  48.333 -16.573  1.00  0.00     0.023 C 
HETATM   13  C20 UNL     1      -0.260  50.109 -17.075  1.00  0.00     0.135 C 
HETATM   14  O2  UNL     1       0.591  49.423 -16.496  1.00  0.00    -0.297 OA
HETATM   15  C21 UNL     1       0.192  51.320 -17.864  1.00  0.00     0.080 C 
HETATM   16  C22 UNL     1      -0.731  51.700 -19.015  1.00  0.00     0.018 C 
HETATM   17  C23 UNL     1      -1.682  50.572 -19.351  1.00  0.00    -0.026 A 
HETATM   18  C24 UNL     1      -1.143  49.463 -20.212  1.00  0.00     0.021 A 
HETATM   19  C25 UNL     1      -2.220  50.374 -20.793  1.00  0.00    -0.027 A 
HETATM   20  C26 UNL     1      -1.794  51.390 -21.857  1.00  0.00     0.011 C 
HETATM   21  C27 UNL     1      -2.189  51.100 -23.314  1.00  0.00     0.011 C 
HETATM   22  C28 UNL     1      -3.239  49.994 -23.497  1.00  0.00    -0.032 C 
HETATM   23  C29 UNL     1      -2.487  48.630 -23.551  1.00  0.00     0.016 C 
ENDROOT
BRANCH   1  24
HETATM   24  C6  UNL     1      -3.643  49.694 -26.163  1.00  0.00    -0.011 C 
HETATM   25  C7  UNL     1      -4.193  48.329 -26.599  1.00  0.00     0.010 C 
BRANCH  24  26
HETATM   26  C5  UNL     1      -2.089  49.662 -26.168  1.00  0.00     0.040 C 
BRANCH  26  27
HETATM   27  C4  UNL     1      -1.379  50.946 -26.633  1.00  0.00     0.142 C 
BRANCH  27  28
HETATM   28  C3  UNL     1       0.109  50.922 -26.423  1.00  0.00     0.018 C 
HETATM   29  C2  UNL     1       1.083  51.480 -27.176  1.00  0.00     0.010 C 
HETATM   30  C1  UNL     1       0.875  52.218 -28.467  1.00  0.00     0.055 C 
BRANCH  29  31
HETATM   31  C30 UNL     1       2.510  51.380 -26.766  1.00  0.00     0.171 C 
HETATM   32  O3  UNL     1       2.948  50.641 -25.902  1.00  0.00    -0.646 OA
BRANCH  31  33
HETATM   33  O4  UNL     1       3.332  52.203 -27.441  1.00  0.00    -0.773 OA
HETATM   34  H46 UNL     1       4.212  52.006 -27.058  1.00  0.00     0.167 HD
ENDBRANCH  31  33
ENDBRANCH  29  31
ENDBRANCH  27  28
BRANCH  27  35
HETATM   35  O1  UNL     1      -1.658  51.165 -28.013  1.00  0.00    -0.392 OA
HETATM   36  H6  UNL     1      -2.623  51.235 -28.105  1.00  0.00     0.210 HD
ENDBRANCH  27  35
ENDBRANCH  26  27
ENDBRANCH  24  26
ENDBRANCH   1  24
TORSDOF 7
ENDMDL
MODEL 2
REMARK minimizedAffinity -9.87326431
REMARK  7 active torsions:
REMARK  status: ('A' for Active; 'I' for Inactive)
REMARK    1  A    between atoms: C2_2  and  C30_32 
REMARK    2  A    between atoms: C3_3  and  C4_4 
REMARK    3  A    between atoms: C4_4  and  O1_5 
REMARK    4  A    between atoms: C4_4  and  C5_6 
REMARK    5  A    between atoms: C5_6  and  C6_7 
REMARK    6  A    between atoms: C6_7  and  C8_9 
REMARK    7  A    between atoms: C30_32  and  O4_34 
ROOT
HETATM    1  C8  UNL     1      -0.134  50.950 -21.412  1.00  0.00    -0.002 C 
HETATM    2  C9  UNL     1      -0.424  50.631 -19.916  1.00  0.00     0.006 C 
HETATM    3  C10 UNL     1      -1.731  49.822 -19.854  1.00  0.00     0.011 C 
HETATM    4  C11 UNL     1      -2.018  49.415 -21.312  1.00  0.00    -0.032 C 
HETATM    5  C12 UNL     1      -1.183  48.124 -21.582  1.00  0.00     0.016 C 
HETATM    6  C13 UNL     1      -3.521  49.166 -21.615  1.00  0.00     0.004 C 
HETATM    7  C14 UNL     1      -4.073  47.866 -21.008  1.00  0.00     0.007 C 
HETATM    8  C15 UNL     1      -5.572  47.766 -21.271  1.00  0.00     0.007 C 
HETATM    9  C16 UNL     1      -5.848  47.547 -22.766  1.00  0.00     0.010 C 
HETATM   10  C17 UNL     1      -7.360  47.452 -23.161  1.00  0.00     0.018 C 
HETATM   11  C18 UNL     1      -7.776  45.969 -23.270  1.00  0.00     0.023 C 
HETATM   12  C19 UNL     1      -8.297  48.136 -22.141  1.00  0.00     0.023 C 
HETATM   13  C20 UNL     1      -7.633  48.084 -24.540  1.00  0.00     0.135 C 
HETATM   14  O2  UNL     1      -8.737  48.566 -24.820  1.00  0.00    -0.297 OA
HETATM   15  C21 UNL     1      -6.577  48.000 -25.622  1.00  0.00     0.080 C 
HETATM   16  C22 UNL     1      -5.145  48.030 -25.106  1.00  0.00     0.018 C 
HETATM   17  C23 UNL     1      -5.087  48.514 -23.673  1.00  0.00    -0.026 A 
HETATM   18  C24 UNL     1      -5.145  50.001 -23.456  1.00  0.00     0.021 A 
HETATM   19  C25 UNL     1      -3.847  49.270 -23.127  1.00  0.00    -0.027 A 
HETATM   20  C26 UNL     1      -2.660  49.467 -24.074  1.00  0.00     0.011 C 
HETATM   21  C27 UNL     1      -1.505  50.358 -23.589  1.00  0.00     0.011 C 
HETATM   22  C28 UNL     1      -1.522  50.689 -22.090  1.00  0.00    -0.032 C 
HETATM   23  C29 UNL     1      -2.422  51.947 -21.892  1.00  0.00     0.016 C 
ENDROOT
BRANCH   1  24
HETATM   24  C6  UNL     1       0.589  52.321 -21.596  1.00  0.00    -0.011 C 
HETATM   25  C7  UNL     1       0.580  53.149 -20.304  1.00  0.00     0.010 C 
BRANCH  24  26
HETATM   26  C5  UNL     1      -0.078  53.128 -22.744  1.00  0.00     0.040 C 
BRANCH  26  27
HETATM   27  C4  UNL     1       0.822  53.494 -23.937  1.00  0.00     0.142 C 
BRANCH  27  28
HETATM   28  C3  UNL     1       0.084  53.593 -25.242  1.00  0.00     0.018 C 
HETATM   29  C2  UNL     1       0.038  52.707 -26.263  1.00  0.00     0.010 C 
HETATM   30  C1  UNL     1       0.798  51.415 -26.332  1.00  0.00     0.055 C 
BRANCH  29  31
HETATM   31  C30 UNL     1      -0.799  52.976 -27.463  1.00  0.00     0.171 C 
HETATM   32  O3  UNL     1      -1.816  53.647 -27.481  1.00  0.00    -0.646 OA
BRANCH  31  33
HETATM   33  O4  UNL     1      -0.345  52.398 -28.588  1.00  0.00    -0.773 OA
HETATM   34  H46 UNL     1      -0.996  52.677 -29.265  1.00  0.00     0.167 HD
ENDBRANCH  31  33
ENDBRANCH  29  31
ENDBRANCH  27  28
BRANCH  27  35
HETATM   35  O1  UNL     1       1.476  54.732 -23.670  1.00  0.00    -0.392 OA
HETATM   36  H6  UNL     1       1.992  54.615 -22.854  1.00  0.00     0.210 HD
ENDBRANCH  27  35
ENDBRANCH  26  27
ENDBRANCH  24  26
ENDBRANCH   1  24
TORSDOF 7
ENDMDL
MODEL 3
REMARK minimizedAffinity -9.82394791
REMARK  7 active torsions:
REMARK  status: ('A' for Active; 'I' for Inactive)
REMARK    1  A    between atoms: C2_2  and  C30_32 
REMARK    2  A    between atoms: C3_3  and  C4_4 
REMARK    3  A    between atoms: C4_4  and  O1_5 
REMARK    4  A    between atoms: C4_4  and  C5_6 
REMARK    5  A    between atoms: C5_6  and  C6_7 
REMARK    6  A    between atoms: C6_7  and  C8_9 
REMARK    7  A    between atoms: C30_32  and  O4_34 
ROOT
HETATM    1  C8  UNL     1      -0.866  51.248 -17.756  1.00  0.00    -0.002 C 
HETATM    2  C9  UNL     1       0.648  51.594 -17.641  1.00  0.00     0.006 C 
HETATM    3  C10 UNL     1       1.136  52.031 -19.032  1.00  0.00     0.011 C 
HETATM    4  C11 UNL     1      -0.147  52.233 -19.861  1.00  0.00    -0.032 C 
HETATM    5  C12 UNL     1      -0.656  53.674 -19.541  1.00  0.00     0.016 C 
HETATM    6  C13 UNL     1       0.053  52.051 -21.390  1.00  0.00     0.004 C 
HETATM    7  C14 UNL     1       0.820  53.202 -22.060  1.00  0.00     0.007 C 
HETATM    8  C15 UNL     1       1.055  52.882 -23.533  1.00  0.00     0.007 C 
HETATM    9  C16 UNL     1      -0.269  52.903 -24.311  1.00  0.00     0.010 C 
HETATM   10  C17 UNL     1      -0.155  52.563 -25.836  1.00  0.00     0.018 C 
HETATM   11  C18 UNL     1      -0.107  53.870 -26.656  1.00  0.00     0.023 C 
HETATM   12  C19 UNL     1       1.105  51.738 -26.180  1.00  0.00     0.023 C 
HETATM   13  C20 UNL     1      -1.380  51.777 -26.341  1.00  0.00     0.135 C 
HETATM   14  O2  UNL     1      -1.295  50.999 -27.299  1.00  0.00    -0.297 OA
HETATM   15  C21 UNL     1      -2.743  52.052 -25.742  1.00  0.00     0.080 C 
HETATM   16  C22 UNL     1      -2.716  52.442 -24.270  1.00  0.00     0.018 C 
HETATM   17  C23 UNL     1      -1.384  52.104 -23.637  1.00  0.00    -0.026 A 
HETATM   18  C24 UNL     1      -1.177  50.676 -23.212  1.00  0.00     0.021 A 
HETATM   19  C25 UNL     1      -1.275  51.747 -22.131  1.00  0.00    -0.027 A 
HETATM   20  C26 UNL     1      -2.556  51.797 -21.293  1.00  0.00     0.011 C 
HETATM   21  C27 UNL     1      -2.479  51.284 -19.846  1.00  0.00     0.011 C 
HETATM   22  C28 UNL     1      -1.058  51.078 -19.302  1.00  0.00    -0.032 C 
HETATM   23  C29 UNL     1      -0.595  49.647 -19.712  1.00  0.00     0.016 C 
ENDROOT
BRANCH   1  24
HETATM   24  C6  UNL     1      -1.289  50.106 -16.779  1.00  0.00    -0.011 C 
HETATM   25  C7  UNL     1      -1.406  48.755 -17.497  1.00  0.00     0.010 C 
BRANCH  24  26
HETATM   26  C5  UNL     1      -2.638  50.460 -16.095  1.00  0.00     0.040 C 
BRANCH  26  27
HETATM   27  C4  UNL     1      -2.670  50.377 -14.559  1.00  0.00     0.142 C 
BRANCH  27  28
HETATM   28  C3  UNL     1      -3.297  51.574 -13.903  1.00  0.00     0.018 C 
HETATM   29  C2  UNL     1      -3.221  51.975 -12.613  1.00  0.00     0.010 C 
HETATM   30  C1  UNL     1      -2.517  51.240 -11.511  1.00  0.00     0.055 C 
BRANCH  29  31
HETATM   31  C30 UNL     1      -3.883  53.231 -12.170  1.00  0.00     0.171 C 
HETATM   32  O3  UNL     1      -4.077  53.559 -11.012  1.00  0.00    -0.646 OA
BRANCH  31  33
HETATM   33  O4  UNL     1      -4.281  54.026 -13.178  1.00  0.00    -0.773 OA
HETATM   34  H46 UNL     1      -4.681  54.792 -12.718  1.00  0.00     0.167 HD
ENDBRANCH  31  33
ENDBRANCH  29  31
ENDBRANCH  27  28
BRANCH  27  35
HETATM   35  O1  UNL     1      -3.374  49.201 -14.166  1.00  0.00    -0.392 OA
HETATM   36  H6  UNL     1      -2.909  48.442 -14.556  1.00  0.00     0.210 HD
ENDBRANCH  27  35
ENDBRANCH  26  27
ENDBRANCH  24  26
ENDBRANCH   1  24
TORSDOF 7
ENDMDL
MODEL 4
REMARK minimizedAffinity -9.5953331
REMARK  7 active torsions:
REMARK  status: ('A' for Active; 'I' for Inactive)
REMARK    1  A    between atoms: C2_2  and  C30_32 
REMARK    2  A    between atoms: C3_3  and  C4_4 
REMARK    3  A    between atoms: C4_4  and  O1_5 
REMARK    4  A    between atoms: C4_4  and  C5_6 
REMARK    5  A    between atoms: C5_6  and  C6_7 
REMARK    6  A    between atoms: C6_7  and  C8_9 
REMARK    7  A    between atoms: C30_32  and  O4_34 
ROOT
HETATM    1  C8  UNL     1      -5.672  48.706 -22.306  1.00  0.00    -0.002 C 
HETATM    2  C9  UNL     1      -5.856  47.782 -23.545  1.00  0.00     0.006 C 
HETATM    3  C10 UNL     1      -4.767  48.147 -24.567  1.00  0.00     0.011 C 
HETATM    4  C11 UNL     1      -3.781  49.047 -23.798  1.00  0.00    -0.032 C 
HETATM    5  C12 UNL     1      -2.809  48.089 -23.039  1.00  0.00     0.016 C 
HETATM    6  C13 UNL     1      -2.986  50.030 -24.699  1.00  0.00     0.004 C 
HETATM    7  C14 UNL     1      -1.901  49.355 -25.554  1.00  0.00     0.007 C 
HETATM    8  C15 UNL     1      -1.252  50.382 -26.476  1.00  0.00     0.007 C 
HETATM    9  C16 UNL     1      -0.421  51.389 -25.667  1.00  0.00     0.010 C 
HETATM   10  C17 UNL     1       0.276  52.511 -26.509  1.00  0.00     0.018 C 
HETATM   11  C18 UNL     1       1.744  52.118 -26.782  1.00  0.00     0.023 C 
HETATM   12  C19 UNL     1      -0.411  52.762 -27.869  1.00  0.00     0.023 C 
HETATM   13  C20 UNL     1       0.318  53.853 -25.752  1.00  0.00     0.135 C 
HETATM   14  O2  UNL     1       0.341  54.932 -26.357  1.00  0.00    -0.297 OA
HETATM   15  C21 UNL     1       0.464  53.857 -24.245  1.00  0.00     0.080 C 
HETATM   16  C22 UNL     1      -0.196  52.676 -23.546  1.00  0.00     0.018 C 
HETATM   17  C23 UNL     1      -1.168  51.967 -24.465  1.00  0.00    -0.026 A 
HETATM   18  C24 UNL     1      -2.533  52.582 -24.612  1.00  0.00     0.021 A 
HETATM   19  C25 UNL     1      -2.416  51.235 -23.907  1.00  0.00    -0.027 A 
HETATM   20  C26 UNL     1      -2.606  51.209 -22.387  1.00  0.00     0.011 C 
HETATM   21  C27 UNL     1      -3.923  50.630 -21.845  1.00  0.00     0.011 C 
HETATM   22  C28 UNL     1      -4.763  49.852 -22.869  1.00  0.00    -0.032 C 
HETATM   23  C29 UNL     1      -5.659  50.878 -23.627  1.00  0.00     0.016 C 
ENDROOT
BRANCH   1  24
HETATM   24  C6  UNL     1      -7.028  49.045 -21.612  1.00  0.00    -0.011 C 
HETATM   25  C7  UNL     1      -6.822  49.803 -20.294  1.00  0.00     0.010 C 
BRANCH  24  26
HETATM   26  C5  UNL     1      -7.836  47.743 -21.351  1.00  0.00     0.040 C 
BRANCH  26  27
HETATM   27  C4  UNL     1      -8.990  47.445 -22.325  1.00  0.00     0.142 C 
BRANCH  27  28
HETATM   28  C3  UNL     1      -8.840  48.115 -23.661  1.00  0.00     0.018 C 
HETATM   29  C2  UNL     1      -9.571  47.943 -24.786  1.00  0.00     0.010 C 
HETATM   30  C1  UNL     1     -10.693  46.961 -24.957  1.00  0.00     0.055 C 
BRANCH  29  31
HETATM   31  C30 UNL     1      -9.286  48.747 -26.005  1.00  0.00     0.171 C 
HETATM   32  O3  UNL     1      -8.792  48.321 -27.034  1.00  0.00    -0.646 OA
BRANCH  31  33
HETATM   33  O4  UNL     1      -9.622  50.044 -25.897  1.00  0.00    -0.773 OA
HETATM   34  H46 UNL     1      -9.379  50.414 -26.770  1.00  0.00     0.167 HD
ENDBRANCH  31  33
ENDBRANCH  29  31
ENDBRANCH  27  28
BRANCH  27  35
HETATM   35  O1  UNL     1      -9.096  46.036 -22.511  1.00  0.00    -0.392 OA
HETATM   36  H6  UNL     1      -9.253  45.641 -21.637  1.00  0.00     0.210 HD
ENDBRANCH  27  35
ENDBRANCH  26  27
ENDBRANCH  24  26
ENDBRANCH   1  24
TORSDOF 7
ENDMDL
MODEL 5
REMARK minimizedAffinity -9.58011341
REMARK  7 active torsions:
REMARK  status: ('A' for Active; 'I' for Inactive)
REMARK    1  A    between atoms: C2_2  and  C30_32 
REMARK    2  A    between atoms: C3_3  and  C4_4 
REMARK    3  A    between atoms: C4_4  and  O1_5 
REMARK    4  A    between atoms: C4_4  and  C5_6 
REMARK    5  A    between atoms: C5_6  and  C6_7 
REMARK    6  A    between atoms: C6_7  and  C8_9 
REMARK    7  A    between atoms: C30_32  and  O4_34 
ROOT
HETATM    1  C8  UNL     1      -2.344  48.995 -18.379  1.00  0.00    -0.002 C 
HETATM    2  C9  UNL     1      -3.528  48.147 -18.928  1.00  0.00     0.006 C 
HETATM    3  C10 UNL     1      -3.564  48.327 -20.455  1.00  0.00     0.011 C 
HETATM    4  C11 UNL     1      -2.232  49.015 -20.808  1.00  0.00    -0.032 C 
HETATM    5  C12 UNL     1      -1.167  47.879 -20.925  1.00  0.00     0.016 C 
HETATM    6  C13 UNL     1      -2.280  49.854 -22.114  1.00  0.00     0.004 C 
HETATM    7  C14 UNL     1      -2.331  49.010 -23.397  1.00  0.00     0.007 C 
HETATM    8  C15 UNL     1      -2.482  49.921 -24.612  1.00  0.00     0.007 C 
HETATM    9  C16 UNL     1      -1.203  50.742 -24.837  1.00  0.00     0.010 C 
HETATM   10  C17 UNL     1      -1.249  51.734 -26.048  1.00  0.00     0.018 C 
HETATM   11  C18 UNL     1      -0.577  51.084 -27.277  1.00  0.00     0.023 C 
HETATM   12  C19 UNL     1      -2.686  52.136 -26.447  1.00  0.00     0.023 C 
HETATM   13  C20 UNL     1      -0.466  53.029 -25.757  1.00  0.00     0.135 C 
HETATM   14  O2  UNL     1      -0.765  54.098 -26.302  1.00  0.00    -0.297 OA
HETATM   15  C21 UNL     1       0.774  52.974 -24.889  1.00  0.00     0.080 C 
HETATM   16  C22 UNL     1       0.726  51.919 -23.792  1.00  0.00     0.018 C 
HETATM   17  C23 UNL     1      -0.685  51.421 -23.569  1.00  0.00    -0.026 A 
HETATM   18  C24 UNL     1      -1.581  52.278 -22.718  1.00  0.00     0.021 A 
HETATM   19  C25 UNL     1      -1.152  50.917 -22.178  1.00  0.00    -0.027 A 
HETATM   20  C26 UNL     1      -0.121  50.894 -21.047  1.00  0.00     0.011 C 
HETATM   21  C27 UNL     1      -0.624  50.556 -19.634  1.00  0.00     0.011 C 
HETATM   22  C28 UNL     1      -2.040  49.966 -19.570  1.00  0.00    -0.032 C 
HETATM   23  C29 UNL     1      -3.047  51.155 -19.519  1.00  0.00     0.016 C 
ENDROOT
BRANCH   1  24
HETATM   24  C6  UNL     1      -2.632  49.561 -16.953  1.00  0.00    -0.011 C 
HETATM   25  C7  UNL     1      -2.681  51.095 -16.948  1.00  0.00     0.010 C 
BRANCH  24  26
HETATM   26  C5  UNL     1      -1.554  49.064 -15.951  1.00  0.00     0.040 C 
BRANCH  26  27
HETATM   27  C4  UNL     1      -0.131  48.882 -16.508  1.00  0.00     0.142 C 
BRANCH  27  28
HETATM   28  C3  UNL     1       0.695  50.136 -16.474  1.00  0.00     0.018 C 
HETATM   29  C2  UNL     1       1.125  50.843 -15.404  1.00  0.00     0.010 C 
HETATM   30  C1  UNL     1       0.798  50.543 -13.971  1.00  0.00     0.055 C 
BRANCH  29  31
HETATM   31  C30 UNL     1       1.982  52.045 -15.585  1.00  0.00     0.171 C 
HETATM   32  O3  UNL     1       3.181  52.098 -15.374  1.00  0.00    -0.646 OA
BRANCH  31  33
HETATM   33  O4  UNL     1       1.318  53.133 -16.014  1.00  0.00    -0.773 OA
HETATM   34  H46 UNL     1       2.019  53.813 -16.083  1.00  0.00     0.167 HD
ENDBRANCH  31  33
ENDBRANCH  29  31
ENDBRANCH  27  28
BRANCH  27  35
HETATM   35  O1  UNL     1       0.534  47.858 -15.774  1.00  0.00    -0.392 OA
HETATM   36  H6  UNL     1       0.006  47.047 -15.866  1.00  0.00     0.210 HD
ENDBRANCH  27  35
ENDBRANCH  26  27
ENDBRANCH  24  26
ENDBRANCH   1  24
TORSDOF 7
ENDMDL
MODEL 6
REMARK minimizedAffinity -9.52530098
REMARK  7 active torsions:
REMARK  status: ('A' for Active; 'I' for Inactive)
REMARK    1  A    between atoms: C2_2  and  C30_32 
REMARK    2  A    between atoms: C3_3  and  C4_4 
REMARK    3  A    between atoms: C4_4  and  O1_5 
REMARK    4  A    between atoms: C4_4  and  C5_6 
REMARK    5  A    between atoms: C5_6  and  C6_7 
REMARK    6  A    between atoms: C6_7  and  C8_9 
REMARK    7  A    between atoms: C30_32  and  O4_34 
ROOT
HETATM    1  C8  UNL     1      -5.757  48.767 -22.167  1.00  0.00    -0.002 C 
HETATM    2  C9  UNL     1      -6.083  47.925 -23.435  1.00  0.00     0.006 C 
HETATM    3  C10 UNL     1      -5.044  48.280 -24.513  1.00  0.00     0.011 C 
HETATM    4  C11 UNL     1      -3.954  49.077 -23.771  1.00  0.00    -0.032 C 
HETATM    5  C12 UNL     1      -2.995  48.024 -23.132  1.00  0.00     0.016 C 
HETATM    6  C13 UNL     1      -3.162  50.059 -24.676  1.00  0.00     0.004 C 
HETATM    7  C14 UNL     1      -2.182  49.369 -25.638  1.00  0.00     0.007 C 
HETATM    8  C15 UNL     1      -1.534  50.405 -26.551  1.00  0.00     0.007 C 
HETATM    9  C16 UNL     1      -0.589  51.317 -25.754  1.00  0.00     0.010 C 
HETATM   10  C17 UNL     1       0.118  52.439 -26.585  1.00  0.00     0.018 C 
HETATM   11  C18 UNL     1       1.537  51.976 -26.981  1.00  0.00     0.023 C 
HETATM   12  C19 UNL     1      -0.642  52.805 -27.879  1.00  0.00     0.023 C 
HETATM   13  C20 UNL     1       0.295  53.733 -25.767  1.00  0.00     0.135 C 
HETATM   14  O2  UNL     1       0.344  54.840 -26.316  1.00  0.00    -0.297 OA
HETATM   15  C21 UNL     1       0.543  53.646 -24.275  1.00  0.00     0.080 C 
HETATM   16  C22 UNL     1      -0.140  52.470 -23.592  1.00  0.00     0.018 C 
HETATM   17  C23 UNL     1      -1.215  51.871 -24.474  1.00  0.00    -0.026 A 
HETATM   18  C24 UNL     1      -2.546  52.572 -24.493  1.00  0.00     0.021 A 
HETATM   19  C25 UNL     1      -2.466  51.184 -23.866  1.00  0.00    -0.027 A 
HETATM   20  C26 UNL     1      -2.553  51.086 -22.340  1.00  0.00     0.011 C 
HETATM   21  C27 UNL     1      -3.864  50.557 -21.736  1.00  0.00     0.011 C 
HETATM   22  C28 UNL     1      -4.819  49.887 -22.735  1.00  0.00    -0.032 C 
HETATM   23  C29 UNL     1      -5.698  51.003 -23.375  1.00  0.00     0.016 C 
ENDROOT
BRANCH   1  24
HETATM   24  C6  UNL     1      -7.039  49.147 -21.363  1.00  0.00    -0.011 C 
HETATM   25  C7  UNL     1      -6.720  50.073 -20.182  1.00  0.00     0.010 C 
BRANCH  24  26
HETATM   26  C5  UNL     1      -7.750  47.863 -20.850  1.00  0.00     0.040 C 
BRANCH  26  27
HETATM   27  C4  UNL     1      -7.350  47.373 -19.447  1.00  0.00     0.142 C 
BRANCH  27  28
HETATM   28  C3  UNL     1      -8.518  47.156 -18.528  1.00  0.00     0.018 C 
HETATM   29  C2  UNL     1      -9.256  48.070 -17.858  1.00  0.00     0.010 C 
HETATM   30  C1  UNL     1      -9.009  49.550 -17.846  1.00  0.00     0.055 C 
BRANCH  29  31
HETATM   31  C30 UNL     1     -10.415  47.648 -17.027  1.00  0.00     0.171 C 
HETATM   32  O3  UNL     1     -11.505  47.306 -17.452  1.00  0.00    -0.646 OA
BRANCH  31  33
HETATM   33  O4  UNL     1     -10.177  47.671 -15.704  1.00  0.00    -0.773 OA
HETATM   34  H46 UNL     1     -11.023  47.365 -15.317  1.00  0.00     0.167 HD
ENDBRANCH  31  33
ENDBRANCH  29  31
ENDBRANCH  27  28
BRANCH  27  35
HETATM   35  O1  UNL     1      -6.611  46.160 -19.566  1.00  0.00    -0.392 OA
HETATM   36  H6  UNL     1      -5.832  46.350 -20.115  1.00  0.00     0.210 HD
ENDBRANCH  27  35
ENDBRANCH  26  27
ENDBRANCH  24  26
ENDBRANCH   1  24
TORSDOF 7
ENDMDL
MODEL 7
REMARK minimizedAffinity -9.43833637
REMARK  7 active torsions:
REMARK  status: ('A' for Active; 'I' for Inactive)
REMARK    1  A    between atoms: C2_2  and  C30_32 
REMARK    2  A    between atoms: C3_3  and  C4_4 
REMARK    3  A    between atoms: C4_4  and  O1_5 
REMARK    4  A    between atoms: C4_4  and  C5_6 
REMARK    5  A    between atoms: C5_6  and  C6_7 
REMARK    6  A    between atoms: C6_7  and  C8_9 
REMARK    7  A    between atoms: C30_32  and  O4_34 
ROOT
HETATM    1  C8  UNL     1      -1.354  49.802 -18.062  1.00  0.00    -0.002 C 
HETATM    2  C9  UNL     1      -2.637  48.943 -18.262  1.00  0.00     0.006 C 
HETATM    3  C10 UNL     1      -2.957  48.923 -19.766  1.00  0.00     0.011 C 
HETATM    4  C11 UNL     1      -1.702  49.499 -20.450  1.00  0.00    -0.032 C 
HETATM    5  C12 UNL     1      -0.700  48.312 -20.605  1.00  0.00     0.016 C 
HETATM    6  C13 UNL     1      -1.980  50.162 -21.827  1.00  0.00     0.004 C 
HETATM    7  C14 UNL     1      -2.289  49.161 -22.951  1.00  0.00     0.007 C 
HETATM    8  C15 UNL     1      -2.649  49.910 -24.230  1.00  0.00     0.007 C 
HETATM    9  C16 UNL     1      -1.421  50.637 -24.797  1.00  0.00     0.010 C 
HETATM   10  C17 UNL     1      -1.675  51.464 -26.103  1.00  0.00     0.018 C 
HETATM   11  C18 UNL     1      -1.260  50.630 -27.333  1.00  0.00     0.023 C 
HETATM   12  C19 UNL     1      -3.154  51.873 -26.281  1.00  0.00     0.023 C 
HETATM   13  C20 UNL     1      -0.828  52.750 -26.141  1.00  0.00     0.135 C 
HETATM   14  O2  UNL     1      -1.204  53.751 -26.762  1.00  0.00    -0.297 OA
HETATM   15  C21 UNL     1       0.553  52.754 -25.518  1.00  0.00     0.080 C 
HETATM   16  C22 UNL     1       0.694  51.855 -24.297  1.00  0.00     0.018 C 
HETATM   17  C23 UNL     1      -0.660  51.453 -23.752  1.00  0.00    -0.026 A 
HETATM   18  C24 UNL     1      -1.363  52.453 -22.875  1.00  0.00     0.021 A 
HETATM   19  C25 UNL     1      -0.865  51.157 -22.243  1.00  0.00    -0.027 A 
HETATM   20  C26 UNL     1       0.361  51.236 -21.328  1.00  0.00     0.011 C 
HETATM   21  C27 UNL     1       0.127  51.108 -19.814  1.00  0.00     0.011 C 
HETATM   22  C28 UNL     1      -1.263  50.595 -19.410  1.00  0.00    -0.032 C 
HETATM   23  C29 UNL     1      -2.219  51.823 -19.337  1.00  0.00     0.016 C 
ENDROOT
BRANCH   1  24
HETATM   24  C6  UNL     1      -1.357  50.562 -16.699  1.00  0.00    -0.011 C 
HETATM   25  C7  UNL     1       0.007  50.490 -16.002  1.00  0.00     0.010 C 
BRANCH  24  26
HETATM   26  C5  UNL     1      -2.458  49.985 -15.766  1.00  0.00     0.040 C 
BRANCH  26  27
HETATM   27  C4  UNL     1      -2.242  50.173 -14.253  1.00  0.00     0.142 C 
BRANCH  27  28
HETATM   28  C3  UNL     1      -3.111  51.239 -13.648  1.00  0.00     0.018 C 
HETATM   29  C2  UNL     1      -2.867  52.030 -12.579  1.00  0.00     0.010 C 
HETATM   30  C1  UNL     1      -1.652  51.959 -11.700  1.00  0.00     0.055 C 
BRANCH  29  31
HETATM   31  C30 UNL     1      -3.848  53.069 -12.164  1.00  0.00     0.171 C 
HETATM   32  O3  UNL     1      -4.234  53.264 -11.025  1.00  0.00    -0.646 OA
BRANCH  31  33
HETATM   33  O4  UNL     1      -4.311  53.819 -13.179  1.00  0.00    -0.773 OA
HETATM   34  H46 UNL     1      -4.926  54.441 -12.737  1.00  0.00     0.167 HD
ENDBRANCH  31  33
ENDBRANCH  29  31
ENDBRANCH  27  28
BRANCH  27  35
HETATM   35  O1  UNL     1      -2.480  48.936 -13.587  1.00  0.00    -0.392 OA
HETATM   36  H6  UNL     1      -1.863  48.284 -13.959  1.00  0.00     0.210 HD
ENDBRANCH  27  35
ENDBRANCH  26  27
ENDBRANCH  24  26
ENDBRANCH   1  24
TORSDOF 7
ENDMDL
MODEL 8
REMARK minimizedAffinity -9.36939621
REMARK  7 active torsions:
REMARK  status: ('A' for Active; 'I' for Inactive)
REMARK    1  A    between atoms: C2_2  and  C30_32 
REMARK    2  A    between atoms: C3_3  and  C4_4 
REMARK    3  A    between atoms: C4_4  and  O1_5 
REMARK    4  A    between atoms: C4_4  and  C5_6 
REMARK    5  A    between atoms: C5_6  and  C6_7 
REMARK    6  A    between atoms: C6_7  and  C8_9 
REMARK    7  A    between atoms: C30_32  and  O4_34 
ROOT
HETATM    1  C8  UNL     1      -0.980  50.506 -22.078  1.00  0.00    -0.002 C 
HETATM    2  C9  UNL     1      -1.095  50.020 -20.604  1.00  0.00     0.006 C 
HETATM    3  C10 UNL     1      -2.358  49.149 -20.495  1.00  0.00     0.011 C 
HETATM    4  C11 UNL     1      -2.787  48.882 -21.951  1.00  0.00    -0.032 C 
HETATM    5  C12 UNL     1      -1.939  47.667 -22.444  1.00  0.00     0.016 C 
HETATM    6  C13 UNL     1      -4.303  48.595 -22.121  1.00  0.00     0.004 C 
HETATM    7  C14 UNL     1      -4.739  47.215 -21.605  1.00  0.00     0.007 C 
HETATM    8  C15 UNL     1      -6.254  47.072 -21.720  1.00  0.00     0.007 C 
HETATM    9  C16 UNL     1      -6.682  46.997 -23.193  1.00  0.00     0.010 C 
HETATM   10  C17 UNL     1      -8.224  46.872 -23.437  1.00  0.00     0.018 C 
HETATM   11  C18 UNL     1      -8.595  45.391 -23.662  1.00  0.00     0.023 C 
HETATM   12  C19 UNL     1      -9.068  47.401 -22.256  1.00  0.00     0.023 C 
HETATM   13  C20 UNL     1      -8.667  47.630 -24.703  1.00  0.00     0.135 C 
HETATM   14  O2  UNL     1      -9.811  48.086 -24.813  1.00  0.00    -0.297 OA
HETATM   15  C21 UNL     1      -7.731  47.710 -25.892  1.00  0.00     0.080 C 
HETATM   16  C22 UNL     1      -6.254  47.753 -25.527  1.00  0.00     0.018 C 
HETATM   17  C23 UNL     1      -6.058  48.088 -24.064  1.00  0.00    -0.026 A 
HETATM   18  C24 UNL     1      -6.146  49.540 -23.682  1.00  0.00     0.021 A 
HETATM   19  C25 UNL     1      -4.795  48.841 -23.571  1.00  0.00    -0.027 A 
HETATM   20  C26 UNL     1      -3.725  49.191 -24.609  1.00  0.00     0.011 C 
HETATM   21  C27 UNL     1      -2.557  50.081 -24.153  1.00  0.00     0.011 C 
HETATM   22  C28 UNL     1      -2.424  50.253 -22.633  1.00  0.00    -0.032 C 
HETATM   23  C29 UNL     1      -3.341  51.439 -22.207  1.00  0.00     0.016 C 
ENDROOT
BRANCH   1  24
HETATM   24  C6  UNL     1      -0.332  51.922 -22.186  1.00  0.00    -0.011 C 
HETATM   25  C7  UNL     1       0.289  52.161 -23.569  1.00  0.00     0.010 C 
BRANCH  24  26
HETATM   26  C5  UNL     1       0.749  52.102 -21.084  1.00  0.00     0.040 C 
BRANCH  26  27
HETATM   27  C4  UNL     1       0.638  53.367 -20.215  1.00  0.00     0.142 C 
BRANCH  27  28
HETATM   28  C3  UNL     1       1.339  53.252 -18.891  1.00  0.00     0.018 C 
HETATM   29  C2  UNL     1       1.012  52.499 -17.817  1.00  0.00     0.010 C 
HETATM   30  C1  UNL     1      -0.207  51.632 -17.698  1.00  0.00     0.055 C 
BRANCH  29  31
HETATM   31  C30 UNL     1       1.873  52.491 -16.604  1.00  0.00     0.171 C 
HETATM   32  O3  UNL     1       3.038  52.136 -16.565  1.00  0.00    -0.646 OA
BRANCH  31  33
HETATM   33  O4  UNL     1       1.255  52.921 -15.491  1.00  0.00    -0.773 OA
HETATM   34  H46 UNL     1       1.953  52.858 -14.806  1.00  0.00     0.167 HD
ENDBRANCH  31  33
ENDBRANCH  29  31
ENDBRANCH  27  28
BRANCH  27  35
HETATM   35  O1  UNL     1       1.165  54.479 -20.933  1.00  0.00    -0.392 OA
HETATM   36  H6  UNL     1       0.652  54.562 -21.754  1.00  0.00     0.210 HD
ENDBRANCH  27  35
ENDBRANCH  26  27
ENDBRANCH  24  26
ENDBRANCH   1  24
TORSDOF 7
ENDMDL
MODEL 9
REMARK minimizedAffinity -9.31426048
REMARK  7 active torsions:
REMARK  status: ('A' for Active; 'I' for Inactive)
REMARK    1  A    between atoms: C2_2  and  C30_32 
REMARK    2  A    between atoms: C3_3  and  C4_4 
REMARK    3  A    between atoms: C4_4  and  O1_5 
REMARK    4  A    between atoms: C4_4  and  C5_6 
REMARK    5  A    between atoms: C5_6  and  C6_7 
REMARK    6  A    between atoms: C6_7  and  C8_9 
REMARK    7  A    between atoms: C30_32  and  O4_34 
ROOT
HETATM    1  C8  UNL     1       0.224  51.900 -22.881  1.00  0.00    -0.002 C 
HETATM    2  C9  UNL     1       0.313  52.623 -21.506  1.00  0.00     0.006 C 
HETATM    3  C10 UNL     1      -0.822  52.085 -20.619  1.00  0.00     0.011 C 
HETATM    4  C11 UNL     1      -1.359  50.847 -21.364  1.00  0.00    -0.032 C 
HETATM    5  C12 UNL     1      -0.428  49.657 -20.969  1.00  0.00     0.016 C 
HETATM    6  C13 UNL     1      -2.841  50.511 -21.045  1.00  0.00     0.004 C 
HETATM    7  C14 UNL     1      -3.059  49.920 -19.643  1.00  0.00     0.007 C 
HETATM    8  C15 UNL     1      -4.551  49.723 -19.389  1.00  0.00     0.007 C 
HETATM    9  C16 UNL     1      -5.110  48.606 -20.283  1.00  0.00     0.010 C 
HETATM   10  C17 UNL     1      -6.644  48.328 -20.126  1.00  0.00     0.018 C 
HETATM   11  C18 UNL     1      -6.860  47.135 -19.172  1.00  0.00     0.023 C 
HETATM   12  C19 UNL     1      -7.423  49.537 -19.562  1.00  0.00     0.023 C 
HETATM   13  C20 UNL     1      -7.295  47.938 -21.467  1.00  0.00     0.135 C 
HETATM   14  O2  UNL     1      -8.490  48.164 -21.692  1.00  0.00    -0.297 OA
HETATM   15  C21 UNL     1      -6.498  47.147 -22.483  1.00  0.00     0.080 C 
HETATM   16  C22 UNL     1      -5.007  47.454 -22.489  1.00  0.00     0.018 C 
HETATM   17  C23 UNL     1      -4.708  48.742 -21.751  1.00  0.00    -0.026 A 
HETATM   18  C24 UNL     1      -4.927  50.023 -22.507  1.00  0.00     0.021 A 
HETATM   19  C25 UNL     1      -3.499  49.632 -22.141  1.00  0.00    -0.027 A 
HETATM   20  C26 UNL     1      -2.585  49.138 -23.266  1.00  0.00     0.011 C 
HETATM   21  C27 UNL     1      -1.489  50.095 -23.763  1.00  0.00     0.011 C 
HETATM   22  C28 UNL     1      -1.227  51.311 -22.862  1.00  0.00    -0.032 C 
HETATM   23  C29 UNL     1      -2.231  52.431 -23.271  1.00  0.00     0.016 C 
ENDROOT
BRANCH   1  24
HETATM   24  C6  UNL     1       0.689  52.811 -24.060  1.00  0.00    -0.011 C 
HETATM   25  C7  UNL     1      -0.484  53.574 -24.690  1.00  0.00     0.010 C 
BRANCH  24  26
HETATM   26  C5  UNL     1       1.407  51.960 -25.144  1.00  0.00     0.040 C 
BRANCH  26  27
HETATM   27  C4  UNL     1       0.869  52.083 -26.581  1.00  0.00     0.142 C 
BRANCH  27  28
HETATM   28  C3  UNL     1      -0.316  51.203 -26.859  1.00  0.00     0.018 C 
HETATM   29  C2  UNL     1      -1.502  51.526 -27.423  1.00  0.00     0.010 C 
HETATM   30  C1  UNL     1      -1.921  52.903 -27.848  1.00  0.00     0.055 C 
BRANCH  29  31
HETATM   31  C30 UNL     1      -2.540  50.485 -27.656  1.00  0.00     0.171 C 
HETATM   32  O3  UNL     1      -2.652  49.445 -27.032  1.00  0.00    -0.646 OA
BRANCH  31  33
HETATM   33  O4  UNL     1      -3.391  50.775 -28.655  1.00  0.00    -0.773 OA
HETATM   34  H46 UNL     1      -3.997  50.005 -28.667  1.00  0.00     0.167 HD
ENDBRANCH  31  33
ENDBRANCH  29  31
ENDBRANCH  27  28
BRANCH  27  35
HETATM   35  O1  UNL     1       0.519  53.441 -26.837  1.00  0.00    -0.392 OA
HETATM   36  H6  UNL     1       1.321  53.975 -26.707  1.00  0.00     0.210 HD
ENDBRANCH  27  35
ENDBRANCH  26  27
ENDBRANCH  24  26
ENDBRANCH   1  24
TORSDOF 7
ENDMDL
