MODEL 1
REMARK minimizedAffinity -8.58522797
REMARK CNNscore 0.628030479
REMARK CNNaffinity 6.97190428
REMARK  11 active torsions:
REMARK  status: ('A' for Active; 'I' for Inactive)
REMARK    1  A    between atoms: C3_4  and  O2_5 
REMARK    2  A    between atoms: O2_5  and  C4_6 
REMARK    3  A    between atoms: C7_9  and  C8_10 
REMARK    4  A    between atoms: N1_11  and  C9_13 
REMARK    5  A    between atoms: C9_13  and  C10_14 
REMARK    6  A    between atoms: C10_14  and  C11_15 
REMARK    7  A    between atoms: C22_26  and  C23_27 
REMARK    8  A    between atoms: C29_35  and  O5_36 
REMARK    9  A    between atoms: C33_40  and  O6_41 
REMARK   10  A    between atoms: C36_44  and  O7_45 
REMARK   11  A    between atoms: C37_46  and  O8_47 
ROOT
HETATM    1  C4  UNL     1      -2.406  52.462 -10.211  1.00  0.00     0.127 C 
HETATM    2  C5  UNL     1      -1.876  52.154  -8.820  1.00  0.00     0.033 C 
HETATM    3  C6  UNL     1      -0.353  52.246  -8.694  1.00  0.00     0.021 C 
HETATM    4  C7  UNL     1       0.370  53.119  -9.772  1.00  0.00     0.026 C 
HETATM    5  C17 UNL     1       1.754  53.604  -9.162  1.00  0.00     0.009 C 
HETATM    6  C18 UNL     1       3.034  53.055  -9.850  1.00  0.00     0.007 C 
HETATM    7  C19 UNL     1       4.343  53.523  -9.177  1.00  0.00     0.013 C 
HETATM    8  C20 UNL     1       4.377  55.051  -9.004  1.00  0.00    -0.005 C 
HETATM    9  C21 UNL     1       4.459  55.688 -10.432  1.00  0.00     0.019 C 
HETATM   10  C22 UNL     1       5.557  55.675  -8.190  1.00  0.00     0.028 C 
HETATM   11  C27 UNL     1       4.936  56.954  -7.550  1.00  0.00     0.013 C 
HETATM   12  C28 UNL     1       3.434  56.967  -7.906  1.00  0.00     0.040 C 
HETATM   13  C29 UNL     1       3.126  55.503  -8.199  1.00  0.00     0.070 C 
HETATM   14  C30 UNL     1       1.824  55.150  -8.947  1.00  0.00     0.026 C 
HETATM   15  C31 UNL     1       0.551  55.620  -8.233  1.00  0.00     0.011 C 
HETATM   16  C32 UNL     1      -0.734  55.313  -9.017  1.00  0.00     0.039 C 
HETATM   17  C33 UNL     1      -0.561  54.303 -10.177  1.00  0.00     0.073 C 
HETATM   18  C34 UNL     1      -1.944  53.839 -10.700  1.00  0.00     0.071 C 
ENDROOT
BRANCH   1  19
HETATM   19  O2  UNL     1      -3.836  52.387 -10.146  1.00  0.00    -0.356 OA
BRANCH  19  20
HETATM   20  C3  UNL     1      -4.389  51.215 -10.747  1.00  0.00     0.263 C 
HETATM   21  O1  UNL     1      -4.894  50.336  -9.743  1.00  0.00    -0.354 OA
HETATM   22  C2  UNL     1      -5.012  48.956 -10.101  1.00  0.00     0.151 C 
HETATM   23  C1  UNL     1      -3.947  48.158  -9.351  1.00  0.00     0.042 C 
HETATM   24  C37 UNL     1      -5.028  48.720 -11.620  1.00  0.00     0.175 C 
HETATM   25  C36 UNL     1      -3.791  49.331 -12.296  1.00  0.00     0.154 C 
HETATM   26  C35 UNL     1      -3.280  50.567 -11.568  1.00  0.00     0.095 C 
BRANCH  24  27
HETATM   27  O8  UNL     1      -5.122  47.338 -11.975  1.00  0.00    -0.390 OA
HETATM   28  H55 UNL     1      -5.871  46.954 -11.481  1.00  0.00     0.210 HD
ENDBRANCH  24  27
BRANCH  25  29
HETATM   29  O7  UNL     1      -2.738  48.364 -12.380  1.00  0.00    -0.393 OA
HETATM   30  H53 UNL     1      -3.195  47.508 -12.511  1.00  0.00     0.210 HD
ENDBRANCH  25  29
ENDBRANCH  19  20
ENDBRANCH   1  19
BRANCH  17  31
HETATM   31  O6  UNL     1       0.049  55.041 -11.259  1.00  0.00    -0.389 OA
HETATM   32  H47 UNL     1      -0.575  55.737 -11.534  1.00  0.00     0.210 HD
ENDBRANCH  17  31
BRANCH   4  33
HETATM   33  C8  UNL     1       0.637  52.314 -11.055  1.00  0.00     0.068 C 
HETATM   34  N1  UNL     1       0.601  51.026 -11.082  1.00  0.00    -0.401 N 
ATOM     35  H1  UNL     1       0.390  50.466 -10.256  1.00  0.00     0.158 HD
BRANCH  34  36
HETATM   36  C9  UNL     1       0.886  50.426 -12.392  1.00  0.00     0.123 C 
BRANCH  36  37
HETATM   37  C10 UNL     1       2.358  50.671 -12.738  1.00  0.00     0.053 C 
BRANCH  37  38
HETATM   38  C11 UNL     1       2.544  51.266 -14.116  1.00  0.00    -0.082 C 
HETATM   39  C12 UNL     1       3.769  51.508 -14.621  1.00  0.00    -0.024 C 
HETATM   40  C13 UNL     1       4.013  52.147 -15.957  1.00  0.00     0.027 C 
HETATM   41  C14 UNL     1       2.763  52.792 -16.555  1.00  0.00     0.004 C 
HETATM   42  C15 UNL     1       1.540  51.901 -16.366  1.00  0.00     0.005 C 
HETATM   43  C16 UNL     1       1.288  51.609 -14.884  1.00  0.00     0.034 C 
ENDBRANCH  37  38
ENDBRANCH  36  37
ENDBRANCH  34  36
ENDBRANCH   4  33
BRANCH  13  44
HETATM   44  O5  UNL     1       3.103  54.838  -6.924  1.00  0.00    -0.389 OA
HETATM   45  H41 UNL     1       2.408  55.244  -6.379  1.00  0.00     0.210 HD
ENDBRANCH  13  44
BRANCH  10  46
HETATM   46  C23 UNL     1       6.316  54.818  -7.211  1.00  0.00    -0.045 A 
HETATM   47  C24 UNL     1       6.313  53.484  -7.207  1.00  0.00     0.087 A 
HETATM   48  C25 UNL     1       7.221  53.048  -6.150  1.00  0.00     0.283 A 
HETATM   49  O3  UNL     1       7.456  51.887  -5.872  1.00  0.00    -0.260 OA
HETATM   50  O4  UNL     1       7.763  54.138  -5.552  1.00  0.00    -0.314 OA
HETATM   51  C26 UNL     1       7.210  55.322  -6.141  1.00  0.00     0.213 A 
ENDBRANCH  10  46
TORSDOF 11
ENDMDL
MODEL 2
REMARK minimizedAffinity -8.81944275
REMARK CNNscore 0.515580058
REMARK CNNaffinity 6.90137339
REMARK  11 active torsions:
REMARK  status: ('A' for Active; 'I' for Inactive)
REMARK    1  A    between atoms: C3_4  and  O2_5 
REMARK    2  A    between atoms: O2_5  and  C4_6 
REMARK    3  A    between atoms: C7_9  and  C8_10 
REMARK    4  A    between atoms: N1_11  and  C9_13 
REMARK    5  A    between atoms: C9_13  and  C10_14 
REMARK    6  A    between atoms: C10_14  and  C11_15 
REMARK    7  A    between atoms: C22_26  and  C23_27 
REMARK    8  A    between atoms: C29_35  and  O5_36 
REMARK    9  A    between atoms: C33_40  and  O6_41 
REMARK   10  A    between atoms: C36_44  and  O7_45 
REMARK   11  A    between atoms: C37_46  and  O8_47 
ROOT
HETATM    1  C4  UNL     1      -0.167  55.451  -8.107  1.00  0.00     0.127 C 
HETATM    2  C5  UNL     1      -1.152  55.857  -9.193  1.00  0.00     0.033 C 
HETATM    3  C6  UNL     1      -0.944  55.140 -10.529  1.00  0.00     0.021 C 
HETATM    4  C7  UNL     1      -0.171  53.782 -10.463  1.00  0.00     0.026 C 
HETATM    5  C17 UNL     1      -0.583  52.923 -11.734  1.00  0.00     0.009 C 
HETATM    6  C18 UNL     1       0.546  52.640 -12.763  1.00  0.00     0.007 C 
HETATM    7  C19 UNL     1       0.068  51.846 -13.997  1.00  0.00     0.013 C 
HETATM    8  C20 UNL     1      -0.691  50.569 -13.592  1.00  0.00    -0.005 C 
HETATM    9  C21 UNL     1       0.337  49.602 -12.917  1.00  0.00     0.019 C 
HETATM   10  C22 UNL     1      -1.387  49.736 -14.717  1.00  0.00     0.028 C 
HETATM   11  C27 UNL     1      -2.612  49.090 -14.001  1.00  0.00     0.013 C 
HETATM   12  C28 UNL     1      -2.653  49.645 -12.561  1.00  0.00     0.040 C 
HETATM   13  C29 UNL     1      -1.878  50.954 -12.664  1.00  0.00     0.070 C 
HETATM   14  C30 UNL     1      -1.377  51.627 -11.369  1.00  0.00     0.026 C 
HETATM   15  C31 UNL     1      -2.496  51.981 -10.381  1.00  0.00     0.011 C 
HETATM   16  C32 UNL     1      -1.979  52.598  -9.073  1.00  0.00     0.039 C 
HETATM   17  C33 UNL     1      -0.505  53.070  -9.116  1.00  0.00     0.073 C 
HETATM   18  C34 UNL     1      -0.179  53.936  -7.872  1.00  0.00     0.071 C 
ENDROOT
BRANCH   1  19
HETATM   19  O2  UNL     1      -0.528  56.163  -6.918  1.00  0.00    -0.356 OA
BRANCH  19  20
HETATM   20  C3  UNL     1       0.479  56.160  -5.904  1.00  0.00     0.263 C 
HETATM   21  O1  UNL     1      -0.112  56.361  -4.621  1.00  0.00    -0.354 OA
HETATM   22  C2  UNL     1       0.745  56.877  -3.598  1.00  0.00     0.151 C 
HETATM   23  C1  UNL     1       0.341  58.319  -3.295  1.00  0.00     0.042 C 
HETATM   24  C37 UNL     1       2.239  56.688  -3.900  1.00  0.00     0.175 C 
HETATM   25  C36 UNL     1       2.619  57.302  -5.257  1.00  0.00     0.154 C 
HETATM   26  C35 UNL     1       1.471  57.262  -6.256  1.00  0.00     0.095 C 
BRANCH  24  27
HETATM   27  O8  UNL     1       3.093  57.225  -2.886  1.00  0.00    -0.390 OA
HETATM   28  H55 UNL     1       2.790  56.876  -2.027  1.00  0.00     0.210 HD
ENDBRANCH  24  27
BRANCH  25  29
HETATM   29  O7  UNL     1       3.051  58.657  -5.088  1.00  0.00    -0.393 OA
HETATM   30  H53 UNL     1       3.503  58.669  -4.219  1.00  0.00     0.210 HD
ENDBRANCH  25  29
ENDBRANCH  19  20
ENDBRANCH   1  19
BRANCH  17  31
HETATM   31  O6  UNL     1       0.299  51.877  -8.995  1.00  0.00    -0.389 OA
HETATM   32  H47 UNL     1       0.117  51.482  -8.123  1.00  0.00     0.210 HD
ENDBRANCH  17  31
BRANCH   4  33
HETATM   33  C8  UNL     1       1.351  54.005 -10.474  1.00  0.00     0.068 C 
HETATM   34  N1  UNL     1       1.889  55.072 -10.957  1.00  0.00    -0.401 N 
ATOM     35  H1  UNL     1       1.338  55.831 -11.356  1.00  0.00     0.158 HD
BRANCH  34  36
HETATM   36  C9  UNL     1       3.356  55.111 -10.889  1.00  0.00     0.123 C 
BRANCH  36  37
HETATM   37  C10 UNL     1       3.779  56.278  -9.992  1.00  0.00     0.053 C 
BRANCH  37  38
HETATM   38  C11 UNL     1       4.913  55.918  -9.058  1.00  0.00    -0.082 C 
HETATM   39  C12 UNL     1       4.965  56.386  -7.797  1.00  0.00    -0.024 C 
HETATM   40  C13 UNL     1       6.091  56.106  -6.845  1.00  0.00     0.027 C 
HETATM   41  C14 UNL     1       7.325  55.517  -7.528  1.00  0.00     0.004 C 
HETATM   42  C15 UNL     1       6.934  54.457  -8.551  1.00  0.00     0.005 C 
HETATM   43  C16 UNL     1       6.004  55.036  -9.622  1.00  0.00     0.034 C 
ENDBRANCH  37  38
ENDBRANCH  36  37
ENDBRANCH  34  36
ENDBRANCH   4  33
BRANCH  13  44
HETATM   44  O5  UNL     1      -2.745  51.879 -13.342  1.00  0.00    -0.389 OA
HETATM   45  H41 UNL     1      -3.553  51.986 -12.812  1.00  0.00     0.210 HD
ENDBRANCH  13  44
BRANCH  10  46
HETATM   46  C23 UNL     1      -1.732  50.401 -16.024  1.00  0.00    -0.045 A 
HETATM   47  C24 UNL     1      -0.866  50.638 -17.010  1.00  0.00     0.087 A 
HETATM   48  C25 UNL     1      -1.612  51.229 -18.116  1.00  0.00     0.283 A 
HETATM   49  O3  UNL     1      -1.125  51.568 -19.178  1.00  0.00    -0.260 OA
HETATM   50  O4  UNL     1      -2.921  51.319 -17.771  1.00  0.00    -0.314 OA
HETATM   51  C26 UNL     1      -3.088  50.847 -16.429  1.00  0.00     0.213 A 
ENDBRANCH  10  46
TORSDOF 11
ENDMDL
MODEL 3
REMARK minimizedAffinity -7.84388447
REMARK CNNscore 0.499862403
REMARK CNNaffinity 7.04069901
REMARK  11 active torsions:
REMARK  status: ('A' for Active; 'I' for Inactive)
REMARK    1  A    between atoms: C3_4  and  O2_5 
REMARK    2  A    between atoms: O2_5  and  C4_6 
REMARK    3  A    between atoms: C7_9  and  C8_10 
REMARK    4  A    between atoms: N1_11  and  C9_13 
REMARK    5  A    between atoms: C9_13  and  C10_14 
REMARK    6  A    between atoms: C10_14  and  C11_15 
REMARK    7  A    between atoms: C22_26  and  C23_27 
REMARK    8  A    between atoms: C29_35  and  O5_36 
REMARK    9  A    between atoms: C33_40  and  O6_41 
REMARK   10  A    between atoms: C36_44  and  O7_45 
REMARK   11  A    between atoms: C37_46  and  O8_47 
ROOT
HETATM    1  C4  UNL     1       3.544  56.125  -8.074  1.00  0.00     0.127 C 
HETATM    2  C5  UNL     1       3.217  56.248  -9.554  1.00  0.00     0.033 C 
HETATM    3  C6  UNL     1       2.448  55.055 -10.128  1.00  0.00     0.021 C 
HETATM    4  C7  UNL     1       1.666  54.184  -9.091  1.00  0.00     0.026 C 
HETATM    5  C17 UNL     1       0.491  53.443  -9.863  1.00  0.00     0.009 C 
HETATM    6  C18 UNL     1       0.594  51.894  -9.940  1.00  0.00     0.007 C 
HETATM    7  C19 UNL     1      -0.549  51.242 -10.746  1.00  0.00     0.013 C 
HETATM    8  C20 UNL     1      -1.930  51.716 -10.259  1.00  0.00    -0.005 C 
HETATM    9  C21 UNL     1      -2.141  51.152  -8.814  1.00  0.00     0.019 C 
HETATM   10  C22 UNL     1      -3.190  51.280 -11.075  1.00  0.00     0.028 C 
HETATM   11  C27 UNL     1      -4.195  52.455 -10.868  1.00  0.00     0.013 C 
HETATM   12  C28 UNL     1      -3.466  53.552 -10.062  1.00  0.00     0.040 C 
HETATM   13  C29 UNL     1      -1.993  53.268 -10.331  1.00  0.00     0.070 C 
HETATM   14  C30 UNL     1      -0.931  53.911  -9.415  1.00  0.00     0.026 C 
HETATM   15  C31 UNL     1      -0.975  55.444  -9.395  1.00  0.00     0.011 C 
HETATM   16  C32 UNL     1       0.049  56.069  -8.435  1.00  0.00     0.039 C 
HETATM   17  C33 UNL     1       1.150  55.101  -7.941  1.00  0.00     0.073 C 
HETATM   18  C34 UNL     1       2.284  55.888  -7.234  1.00  0.00     0.071 C 
ENDROOT
BRANCH   1  19
HETATM   19  O2  UNL     1       4.208  57.334  -7.684  1.00  0.00    -0.356 OA
BRANCH  19  20
HETATM   20  C3  UNL     1       5.530  57.140  -7.179  1.00  0.00     0.263 C 
HETATM   21  O1  UNL     1       5.990  55.826  -7.492  1.00  0.00    -0.354 OA
HETATM   22  C2  UNL     1       7.033  55.300  -6.665  1.00  0.00     0.151 C 
HETATM   23  C1  UNL     1       6.456  54.191  -5.788  1.00  0.00     0.042 C 
HETATM   24  C37 UNL     1       7.803  56.383  -5.893  1.00  0.00     0.175 C 
HETATM   25  C36 UNL     1       6.856  57.252  -5.050  1.00  0.00     0.154 C 
HETATM   26  C35 UNL     1       5.474  57.383  -5.675  1.00  0.00     0.095 C 
BRANCH  24  27
HETATM   27  O8  UNL     1       8.829  55.853  -5.050  1.00  0.00    -0.390 OA
HETATM   28  H55 UNL     1       9.376  55.251  -5.589  1.00  0.00     0.210 HD
ENDBRANCH  24  27
BRANCH  25  29
HETATM   29  O7  UNL     1       6.728  56.714  -3.729  1.00  0.00    -0.393 OA
HETATM   30  H53 UNL     1       7.605  56.326  -3.530  1.00  0.00     0.210 HD
ENDBRANCH  25  29
ENDBRANCH  19  20
ENDBRANCH   1  19
BRANCH  17  31
HETATM   31  O6  UNL     1       0.534  54.285  -6.920  1.00  0.00    -0.389 OA
HETATM   32  H47 UNL     1       0.273  54.872  -6.187  1.00  0.00     0.210 HD
ENDBRANCH  17  31
BRANCH   4  33
HETATM   33  C8  UNL     1       2.582  53.135  -8.438  1.00  0.00     0.068 C 
HETATM   34  N1  UNL     1       2.694  53.018  -7.159  1.00  0.00    -0.401 N 
ATOM     35  H1  UNL     1       2.181  53.610  -6.507  1.00  0.00     0.158 HD
BRANCH  34  36
HETATM   36  C9  UNL     1       3.618  51.966  -6.713  1.00  0.00     0.123 C 
BRANCH  36  37
HETATM   37  C10 UNL     1       3.522  50.781  -7.679  1.00  0.00     0.053 C 
BRANCH  37  38
HETATM   38  C11 UNL     1       4.694  50.708  -8.633  1.00  0.00    -0.082 C 
HETATM   39  C12 UNL     1       4.591  50.104  -9.832  1.00  0.00    -0.024 C 
HETATM   40  C13 UNL     1       5.732  49.953 -10.796  1.00  0.00     0.027 C 
HETATM   41  C14 UNL     1       7.093  50.254 -10.169  1.00  0.00     0.004 C 
HETATM   42  C15 UNL     1       7.028  51.488  -9.278  1.00  0.00     0.005 C 
HETATM   43  C16 UNL     1       5.996  51.313  -8.160  1.00  0.00     0.034 C 
ENDBRANCH  37  38
ENDBRANCH  36  37
ENDBRANCH  34  36
ENDBRANCH   4  33
BRANCH  13  44
HETATM   44  O5  UNL     1      -1.741  53.702 -11.678  1.00  0.00    -0.389 OA
HETATM   45  H41 UNL     1      -1.936  54.653 -11.735  1.00  0.00     0.210 HD
ENDBRANCH  13  44
BRANCH  10  46
HETATM   46  C23 UNL     1      -3.033  50.867 -12.515  1.00  0.00    -0.045 A 
HETATM   47  C24 UNL     1      -3.261  51.660 -13.563  1.00  0.00     0.087 A 
HETATM   48  C25 UNL     1      -2.928  50.902 -14.765  1.00  0.00     0.283 A 
HETATM   49  O3  UNL     1      -3.020  51.329 -15.902  1.00  0.00    -0.260 OA
HETATM   50  O4  UNL     1      -2.490  49.669 -14.407  1.00  0.00    -0.314 OA
HETATM   51  C26 UNL     1      -2.560  49.541 -12.982  1.00  0.00     0.213 A 
ENDBRANCH  10  46
TORSDOF 11
ENDMDL
MODEL 4
REMARK minimizedAffinity -8.6099987
REMARK CNNscore 0.44524169
REMARK CNNaffinity 7.1668992
REMARK  11 active torsions:
REMARK  status: ('A' for Active; 'I' for Inactive)
REMARK    1  A    between atoms: C3_4  and  O2_5 
REMARK    2  A    between atoms: O2_5  and  C4_6 
REMARK    3  A    between atoms: C7_9  and  C8_10 
REMARK    4  A    between atoms: N1_11  and  C9_13 
REMARK    5  A    between atoms: C9_13  and  C10_14 
REMARK    6  A    between atoms: C10_14  and  C11_15 
REMARK    7  A    between atoms: C22_26  and  C23_27 
REMARK    8  A    between atoms: C29_35  and  O5_36 
REMARK    9  A    between atoms: C33_40  and  O6_41 
REMARK   10  A    between atoms: C36_44  and  O7_45 
REMARK   11  A    between atoms: C37_46  and  O8_47 
ROOT
HETATM    1  C4  UNL     1      -0.407  49.797 -12.003  1.00  0.00     0.127 C 
HETATM    2  C5  UNL     1       0.166  49.583 -10.610  1.00  0.00     0.033 C 
HETATM    3  C6  UNL     1       1.354  50.488 -10.274  1.00  0.00     0.021 C 
HETATM    4  C7  UNL     1       1.472  51.801 -11.115  1.00  0.00     0.026 C 
HETATM    5  C17 UNL     1       2.308  52.852 -10.266  1.00  0.00     0.009 C 
HETATM    6  C18 UNL     1       3.688  53.259 -10.851  1.00  0.00     0.007 C 
HETATM    7  C19 UNL     1       4.470  54.242  -9.953  1.00  0.00     0.013 C 
HETATM    8  C20 UNL     1       3.614  55.460  -9.564  1.00  0.00    -0.005 C 
HETATM    9  C21 UNL     1       3.354  56.290 -10.865  1.00  0.00     0.019 C 
HETATM   10  C22 UNL     1       4.197  56.469  -8.522  1.00  0.00     0.028 C 
HETATM   11  C27 UNL     1       2.936  57.029  -7.796  1.00  0.00     0.013 C 
HETATM   12  C28 UNL     1       1.710  56.265  -8.341  1.00  0.00     0.040 C 
HETATM   13  C29 UNL     1       2.309  54.969  -8.874  1.00  0.00     0.070 C 
HETATM   14  C30 UNL     1       1.469  54.096  -9.829  1.00  0.00     0.026 C 
HETATM   15  C31 UNL     1       0.139  53.624  -9.230  1.00  0.00     0.011 C 
HETATM   16  C32 UNL     1      -0.713  52.805 -10.211  1.00  0.00     0.039 C 
HETATM   17  C33 UNL     1       0.041  52.310 -11.468  1.00  0.00     0.073 C 
HETATM   18  C34 UNL     1      -0.809  51.259 -12.229  1.00  0.00     0.071 C 
ENDROOT
BRANCH   1  19
HETATM   19  O2  UNL     1      -1.534  48.922 -12.138  1.00  0.00    -0.356 OA
BRANCH  19  20
HETATM   20  C3  UNL     1      -2.729  49.407 -11.523  1.00  0.00     0.263 C 
HETATM   21  O1  UNL     1      -2.596  49.389 -10.103  1.00  0.00    -0.354 OA
HETATM   22  C2  UNL     1      -3.811  49.353  -9.348  1.00  0.00     0.151 C 
HETATM   23  C1  UNL     1      -3.953  47.973  -8.706  1.00  0.00     0.042 C 
HETATM   24  C37 UNL     1      -5.040  49.808 -10.149  1.00  0.00     0.175 C 
HETATM   25  C36 UNL     1      -5.204  48.991 -11.440  1.00  0.00     0.154 C 
HETATM   26  C35 UNL     1      -3.870  48.517 -12.002  1.00  0.00     0.095 C 
BRANCH  24  27
HETATM   27  O8  UNL     1      -6.256  49.749  -9.398  1.00  0.00    -0.390 OA
HETATM   28  H55 UNL     1      -6.108  50.214  -8.554  1.00  0.00     0.210 HD
ENDBRANCH  24  27
BRANCH  25  29
HETATM   29  O7  UNL     1      -6.048  47.858 -11.210  1.00  0.00    -0.393 OA
HETATM   30  H53 UNL     1      -6.701  48.163 -10.546  1.00  0.00     0.210 HD
ENDBRANCH  25  29
ENDBRANCH  19  20
ENDBRANCH   1  19
BRANCH  17  31
HETATM   31  O6  UNL     1       0.144  53.452 -12.346  1.00  0.00    -0.389 OA
HETATM   32  H47 UNL     1      -0.759  53.715 -12.600  1.00  0.00     0.210 HD
ENDBRANCH  17  31
BRANCH   4  33
HETATM   33  C8  UNL     1       2.188  51.547 -12.452  1.00  0.00     0.068 C 
HETATM   34  N1  UNL     1       1.868  52.167 -13.536  1.00  0.00    -0.401 N 
ATOM     35  H1  UNL     1       1.125  52.864 -13.569  1.00  0.00     0.158 HD
BRANCH  34  36
HETATM   36  C9  UNL     1       2.656  51.794 -14.718  1.00  0.00     0.123 C 
BRANCH  36  37
HETATM   37  C10 UNL     1       2.111  52.550 -15.934  1.00  0.00     0.053 C 
BRANCH  37  38
HETATM   38  C11 UNL     1       1.125  51.731 -16.738  1.00  0.00    -0.082 C 
HETATM   39  C12 UNL     1       0.743  50.502 -16.345  1.00  0.00    -0.024 C 
HETATM   40  C13 UNL     1      -0.189  49.623 -17.127  1.00  0.00     0.027 C 
HETATM   41  C14 UNL     1      -0.413  50.108 -18.560  1.00  0.00     0.004 C 
HETATM   42  C15 UNL     1      -0.598  51.620 -18.607  1.00  0.00     0.005 C 
HETATM   43  C16 UNL     1       0.616  52.347 -18.022  1.00  0.00     0.034 C 
ENDBRANCH  37  38
ENDBRANCH  36  37
ENDBRANCH  34  36
ENDBRANCH   4  33
BRANCH  13  44
HETATM   44  O5  UNL     1       2.639  54.177  -7.720  1.00  0.00    -0.389 OA
HETATM   45  H41 UNL     1       1.823  54.011  -7.219  1.00  0.00     0.210 HD
ENDBRANCH  13  44
BRANCH  10  46
HETATM   46  C23 UNL     1       5.284  56.018  -7.582  1.00  0.00    -0.045 A 
HETATM   47  C24 UNL     1       5.716  54.761  -7.466  1.00  0.00     0.087 A 
HETATM   48  C25 UNL     1       6.813  54.763  -6.503  1.00  0.00     0.283 A 
HETATM   49  O3  UNL     1       7.439  53.776  -6.163  1.00  0.00    -0.260 OA
HETATM   50  O4  UNL     1       7.027  56.032  -6.075  1.00  0.00    -0.314 OA
HETATM   51  C26 UNL     1       6.065  56.902  -6.684  1.00  0.00     0.213 A 
ENDBRANCH  10  46
TORSDOF 11
ENDMDL
MODEL 5
REMARK minimizedAffinity -8.91186619
REMARK CNNscore 0.397453129
REMARK CNNaffinity 6.68941879
REMARK  11 active torsions:
REMARK  status: ('A' for Active; 'I' for Inactive)
REMARK    1  A    between atoms: C3_4  and  O2_5 
REMARK    2  A    between atoms: O2_5  and  C4_6 
REMARK    3  A    between atoms: C7_9  and  C8_10 
REMARK    4  A    between atoms: N1_11  and  C9_13 
REMARK    5  A    between atoms: C9_13  and  C10_14 
REMARK    6  A    between atoms: C10_14  and  C11_15 
REMARK    7  A    between atoms: C22_26  and  C23_27 
REMARK    8  A    between atoms: C29_35  and  O5_36 
REMARK    9  A    between atoms: C33_40  and  O6_41 
REMARK   10  A    between atoms: C36_44  and  O7_45 
REMARK   11  A    between atoms: C37_46  and  O8_47 
ROOT
HETATM    1  C4  UNL     1      -6.793  46.990 -28.587  1.00  0.00     0.127 C 
HETATM    2  C5  UNL     1      -7.212  45.558 -28.878  1.00  0.00     0.033 C 
HETATM    3  C6  UNL     1      -8.404  45.072 -28.049  1.00  0.00     0.021 C 
HETATM    4  C7  UNL     1      -9.326  46.188 -27.458  1.00  0.00     0.026 C 
HETATM    5  C17 UNL     1     -10.759  45.554 -27.201  1.00  0.00     0.009 C 
HETATM    6  C18 UNL     1     -11.209  45.461 -25.717  1.00  0.00     0.007 C 
HETATM    7  C19 UNL     1     -12.587  44.789 -25.533  1.00  0.00     0.013 C 
HETATM    8  C20 UNL     1     -13.657  45.432 -26.433  1.00  0.00    -0.005 C 
HETATM    9  C21 UNL     1     -13.896  46.890 -25.917  1.00  0.00     0.019 C 
HETATM   10  C22 UNL     1     -15.069  44.764 -26.494  1.00  0.00     0.028 C 
HETATM   11  C27 UNL     1     -15.575  45.087 -27.933  1.00  0.00     0.013 C 
HETATM   12  C28 UNL     1     -14.429  45.808 -28.676  1.00  0.00     0.040 C 
HETATM   13  C29 UNL     1     -13.183  45.372 -27.914  1.00  0.00     0.070 C 
HETATM   14  C30 UNL     1     -11.874  46.162 -28.112  1.00  0.00     0.026 C 
HETATM   15  C31 UNL     1     -11.380  46.192 -29.563  1.00  0.00     0.011 C 
HETATM   16  C32 UNL     1     -10.107  47.030 -29.756  1.00  0.00     0.039 C 
HETATM   17  C33 UNL     1      -9.365  47.393 -28.447  1.00  0.00     0.073 C 
HETATM   18  C34 UNL     1      -7.961  47.968 -28.764  1.00  0.00     0.071 C 
ENDROOT
BRANCH   1  19
HETATM   19  O2  UNL     1      -5.713  47.306 -29.475  1.00  0.00    -0.356 OA
BRANCH  19  20
HETATM   20  C3  UNL     1      -6.123  47.627 -30.805  1.00  0.00     0.263 C 
HETATM   21  O1  UNL     1      -7.227  46.809 -31.192  1.00  0.00    -0.354 OA
HETATM   22  C2  UNL     1      -7.432  46.636 -32.598  1.00  0.00     0.151 C 
HETATM   23  C1  UNL     1      -7.068  45.202 -32.977  1.00  0.00     0.042 C 
HETATM   24  C37 UNL     1      -6.742  47.712 -33.451  1.00  0.00     0.175 C 
HETATM   25  C36 UNL     1      -5.238  47.790 -33.149  1.00  0.00     0.154 C 
HETATM   26  C35 UNL     1      -4.913  47.418 -31.708  1.00  0.00     0.095 C 
BRANCH  24  27
HETATM   27  O8  UNL     1      -6.930  47.523 -34.856  1.00  0.00    -0.390 OA
HETATM   28  H55 UNL     1      -7.885  47.407 -35.017  1.00  0.00     0.210 HD
ENDBRANCH  24  27
BRANCH  25  29
HETATM   29  O7  UNL     1      -4.506  46.934 -34.033  1.00  0.00    -0.393 OA
HETATM   30  H53 UNL     1      -5.002  46.962 -34.877  1.00  0.00     0.210 HD
ENDBRANCH  25  29
ENDBRANCH  19  20
ENDBRANCH   1  19
BRANCH  17  31
HETATM   31  O6  UNL     1     -10.115  48.475 -27.852  1.00  0.00    -0.389 OA
HETATM   32  H47 UNL     1     -10.076  49.235 -28.460  1.00  0.00     0.210 HD
ENDBRANCH  17  31
BRANCH   4  33
HETATM   33  C8  UNL     1      -8.767  46.730 -26.131  1.00  0.00     0.068 C 
HETATM   34  N1  UNL     1      -7.936  46.061 -25.408  1.00  0.00    -0.401 N 
ATOM     35  H1  UNL     1      -7.598  45.136 -25.674  1.00  0.00     0.158 HD
BRANCH  34  36
HETATM   36  C9  UNL     1      -7.512  46.732 -24.171  1.00  0.00     0.123 C 
BRANCH  36  37
HETATM   37  C10 UNL     1      -7.094  48.167 -24.505  1.00  0.00     0.053 C 
BRANCH  37  38
HETATM   38  C11 UNL     1      -5.595  48.323 -24.636  1.00  0.00    -0.082 C 
HETATM   39  C12 UNL     1      -4.791  48.350 -23.556  1.00  0.00    -0.024 C 
HETATM   40  C13 UNL     1      -3.306  48.556 -23.622  1.00  0.00     0.027 C 
HETATM   41  C14 UNL     1      -2.827  49.056 -24.984  1.00  0.00     0.004 C 
HETATM   42  C15 UNL     1      -3.527  48.317 -26.119  1.00  0.00     0.005 C 
HETATM   43  C16 UNL     1      -5.047  48.485 -26.036  1.00  0.00     0.034 C 
ENDBRANCH  37  38
ENDBRANCH  36  37
ENDBRANCH  34  36
ENDBRANCH   4  33
BRANCH  13  44
HETATM   44  O5  UNL     1     -12.942  44.006 -28.291  1.00  0.00    -0.389 OA
HETATM   45  H41 UNL     1     -12.799  43.974 -29.252  1.00  0.00     0.210 HD
ENDBRANCH  13  44
BRANCH  10  46
HETATM   46  C23 UNL     1     -15.218  43.314 -26.114  1.00  0.00    -0.045 A 
HETATM   47  C24 UNL     1     -15.251  42.300 -26.979  1.00  0.00     0.087 A 
HETATM   48  C25 UNL     1     -15.339  41.066 -26.204  1.00  0.00     0.283 A 
HETATM   49  O3  UNL     1     -15.386  39.948 -26.683  1.00  0.00    -0.260 OA
HETATM   50  O4  UNL     1     -15.340  41.370 -24.882  1.00  0.00    -0.314 OA
HETATM   51  C26 UNL     1     -15.305  42.794 -24.727  1.00  0.00     0.213 A 
ENDBRANCH  10  46
TORSDOF 11
ENDMDL
MODEL 6
REMARK minimizedAffinity -7.81510878
REMARK CNNscore 0.340186477
REMARK CNNaffinity 6.46830511
REMARK  11 active torsions:
REMARK  status: ('A' for Active; 'I' for Inactive)
REMARK    1  A    between atoms: C3_4  and  O2_5 
REMARK    2  A    between atoms: O2_5  and  C4_6 
REMARK    3  A    between atoms: C7_9  and  C8_10 
REMARK    4  A    between atoms: N1_11  and  C9_13 
REMARK    5  A    between atoms: C9_13  and  C10_14 
REMARK    6  A    between atoms: C10_14  and  C11_15 
REMARK    7  A    between atoms: C22_26  and  C23_27 
REMARK    8  A    between atoms: C29_35  and  O5_36 
REMARK    9  A    between atoms: C33_40  and  O6_41 
REMARK   10  A    between atoms: C36_44  and  O7_45 
REMARK   11  A    between atoms: C37_46  and  O8_47 
ROOT
HETATM    1  C4  UNL     1      -8.763  45.074 -31.998  1.00  0.00     0.127 C 
HETATM    2  C5  UNL     1     -10.082  44.442 -31.583  1.00  0.00     0.033 C 
HETATM    3  C6  UNL     1     -10.967  44.009 -32.756  1.00  0.00     0.021 C 
HETATM    4  C7  UNL     1     -10.232  43.774 -34.116  1.00  0.00     0.026 C 
HETATM    5  C17 UNL     1     -11.115  42.780 -34.984  1.00  0.00     0.009 C 
HETATM    6  C18 UNL     1     -11.723  43.367 -36.288  1.00  0.00     0.007 C 
HETATM    7  C19 UNL     1     -12.612  42.365 -37.057  1.00  0.00     0.013 C 
HETATM    8  C20 UNL     1     -11.887  41.029 -37.295  1.00  0.00    -0.005 C 
HETATM    9  C21 UNL     1     -10.708  41.301 -38.289  1.00  0.00     0.019 C 
HETATM   10  C22 UNL     1     -12.702  39.847 -37.913  1.00  0.00     0.028 C 
HETATM   11  C27 UNL     1     -12.030  38.574 -37.313  1.00  0.00     0.013 C 
HETATM   12  C28 UNL     1     -10.958  39.047 -36.308  1.00  0.00     0.040 C 
HETATM   13  C29 UNL     1     -11.420  40.449 -35.930  1.00  0.00     0.070 C 
HETATM   14  C30 UNL     1     -10.426  41.399 -35.231  1.00  0.00     0.026 C 
HETATM   15  C31 UNL     1      -9.881  40.861 -33.903  1.00  0.00     0.011 C 
HETATM   16  C32 UNL     1      -8.849  41.790 -33.247  1.00  0.00     0.039 C 
HETATM   17  C33 UNL     1      -8.801  43.222 -33.833  1.00  0.00     0.073 C 
HETATM   18  C34 UNL     1      -7.959  44.151 -32.920  1.00  0.00     0.071 C 
ENDROOT
BRANCH   1  19
HETATM   19  O2  UNL     1      -8.037  45.368 -30.798  1.00  0.00    -0.356 OA
BRANCH  19  20
HETATM   20  C3  UNL     1      -7.402  46.648 -30.795  1.00  0.00     0.263 C 
HETATM   21  O1  UNL     1      -6.728  46.867 -32.034  1.00  0.00    -0.354 OA
HETATM   22  C2  UNL     1      -5.662  47.821 -32.020  1.00  0.00     0.151 C 
HETATM   23  C1  UNL     1      -4.334  47.080 -32.170  1.00  0.00     0.042 C 
HETATM   24  C37 UNL     1      -5.720  48.783 -30.824  1.00  0.00     0.175 C 
HETATM   25  C36 UNL     1      -5.754  48.021 -29.491  1.00  0.00     0.154 C 
HETATM   26  C35 UNL     1      -6.443  46.668 -29.611  1.00  0.00     0.095 C 
BRANCH  24  27
HETATM   27  O8  UNL     1      -4.640  49.721 -30.802  1.00  0.00    -0.390 OA
HETATM   28  H55 UNL     1      -4.594  50.143 -31.680  1.00  0.00     0.210 HD
ENDBRANCH  24  27
BRANCH  25  29
HETATM   29  O7  UNL     1      -4.425  47.830 -28.990  1.00  0.00    -0.393 OA
HETATM   30  H53 UNL     1      -3.936  48.632 -29.269  1.00  0.00     0.210 HD
ENDBRANCH  25  29
ENDBRANCH  19  20
ENDBRANCH   1  19
BRANCH  17  31
HETATM   31  O6  UNL     1      -8.075  43.119 -35.077  1.00  0.00    -0.389 OA
HETATM   32  H47 UNL     1      -7.168  42.829 -34.870  1.00  0.00     0.210 HD
ENDBRANCH  17  31
BRANCH   4  33
HETATM   33  C8  UNL     1     -10.047  45.092 -34.887  1.00  0.00     0.068 C 
HETATM   34  N1  UNL     1      -9.390  45.158 -35.994  1.00  0.00    -0.401 N 
ATOM     35  H1  UNL     1      -8.956  44.341 -36.424  1.00  0.00     0.158 HD
BRANCH  34  36
HETATM   36  C9  UNL     1      -9.312  46.499 -36.588  1.00  0.00     0.123 C 
BRANCH  36  37
HETATM   37  C10 UNL     1     -10.003  46.475 -37.955  1.00  0.00     0.053 C 
BRANCH  37  38
HETATM   38  C11 UNL     1     -11.304  47.247 -37.967  1.00  0.00    -0.082 C 
HETATM   39  C12 UNL     1     -12.296  46.970 -37.100  1.00  0.00    -0.024 C 
HETATM   40  C13 UNL     1     -13.627  47.664 -37.100  1.00  0.00     0.027 C 
HETATM   41  C14 UNL     1     -13.880  48.481 -38.366  1.00  0.00     0.004 C 
HETATM   42  C15 UNL     1     -12.635  49.258 -38.778  1.00  0.00     0.005 C 
HETATM   43  C16 UNL     1     -11.450  48.318 -39.023  1.00  0.00     0.034 C 
ENDBRANCH  37  38
ENDBRANCH  36  37
ENDBRANCH  34  36
ENDBRANCH   4  33
BRANCH  13  44
HETATM   44  O5  UNL     1     -12.555  40.276 -35.064  1.00  0.00    -0.389 OA
HETATM   45  H41 UNL     1     -12.269  39.773 -34.282  1.00  0.00     0.210 HD
ENDBRANCH  13  44
BRANCH  10  46
HETATM   46  C23 UNL     1     -14.204  39.846 -37.802  1.00  0.00    -0.045 A 
HETATM   47  C24 UNL     1     -14.961  40.941 -37.716  1.00  0.00     0.087 A 
HETATM   48  C25 UNL     1     -16.355  40.508 -37.693  1.00  0.00     0.283 A 
HETATM   49  O3  UNL     1     -17.313  41.256 -37.620  1.00  0.00    -0.260 OA
HETATM   50  O4  UNL     1     -16.402  39.156 -37.783  1.00  0.00    -0.314 OA
HETATM   51  C26 UNL     1     -15.066  38.640 -37.818  1.00  0.00     0.213 A 
ENDBRANCH  10  46
TORSDOF 11
ENDMDL
MODEL 7
REMARK minimizedAffinity -7.88788891
REMARK CNNscore 0.334018141
REMARK CNNaffinity 6.60847855
REMARK  11 active torsions:
REMARK  status: ('A' for Active; 'I' for Inactive)
REMARK    1  A    between atoms: C3_4  and  O2_5 
REMARK    2  A    between atoms: O2_5  and  C4_6 
REMARK    3  A    between atoms: C7_9  and  C8_10 
REMARK    4  A    between atoms: N1_11  and  C9_13 
REMARK    5  A    between atoms: C9_13  and  C10_14 
REMARK    6  A    between atoms: C10_14  and  C11_15 
REMARK    7  A    between atoms: C22_26  and  C23_27 
REMARK    8  A    between atoms: C29_35  and  O5_36 
REMARK    9  A    between atoms: C33_40  and  O6_41 
REMARK   10  A    between atoms: C36_44  and  O7_45 
REMARK   11  A    between atoms: C37_46  and  O8_47 
ROOT
HETATM    1  C4  UNL     1      -9.121  47.740 -19.802  1.00  0.00     0.127 C 
HETATM    2  C5  UNL     1      -8.651  49.068 -19.228  1.00  0.00     0.033 C 
HETATM    3  C6  UNL     1      -7.136  49.279 -19.295  1.00  0.00     0.021 C 
HETATM    4  C7  UNL     1      -6.374  48.428 -20.363  1.00  0.00     0.026 C 
HETATM    5  C17 UNL     1      -5.024  49.185 -20.719  1.00  0.00     0.009 C 
HETATM    6  C18 UNL     1      -3.709  48.462 -20.317  1.00  0.00     0.007 C 
HETATM    7  C19 UNL     1      -2.437  49.274 -20.645  1.00  0.00     0.013 C 
HETATM    8  C20 UNL     1      -2.425  49.744 -22.110  1.00  0.00    -0.005 C 
HETATM    9  C21 UNL     1      -2.284  48.473 -23.013  1.00  0.00     0.019 C 
HETATM   10  C22 UNL     1      -1.290  50.718 -22.563  1.00  0.00     0.028 C 
HETATM   11  C27 UNL     1      -1.952  51.566 -23.692  1.00  0.00     0.013 C 
HETATM   12  C28 UNL     1      -3.436  51.150 -23.774  1.00  0.00     0.040 C 
HETATM   13  C29 UNL     1      -3.716  50.563 -22.395  1.00  0.00     0.070 C 
HETATM   14  C30 UNL     1      -4.979  49.700 -22.194  1.00  0.00     0.026 C 
HETATM   15  C31 UNL     1      -6.288  50.432 -22.514  1.00  0.00     0.011 C 
HETATM   16  C32 UNL     1      -7.533  49.545 -22.365  1.00  0.00     0.039 C 
HETATM   17  C33 UNL     1      -7.297  48.219 -21.602  1.00  0.00     0.073 C 
HETATM   18  C34 UNL     1      -8.651  47.551 -21.248  1.00  0.00     0.071 C 
ENDROOT
BRANCH   1  19
HETATM   19  O2  UNL     1     -10.551  47.722 -19.714  1.00  0.00    -0.356 OA
BRANCH  19  20
HETATM   20  C3  UNL     1     -11.074  46.700 -18.864  1.00  0.00     0.263 C 
HETATM   21  O1  UNL     1     -11.931  45.832 -19.606  1.00  0.00    -0.354 OA
HETATM   22  C2  UNL     1     -12.901  45.097 -18.853  1.00  0.00     0.151 C 
HETATM   23  C1  UNL     1     -14.288  45.662 -19.150  1.00  0.00     0.042 C 
HETATM   24  C37 UNL     1     -12.563  44.996 -17.358  1.00  0.00     0.175 C 
HETATM   25  C36 UNL     1     -12.362  46.385 -16.732  1.00  0.00     0.154 C 
HETATM   26  C35 UNL     1     -11.812  47.398 -17.728  1.00  0.00     0.095 C 
BRANCH  24  27
HETATM   27  O8  UNL     1     -13.546  44.280 -16.605  1.00  0.00    -0.390 OA
HETATM   28  H55 UNL     1     -13.709  43.432 -17.058  1.00  0.00     0.210 HD
ENDBRANCH  24  27
BRANCH  25  29
HETATM   29  O7  UNL     1     -13.596  46.875 -16.195  1.00  0.00    -0.393 OA
HETATM   30  H53 UNL     1     -14.062  46.077 -15.870  1.00  0.00     0.210 HD
ENDBRANCH  25  29
ENDBRANCH  19  20
ENDBRANCH   1  19
BRANCH  17  31
HETATM   31  O6  UNL     1      -6.646  47.332 -22.538  1.00  0.00    -0.389 OA
HETATM   32  H47 UNL     1      -7.263  47.170 -23.274  1.00  0.00     0.210 HD
ENDBRANCH  17  31
BRANCH   4  33
HETATM   33  C8  UNL     1      -6.041  47.026 -19.824  1.00  0.00     0.068 C 
HETATM   34  N1  UNL     1      -5.533  46.104 -20.568  1.00  0.00    -0.401 N 
ATOM     35  H1  UNL     1      -5.320  46.250 -21.554  1.00  0.00     0.158 HD
BRANCH  34  36
HETATM   36  C9  UNL     1      -5.285  44.826 -19.887  1.00  0.00     0.123 C 
BRANCH  36  37
HETATM   37  C10 UNL     1      -4.952  45.105 -18.418  1.00  0.00     0.053 C 
BRANCH  37  38
HETATM   38  C11 UNL     1      -3.893  44.174 -17.870  1.00  0.00    -0.082 C 
HETATM   39  C12 UNL     1      -3.227  44.453 -16.734  1.00  0.00    -0.024 C 
HETATM   40  C13 UNL     1      -2.131  43.595 -16.173  1.00  0.00     0.027 C 
HETATM   41  C14 UNL     1      -1.614  42.554 -17.165  1.00  0.00     0.004 C 
HETATM   42  C15 UNL     1      -2.762  41.896 -17.921  1.00  0.00     0.005 C 
HETATM   43  C16 UNL     1      -3.594  42.933 -18.680  1.00  0.00     0.034 C 
ENDBRANCH  37  38
ENDBRANCH  36  37
ENDBRANCH  34  36
ENDBRANCH   4  33
BRANCH  13  44
HETATM   44  O5  UNL     1      -3.791  51.680 -21.493  1.00  0.00    -0.389 OA
HETATM   45  H41 UNL     1      -4.513  52.262 -21.784  1.00  0.00     0.210 HD
ENDBRANCH  13  44
BRANCH  10  46
HETATM   46  C23 UNL     1      -0.568  51.545 -21.532  1.00  0.00    -0.045 A 
HETATM   47  C24 UNL     1       0.122  52.656 -21.794  1.00  0.00     0.087 A 
HETATM   48  C25 UNL     1       0.603  53.183 -20.521  1.00  0.00     0.283 A 
HETATM   49  O3  UNL     1       1.270  54.194 -20.396  1.00  0.00    -0.260 OA
HETATM   50  O4  UNL     1       0.174  52.379 -19.516  1.00  0.00    -0.314 OA
HETATM   51  C26 UNL     1      -0.554  51.278 -20.073  1.00  0.00     0.213 A 
ENDBRANCH  10  46
TORSDOF 11
ENDMDL
MODEL 8
REMARK minimizedAffinity -7.69117546
REMARK CNNscore 0.281888992
REMARK CNNaffinity 6.269526
REMARK  11 active torsions:
REMARK  status: ('A' for Active; 'I' for Inactive)
REMARK    1  A    between atoms: C3_4  and  O2_5 
REMARK    2  A    between atoms: O2_5  and  C4_6 
REMARK    3  A    between atoms: C7_9  and  C8_10 
REMARK    4  A    between atoms: N1_11  and  C9_13 
REMARK    5  A    between atoms: C9_13  and  C10_14 
REMARK    6  A    between atoms: C10_14  and  C11_15 
REMARK    7  A    between atoms: C22_26  and  C23_27 
REMARK    8  A    between atoms: C29_35  and  O5_36 
REMARK    9  A    between atoms: C33_40  and  O6_41 
REMARK   10  A    between atoms: C36_44  and  O7_45 
REMARK   11  A    between atoms: C37_46  and  O8_47 
ROOT
HETATM    1  C4  UNL     1     -11.714  45.798 -35.880  1.00  0.00     0.127 C 
HETATM    2  C5  UNL     1     -11.145  44.848 -36.922  1.00  0.00     0.033 C 
HETATM    3  C6  UNL     1      -9.922  44.058 -36.450  1.00  0.00     0.021 C 
HETATM    4  C7  UNL     1      -9.757  43.915 -34.902  1.00  0.00     0.026 C 
HETATM    5  C17 UNL     1      -8.878  42.622 -34.621  1.00  0.00     0.009 C 
HETATM    6  C18 UNL     1      -7.484  42.869 -33.979  1.00  0.00     0.007 C 
HETATM    7  C19 UNL     1      -6.662  41.577 -33.781  1.00  0.00     0.013 C 
HETATM    8  C20 UNL     1      -7.469  40.499 -33.037  1.00  0.00    -0.005 C 
HETATM    9  C21 UNL     1      -7.701  41.006 -31.574  1.00  0.00     0.019 C 
HETATM   10  C22 UNL     1      -6.844  39.073 -32.900  1.00  0.00     0.028 C 
HETATM   11  C27 UNL     1      -8.080  38.123 -32.870  1.00  0.00     0.013 C 
HETATM   12  C28 UNL     1      -9.337  38.990 -33.101  1.00  0.00     0.040 C 
HETATM   13  C29 UNL     1      -8.790  40.223 -33.811  1.00  0.00     0.070 C 
HETATM   14  C30 UNL     1      -9.666  41.490 -33.886  1.00  0.00     0.026 C 
HETATM   15  C31 UNL     1     -11.012  41.273 -34.589  1.00  0.00     0.011 C 
HETATM   16  C32 UNL     1     -11.898  42.528 -34.605  1.00  0.00     0.039 C 
HETATM   17  C33 UNL     1     -11.168  43.843 -34.243  1.00  0.00     0.073 C 
HETATM   18  C34 UNL     1     -12.060  45.066 -34.578  1.00  0.00     0.071 C 
ENDROOT
BRANCH   1  19
HETATM   19  O2  UNL     1     -12.875  46.413 -36.453  1.00  0.00    -0.356 OA
BRANCH  19  20
HETATM   20  C3  UNL     1     -12.644  47.031 -37.720  1.00  0.00     0.263 C 
HETATM   21  O1  UNL     1     -11.281  47.437 -37.831  1.00  0.00    -0.354 OA
HETATM   22  C2  UNL     1     -10.999  48.480 -38.768  1.00  0.00     0.151 C 
HETATM   23  C1  UNL     1     -10.642  49.752 -38.000  1.00  0.00     0.042 C 
HETATM   24  C37 UNL     1     -12.100  48.666 -39.823  1.00  0.00     0.175 C 
HETATM   25  C36 UNL     1     -13.469  48.908 -39.169  1.00  0.00     0.154 C 
HETATM   26  C35 UNL     1     -13.602  48.213 -37.821  1.00  0.00     0.095 C 
BRANCH  24  27
HETATM   27  O8  UNL     1     -11.826  49.725 -40.745  1.00  0.00    -0.390 OA
HETATM   28  H55 UNL     1     -10.926  49.589 -41.095  1.00  0.00     0.210 HD
ENDBRANCH  24  27
BRANCH  25  29
HETATM   29  O7  UNL     1     -13.702  50.311 -39.001  1.00  0.00    -0.393 OA
HETATM   30  H53 UNL     1     -13.265  50.731 -39.771  1.00  0.00     0.210 HD
ENDBRANCH  25  29
ENDBRANCH  19  20
ENDBRANCH   1  19
BRANCH  17  31
HETATM   31  O6  UNL     1     -11.024  43.835 -32.806  1.00  0.00    -0.389 OA
HETATM   32  H47 UNL     1     -11.917  43.849 -32.416  1.00  0.00     0.210 HD
ENDBRANCH  17  31
BRANCH   4  33
HETATM   33  C8  UNL     1      -9.055  45.144 -34.299  1.00  0.00     0.068 C 
HETATM   34  N1  UNL     1      -8.410  45.994 -35.023  1.00  0.00    -0.401 N 
ATOM     35  H1  UNL     1      -8.330  45.904 -36.035  1.00  0.00     0.158 HD
BRANCH  34  36
HETATM   36  C9  UNL     1      -7.799  47.103 -34.277  1.00  0.00     0.123 C 
BRANCH  36  37
HETATM   37  C10 UNL     1      -7.236  46.562 -32.959  1.00  0.00     0.053 C 
BRANCH  37  38
HETATM   38  C11 UNL     1      -7.799  47.271 -31.748  1.00  0.00    -0.082 C 
HETATM   39  C12 UNL     1      -9.109  47.567 -31.649  1.00  0.00    -0.024 C 
HETATM   40  C13 UNL     1      -9.714  48.315 -30.497  1.00  0.00     0.027 C 
HETATM   41  C14 UNL     1      -8.674  48.994 -29.607  1.00  0.00     0.004 C 
HETATM   42  C15 UNL     1      -7.482  48.078 -29.356  1.00  0.00     0.005 C 
HETATM   43  C16 UNL     1      -6.814  47.663 -30.670  1.00  0.00     0.034 C 
ENDBRANCH  37  38
ENDBRANCH  36  37
ENDBRANCH  34  36
ENDBRANCH   4  33
BRANCH  13  44
HETATM   44  O5  UNL     1      -8.487  39.810 -35.154  1.00  0.00    -0.389 OA
HETATM   45  H41 UNL     1      -9.308  39.495 -35.570  1.00  0.00     0.210 HD
ENDBRANCH  13  44
BRANCH  10  46
HETATM   46  C23 UNL     1      -5.773  38.638 -33.865  1.00  0.00    -0.045 A 
HETATM   47  C24 UNL     1      -4.475  38.923 -33.740  1.00  0.00     0.087 A 
HETATM   48  C25 UNL     1      -3.775  38.264 -34.839  1.00  0.00     0.283 A 
HETATM   49  O3  UNL     1      -2.574  38.316 -35.025  1.00  0.00    -0.260 OA
HETATM   50  O4  UNL     1      -4.673  37.581 -35.592  1.00  0.00    -0.314 OA
HETATM   51  C26 UNL     1      -5.988  37.795 -35.066  1.00  0.00     0.213 A 
ENDBRANCH  10  46
TORSDOF 11
ENDMDL
MODEL 9
REMARK minimizedAffinity -9.29399967
REMARK CNNscore 0.267957181
REMARK CNNaffinity 6.25672293
REMARK  11 active torsions:
REMARK  status: ('A' for Active; 'I' for Inactive)
REMARK    1  A    between atoms: C3_4  and  O2_5 
REMARK    2  A    between atoms: O2_5  and  C4_6 
REMARK    3  A    between atoms: C7_9  and  C8_10 
REMARK    4  A    between atoms: N1_11  and  C9_13 
REMARK    5  A    between atoms: C9_13  and  C10_14 
REMARK    6  A    between atoms: C10_14  and  C11_15 
REMARK    7  A    between atoms: C22_26  and  C23_27 
REMARK    8  A    between atoms: C29_35  and  O5_36 
REMARK    9  A    between atoms: C33_40  and  O6_41 
REMARK   10  A    between atoms: C36_44  and  O7_45 
REMARK   11  A    between atoms: C37_46  and  O8_47 
ROOT
HETATM    1  C4  UNL     1     -11.398  47.619 -26.778  1.00  0.00     0.127 C 
HETATM    2  C5  UNL     1     -12.379  48.017 -27.871  1.00  0.00     0.033 C 
HETATM    3  C6  UNL     1     -11.779  48.029 -29.279  1.00  0.00     0.021 C 
HETATM    4  C7  UNL     1     -10.494  47.161 -29.481  1.00  0.00     0.026 C 
HETATM    5  C17 UNL     1     -10.389  46.794 -31.023  1.00  0.00     0.009 C 
HETATM    6  C18 UNL     1      -9.179  47.395 -31.789  1.00  0.00     0.007 C 
HETATM    7  C19 UNL     1      -9.166  47.042 -33.292  1.00  0.00     0.013 C 
HETATM    8  C20 UNL     1      -9.311  45.527 -33.520  1.00  0.00    -0.005 C 
HETATM    9  C21 UNL     1      -8.015  44.839 -32.976  1.00  0.00     0.019 C 
HETATM   10  C22 UNL     1      -9.484  45.015 -34.987  1.00  0.00     0.028 C 
HETATM   11  C27 UNL     1     -10.348  43.726 -34.835  1.00  0.00     0.013 C 
HETATM   12  C28 UNL     1     -10.735  43.600 -33.346  1.00  0.00     0.040 C 
HETATM   13  C29 UNL     1     -10.611  45.028 -32.826  1.00  0.00     0.070 C 
HETATM   14  C30 UNL     1     -10.556  45.265 -31.303  1.00  0.00     0.026 C 
HETATM   15  C31 UNL     1     -11.784  44.743 -30.549  1.00  0.00     0.011 C 
HETATM   16  C32 UNL     1     -11.690  44.934 -29.027  1.00  0.00     0.039 C 
HETATM   17  C33 UNL     1     -10.578  45.904 -28.563  1.00  0.00     0.073 C 
HETATM   18  C34 UNL     1     -10.759  46.256 -27.064  1.00  0.00     0.071 C 
ENDROOT
BRANCH   1  19
HETATM   19  O2  UNL     1     -12.123  47.604 -25.542  1.00  0.00    -0.356 OA
BRANCH  19  20
HETATM   20  C3  UNL     1     -13.226  46.696 -25.521  1.00  0.00     0.263 C 
HETATM   21  O1  UNL     1     -14.446  47.407 -25.309  1.00  0.00    -0.354 OA
HETATM   22  C2  UNL     1     -15.537  46.655 -24.770  1.00  0.00     0.151 C 
HETATM   23  C1  UNL     1     -15.780  47.100 -23.329  1.00  0.00     0.042 C 
HETATM   24  C37 UNL     1     -15.378  45.137 -24.946  1.00  0.00     0.175 C 
HETATM   25  C36 UNL     1     -14.054  44.638 -24.346  1.00  0.00     0.154 C 
HETATM   26  C35 UNL     1     -12.953  45.687 -24.412  1.00  0.00     0.095 C 
BRANCH  24  27
HETATM   27  O8  UNL     1     -16.460  44.387 -24.386  1.00  0.00    -0.390 OA
HETATM   28  H55 UNL     1     -17.292  44.765 -24.727  1.00  0.00     0.210 HD
ENDBRANCH  24  27
BRANCH  25  29
HETATM   29  O7  UNL     1     -14.243  44.237 -22.984  1.00  0.00    -0.393 OA
HETATM   30  H53 UNL     1     -15.150  43.869 -22.955  1.00  0.00     0.210 HD
ENDBRANCH  25  29
ENDBRANCH  19  20
ENDBRANCH   1  19
BRANCH  17  31
HETATM   31  O6  UNL     1      -9.341  45.164 -28.653  1.00  0.00    -0.389 OA
HETATM   32  H47 UNL     1      -9.393  44.418 -28.029  1.00  0.00     0.210 HD
ENDBRANCH  17  31
BRANCH   4  33
HETATM   33  C8  UNL     1      -9.229  47.929 -29.058  1.00  0.00     0.068 C 
HETATM   34  N1  UNL     1      -8.042  47.477 -29.277  1.00  0.00    -0.401 N 
ATOM     35  H1  UNL     1      -7.871  46.588 -29.746  1.00  0.00     0.158 HD
BRANCH  34  36
HETATM   36  C9  UNL     1      -6.954  48.341 -28.800  1.00  0.00     0.123 C 
BRANCH  36  37
HETATM   37  C10 UNL     1      -5.733  47.471 -28.483  1.00  0.00     0.053 C 
BRANCH  37  38
HETATM   38  C11 UNL     1      -4.907  48.016 -27.340  1.00  0.00    -0.082 C 
HETATM   39  C12 UNL     1      -3.625  48.391 -27.512  1.00  0.00    -0.024 C 
HETATM   40  C13 UNL     1      -2.741  48.887 -26.405  1.00  0.00     0.027 C 
HETATM   41  C14 UNL     1      -3.316  48.626 -25.013  1.00  0.00     0.004 C 
HETATM   42  C15 UNL     1      -4.809  48.929 -24.967  1.00  0.00     0.005 C 
HETATM   43  C16 UNL     1      -5.579  48.085 -25.987  1.00  0.00     0.034 C 
ENDBRANCH  37  38
ENDBRANCH  36  37
ENDBRANCH  34  36
ENDBRANCH   4  33
BRANCH  13  44
HETATM   44  O5  UNL     1     -11.744  45.743 -33.348  1.00  0.00    -0.389 OA
HETATM   45  H41 UNL     1     -12.554  45.314 -33.020  1.00  0.00     0.210 HD
ENDBRANCH  13  44
BRANCH  10  46
HETATM   46  C23 UNL     1      -9.990  45.959 -36.046  1.00  0.00    -0.045 A 
HETATM   47  C24 UNL     1      -9.259  46.911 -36.628  1.00  0.00     0.087 A 
HETATM   48  C25 UNL     1     -10.098  47.551 -37.636  1.00  0.00     0.283 A 
HETATM   49  O3  UNL     1      -9.742  48.465 -38.357  1.00  0.00    -0.260 OA
HETATM   50  O4  UNL     1     -11.316  46.953 -37.647  1.00  0.00    -0.314 OA
HETATM   51  C26 UNL     1     -11.353  45.944 -36.631  1.00  0.00     0.213 A 
ENDBRANCH  10  46
TORSDOF 11
ENDMDL
