MODEL 1
REMARK minimizedAffinity -7.90146589
REMARK  7 active torsions:
REMARK  status: ('A' for Active; 'I' for Inactive)
REMARK    1  A    between atoms: N1_2  and  C2_3 
REMARK    2  A    between atoms: C2_3  and  C3_4 
REMARK    3  A    between atoms: C5_6  and  O1_7 
REMARK    4  A    between atoms: C23_26  and  N2_27 
REMARK    5  A    between atoms: C23_26  and  C24_28 
REMARK    6  A    between atoms: C24_28  and  C25_29 
REMARK    7  A    between atoms: C25_29  and  O3_30 
ROOT
HETATM    1  C3  UNL     1      -6.698   4.032  12.329  1.00  0.00    -0.021 A 
HETATM    2  C4  UNL     1      -6.672   3.615  10.977  1.00  0.00     0.045 A 
HETATM    3  C5  UNL     1      -5.485   3.268  10.357  1.00  0.00     0.066 A 
HETATM    4  C6  UNL     1      -4.299   3.304  11.060  1.00  0.00     0.045 A 
HETATM    5  C7  UNL     1      -4.261   3.698  12.416  1.00  0.00    -0.037 A 
HETATM    6  C8  UNL     1      -5.478   4.102  13.073  1.00  0.00    -0.042 A 
HETATM    7  C9  UNL     1      -5.499   4.553  14.544  1.00  0.00     0.044 C 
HETATM    8  C10 UNL     1      -5.257   6.055  14.920  1.00  0.00    -0.010 C 
HETATM    9  C11 UNL     1      -6.320   7.071  14.483  1.00  0.00     0.005 C 
HETATM   10  C12 UNL     1      -5.962   7.790  13.184  1.00  0.00     0.001 C 
HETATM   11  C13 UNL     1      -4.625   8.551  13.254  1.00  0.00     0.007 C 
HETATM   12  C14 UNL     1      -3.603   7.957  14.249  1.00  0.00     0.022 C 
HETATM   13  C15 UNL     1      -3.887   6.474  14.427  1.00  0.00     0.012 C 
HETATM   14  C16 UNL     1      -2.086   8.226  13.879  1.00  0.00     0.082 C 
HETATM   15  C17 UNL     1      -1.889   9.762  13.703  1.00  0.00     0.040 C 
HETATM   16  C18 UNL     1      -0.410  10.116  13.551  1.00  0.00     0.013 C 
HETATM   17  C19 UNL     1       0.416   8.816  13.603  1.00  0.00     0.059 C 
HETATM   18  C20 UNL     1       0.086   8.126  14.976  1.00  0.00     0.061 C 
HETATM   19  C21 UNL     1       0.399   9.048  16.177  1.00  0.00     0.046 C 
HETATM   20  C22 UNL     1       0.838   6.813  15.246  1.00  0.00     0.046 C 
HETATM   21  O2  UNL     1      -1.324   7.830  15.049  1.00  0.00    -0.368 OA
HETATM   22  C23 UNL     1       0.017   7.910  12.373  1.00  0.00     0.180 C 
HETATM   23  C26 UNL     1      -1.492   7.484  12.595  1.00  0.00     0.139 C 
HETATM   24  C27 UNL     1      -1.671   6.002  12.607  1.00  0.00    -0.096 C 
HETATM   25  C28 UNL     1      -2.062   4.868  12.713  1.00  0.00    -0.101 C 
HETATM   26  C29 UNL     1      -2.860   3.661  13.038  1.00  0.00     0.133 C 
ENDROOT
BRANCH  22  27
HETATM   27  N2  UNL     1       1.033   6.833  12.295  1.00  0.00     0.090 N 
HETATM   28  H33 UNL     1       1.213   6.606  11.307  1.00  0.00     0.313 HD
HETATM   29  H34 UNL     1       0.664   5.963  12.673  1.00  0.00     0.313 HD
ENDBRANCH  22  27
BRANCH  22  30
HETATM   30  C24 UNL     1       0.131   8.686  11.006  1.00  0.00     0.069 C 
BRANCH  30  31
HETATM   31  C25 UNL     1       0.822   7.941   9.854  1.00  0.00     0.166 C 
BRANCH  31  32
HETATM   32  O3  UNL     1       0.863   8.739   8.679  1.00  0.00    -0.401 OA
HETATM   33  H39 UNL     1       1.295   8.205   7.988  1.00  0.00     0.209 HD
ENDBRANCH  31  32
ENDBRANCH  30  31
ENDBRANCH  22  30
BRANCH   3  34
HETATM   34  O1  UNL     1      -5.447   2.872   9.054  1.00  0.00    -0.361 OA
HETATM   35  H8  UNL     1      -6.341   2.935   8.682  1.00  0.00     0.217 HD
ENDBRANCH   3  34
BRANCH   1  36
HETATM   36  C2  UNL     1      -8.081   4.340  12.883  1.00  0.00     0.308 C 
BRANCH  36  37
HETATM   37  N1  UNL     1      -8.684   5.500  12.223  1.00  0.00     0.083 N 
HETATM   38  C1  UNL     1      -9.501   6.269  13.151  1.00  0.00     0.307 C 
HETATM   39  H4  UNL     1      -9.255   5.191  11.440  1.00  0.00     0.315 HD
ENDBRANCH  36  37
ENDBRANCH   1  36
TORSDOF 7
ENDMDL
MODEL 2
REMARK minimizedAffinity -7.87805843
REMARK  7 active torsions:
REMARK  status: ('A' for Active; 'I' for Inactive)
REMARK    1  A    between atoms: N1_2  and  C2_3 
REMARK    2  A    between atoms: C2_3  and  C3_4 
REMARK    3  A    between atoms: C5_6  and  O1_7 
REMARK    4  A    between atoms: C23_26  and  N2_27 
REMARK    5  A    between atoms: C23_26  and  C24_28 
REMARK    6  A    between atoms: C24_28  and  C25_29 
REMARK    7  A    between atoms: C25_29  and  O3_30 
ROOT
HETATM    1  C3  UNL     1      -2.196   4.650  12.581  1.00  0.00    -0.021 A 
HETATM    2  C4  UNL     1      -1.382   4.820  11.435  1.00  0.00     0.045 A 
HETATM    3  C5  UNL     1      -0.260   5.628  11.468  1.00  0.00     0.066 A 
HETATM    4  C6  UNL     1       0.099   6.272  12.634  1.00  0.00     0.045 A 
HETATM    5  C7  UNL     1      -0.666   6.131  13.814  1.00  0.00    -0.037 A 
HETATM    6  C8  UNL     1      -1.861   5.326  13.796  1.00  0.00    -0.042 A 
HETATM    7  C9  UNL     1      -2.741   5.145  15.044  1.00  0.00     0.044 C 
HETATM    8  C10 UNL     1      -3.896   6.157  15.359  1.00  0.00    -0.010 C 
HETATM    9  C11 UNL     1      -5.087   6.189  14.393  1.00  0.00     0.005 C 
HETATM   10  C12 UNL     1      -4.984   7.301  13.351  1.00  0.00     0.001 C 
HETATM   11  C13 UNL     1      -4.875   8.708  13.967  1.00  0.00     0.007 C 
HETATM   12  C14 UNL     1      -4.227   8.745  15.369  1.00  0.00     0.022 C 
HETATM   13  C15 UNL     1      -3.307   7.544  15.522  1.00  0.00     0.012 C 
HETATM   14  C16 UNL     1      -3.489  10.102  15.722  1.00  0.00     0.082 C 
HETATM   15  C17 UNL     1      -4.497  11.274  15.526  1.00  0.00     0.040 C 
HETATM   16  C18 UNL     1      -3.922  12.591  16.045  1.00  0.00     0.013 C 
HETATM   17  C19 UNL     1      -2.503  12.330  16.587  1.00  0.00     0.059 C 
HETATM   18  C20 UNL     1      -2.640  11.234  17.705  1.00  0.00     0.061 C 
HETATM   19  C21 UNL     1      -3.606  11.672  18.829  1.00  0.00     0.046 C 
HETATM   20  C22 UNL     1      -1.328  10.844  18.403  1.00  0.00     0.046 C 
HETATM   21  O2  UNL     1      -3.194  10.027  17.141  1.00  0.00    -0.368 OA
HETATM   22  C23 UNL     1      -1.585  11.850  15.394  1.00  0.00     0.180 C 
HETATM   23  C26 UNL     1      -2.146  10.444  14.928  1.00  0.00     0.139 C 
HETATM   24  C27 UNL     1      -1.111   9.370  14.983  1.00  0.00    -0.096 C 
HETATM   25  C28 UNL     1      -0.490   8.338  14.994  1.00  0.00    -0.101 C 
HETATM   26  C29 UNL     1      -0.108   6.905  15.015  1.00  0.00     0.133 C 
ENDROOT
BRANCH  22  27
HETATM   27  N2  UNL     1      -0.188  11.905  15.889  1.00  0.00     0.090 N 
HETATM   28  H33 UNL     1       0.434  12.193  15.120  1.00  0.00     0.313 HD
HETATM   29  H34 UNL     1       0.146  10.973  16.126  1.00  0.00     0.313 HD
ENDBRANCH  22  27
BRANCH  22  30
HETATM   30  C24 UNL     1      -1.632  12.847  14.175  1.00  0.00     0.069 C 
BRANCH  30  31
HETATM   31  C25 UNL     1      -2.152  14.262  14.470  1.00  0.00     0.166 C 
BRANCH  31  32
HETATM   32  O3  UNL     1      -2.766  14.832  13.322  1.00  0.00    -0.401 OA
HETATM   33  H39 UNL     1      -3.057  15.728  13.571  1.00  0.00     0.209 HD
ENDBRANCH  31  32
ENDBRANCH  30  31
ENDBRANCH  22  30
BRANCH   3  34
HETATM   34  O1  UNL     1       0.528   5.805  10.370  1.00  0.00    -0.361 OA
HETATM   35  H8  UNL     1       0.133   5.328   9.623  1.00  0.00     0.217 HD
ENDBRANCH   3  34
BRANCH   1  36
HETATM   36  C2  UNL     1      -3.370   3.699  12.402  1.00  0.00     0.308 C 
BRANCH  36  37
HETATM   37  N1  UNL     1      -3.733   3.544  10.991  1.00  0.00     0.083 N 
HETATM   38  C1  UNL     1      -5.132   3.167  10.846  1.00  0.00     0.307 C 
HETATM   39  H4  UNL     1      -3.141   2.837  10.560  1.00  0.00     0.315 HD
ENDBRANCH  36  37
ENDBRANCH   1  36
TORSDOF 7
ENDMDL
MODEL 3
REMARK minimizedAffinity -7.69907904
REMARK  7 active torsions:
REMARK  status: ('A' for Active; 'I' for Inactive)
REMARK    1  A    between atoms: N1_2  and  C2_3 
REMARK    2  A    between atoms: C2_3  and  C3_4 
REMARK    3  A    between atoms: C5_6  and  O1_7 
REMARK    4  A    between atoms: C23_26  and  N2_27 
REMARK    5  A    between atoms: C23_26  and  C24_28 
REMARK    6  A    between atoms: C24_28  and  C25_29 
REMARK    7  A    between atoms: C25_29  and  O3_30 
ROOT
HETATM    1  C3  UNL     1      -2.440   7.596  15.370  1.00  0.00    -0.021 A 
HETATM    2  C4  UNL     1      -1.814   8.107  16.532  1.00  0.00     0.045 A 
HETATM    3  C5  UNL     1      -0.787   9.029  16.445  1.00  0.00     0.066 A 
HETATM    4  C6  UNL     1      -0.365   9.484  15.213  1.00  0.00     0.045 A 
HETATM    5  C7  UNL     1      -0.960   9.023  14.017  1.00  0.00    -0.037 A 
HETATM    6  C8  UNL     1      -2.006   8.033  14.079  1.00  0.00    -0.042 A 
HETATM    7  C9  UNL     1      -2.682   7.482  12.813  1.00  0.00     0.044 C 
HETATM    8  C10 UNL     1      -2.086   6.240  12.066  1.00  0.00    -0.010 C 
HETATM    9  C11 UNL     1      -2.122   4.893  12.799  1.00  0.00     0.005 C 
HETATM   10  C12 UNL     1      -0.807   4.558  13.501  1.00  0.00     0.001 C 
HETATM   11  C13 UNL     1       0.400   4.509  12.546  1.00  0.00     0.007 C 
HETATM   12  C14 UNL     1       0.266   5.412  11.299  1.00  0.00     0.022 C 
HETATM   13  C15 UNL     1      -0.675   6.563  11.618  1.00  0.00     0.012 C 
HETATM   14  C16 UNL     1       1.641   5.923  10.700  1.00  0.00     0.082 C 
HETATM   15  C17 UNL     1       2.544   4.684  10.418  1.00  0.00     0.040 C 
HETATM   16  C18 UNL     1       3.802   5.081   9.648  1.00  0.00     0.013 C 
HETATM   17  C19 UNL     1       3.778   6.604   9.414  1.00  0.00     0.059 C 
HETATM   18  C20 UNL     1       2.452   6.920   8.632  1.00  0.00     0.061 C 
HETATM   19  C21 UNL     1       2.365   6.139   7.301  1.00  0.00     0.046 C 
HETATM   20  C22 UNL     1       2.243   8.398   8.268  1.00  0.00     0.046 C 
HETATM   21  O2  UNL     1       1.312   6.512   9.416  1.00  0.00    -0.368 OA
HETATM   22  C23 UNL     1       3.829   7.333  10.814  1.00  0.00     0.180 C 
HETATM   23  C26 UNL     1       2.477   6.979  11.559  1.00  0.00     0.139 C 
HETATM   24  C27 UNL     1       1.707   8.194  11.953  1.00  0.00    -0.096 C 
HETATM   25  C28 UNL     1       0.885   8.997  12.318  1.00  0.00    -0.101 C 
HETATM   26  C29 UNL     1      -0.375   9.651  12.747  1.00  0.00     0.133 C 
ENDROOT
BRANCH  22  27
HETATM   27  N2  UNL     1       4.107   8.763  10.534  1.00  0.00     0.090 N 
HETATM   28  H33 UNL     1       4.709   9.144  11.278  1.00  0.00     0.313 HD
HETATM   29  H34 UNL     1       3.257   9.317  10.614  1.00  0.00     0.313 HD
ENDBRANCH  22  27
BRANCH  22  30
HETATM   30  C24 UNL     1       5.040   6.840  11.693  1.00  0.00     0.069 C 
BRANCH  30  31
HETATM   31  C25 UNL     1       6.417   6.826  11.012  1.00  0.00     0.166 C 
BRANCH  31  32
HETATM   32  O3  UNL     1       6.916   8.145  10.836  1.00  0.00    -0.401 OA
HETATM   33  H39 UNL     1       7.777   8.065  10.387  1.00  0.00     0.209 HD
ENDBRANCH  31  32
ENDBRANCH  30  31
ENDBRANCH  22  30
BRANCH   3  34
HETATM   34  O1  UNL     1      -0.171   9.523  17.556  1.00  0.00    -0.361 OA
HETATM   35  H8  UNL     1      -0.542   9.085  18.338  1.00  0.00     0.217 HD
ENDBRANCH   3  34
BRANCH   1  36
HETATM   36  C2  UNL     1      -3.581   6.623  15.627  1.00  0.00     0.308 C 
BRANCH  36  37
HETATM   37  N1  UNL     1      -4.864   7.316  15.771  1.00  0.00     0.083 N 
HETATM   38  C1  UNL     1      -5.882   6.722  14.916  1.00  0.00     0.307 C 
HETATM   39  H4  UNL     1      -4.751   8.299  15.537  1.00  0.00     0.315 HD
ENDBRANCH  36  37
ENDBRANCH   1  36
TORSDOF 7
ENDMDL
MODEL 4
REMARK minimizedAffinity -7.60591698
REMARK  7 active torsions:
REMARK  status: ('A' for Active; 'I' for Inactive)
REMARK    1  A    between atoms: N1_2  and  C2_3 
REMARK    2  A    between atoms: C2_3  and  C3_4 
REMARK    3  A    between atoms: C5_6  and  O1_7 
REMARK    4  A    between atoms: C23_26  and  N2_27 
REMARK    5  A    between atoms: C23_26  and  C24_28 
REMARK    6  A    between atoms: C24_28  and  C25_29 
REMARK    7  A    between atoms: C25_29  and  O3_30 
ROOT
HETATM    1  C3  UNL     1      -2.474   7.590  13.746  1.00  0.00    -0.021 A 
HETATM    2  C4  UNL     1      -2.693   7.310  15.116  1.00  0.00     0.045 A 
HETATM    3  C5  UNL     1      -1.986   7.972  16.103  1.00  0.00     0.066 A 
HETATM    4  C6  UNL     1      -1.062   8.940  15.765  1.00  0.00     0.045 A 
HETATM    5  C7  UNL     1      -0.810   9.274  14.416  1.00  0.00    -0.037 A 
HETATM    6  C8  UNL     1      -1.505   8.571  13.367  1.00  0.00    -0.042 A 
HETATM    7  C9  UNL     1      -1.264   8.880  11.880  1.00  0.00     0.044 C 
HETATM    8  C10 UNL     1      -0.129   8.145  11.087  1.00  0.00    -0.010 C 
HETATM    9  C11 UNL     1      -0.294   6.638  10.856  1.00  0.00     0.005 C 
HETATM   10  C12 UNL     1       0.466   5.790  11.874  1.00  0.00     0.001 C 
HETATM   11  C13 UNL     1       1.980   6.072  11.896  1.00  0.00     0.007 C 
HETATM   12  C14 UNL     1       2.371   7.504  11.469  1.00  0.00     0.022 C 
HETATM   13  C15 UNL     1       1.204   8.440  11.744  1.00  0.00     0.012 C 
HETATM   14  C16 UNL     1       3.719   8.041  12.104  1.00  0.00     0.082 C 
HETATM   15  C17 UNL     1       4.852   7.019  11.786  1.00  0.00     0.040 C 
HETATM   16  C18 UNL     1       6.220   7.568  12.186  1.00  0.00     0.013 C 
HETATM   17  C19 UNL     1       6.030   8.969  12.801  1.00  0.00     0.059 C 
HETATM   18  C20 UNL     1       5.308   9.845  11.713  1.00  0.00     0.061 C 
HETATM   19  C21 UNL     1       6.112   9.907  10.394  1.00  0.00     0.046 C 
HETATM   20  C22 UNL     1       5.047  11.304  12.116  1.00  0.00     0.046 C 
HETATM   21  O2  UNL     1       4.031   9.261  11.383  1.00  0.00    -0.368 OA
HETATM   22  C23 UNL     1       5.170   8.832  14.118  1.00  0.00     0.180 C 
HETATM   23  C26 UNL     1       3.731   8.346  13.672  1.00  0.00     0.139 C 
HETATM   24  C27 UNL     1       2.650   9.270  14.124  1.00  0.00    -0.096 C 
HETATM   25  C28 UNL     1       1.624   9.871  14.317  1.00  0.00    -0.101 C 
HETATM   26  C29 UNL     1       0.234  10.381  14.232  1.00  0.00     0.133 C 
ENDROOT
BRANCH  22  27
HETATM   27  N2  UNL     1       5.270  10.133  14.823  1.00  0.00     0.090 N 
HETATM   28  H33 UNL     1       5.285   9.969  15.840  1.00  0.00     0.313 HD
HETATM   29  H34 UNL     1       4.424  10.682  14.685  1.00  0.00     0.313 HD
ENDBRANCH  22  27
BRANCH  22  30
HETATM   30  C24 UNL     1       5.780   7.774  15.114  1.00  0.00     0.069 C 
BRANCH  30  31
HETATM   31  C25 UNL     1       7.232   8.011  15.556  1.00  0.00     0.166 C 
BRANCH  31  32
HETATM   32  O3  UNL     1       7.320   8.173  16.965  1.00  0.00    -0.401 OA
HETATM   33  H39 UNL     1       8.258   8.334  17.174  1.00  0.00     0.209 HD
ENDBRANCH  31  32
ENDBRANCH  30  31
ENDBRANCH  22  30
BRANCH   3  34
HETATM   34  O1  UNL     1      -2.182   7.707  17.425  1.00  0.00    -0.361 OA
HETATM   35  H8  UNL     1      -2.823   6.984  17.506  1.00  0.00     0.217 HD
ENDBRANCH   3  34
BRANCH   1  36
HETATM   36  C2  UNL     1      -3.357   6.811  12.780  1.00  0.00     0.308 C 
BRANCH  36  37
HETATM   37  N1  UNL     1      -3.532   5.421  13.206  1.00  0.00     0.083 N 
HETATM   38  C1  UNL     1      -3.230   4.496  12.123  1.00  0.00     0.307 C 
HETATM   39  H4  UNL     1      -4.488   5.277  13.523  1.00  0.00     0.315 HD
ENDBRANCH  36  37
ENDBRANCH   1  36
TORSDOF 7
ENDMDL
MODEL 5
REMARK minimizedAffinity -7.48899174
REMARK  7 active torsions:
REMARK  status: ('A' for Active; 'I' for Inactive)
REMARK    1  A    between atoms: N1_2  and  C2_3 
REMARK    2  A    between atoms: C2_3  and  C3_4 
REMARK    3  A    between atoms: C5_6  and  O1_7 
REMARK    4  A    between atoms: C23_26  and  N2_27 
REMARK    5  A    between atoms: C23_26  and  C24_28 
REMARK    6  A    between atoms: C24_28  and  C25_29 
REMARK    7  A    between atoms: C25_29  and  O3_30 
ROOT
HETATM    1  C3  UNL     1       3.719   8.172  11.907  1.00  0.00    -0.021 A 
HETATM    2  C4  UNL     1       4.387   9.277  12.487  1.00  0.00     0.045 A 
HETATM    3  C5  UNL     1       4.172   9.631  13.806  1.00  0.00     0.066 A 
HETATM    4  C6  UNL     1       3.310   8.894  14.592  1.00  0.00     0.045 A 
HETATM    5  C7  UNL     1       2.625   7.772  14.075  1.00  0.00    -0.037 A 
HETATM    6  C8  UNL     1       2.801   7.406  12.692  1.00  0.00    -0.042 A 
HETATM    7  C9  UNL     1       2.073   6.203  12.068  1.00  0.00     0.044 C 
HETATM    8  C10 UNL     1       0.648   6.374  11.437  1.00  0.00    -0.010 C 
HETATM    9  C11 UNL     1       0.538   7.233  10.171  1.00  0.00     0.005 C 
HETATM   10  C12 UNL     1       0.107   8.670  10.458  1.00  0.00     0.001 C 
HETATM   11  C13 UNL     1      -1.250   8.769  11.180  1.00  0.00     0.007 C 
HETATM   12  C14 UNL     1      -1.597   7.548  12.060  1.00  0.00     0.022 C 
HETATM   13  C15 UNL     1      -0.308   6.871  12.502  1.00  0.00     0.012 C 
HETATM   14  C16 UNL     1      -2.547   7.864  13.287  1.00  0.00     0.082 C 
HETATM   15  C17 UNL     1      -3.830   8.565  12.747  1.00  0.00     0.040 C 
HETATM   16  C18 UNL     1      -4.883   8.713  13.844  1.00  0.00     0.013 C 
HETATM   17  C19 UNL     1      -4.318   8.129  15.153  1.00  0.00     0.059 C 
HETATM   18  C20 UNL     1      -3.944   6.631  14.855  1.00  0.00     0.061 C 
HETATM   19  C21 UNL     1      -5.160   5.821  14.350  1.00  0.00     0.046 C 
HETATM   20  C22 UNL     1      -3.383   5.846  16.051  1.00  0.00     0.046 C 
HETATM   21  O2  UNL     1      -2.955   6.572  13.808  1.00  0.00    -0.368 OA
HETATM   22  C23 UNL     1      -3.059   8.979  15.586  1.00  0.00     0.180 C 
HETATM   23  C26 UNL     1      -1.950   8.742  14.481  1.00  0.00     0.139 C 
HETATM   24  C27 UNL     1      -0.678   8.212  15.053  1.00  0.00    -0.096 C 
HETATM   25  C28 UNL     1       0.411   7.737  15.254  1.00  0.00    -0.101 C 
HETATM   26  C29 UNL     1       1.724   7.066  15.096  1.00  0.00     0.133 C 
ENDROOT
BRANCH  22  27
HETATM   27  N2  UNL     1      -2.741   8.580  16.978  1.00  0.00     0.090 N 
HETATM   28  H33 UNL     1      -2.403   9.402  17.499  1.00  0.00     0.313 HD
HETATM   29  H34 UNL     1      -1.945   7.946  16.998  1.00  0.00     0.313 HD
ENDBRANCH  22  27
BRANCH  22  30
HETATM   30  C24 UNL     1      -3.384  10.518  15.660  1.00  0.00     0.069 C 
BRANCH  30  31
HETATM   31  C25 UNL     1      -2.820  11.277  16.872  1.00  0.00     0.166 C 
BRANCH  31  32
HETATM   32  O3  UNL     1      -3.693  11.181  17.989  1.00  0.00    -0.401 OA
HETATM   33  H39 UNL     1      -3.286  11.693  18.711  1.00  0.00     0.209 HD
ENDBRANCH  31  32
ENDBRANCH  30  31
ENDBRANCH  22  30
BRANCH   3  34
HETATM   34  O1  UNL     1       4.804  10.697  14.374  1.00  0.00    -0.361 OA
HETATM   35  H8  UNL     1       5.341  11.138  13.697  1.00  0.00     0.217 HD
ENDBRANCH   3  34
BRANCH   1  36
HETATM   36  C2  UNL     1       4.089   7.881  10.460  1.00  0.00     0.308 C 
BRANCH  36  37
HETATM   37  N1  UNL     1       4.970   6.716  10.349  1.00  0.00     0.083 N 
HETATM   38  C1  UNL     1       6.296   7.005  10.877  1.00  0.00     0.307 C 
HETATM   39  H4  UNL     1       5.044   6.433   9.374  1.00  0.00     0.315 HD
ENDBRANCH  36  37
ENDBRANCH   1  36
TORSDOF 7
ENDMDL
MODEL 6
REMARK minimizedAffinity -7.47858381
REMARK  7 active torsions:
REMARK  status: ('A' for Active; 'I' for Inactive)
REMARK    1  A    between atoms: N1_2  and  C2_3 
REMARK    2  A    between atoms: C2_3  and  C3_4 
REMARK    3  A    between atoms: C5_6  and  O1_7 
REMARK    4  A    between atoms: C23_26  and  N2_27 
REMARK    5  A    between atoms: C23_26  and  C24_28 
REMARK    6  A    between atoms: C24_28  and  C25_29 
REMARK    7  A    between atoms: C25_29  and  O3_30 
ROOT
HETATM    1  C3  UNL     1       5.811  14.522  23.177  1.00  0.00    -0.021 A 
HETATM    2  C4  UNL     1       4.842  13.494  23.092  1.00  0.00     0.045 A 
HETATM    3  C5  UNL     1       5.215  12.171  22.941  1.00  0.00     0.066 A 
HETATM    4  C6  UNL     1       6.550  11.826  22.892  1.00  0.00     0.045 A 
HETATM    5  C7  UNL     1       7.563  12.805  22.987  1.00  0.00    -0.037 A 
HETATM    6  C8  UNL     1       7.201  14.195  23.104  1.00  0.00    -0.042 A 
HETATM    7  C9  UNL     1       8.259  15.308  23.198  1.00  0.00     0.044 C 
HETATM    8  C10 UNL     1       8.836  15.971  21.900  1.00  0.00    -0.010 C 
HETATM    9  C11 UNL     1       7.873  16.811  21.051  1.00  0.00     0.005 C 
HETATM   10  C12 UNL     1       7.284  16.038  19.872  1.00  0.00     0.001 C 
HETATM   11  C13 UNL     1       8.351  15.481  18.912  1.00  0.00     0.007 C 
HETATM   12  C14 UNL     1       9.715  15.183  19.573  1.00  0.00     0.022 C 
HETATM   13  C15 UNL     1       9.499  14.904  21.053  1.00  0.00     0.012 C 
HETATM   14  C16 UNL     1      10.554  14.036  18.874  1.00  0.00     0.082 C 
HETATM   15  C17 UNL     1      10.715  14.396  17.366  1.00  0.00     0.040 C 
HETATM   16  C18 UNL     1      11.688  13.444  16.671  1.00  0.00     0.013 C 
HETATM   17  C19 UNL     1      12.187  12.410  17.700  1.00  0.00     0.059 C 
HETATM   18  C20 UNL     1      12.850  13.222  18.871  1.00  0.00     0.061 C 
HETATM   19  C21 UNL     1      14.000  14.126  18.370  1.00  0.00     0.046 C 
HETATM   20  C22 UNL     1      13.446  12.370  20.002  1.00  0.00     0.046 C 
HETATM   21  O2  UNL     1      11.876  14.101  19.471  1.00  0.00    -0.368 OA
HETATM   22  C23 UNL     1      10.957  11.553  18.195  1.00  0.00     0.180 C 
HETATM   23  C26 UNL     1      10.005  12.540  18.986  1.00  0.00     0.139 C 
HETATM   24  C27 UNL     1       9.747  12.086  20.384  1.00  0.00    -0.096 C 
HETATM   25  C28 UNL     1       9.437  11.971  21.543  1.00  0.00    -0.101 C 
HETATM   26  C29 UNL     1       8.986  12.237  22.930  1.00  0.00     0.133 C 
ENDROOT
BRANCH  22  27
HETATM   27  N2  UNL     1      11.519  10.397  18.934  1.00  0.00     0.090 N 
HETATM   28  H33 UNL     1      10.933   9.567  18.766  1.00  0.00     0.313 HD
HETATM   29  H34 UNL     1      11.441  10.541  19.939  1.00  0.00     0.313 HD
ENDBRANCH  22  27
BRANCH  22  30
HETATM   30  C24 UNL     1      10.153  10.924  16.994  1.00  0.00     0.069 C 
BRANCH  30  31
HETATM   31  C25 UNL     1       9.071   9.897  17.360  1.00  0.00     0.166 C 
BRANCH  31  32
HETATM   32  O3  UNL     1       9.565   8.569  17.249  1.00  0.00    -0.401 OA
HETATM   33  H39 UNL     1       8.829   7.973  17.477  1.00  0.00     0.209 HD
ENDBRANCH  31  32
ENDBRANCH  30  31
ENDBRANCH  22  30
BRANCH   3  34
HETATM   34  O1  UNL     1       4.291  11.172  22.851  1.00  0.00    -0.361 OA
HETATM   35  H8  UNL     1       3.404  11.566  22.859  1.00  0.00     0.217 HD
ENDBRANCH   3  34
BRANCH   1  36
HETATM   36  C2  UNL     1       5.249  15.922  23.383  1.00  0.00     0.308 C 
BRANCH  36  37
HETATM   37  N1  UNL     1       3.802  15.898  23.610  1.00  0.00     0.083 N 
HETATM   38  C1  UNL     1       3.466  16.435  24.921  1.00  0.00     0.307 C 
HETATM   39  H4  UNL     1       3.458  14.944  23.533  1.00  0.00     0.315 HD
ENDBRANCH  36  37
ENDBRANCH   1  36
TORSDOF 7
ENDMDL
MODEL 7
REMARK minimizedAffinity -7.35201502
REMARK  7 active torsions:
REMARK  status: ('A' for Active; 'I' for Inactive)
REMARK    1  A    between atoms: N1_2  and  C2_3 
REMARK    2  A    between atoms: C2_3  and  C3_4 
REMARK    3  A    between atoms: C5_6  and  O1_7 
REMARK    4  A    between atoms: C23_26  and  N2_27 
REMARK    5  A    between atoms: C23_26  and  C24_28 
REMARK    6  A    between atoms: C24_28  and  C25_29 
REMARK    7  A    between atoms: C25_29  and  O3_30 
ROOT
HETATM    1  C3  UNL     1      -0.625   5.911  11.941  1.00  0.00    -0.021 A 
HETATM    2  C4  UNL     1      -0.962   5.215  13.127  1.00  0.00     0.045 A 
HETATM    3  C5  UNL     1      -0.723   5.767  14.373  1.00  0.00     0.066 A 
HETATM    4  C6  UNL     1      -0.165   7.024  14.481  1.00  0.00     0.045 A 
HETATM    5  C7  UNL     1       0.180   7.773  13.334  1.00  0.00    -0.037 A 
HETATM    6  C8  UNL     1      -0.023   7.205  12.025  1.00  0.00    -0.042 A 
HETATM    7  C9  UNL     1       0.345   7.966  10.740  1.00  0.00     0.044 C 
HETATM    8  C10 UNL     1       1.787   7.860  10.135  1.00  0.00    -0.010 C 
HETATM    9  C11 UNL     1       2.218   6.497   9.578  1.00  0.00     0.005 C 
HETATM   10  C12 UNL     1       3.043   5.679  10.569  1.00  0.00     0.001 C 
HETATM   11  C13 UNL     1       4.326   6.393  11.033  1.00  0.00     0.007 C 
HETATM   12  C14 UNL     1       4.244   7.935  11.011  1.00  0.00     0.022 C 
HETATM   13  C15 UNL     1       2.790   8.357  11.157  1.00  0.00     0.012 C 
HETATM   14  C16 UNL     1       5.177   8.664  12.063  1.00  0.00     0.082 C 
HETATM   15  C17 UNL     1       6.638   8.165  11.852  1.00  0.00     0.040 C 
HETATM   16  C18 UNL     1       7.626   8.975  12.689  1.00  0.00     0.013 C 
HETATM   17  C19 UNL     1       6.842  10.027  13.497  1.00  0.00     0.059 C 
HETATM   18  C20 UNL     1       6.054  10.902  12.456  1.00  0.00     0.061 C 
HETATM   19  C21 UNL     1       6.997  11.564  11.425  1.00  0.00     0.046 C 
HETATM   20  C22 UNL     1       5.220  12.043  13.058  1.00  0.00     0.046 C 
HETATM   21  O2  UNL     1       5.150  10.069  11.701  1.00  0.00    -0.368 OA
HETATM   22  C23 UNL     1       5.874   9.280  14.497  1.00  0.00     0.180 C 
HETATM   23  C26 UNL     1       4.806   8.518  13.610  1.00  0.00     0.139 C 
HETATM   24  C27 UNL     1       3.405   8.907  13.944  1.00  0.00    -0.096 C 
HETATM   25  C28 UNL     1       2.214   9.090  13.982  1.00  0.00    -0.101 C 
HETATM   26  C29 UNL     1       0.771   9.153  13.645  1.00  0.00     0.133 C 
ENDROOT
BRANCH  22  27
HETATM   27  N2  UNL     1       5.376  10.305  15.446  1.00  0.00     0.090 N 
HETATM   28  H33 UNL     1       5.272   9.883  16.379  1.00  0.00     0.313 HD
HETATM   29  H34 UNL     1       4.427  10.585  15.207  1.00  0.00     0.313 HD
ENDBRANCH  22  27
BRANCH  22  30
HETATM   30  C24 UNL     1       6.640   8.230  15.387  1.00  0.00     0.069 C 
BRANCH  30  31
HETATM   31  C25 UNL     1       7.647   8.798  16.399  1.00  0.00     0.166 C 
BRANCH  31  32
HETATM   32  O3  UNL     1       8.511   7.782  16.890  1.00  0.00    -0.401 OA
HETATM   33  H39 UNL     1       9.108   8.204  17.533  1.00  0.00     0.209 HD
ENDBRANCH  31  32
ENDBRANCH  30  31
ENDBRANCH  22  30
BRANCH   3  34
HETATM   34  O1  UNL     1      -1.037   5.104  15.522  1.00  0.00    -0.361 OA
HETATM   35  H8  UNL     1      -1.380   4.226  15.292  1.00  0.00     0.217 HD
ENDBRANCH   3  34
BRANCH   1  36
HETATM   36  C2  UNL     1      -0.987   5.194  10.649  1.00  0.00     0.308 C 
BRANCH  36  37
HETATM   37  N1  UNL     1      -1.462   3.831  10.898  1.00  0.00     0.083 N 
HETATM   38  C1  UNL     1      -2.770   3.611  10.297  1.00  0.00     0.307 C 
HETATM   39  H4  UNL     1      -1.514   3.664  11.900  1.00  0.00     0.315 HD
ENDBRANCH  36  37
ENDBRANCH   1  36
TORSDOF 7
ENDMDL
MODEL 8
REMARK minimizedAffinity -7.33544254
REMARK  7 active torsions:
REMARK  status: ('A' for Active; 'I' for Inactive)
REMARK    1  A    between atoms: N1_2  and  C2_3 
REMARK    2  A    between atoms: C2_3  and  C3_4 
REMARK    3  A    between atoms: C5_6  and  O1_7 
REMARK    4  A    between atoms: C23_26  and  N2_27 
REMARK    5  A    between atoms: C23_26  and  C24_28 
REMARK    6  A    between atoms: C24_28  and  C25_29 
REMARK    7  A    between atoms: C25_29  and  O3_30 
ROOT
HETATM    1  C3  UNL     1      -0.101   6.262  11.532  1.00  0.00    -0.021 A 
HETATM    2  C4  UNL     1      -0.040   6.944  10.294  1.00  0.00     0.045 A 
HETATM    3  C5  UNL     1       0.728   8.084  10.141  1.00  0.00     0.066 A 
HETATM    4  C6  UNL     1       1.471   8.567  11.199  1.00  0.00     0.045 A 
HETATM    5  C7  UNL     1       1.463   7.922  12.456  1.00  0.00    -0.037 A 
HETATM    6  C8  UNL     1       0.640   6.756  12.651  1.00  0.00    -0.042 A 
HETATM    7  C9  UNL     1       0.578   6.018  14.000  1.00  0.00     0.044 C 
HETATM    8  C10 UNL     1      -0.452   6.451  15.099  1.00  0.00    -0.010 C 
HETATM    9  C11 UNL     1      -1.940   6.235  14.793  1.00  0.00     0.005 C 
HETATM   10  C12 UNL     1      -2.631   7.491  14.267  1.00  0.00     0.001 C 
HETATM   11  C13 UNL     1      -2.547   8.686  15.235  1.00  0.00     0.007 C 
HETATM   12  C14 UNL     1      -1.307   8.677  16.156  1.00  0.00     0.022 C 
HETATM   13  C15 UNL     1      -0.192   7.894  15.481  1.00  0.00     0.012 C 
HETATM   14  C16 UNL     1      -0.820  10.110  16.625  1.00  0.00     0.082 C 
HETATM   15  C17 UNL     1      -2.023  10.844  17.290  1.00  0.00     0.040 C 
HETATM   16  C18 UNL     1      -1.578  12.147  17.952  1.00  0.00     0.013 C 
HETATM   17  C19 UNL     1      -0.064  12.324  17.727  1.00  0.00     0.059 C 
HETATM   18  C20 UNL     1       0.634  11.054  18.336  1.00  0.00     0.061 C 
HETATM   19  C21 UNL     1       0.299  10.872  19.834  1.00  0.00     0.046 C 
HETATM   20  C22 UNL     1       2.168  11.042  18.242  1.00  0.00     0.046 C 
HETATM   21  O2  UNL     1       0.160   9.867  17.667  1.00  0.00    -0.368 OA
HETATM   22  C23 UNL     1       0.206  12.463  16.177  1.00  0.00     0.180 C 
HETATM   23  C26 UNL     1      -0.179  11.074  15.523  1.00  0.00     0.139 C 
HETATM   24  C27 UNL     1       0.952  10.467  14.763  1.00  0.00    -0.096 C 
HETATM   25  C28 UNL     1       1.708   9.756  14.150  1.00  0.00    -0.101 C 
HETATM   26  C29 UNL     1       2.359   8.590  13.505  1.00  0.00     0.133 C 
ENDROOT
BRANCH  22  27
HETATM   27  N2  UNL     1       1.607  12.927  16.034  1.00  0.00     0.090 N 
HETATM   28  H33 UNL     1       1.671  13.571  15.232  1.00  0.00     0.313 HD
HETATM   29  H34 UNL     1       2.215  12.156  15.766  1.00  0.00     0.313 HD
ENDBRANCH  22  27
BRANCH  22  30
HETATM   30  C24 UNL     1      -0.674  13.595  15.524  1.00  0.00     0.069 C 
BRANCH  30  31
HETATM   31  C25 UNL     1      -1.595  13.165  14.372  1.00  0.00     0.166 C 
BRANCH  31  32
HETATM   32  O3  UNL     1      -1.346  13.933  13.202  1.00  0.00    -0.401 OA
HETATM   33  H39 UNL     1      -1.970  13.622  12.521  1.00  0.00     0.209 HD
ENDBRANCH  31  32
ENDBRANCH  30  31
ENDBRANCH  22  30
BRANCH   3  34
HETATM   34  O1  UNL     1       0.790   8.753   8.956  1.00  0.00    -0.361 OA
HETATM   35  H8  UNL     1       0.191   8.325   8.324  1.00  0.00     0.217 HD
ENDBRANCH   3  34
BRANCH   1  36
HETATM   36  C2  UNL     1      -0.955   5.002  11.533  1.00  0.00     0.308 C 
BRANCH  36  37
HETATM   37  N1  UNL     1      -0.134   3.790  11.472  1.00  0.00     0.083 N 
HETATM   38  C1  UNL     1      -0.963   2.593  11.451  1.00  0.00     0.307 C 
HETATM   39  H4  UNL     1       0.492   3.759  12.274  1.00  0.00     0.315 HD
ENDBRANCH  36  37
ENDBRANCH   1  36
TORSDOF 7
ENDMDL
MODEL 9
REMARK minimizedAffinity -7.31685638
REMARK  7 active torsions:
REMARK  status: ('A' for Active; 'I' for Inactive)
REMARK    1  A    between atoms: N1_2  and  C2_3 
REMARK    2  A    between atoms: C2_3  and  C3_4 
REMARK    3  A    between atoms: C5_6  and  O1_7 
REMARK    4  A    between atoms: C23_26  and  N2_27 
REMARK    5  A    between atoms: C23_26  and  C24_28 
REMARK    6  A    between atoms: C24_28  and  C25_29 
REMARK    7  A    between atoms: C25_29  and  O3_30 
ROOT
HETATM    1  C3  UNL     1      -4.528   6.602  13.764  1.00  0.00    -0.021 A 
HETATM    2  C4  UNL     1      -5.490   6.256  14.743  1.00  0.00     0.045 A 
HETATM    3  C5  UNL     1      -5.915   7.175  15.685  1.00  0.00     0.066 A 
HETATM    4  C6  UNL     1      -5.419   8.462  15.673  1.00  0.00     0.045 A 
HETATM    5  C7  UNL     1      -4.467   8.872  14.712  1.00  0.00    -0.037 A 
HETATM    6  C8  UNL     1      -3.978   7.922  13.745  1.00  0.00    -0.042 A 
HETATM    7  C9  UNL     1      -2.933   8.304  12.683  1.00  0.00     0.044 C 
HETATM    8  C10 UNL     1      -1.401   8.187  12.994  1.00  0.00    -0.010 C 
HETATM    9  C11 UNL     1      -0.831   6.778  13.201  1.00  0.00     0.005 C 
HETATM   10  C12 UNL     1      -0.717   6.389  14.674  1.00  0.00     0.001 C 
HETATM   11  C13 UNL     1       0.165   7.349  15.493  1.00  0.00     0.007 C 
HETATM   12  C14 UNL     1       0.210   8.796  14.954  1.00  0.00     0.022 C 
HETATM   13  C15 UNL     1      -1.067   9.075  14.175  1.00  0.00     0.012 C 
HETATM   14  C16 UNL     1       0.485   9.904  16.052  1.00  0.00     0.082 C 
HETATM   15  C17 UNL     1       1.797   9.533  16.806  1.00  0.00     0.040 C 
HETATM   16  C18 UNL     1       2.238  10.662  17.736  1.00  0.00     0.013 C 
HETATM   17  C19 UNL     1       1.215  11.810  17.639  1.00  0.00     0.059 C 
HETATM   18  C20 UNL     1       1.164  12.242  16.128  1.00  0.00     0.061 C 
HETATM   19  C21 UNL     1       2.552  12.671  15.601  1.00  0.00     0.046 C 
HETATM   20  C22 UNL     1       0.215  13.409  15.813  1.00  0.00     0.046 C 
HETATM   21  O2  UNL     1       0.748  11.126  15.314  1.00  0.00    -0.368 OA
HETATM   22  C23 UNL     1      -0.183  11.289  18.155  1.00  0.00     0.180 C 
HETATM   23  C26 UNL     1      -0.662  10.183  17.129  1.00  0.00     0.139 C 
HETATM   24  C27 UNL     1      -1.996  10.492  16.536  1.00  0.00    -0.096 C 
HETATM   25  C28 UNL     1      -3.009  10.542  15.885  1.00  0.00    -0.101 C 
HETATM   26  C29 UNL     1      -4.043  10.340  14.841  1.00  0.00     0.133 C 
ENDROOT
BRANCH  22  27
HETATM   27  N2  UNL     1      -1.041  12.487  18.327  1.00  0.00     0.090 N 
HETATM   28  H33 UNL     1      -1.654  12.351  19.144  1.00  0.00     0.313 HD
HETATM   29  H34 UNL     1      -1.696  12.574  17.553  1.00  0.00     0.313 HD
ENDBRANCH  22  27
BRANCH  22  30
HETATM   30  C24 UNL     1      -0.080  10.644  19.589  1.00  0.00     0.069 C 
BRANCH  30  31
HETATM   31  C25 UNL     1       1.090  11.114  20.466  1.00  0.00     0.166 C 
BRANCH  31  32
HETATM   32  O3  UNL     1       1.724  10.015  21.107  1.00  0.00    -0.401 OA
HETATM   33  H39 UNL     1       2.441  10.381  21.656  1.00  0.00     0.209 HD
ENDBRANCH  31  32
ENDBRANCH  30  31
ENDBRANCH  22  30
BRANCH   3  34
HETATM   34  O1  UNL     1      -6.836   6.852  16.636  1.00  0.00    -0.361 OA
HETATM   35  H8  UNL     1      -7.060   5.913  16.547  1.00  0.00     0.217 HD
ENDBRANCH   3  34
BRANCH   1  36
HETATM   36  C2  UNL     1      -4.191   5.498  12.772  1.00  0.00     0.308 C 
BRANCH  36  37
HETATM   37  N1  UNL     1      -5.169   4.408  12.821  1.00  0.00     0.083 N 
HETATM   38  C1  UNL     1      -4.716   3.259  12.049  1.00  0.00     0.307 C 
HETATM   39  H4  UNL     1      -6.063   4.732  12.460  1.00  0.00     0.315 HD
ENDBRANCH  36  37
ENDBRANCH   1  36
TORSDOF 7
ENDMDL
