MODEL 1
REMARK minimizedAffinity -8.6170826
REMARK CNNscore 0.473398089
REMARK CNNaffinity 6.90188932
REMARK  8 active torsions:
REMARK  status: ('A' for Active; 'I' for Inactive)
REMARK    1  A    between atoms: C2_2  and  C4_4 
REMARK    2  A    between atoms: C4_4  and  O1_5 
REMARK    3  A    between atoms: C4_4  and  C5_6 
REMARK    4  A    between atoms: C5_6  and  C6_7 
REMARK    5  A    between atoms: C6_7  and  C7_8 
REMARK    6  A    between atoms: C7_8  and  C9_10 
REMARK    7  A    between atoms: C12_13  and  C13_14 
REMARK    8  A    between atoms: C13_14  and  O3_16 
ROOT
HETATM    1  C9  UNL     1       0.805   7.796  12.659  1.00  0.00    -0.001 C 
HETATM    2  C10 UNL     1       1.113   8.696  13.895  1.00  0.00     0.007 C 
HETATM    3  C11 UNL     1      -0.158   8.757  14.759  1.00  0.00     0.022 C 
HETATM    4  C12 UNL     1      -1.064   7.639  14.199  1.00  0.00     0.057 C 
HETATM    5  C14 UNL     1      -2.580   7.847  14.445  1.00  0.00     0.014 C 
HETATM    6  C15 UNL     1      -3.032   7.687  15.902  1.00  0.00     0.007 C 
HETATM    7  C16 UNL     1      -4.517   8.029  16.030  1.00  0.00     0.007 C 
HETATM    8  C17 UNL     1      -5.362   6.952  15.337  1.00  0.00     0.010 C 
HETATM    9  C18 UNL     1      -6.906   7.183  15.392  1.00  0.00     0.018 C 
HETATM   10  C19 UNL     1      -7.403   7.155  16.849  1.00  0.00     0.023 C 
HETATM   11  C20 UNL     1      -7.359   8.498  14.739  1.00  0.00     0.023 C 
HETATM   12  C21 UNL     1      -7.607   6.035  14.645  1.00  0.00     0.135 C 
HETATM   13  O4  UNL     1      -8.830   6.012  14.495  1.00  0.00    -0.297 OA
HETATM   14  C22 UNL     1      -6.753   4.889  14.162  1.00  0.00     0.080 C 
HETATM   15  C23 UNL     1      -5.568   5.381  13.342  1.00  0.00     0.018 C 
HETATM   16  C24 UNL     1      -4.906   6.640  13.907  1.00  0.00    -0.026 A 
HETATM   17  C25 UNL     1      -4.655   7.752  12.914  1.00  0.00     0.021 A 
HETATM   18  C26 UNL     1      -3.459   7.018  13.479  1.00  0.00    -0.027 A 
HETATM   19  C27 UNL     1      -2.719   6.056  12.554  1.00  0.00     0.011 C 
HETATM   20  C28 UNL     1      -1.434   6.595  11.901  1.00  0.00     0.012 C 
HETATM   21  C29 UNL     1      -0.760   7.758  12.656  1.00  0.00    -0.022 C 
HETATM   22  C30 UNL     1      -1.293   9.080  12.014  1.00  0.00     0.017 C 
ENDROOT
BRANCH   1  23
HETATM   23  C7  UNL     1       1.584   8.263  11.389  1.00  0.00    -0.014 C 
HETATM   24  C8  UNL     1       0.677   8.366  10.160  1.00  0.00     0.010 C 
BRANCH  23  25
HETATM   25  C6  UNL     1       2.772   7.301  11.102  1.00  0.00     0.007 C 
BRANCH  25  26
HETATM   26  C5  UNL     1       2.370   5.943  10.496  1.00  0.00     0.036 C 
BRANCH  26  27
HETATM   27  C4  UNL     1       3.491   5.251   9.696  1.00  0.00     0.146 C 
BRANCH  27  28
HETATM   28  C2  UNL     1       3.213   5.212   8.198  1.00  0.00    -0.065 C 
HETATM   29  C1  UNL     1       3.596   4.216   7.378  1.00  0.00     0.016 C 
HETATM   30  C3  UNL     1       2.400   6.359   7.650  1.00  0.00     0.045 C 
ENDBRANCH  27  28
BRANCH  27  31
HETATM   31  O1  UNL     1       4.721   5.927   9.952  1.00  0.00    -0.391 OA
HETATM   32  H7  UNL     1       4.597   6.852   9.676  1.00  0.00     0.210 HD
ENDBRANCH  27  31
ENDBRANCH  26  27
ENDBRANCH  25  26
ENDBRANCH  23  25
ENDBRANCH   1  23
BRANCH   4  33
HETATM   33  C13 UNL     1      -0.578   6.305  14.826  1.00  0.00     0.149 C 
HETATM   34  O2  UNL     1      -0.640   5.184  14.348  1.00  0.00    -0.649 OA
BRANCH  33  35
HETATM   35  O3  UNL     1      -0.023   6.447  16.047  1.00  0.00    -0.776 OA
HETATM   36  H21 UNL     1       0.243   5.534  16.292  1.00  0.00     0.167 HD
ENDBRANCH  33  35
ENDBRANCH   4  33
TORSDOF 8
ENDMDL
MODEL 2
REMARK minimizedAffinity -7.16305876
REMARK CNNscore 0.394707829
REMARK CNNaffinity 6.1039238
REMARK  8 active torsions:
REMARK  status: ('A' for Active; 'I' for Inactive)
REMARK    1  A    between atoms: C2_2  and  C4_4 
REMARK    2  A    between atoms: C4_4  and  O1_5 
REMARK    3  A    between atoms: C4_4  and  C5_6 
REMARK    4  A    between atoms: C5_6  and  C6_7 
REMARK    5  A    between atoms: C6_7  and  C7_8 
REMARK    6  A    between atoms: C7_8  and  C9_10 
REMARK    7  A    between atoms: C12_13  and  C13_14 
REMARK    8  A    between atoms: C13_14  and  O3_16 
ROOT
HETATM    1  C9  UNL     1       0.614  11.440  17.469  1.00  0.00    -0.001 C 
HETATM    2  C10 UNL     1       2.093  11.904  17.639  1.00  0.00     0.007 C 
HETATM    3  C11 UNL     1       2.877  11.435  16.403  1.00  0.00     0.022 C 
HETATM    4  C12 UNL     1       1.792  11.006  15.391  1.00  0.00     0.057 C 
HETATM    5  C14 UNL     1       2.256   9.966  14.341  1.00  0.00     0.014 C 
HETATM    6  C15 UNL     1       3.238  10.496  13.289  1.00  0.00     0.007 C 
HETATM    7  C16 UNL     1       3.707   9.353  12.387  1.00  0.00     0.007 C 
HETATM    8  C17 UNL     1       2.548   8.878  11.501  1.00  0.00     0.010 C 
HETATM    9  C18 UNL     1       2.893   7.705  10.529  1.00  0.00     0.018 C 
HETATM   10  C19 UNL     1       3.971   8.143   9.519  1.00  0.00     0.023 C 
HETATM   11  C20 UNL     1       3.372   6.431  11.242  1.00  0.00     0.023 C 
HETATM   12  C21 UNL     1       1.634   7.337   9.726  1.00  0.00     0.135 C 
HETATM   13  O4  UNL     1       1.626   6.400   8.927  1.00  0.00    -0.297 OA
HETATM   14  C22 UNL     1       0.416   8.213   9.893  1.00  0.00     0.080 C 
HETATM   15  C23 UNL     1       0.051   8.391  11.361  1.00  0.00     0.018 C 
HETATM   16  C24 UNL     1       1.261   8.583  12.279  1.00  0.00    -0.026 A 
HETATM   17  C25 UNL     1       1.287   7.720  13.520  1.00  0.00     0.021 A 
HETATM   18  C26 UNL     1       1.074   9.208  13.692  1.00  0.00    -0.027 A 
HETATM   19  C27 UNL     1      -0.323   9.683  14.078  1.00  0.00     0.011 C 
HETATM   20  C28 UNL     1      -0.545   9.998  15.568  1.00  0.00     0.012 C 
HETATM   21  C29 UNL     1       0.734  10.345  16.357  1.00  0.00    -0.022 C 
HETATM   22  C30 UNL     1       1.232   9.016  17.012  1.00  0.00     0.017 C 
ENDROOT
BRANCH   1  23
HETATM   23  C7  UNL     1      -0.054  11.101  18.838  1.00  0.00    -0.014 C 
HETATM   24  C8  UNL     1      -1.425  11.765  18.994  1.00  0.00     0.010 C 
BRANCH  23  25
HETATM   25  C6  UNL     1       0.881  11.514  20.011  1.00  0.00     0.007 C 
BRANCH  25  26
HETATM   26  C5  UNL     1       1.415  10.340  20.853  1.00  0.00     0.036 C 
BRANCH  26  27
HETATM   27  C4  UNL     1       2.870  10.514  21.330  1.00  0.00     0.146 C 
BRANCH  27  28
HETATM   28  C2  UNL     1       3.210   9.633  22.527  1.00  0.00    -0.065 C 
HETATM   29  C1  UNL     1       4.190   9.897  23.411  1.00  0.00     0.016 C 
HETATM   30  C3  UNL     1       2.326   8.428  22.730  1.00  0.00     0.045 C 
ENDBRANCH  27  28
BRANCH  27  31
HETATM   31  O1  UNL     1       3.746  10.224  20.241  1.00  0.00    -0.391 OA
HETATM   32  H7  UNL     1       3.561   9.309  19.966  1.00  0.00     0.210 HD
ENDBRANCH  27  31
ENDBRANCH  26  27
ENDBRANCH  25  26
ENDBRANCH  23  25
ENDBRANCH   1  23
BRANCH   4  33
HETATM   33  C13 UNL     1       1.279  12.300  14.703  1.00  0.00     0.149 C 
HETATM   34  O2  UNL     1       0.151  12.761  14.718  1.00  0.00    -0.649 OA
BRANCH  33  35
HETATM   35  O3  UNL     1       2.232  12.966  14.017  1.00  0.00    -0.776 OA
HETATM   36  H21 UNL     1       1.760  13.751  13.664  1.00  0.00     0.167 HD
ENDBRANCH  33  35
ENDBRANCH   4  33
TORSDOF 8
ENDMDL
MODEL 3
REMARK minimizedAffinity -6.3395195
REMARK CNNscore 0.390809834
REMARK CNNaffinity 5.69891739
REMARK  8 active torsions:
REMARK  status: ('A' for Active; 'I' for Inactive)
REMARK    1  A    between atoms: C2_2  and  C4_4 
REMARK    2  A    between atoms: C4_4  and  O1_5 
REMARK    3  A    between atoms: C4_4  and  C5_6 
REMARK    4  A    between atoms: C5_6  and  C6_7 
REMARK    5  A    between atoms: C6_7  and  C7_8 
REMARK    6  A    between atoms: C7_8  and  C9_10 
REMARK    7  A    between atoms: C12_13  and  C13_14 
REMARK    8  A    between atoms: C13_14  and  O3_16 
ROOT
HETATM    1  C9  UNL     1      -9.595  -7.960  -4.139  1.00  0.00    -0.001 C 
HETATM    2  C10 UNL     1      -8.288  -7.667  -4.936  1.00  0.00     0.007 C 
HETATM    3  C11 UNL     1      -7.113  -8.275  -4.151  1.00  0.00     0.022 C 
HETATM    4  C12 UNL     1      -7.778  -9.187  -3.098  1.00  0.00     0.057 C 
HETATM    5  C14 UNL     1      -6.928  -9.442  -1.828  1.00  0.00     0.014 C 
HETATM    6  C15 UNL     1      -5.695 -10.331  -2.037  1.00  0.00     0.007 C 
HETATM    7  C16 UNL     1      -4.882 -10.410  -0.743  1.00  0.00     0.007 C 
HETATM    8  C17 UNL     1      -5.654 -11.214   0.311  1.00  0.00     0.010 C 
HETATM    9  C18 UNL     1      -4.932 -11.369   1.687  1.00  0.00     0.018 C 
HETATM   10  C19 UNL     1      -3.617 -12.154   1.519  1.00  0.00     0.023 C 
HETATM   11  C20 UNL     1      -4.626 -10.032   2.379  1.00  0.00     0.023 C 
HETATM   12  C21 UNL     1      -5.834 -12.181   2.633  1.00  0.00     0.135 C 
HETATM   13  O4  UNL     1      -5.517 -12.395   3.804  1.00  0.00    -0.297 OA
HETATM   14  C22 UNL     1      -7.096 -12.775   2.058  1.00  0.00     0.080 C 
HETATM   15  C23 UNL     1      -7.930 -11.727   1.334  1.00  0.00     0.018 C 
HETATM   16  C24 UNL     1      -7.101 -10.747   0.502  1.00  0.00    -0.026 A 
HETATM   17  C25 UNL     1      -7.422  -9.282   0.700  1.00  0.00     0.021 A 
HETATM   18  C26 UNL     1      -7.779  -9.916  -0.627  1.00  0.00    -0.027 A 
HETATM   19  C27 UNL     1      -9.255 -10.178  -0.910  1.00  0.00     0.011 C 
HETATM   20  C28 UNL     1      -9.971  -9.141  -1.794  1.00  0.00     0.012 C 
HETATM   21  C29 UNL     1      -9.045  -8.327  -2.720  1.00  0.00    -0.022 C 
HETATM   22  C30 UNL     1      -8.698  -7.006  -1.959  1.00  0.00     0.017 C 
ENDROOT
BRANCH   1  23
HETATM   23  C7  UNL     1     -10.648  -6.819  -4.304  1.00  0.00    -0.014 C 
HETATM   24  C8  UNL     1     -11.964  -7.326  -4.899  1.00  0.00     0.010 C 
BRANCH  23  25
HETATM   25  C6  UNL     1     -10.067  -5.672  -5.180  1.00  0.00     0.007 C 
BRANCH  25  26
HETATM   26  C5  UNL     1      -9.996  -4.301  -4.482  1.00  0.00     0.036 C 
BRANCH  26  27
HETATM   27  C4  UNL     1      -9.283  -3.209  -5.303  1.00  0.00     0.146 C 
BRANCH  27  28
HETATM   28  C2  UNL     1     -10.158  -1.984  -5.546  1.00  0.00    -0.065 C 
HETATM   29  C1  UNL     1     -10.706  -1.235  -4.572  1.00  0.00     0.016 C 
HETATM   30  C3  UNL     1     -10.346  -1.586  -6.989  1.00  0.00     0.045 C 
ENDBRANCH  27  28
BRANCH  27  31
HETATM   31  O1  UNL     1      -8.087  -2.832  -4.623  1.00  0.00    -0.391 OA
HETATM   32  H7  UNL     1      -8.351  -2.510  -3.744  1.00  0.00     0.210 HD
ENDBRANCH  27  31
ENDBRANCH  26  27
ENDBRANCH  25  26
ENDBRANCH  23  25
ENDBRANCH   1  23
BRANCH   4  33
HETATM   33  C13 UNL     1      -8.126 -10.522  -3.810  1.00  0.00     0.149 C 
HETATM   34  O2  UNL     1      -9.029 -11.299  -3.549  1.00  0.00    -0.649 OA
BRANCH  33  35
HETATM   35  O3  UNL     1      -7.307 -10.819  -4.840  1.00  0.00    -0.776 OA
HETATM   36  H21 UNL     1      -7.664 -11.665  -5.187  1.00  0.00     0.167 HD
ENDBRANCH  33  35
ENDBRANCH   4  33
TORSDOF 8
ENDMDL
MODEL 4
REMARK minimizedAffinity -7.29179239
REMARK CNNscore 0.316607028
REMARK CNNaffinity 6.7951169
REMARK  8 active torsions:
REMARK  status: ('A' for Active; 'I' for Inactive)
REMARK    1  A    between atoms: C2_2  and  C4_4 
REMARK    2  A    between atoms: C4_4  and  O1_5 
REMARK    3  A    between atoms: C4_4  and  C5_6 
REMARK    4  A    between atoms: C5_6  and  C6_7 
REMARK    5  A    between atoms: C6_7  and  C7_8 
REMARK    6  A    between atoms: C7_8  and  C9_10 
REMARK    7  A    between atoms: C12_13  and  C13_14 
REMARK    8  A    between atoms: C13_14  and  O3_16 
ROOT
HETATM    1  C9  UNL     1      -2.859   3.769  12.182  1.00  0.00    -0.001 C 
HETATM    2  C10 UNL     1      -2.775   4.091  10.659  1.00  0.00     0.007 C 
HETATM    3  C11 UNL     1      -1.635   5.103  10.455  1.00  0.00     0.022 C 
HETATM    4  C12 UNL     1      -0.866   5.099  11.794  1.00  0.00     0.057 C 
HETATM    5  C14 UNL     1      -0.079   6.398  12.096  1.00  0.00     0.014 C 
HETATM    6  C15 UNL     1       1.156   6.632  11.217  1.00  0.00     0.007 C 
HETATM    7  C16 UNL     1       1.774   7.996  11.533  1.00  0.00     0.007 C 
HETATM    8  C17 UNL     1       2.404   7.971  12.932  1.00  0.00     0.010 C 
HETATM    9  C18 UNL     1       3.072   9.309  13.382  1.00  0.00     0.018 C 
HETATM   10  C19 UNL     1       4.251   9.662  12.456  1.00  0.00     0.023 C 
HETATM   11  C20 UNL     1       2.102  10.501  13.425  1.00  0.00     0.023 C 
HETATM   12  C21 UNL     1       3.640   9.129  14.800  1.00  0.00     0.135 C 
HETATM   13  O4  UNL     1       4.170  10.060  15.409  1.00  0.00    -0.297 OA
HETATM   14  C22 UNL     1       3.595   7.745  15.402  1.00  0.00     0.080 C 
HETATM   15  C23 UNL     1       2.195   7.150  15.334  1.00  0.00     0.018 C 
HETATM   16  C24 UNL     1       1.467   7.434  14.019  1.00  0.00    -0.026 A 
HETATM   17  C25 UNL     1       0.054   7.955  14.150  1.00  0.00     0.021 A 
HETATM   18  C26 UNL     1       0.250   6.560  13.599  1.00  0.00    -0.027 A 
HETATM   19  C27 UNL     1      -0.124   5.386  14.499  1.00  0.00     0.011 C 
HETATM   20  C28 UNL     1      -1.498   4.742  14.240  1.00  0.00     0.012 C 
HETATM   21  C29 UNL     1      -2.057   4.953  12.818  1.00  0.00    -0.022 C 
HETATM   22  C30 UNL     1      -2.983   6.210  12.881  1.00  0.00     0.017 C 
ENDROOT
BRANCH   1  23
HETATM   23  C7  UNL     1      -4.323   3.475  12.637  1.00  0.00    -0.014 C 
HETATM   24  C8  UNL     1      -5.081   2.609  11.628  1.00  0.00     0.010 C 
BRANCH  23  25
HETATM   25  C6  UNL     1      -5.087   4.807  12.884  1.00  0.00     0.007 C 
BRANCH  25  26
HETATM   26  C5  UNL     1      -6.611   4.723  12.678  1.00  0.00     0.036 C 
BRANCH  26  27
HETATM   27  C4  UNL     1      -7.404   4.374  13.952  1.00  0.00     0.146 C 
BRANCH  27  28
HETATM   28  C2  UNL     1      -7.774   5.602  14.775  1.00  0.00    -0.065 C 
HETATM   29  C1  UNL     1      -8.686   6.520  14.405  1.00  0.00     0.016 C 
HETATM   30  C3  UNL     1      -7.093   5.726  16.116  1.00  0.00     0.045 C 
ENDBRANCH  27  28
BRANCH  27  31
HETATM   31  O1  UNL     1      -8.582   3.659  13.577  1.00  0.00    -0.391 OA
HETATM   32  H7  UNL     1      -9.088   4.241  12.983  1.00  0.00     0.210 HD
ENDBRANCH  27  31
ENDBRANCH  26  27
ENDBRANCH  25  26
ENDBRANCH  23  25
ENDBRANCH   1  23
BRANCH   4  33
HETATM   33  C13 UNL     1       0.082   3.869  11.767  1.00  0.00     0.149 C 
HETATM   34  O2  UNL     1      -0.120   2.755  12.219  1.00  0.00    -0.649 OA
BRANCH  33  35
HETATM   35  O3  UNL     1       1.263   4.105  11.157  1.00  0.00    -0.776 OA
HETATM   36  H21 UNL     1       1.729   3.243  11.208  1.00  0.00     0.167 HD
ENDBRANCH  33  35
ENDBRANCH   4  33
TORSDOF 8
ENDMDL
MODEL 5
REMARK minimizedAffinity -8.27782154
REMARK CNNscore 0.309824616
REMARK CNNaffinity 6.371737
REMARK  8 active torsions:
REMARK  status: ('A' for Active; 'I' for Inactive)
REMARK    1  A    between atoms: C2_2  and  C4_4 
REMARK    2  A    between atoms: C4_4  and  O1_5 
REMARK    3  A    between atoms: C4_4  and  C5_6 
REMARK    4  A    between atoms: C5_6  and  C6_7 
REMARK    5  A    between atoms: C6_7  and  C7_8 
REMARK    6  A    between atoms: C7_8  and  C9_10 
REMARK    7  A    between atoms: C12_13  and  C13_14 
REMARK    8  A    between atoms: C13_14  and  O3_16 
ROOT
HETATM    1  C9  UNL     1      -0.422   6.014  13.647  1.00  0.00    -0.001 C 
HETATM    2  C10 UNL     1       0.816   6.723  13.020  1.00  0.00     0.007 C 
HETATM    3  C11 UNL     1       0.810   8.186  13.495  1.00  0.00     0.022 C 
HETATM    4  C12 UNL     1      -0.224   8.219  14.641  1.00  0.00     0.057 C 
HETATM    5  C14 UNL     1      -0.869   9.605  14.895  1.00  0.00     0.014 C 
HETATM    6  C15 UNL     1       0.065  10.657  15.507  1.00  0.00     0.007 C 
HETATM    7  C16 UNL     1      -0.653  12.004  15.599  1.00  0.00     0.007 C 
HETATM    8  C17 UNL     1      -1.760  11.935  16.660  1.00  0.00     0.010 C 
HETATM    9  C18 UNL     1      -2.577  13.252  16.854  1.00  0.00     0.018 C 
HETATM   10  C19 UNL     1      -1.661  14.384  17.354  1.00  0.00     0.023 C 
HETATM   11  C20 UNL     1      -3.299  13.724  15.582  1.00  0.00     0.023 C 
HETATM   12  C21 UNL     1      -3.649  13.018  17.931  1.00  0.00     0.135 C 
HETATM   13  O4  UNL     1      -4.467  13.889  18.232  1.00  0.00    -0.297 OA
HETATM   14  C22 UNL     1      -3.624  11.702  18.670  1.00  0.00     0.080 C 
HETATM   15  C23 UNL     1      -3.601  10.520  17.710  1.00  0.00     0.018 C 
HETATM   16  C24 UNL     1      -2.694  10.731  16.495  1.00  0.00    -0.026 A 
HETATM   17  C25 UNL     1      -3.309  10.405  15.153  1.00  0.00     0.021 A 
HETATM   18  C26 UNL     1      -2.206   9.506  15.667  1.00  0.00    -0.027 A 
HETATM   19  C27 UNL     1      -2.598   8.117  16.159  1.00  0.00     0.011 C 
HETATM   20  C28 UNL     1      -2.379   6.959  15.168  1.00  0.00     0.012 C 
HETATM   21  C29 UNL     1      -1.314   7.224  14.085  1.00  0.00    -0.022 C 
HETATM   22  C30 UNL     1      -2.073   7.767  12.831  1.00  0.00     0.017 C 
ENDROOT
BRANCH   1  23
HETATM   23  C7  UNL     1      -1.001   4.909  12.708  1.00  0.00    -0.014 C 
HETATM   24  C8  UNL     1      -0.677   5.173  11.235  1.00  0.00     0.010 C 
BRANCH  23  25
HETATM   25  C6  UNL     1      -2.538   4.783  12.908  1.00  0.00     0.007 C 
BRANCH  25  26
HETATM   26  C5  UNL     1      -3.289   4.132  11.731  1.00  0.00     0.036 C 
BRANCH  26  27
HETATM   27  C4  UNL     1      -3.843   2.726  12.034  1.00  0.00     0.146 C 
BRANCH  27  28
HETATM   28  C2  UNL     1      -5.350   2.625  11.825  1.00  0.00    -0.065 C 
HETATM   29  C1  UNL     1      -6.219   3.625  12.059  1.00  0.00     0.016 C 
HETATM   30  C3  UNL     1      -5.849   1.319  11.259  1.00  0.00     0.045 C 
ENDBRANCH  27  28
BRANCH  27  31
HETATM   31  O1  UNL     1      -3.167   1.779  11.208  1.00  0.00    -0.391 OA
HETATM   32  H7  UNL     1      -3.330   2.042  10.285  1.00  0.00     0.210 HD
ENDBRANCH  27  31
ENDBRANCH  26  27
ENDBRANCH  25  26
ENDBRANCH  23  25
ENDBRANCH   1  23
BRANCH   4  33
HETATM   33  C13 UNL     1       0.496   7.701  15.915  1.00  0.00     0.149 C 
HETATM   34  O2  UNL     1       1.343   8.270  16.583  1.00  0.00    -0.649 OA
BRANCH  33  35
HETATM   35  O3  UNL     1       0.104   6.468  16.298  1.00  0.00    -0.776 OA
HETATM   36  H21 UNL     1       0.628   6.297  17.111  1.00  0.00     0.167 HD
ENDBRANCH  33  35
ENDBRANCH   4  33
TORSDOF 8
ENDMDL
MODEL 6
REMARK minimizedAffinity -6.50259733
REMARK CNNscore 0.28489393
REMARK CNNaffinity 5.49485397
REMARK  8 active torsions:
REMARK  status: ('A' for Active; 'I' for Inactive)
REMARK    1  A    between atoms: C2_2  and  C4_4 
REMARK    2  A    between atoms: C4_4  and  O1_5 
REMARK    3  A    between atoms: C4_4  and  C5_6 
REMARK    4  A    between atoms: C5_6  and  C6_7 
REMARK    5  A    between atoms: C6_7  and  C7_8 
REMARK    6  A    between atoms: C7_8  and  C9_10 
REMARK    7  A    between atoms: C12_13  and  C13_14 
REMARK    8  A    between atoms: C13_14  and  O3_16 
ROOT
HETATM    1  C9  UNL     1     -10.768  -6.452  -4.544  1.00  0.00    -0.001 C 
HETATM    2  C10 UNL     1     -12.077  -7.182  -4.116  1.00  0.00     0.007 C 
HETATM    3  C11 UNL     1     -11.677  -8.452  -3.348  1.00  0.00     0.022 C 
HETATM    4  C12 UNL     1     -10.172  -8.272  -3.053  1.00  0.00     0.057 C 
HETATM    5  C14 UNL     1      -9.387  -9.591  -2.844  1.00  0.00     0.014 C 
HETATM    6  C15 UNL     1      -9.704 -10.339  -1.543  1.00  0.00     0.007 C 
HETATM    7  C16 UNL     1      -8.956 -11.674  -1.511  1.00  0.00     0.007 C 
HETATM    8  C17 UNL     1      -7.451 -11.425  -1.352  1.00  0.00     0.010 C 
HETATM    9  C18 UNL     1      -6.567 -12.712  -1.308  1.00  0.00     0.018 C 
HETATM   10  C19 UNL     1      -6.927 -13.570  -0.081  1.00  0.00     0.023 C 
HETATM   11  C20 UNL     1      -6.676 -13.581  -2.570  1.00  0.00     0.023 C 
HETATM   12  C21 UNL     1      -5.092 -12.297  -1.162  1.00  0.00     0.135 C 
HETATM   13  O4  UNL     1      -4.183 -13.129  -1.160  1.00  0.00    -0.297 OA
HETATM   14  C22 UNL     1      -4.794 -10.834  -0.945  1.00  0.00     0.080 C 
HETATM   15  C23 UNL     1      -5.466  -9.963  -1.999  1.00  0.00     0.018 C 
HETATM   16  C24 UNL     1      -6.887 -10.408  -2.351  1.00  0.00    -0.026 A 
HETATM   17  C25 UNL     1      -7.191 -10.524  -3.828  1.00  0.00     0.021 A 
HETATM   18  C26 UNL     1      -7.863  -9.416  -3.047  1.00  0.00    -0.027 A 
HETATM   19  C27 UNL     1      -7.376  -7.989  -3.282  1.00  0.00     0.011 C 
HETATM   20  C28 UNL     1      -8.222  -7.132  -4.239  1.00  0.00     0.012 C 
HETATM   21  C29 UNL     1      -9.691  -7.577  -4.385  1.00  0.00    -0.022 C 
HETATM   22  C30 UNL     1      -9.755  -8.514  -5.635  1.00  0.00     0.017 C 
ENDROOT
BRANCH   1  23
HETATM   23  C7  UNL     1     -10.932  -5.707  -5.906  1.00  0.00    -0.014 C 
HETATM   24  C8  UNL     1     -11.041  -6.677  -7.086  1.00  0.00     0.010 C 
BRANCH  23  25
HETATM   25  C6  UNL     1      -9.751  -4.721  -6.127  1.00  0.00     0.007 C 
BRANCH  25  26
HETATM   26  C5  UNL     1      -9.489  -3.756  -4.955  1.00  0.00     0.036 C 
BRANCH  26  27
HETATM   27  C4  UNL     1      -8.658  -2.514  -5.331  1.00  0.00     0.146 C 
BRANCH  27  28
HETATM   28  C2  UNL     1      -9.477  -1.228  -5.326  1.00  0.00    -0.065 C 
HETATM   29  C1  UNL     1      -9.127  -0.101  -5.972  1.00  0.00     0.016 C 
HETATM   30  C3  UNL     1     -10.789  -1.287  -4.584  1.00  0.00     0.045 C 
ENDBRANCH  27  28
BRANCH  27  31
HETATM   31  O1  UNL     1      -7.563  -2.404  -4.421  1.00  0.00    -0.391 OA
HETATM   32  H7  UNL     1      -7.944  -2.329  -3.529  1.00  0.00     0.210 HD
ENDBRANCH  27  31
ENDBRANCH  26  27
ENDBRANCH  25  26
ENDBRANCH  23  25
ENDBRANCH   1  23
BRANCH   4  33
HETATM   33  C13 UNL     1     -10.062  -7.357  -1.803  1.00  0.00     0.149 C 
HETATM   34  O2  UNL     1     -10.836  -7.272  -0.864  1.00  0.00    -0.649 OA
BRANCH  33  35
HETATM   35  O3  UNL     1      -8.959  -6.580  -1.792  1.00  0.00    -0.776 OA
HETATM   36  H21 UNL     1      -9.029  -6.087  -0.946  1.00  0.00     0.167 HD
ENDBRANCH  33  35
ENDBRANCH   4  33
TORSDOF 8
ENDMDL
MODEL 7
REMARK minimizedAffinity -8.32700348
REMARK CNNscore 0.259913743
REMARK CNNaffinity 6.64960432
REMARK  8 active torsions:
REMARK  status: ('A' for Active; 'I' for Inactive)
REMARK    1  A    between atoms: C2_2  and  C4_4 
REMARK    2  A    between atoms: C4_4  and  O1_5 
REMARK    3  A    between atoms: C4_4  and  C5_6 
REMARK    4  A    between atoms: C5_6  and  C6_7 
REMARK    5  A    between atoms: C6_7  and  C7_8 
REMARK    6  A    between atoms: C7_8  and  C9_10 
REMARK    7  A    between atoms: C12_13  and  C13_14 
REMARK    8  A    between atoms: C13_14  and  O3_16 
ROOT
HETATM    1  C9  UNL     1       3.497   7.956  13.353  1.00  0.00    -0.001 C 
HETATM    2  C10 UNL     1       3.466   9.331  14.089  1.00  0.00     0.007 C 
HETATM    3  C11 UNL     1       2.017   9.592  14.534  1.00  0.00     0.022 C 
HETATM    4  C12 UNL     1       1.302   8.235  14.351  1.00  0.00     0.057 C 
HETATM    5  C14 UNL     1      -0.230   8.331  14.141  1.00  0.00     0.014 C 
HETATM    6  C15 UNL     1      -1.032   8.755  15.377  1.00  0.00     0.007 C 
HETATM    7  C16 UNL     1      -2.508   8.924  15.011  1.00  0.00     0.007 C 
HETATM    8  C17 UNL     1      -3.130   7.555  14.707  1.00  0.00     0.010 C 
HETATM    9  C18 UNL     1      -4.642   7.586  14.315  1.00  0.00     0.018 C 
HETATM   10  C19 UNL     1      -5.490   8.123  15.484  1.00  0.00     0.023 C 
HETATM   11  C20 UNL     1      -4.939   8.424  13.062  1.00  0.00     0.023 C 
HETATM   12  C21 UNL     1      -5.111   6.150  14.029  1.00  0.00     0.135 C 
HETATM   13  O4  UNL     1      -6.256   5.907  13.642  1.00  0.00    -0.297 OA
HETATM   14  C22 UNL     1      -4.141   5.027  14.308  1.00  0.00     0.080 C 
HETATM   15  C23 UNL     1      -2.797   5.269  13.635  1.00  0.00     0.018 C 
HETATM   16  C24 UNL     1      -2.323   6.722  13.707  1.00  0.00    -0.026 A 
HETATM   17  C25 UNL     1      -1.849   7.322  12.403  1.00  0.00     0.021 A 
HETATM   18  C26 UNL     1      -0.821   7.062  13.482  1.00  0.00    -0.027 A 
HETATM   19  C27 UNL     1       0.146   5.901  13.272  1.00  0.00     0.011 C 
HETATM   20  C28 UNL     1       1.544   6.269  12.744  1.00  0.00     0.012 C 
HETATM   21  C29 UNL     1       1.985   7.719  13.025  1.00  0.00    -0.022 C 
HETATM   22  C30 UNL     1       1.607   8.557  11.761  1.00  0.00     0.017 C 
ENDROOT
BRANCH   1  23
HETATM   23  C7  UNL     1       4.563   7.929  12.212  1.00  0.00    -0.014 C 
HETATM   24  C8  UNL     1       4.536   9.203  11.364  1.00  0.00     0.010 C 
BRANCH  23  25
HETATM   25  C6  UNL     1       4.355   6.678  11.311  1.00  0.00     0.007 C 
BRANCH  25  26
HETATM   26  C5  UNL     1       4.109   6.990   9.823  1.00  0.00     0.036 C 
BRANCH  26  27
HETATM   27  C4  UNL     1       2.887   6.271   9.219  1.00  0.00     0.146 C 
BRANCH  27  28
HETATM   28  C2  UNL     1       2.369   6.945   7.953  1.00  0.00    -0.065 C 
HETATM   29  C1  UNL     1       2.291   6.347   6.751  1.00  0.00     0.016 C 
HETATM   30  C3  UNL     1       1.865   8.357   8.119  1.00  0.00     0.045 C 
ENDBRANCH  27  28
BRANCH  27  31
HETATM   31  O1  UNL     1       3.241   4.916   8.946  1.00  0.00    -0.391 OA
HETATM   32  H7  UNL     1       3.990   4.940   8.326  1.00  0.00     0.210 HD
ENDBRANCH  27  31
ENDBRANCH  26  27
ENDBRANCH  25  26
ENDBRANCH  23  25
ENDBRANCH   1  23
BRANCH   4  33
HETATM   33  C13 UNL     1       1.639   7.374  15.597  1.00  0.00     0.149 C 
HETATM   34  O2  UNL     1       2.735   6.999  15.977  1.00  0.00    -0.649 OA
BRANCH  33  35
HETATM   35  O3  UNL     1       0.557   7.021  16.323  1.00  0.00    -0.776 OA
HETATM   36  H21 UNL     1       0.934   6.506  17.069  1.00  0.00     0.167 HD
ENDBRANCH  33  35
ENDBRANCH   4  33
TORSDOF 8
ENDMDL
MODEL 8
REMARK minimizedAffinity -6.6576705
REMARK CNNscore 0.257502049
REMARK CNNaffinity 5.76410818
REMARK  8 active torsions:
REMARK  status: ('A' for Active; 'I' for Inactive)
REMARK    1  A    between atoms: C2_2  and  C4_4 
REMARK    2  A    between atoms: C4_4  and  O1_5 
REMARK    3  A    between atoms: C4_4  and  C5_6 
REMARK    4  A    between atoms: C5_6  and  C6_7 
REMARK    5  A    between atoms: C6_7  and  C7_8 
REMARK    6  A    between atoms: C7_8  and  C9_10 
REMARK    7  A    between atoms: C12_13  and  C13_14 
REMARK    8  A    between atoms: C13_14  and  O3_16 
ROOT
HETATM    1  C9  UNL     1       5.219  12.384  21.363  1.00  0.00    -0.001 C 
HETATM    2  C10 UNL     1       4.276  12.438  22.604  1.00  0.00     0.007 C 
HETATM    3  C11 UNL     1       2.832  12.267  22.103  1.00  0.00     0.022 C 
HETATM    4  C12 UNL     1       2.980  11.787  20.642  1.00  0.00     0.057 C 
HETATM    5  C14 UNL     1       1.770  12.104  19.728  1.00  0.00     0.014 C 
HETATM    6  C15 UNL     1       0.501  11.295  20.021  1.00  0.00     0.007 C 
HETATM    7  C16 UNL     1      -0.647  11.780  19.134  1.00  0.00     0.007 C 
HETATM    8  C17 UNL     1      -0.378  11.392  17.674  1.00  0.00     0.010 C 
HETATM    9  C18 UNL     1      -1.478  11.833  16.657  1.00  0.00     0.018 C 
HETATM   10  C19 UNL     1      -2.816  11.141  16.979  1.00  0.00     0.023 C 
HETATM   11  C20 UNL     1      -1.705  13.352  16.610  1.00  0.00     0.023 C 
HETATM   12  C21 UNL     1      -1.058  11.388  15.246  1.00  0.00     0.135 C 
HETATM   13  O4  UNL     1      -1.731  11.665  14.252  1.00  0.00    -0.297 OA
HETATM   14  C22 UNL     1       0.177  10.528  15.121  1.00  0.00     0.080 C 
HETATM   15  C23 UNL     1       1.368  11.153  15.835  1.00  0.00     0.018 C 
HETATM   16  C24 UNL     1       1.016  11.792  17.180  1.00  0.00    -0.026 A 
HETATM   17  C25 UNL     1       1.544  13.192  17.398  1.00  0.00     0.021 A 
HETATM   18  C26 UNL     1       2.135  12.071  18.225  1.00  0.00    -0.027 A 
HETATM   19  C27 UNL     1       3.551  11.615  17.886  1.00  0.00     0.011 C 
HETATM   20  C28 UNL     1       4.676  12.176  18.776  1.00  0.00     0.012 C 
HETATM   21  C29 UNL     1       4.228  12.634  20.178  1.00  0.00    -0.022 C 
HETATM   22  C30 UNL     1       3.940  14.167  20.080  1.00  0.00     0.017 C 
ENDROOT
BRANCH   1  23
HETATM   23  C7  UNL     1       6.475  13.294  21.544  1.00  0.00    -0.014 C 
HETATM   24  C8  UNL     1       7.725  12.691  20.898  1.00  0.00     0.010 C 
BRANCH  23  25
HETATM   25  C6  UNL     1       6.729  13.568  23.054  1.00  0.00     0.007 C 
BRANCH  25  26
HETATM   26  C5  UNL     1       8.166  14.002  23.397  1.00  0.00     0.036 C 
BRANCH  26  27
HETATM   27  C4  UNL     1       8.429  15.511  23.229  1.00  0.00     0.146 C 
BRANCH  27  28
HETATM   28  C2  UNL     1       8.247  16.293  24.525  1.00  0.00    -0.065 C 
HETATM   29  C1  UNL     1       9.233  16.548  25.404  1.00  0.00     0.016 C 
HETATM   30  C3  UNL     1       6.866  16.849  24.768  1.00  0.00     0.045 C 
ENDBRANCH  27  28
BRANCH  27  31
HETATM   31  O1  UNL     1       9.753  15.692  22.727  1.00  0.00    -0.391 OA
HETATM   32  H7  UNL     1      10.358  15.288  23.374  1.00  0.00     0.210 HD
ENDBRANCH  27  31
ENDBRANCH  26  27
ENDBRANCH  25  26
ENDBRANCH  23  25
ENDBRANCH   1  23
BRANCH   4  33
HETATM   33  C13 UNL     1       3.252  10.260  20.693  1.00  0.00     0.149 C 
HETATM   34  O2  UNL     1       4.061   9.664  21.384  1.00  0.00    -0.649 OA
BRANCH  33  35
HETATM   35  O3  UNL     1       2.474   9.540  19.858  1.00  0.00    -0.776 OA
HETATM   36  H21 UNL     1       2.752   8.613  20.020  1.00  0.00     0.167 HD
ENDBRANCH  33  35
ENDBRANCH   4  33
TORSDOF 8
ENDMDL
MODEL 9
REMARK minimizedAffinity -7.05943394
REMARK CNNscore 0.252137393
REMARK CNNaffinity 5.58406258
REMARK  8 active torsions:
REMARK  status: ('A' for Active; 'I' for Inactive)
REMARK    1  A    between atoms: C2_2  and  C4_4 
REMARK    2  A    between atoms: C4_4  and  O1_5 
REMARK    3  A    between atoms: C4_4  and  C5_6 
REMARK    4  A    between atoms: C5_6  and  C6_7 
REMARK    5  A    between atoms: C6_7  and  C7_8 
REMARK    6  A    between atoms: C7_8  and  C9_10 
REMARK    7  A    between atoms: C12_13  and  C13_14 
REMARK    8  A    between atoms: C13_14  and  O3_16 
ROOT
HETATM    1  C9  UNL     1       4.530  11.882  22.071  1.00  0.00    -0.001 C 
HETATM    2  C10 UNL     1       3.889  10.588  22.659  1.00  0.00     0.007 C 
HETATM    3  C11 UNL     1       2.506  10.412  22.009  1.00  0.00     0.022 C 
HETATM    4  C12 UNL     1       2.503  11.403  20.825  1.00  0.00     0.057 C 
HETATM    5  C14 UNL     1       1.097  11.878  20.378  1.00  0.00     0.014 C 
HETATM    6  C15 UNL     1       0.241  10.812  19.681  1.00  0.00     0.007 C 
HETATM    7  C16 UNL     1      -1.156  11.368  19.396  1.00  0.00     0.007 C 
HETATM    8  C17 UNL     1      -1.076  12.445  18.306  1.00  0.00     0.010 C 
HETATM    9  C18 UNL     1      -2.441  13.099  17.920  1.00  0.00     0.018 C 
HETATM   10  C19 UNL     1      -3.393  12.046  17.323  1.00  0.00     0.023 C 
HETATM   11  C20 UNL     1      -3.147  13.797  19.093  1.00  0.00     0.023 C 
HETATM   12  C21 UNL     1      -2.194  14.162  16.835  1.00  0.00     0.135 C 
HETATM   13  O4  UNL     1      -3.106  14.865  16.397  1.00  0.00    -0.297 OA
HETATM   14  C22 UNL     1      -0.801  14.268  16.263  1.00  0.00     0.080 C 
HETATM   15  C23 UNL     1       0.246  14.407  17.361  1.00  0.00     0.018 C 
HETATM   16  C24 UNL     1      -0.014  13.516  18.577  1.00  0.00    -0.026 A 
HETATM   17  C25 UNL     1       0.070  14.201  19.923  1.00  0.00     0.021 A 
HETATM   18  C26 UNL     1       1.143  13.195  19.568  1.00  0.00    -0.027 A 
HETATM   19  C27 UNL     1       2.532  13.731  19.234  1.00  0.00     0.011 C 
HETATM   20  C28 UNL     1       3.572  13.674  20.367  1.00  0.00     0.012 C 
HETATM   21  C29 UNL     1       3.293  12.616  21.453  1.00  0.00    -0.022 C 
HETATM   22  C30 UNL     1       2.515  13.341  22.599  1.00  0.00     0.017 C 
ENDROOT
BRANCH   1  23
HETATM   23  C7  UNL     1       5.437  12.610  23.113  1.00  0.00    -0.014 C 
HETATM   24  C8  UNL     1       5.584  14.103  22.809  1.00  0.00     0.010 C 
BRANCH  23  25
HETATM   25  C6  UNL     1       6.835  11.932  23.176  1.00  0.00     0.007 C 
BRANCH  25  26
HETATM   26  C5  UNL     1       8.013  12.852  22.804  1.00  0.00     0.036 C 
BRANCH  26  27
HETATM   27  C4  UNL     1       9.020  12.224  21.820  1.00  0.00     0.146 C 
BRANCH  27  28
HETATM   28  C2  UNL     1       8.514  12.212  20.381  1.00  0.00    -0.065 C 
HETATM   29  C1  UNL     1       7.485  12.952  19.931  1.00  0.00     0.016 C 
HETATM   30  C3  UNL     1       9.286  11.342  19.420  1.00  0.00     0.045 C 
ENDBRANCH  27  28
BRANCH  27  31
HETATM   31  O1  UNL     1      10.250  12.943  21.902  1.00  0.00    -0.391 OA
HETATM   32  H7  UNL     1      10.052  13.869  21.677  1.00  0.00     0.210 HD
ENDBRANCH  27  31
ENDBRANCH  26  27
ENDBRANCH  25  26
ENDBRANCH  23  25
ENDBRANCH   1  23
BRANCH   4  33
HETATM   33  C13 UNL     1       3.254  10.714  19.655  1.00  0.00     0.149 C 
HETATM   34  O2  UNL     1       2.796   9.972  18.802  1.00  0.00    -0.649 OA
BRANCH  33  35
HETATM   35  O3  UNL     1       4.572  10.999  19.610  1.00  0.00    -0.776 OA
HETATM   36  H21 UNL     1       4.891  10.511  18.820  1.00  0.00     0.167 HD
ENDBRANCH  33  35
ENDBRANCH   4  33
TORSDOF 8
ENDMDL
