MODEL 1
REMARK minimizedAffinity -8.42896461
REMARK  13 active torsions:
REMARK  status: ('A' for Active; 'I' for Inactive)
REMARK    1  A    between atoms: C4_4  and  C5_5 
REMARK    2  A    between atoms: C5_5  and  C6_6 
REMARK    3  A    between atoms: C6_6  and  C7_7 
REMARK    4  A    between atoms: C9_9  and  C10_10 
REMARK    5  A    between atoms: C11_11  and  C12_12 
REMARK    6  A    between atoms: C14_14  and  C15_15 
REMARK    7  A    between atoms: C18_18  and  O1_19 
REMARK    8  A    between atoms: C19_21  and  C20_22 
REMARK    9  A    between atoms: C20_22  and  C21_23 
REMARK   10  A    between atoms: C21_23  and  C22_24 
REMARK   11  A    between atoms: C22_24  and  O3_25 
REMARK   12  A    between atoms: C24_27  and  C26_29 
REMARK   13  A    between atoms: C29_33  and  O5_35 
ROOT
HETATM    1  C15 UNL     1      -7.425  46.816 -27.422  1.00  0.00     0.149 C 
HETATM    2  C16 UNL     1      -6.837  46.319 -28.746  1.00  0.00     0.054 C 
HETATM    3  C17 UNL     1      -7.909  46.650 -29.820  1.00  0.00     0.050 C 
HETATM    4  C18 UNL     1      -8.528  47.893 -29.156  1.00  0.00     0.270 C 
HETATM    5  O2  UNL     1      -8.545  47.649 -27.750  1.00  0.00    -0.351 OA
HETATM    6  C19 UNL     1      -7.188  46.959 -31.200  1.00  0.00     0.032 C 
HETATM    7  C23 UNL     1      -6.560  45.658 -31.745  1.00  0.00    -0.066 C 
HETATM    8  C24 UNL     1      -5.251  45.510 -32.066  1.00  0.00    -0.021 C 
HETATM    9  C25 UNL     1      -4.627  44.231 -32.547  1.00  0.00     0.052 C 
HETATM   10  C27 UNL     1      -7.571  44.544 -31.924  1.00  0.00     0.038 C 
HETATM   11  C28 UNL     1      -8.313  44.233 -30.631  1.00  0.00     0.042 C 
HETATM   12  C29 UNL     1      -8.958  45.475 -29.973  1.00  0.00     0.067 C 
HETATM   13  C30 UNL     1      -9.659  45.002 -28.688  1.00  0.00     0.047 C 
ENDROOT
BRANCH   4  14
HETATM   14  O1  UNL     1      -7.718  49.045 -29.317  1.00  0.00    -0.370 OA
HETATM   15  H26 UNL     1      -8.192  49.737 -28.823  1.00  0.00     0.212 HD
ENDBRANCH   4  14
BRANCH   6  16
HETATM   16  C20 UNL     1      -8.001  47.599 -32.359  1.00  0.00     0.012 C 
BRANCH  16  17
HETATM   17  C21 UNL     1      -8.254  46.756 -33.614  1.00  0.00     0.027 C 
BRANCH  17  18
HETATM   18  C22 UNL     1      -7.706  47.340 -34.913  1.00  0.00     0.164 C 
BRANCH  18  19
HETATM   19  O3  UNL     1      -6.399  47.864 -34.722  1.00  0.00    -0.401 OA
HETATM   20  H34 UNL     1      -6.517  48.789 -34.408  1.00  0.00     0.209 HD
ENDBRANCH  18  19
ENDBRANCH  17  18
ENDBRANCH  16  17
ENDBRANCH   6  16
BRANCH  12  21
HETATM   21  O5  UNL     1     -10.020  45.930 -30.826  1.00  0.00    -0.389 OA
HETATM   22  H46 UNL     1     -10.667  45.210 -30.933  1.00  0.00     0.210 HD
ENDBRANCH  12  21
BRANCH   1  23
HETATM   23  C14 UNL     1      -6.454  47.621 -26.602  1.00  0.00     0.011 C 
HETATM   24  C12 UNL     1      -5.265  48.145 -26.971  1.00  0.00    -0.063 C 
HETATM   25  C13 UNL     1      -4.662  47.996 -28.345  1.00  0.00     0.048 C 
BRANCH  24  26
HETATM   26  C11 UNL     1      -4.509  48.918 -25.980  1.00  0.00     0.006 C 
HETATM   27  C10 UNL     1      -3.311  48.596 -25.464  1.00  0.00     0.001 C 
BRANCH  27  28
HETATM   28  C9  UNL     1      -2.609  49.448 -24.527  1.00  0.00     0.002 C 
HETATM   29  C7  UNL     1      -1.734  50.427 -24.832  1.00  0.00    -0.084 C 
HETATM   30  C8  UNL     1      -1.240  50.741 -26.220  1.00  0.00     0.043 C 
BRANCH  29  31
HETATM   31  C6  UNL     1      -1.147  51.293 -23.726  1.00  0.00     0.037 C 
BRANCH  31  32
HETATM   32  C5  UNL     1       0.168  52.002 -24.099  1.00  0.00     0.031 C 
BRANCH  32  33
HETATM   33  C4  UNL     1       0.585  53.047 -23.096  1.00  0.00    -0.024 C 
HETATM   34  C2  UNL     1       0.751  52.916 -21.764  1.00  0.00    -0.091 C 
HETATM   35  C1  UNL     1       0.546  51.653 -20.975  1.00  0.00     0.042 C 
HETATM   36  C3  UNL     1       1.187  54.096 -20.933  1.00  0.00     0.042 C 
ENDBRANCH  32  33
ENDBRANCH  31  32
ENDBRANCH  29  31
ENDBRANCH  27  28
ENDBRANCH  24  26
ENDBRANCH   1  23
BRANCH   8  37
HETATM   37  C26 UNL     1      -4.291  46.653 -32.013  1.00  0.00     0.265 C 
HETATM   38  O4  UNL     1      -4.587  47.797 -32.336  1.00  0.00    -0.302 OA
ENDBRANCH   8  37
TORSDOF 13
ENDMDL
MODEL 2
REMARK minimizedAffinity -8.42546844
REMARK  13 active torsions:
REMARK  status: ('A' for Active; 'I' for Inactive)
REMARK    1  A    between atoms: C4_4  and  C5_5 
REMARK    2  A    between atoms: C5_5  and  C6_6 
REMARK    3  A    between atoms: C6_6  and  C7_7 
REMARK    4  A    between atoms: C9_9  and  C10_10 
REMARK    5  A    between atoms: C11_11  and  C12_12 
REMARK    6  A    between atoms: C14_14  and  C15_15 
REMARK    7  A    between atoms: C18_18  and  O1_19 
REMARK    8  A    between atoms: C19_21  and  C20_22 
REMARK    9  A    between atoms: C20_22  and  C21_23 
REMARK   10  A    between atoms: C21_23  and  C22_24 
REMARK   11  A    between atoms: C22_24  and  O3_25 
REMARK   12  A    between atoms: C24_27  and  C26_29 
REMARK   13  A    between atoms: C29_33  and  O5_35 
ROOT
HETATM    1  C15 UNL     1      -7.487  47.069 -27.022  1.00  0.00     0.149 C 
HETATM    2  C16 UNL     1      -7.286  46.244 -28.296  1.00  0.00     0.054 C 
HETATM    3  C17 UNL     1      -8.460  46.642 -29.232  1.00  0.00     0.050 C 
HETATM    4  C18 UNL     1      -8.672  48.085 -28.739  1.00  0.00     0.270 C 
HETATM    5  O2  UNL     1      -8.459  48.079 -27.328  1.00  0.00    -0.351 OA
HETATM    6  C19 UNL     1      -7.979  46.550 -30.742  1.00  0.00     0.032 C 
HETATM    7  C23 UNL     1      -7.748  45.069 -31.109  1.00  0.00    -0.066 C 
HETATM    8  C24 UNL     1      -6.587  44.568 -31.597  1.00  0.00    -0.021 C 
HETATM    9  C25 UNL     1      -6.341  43.119 -31.906  1.00  0.00     0.052 C 
HETATM   10  C27 UNL     1      -8.978  44.210 -30.901  1.00  0.00     0.038 C 
HETATM   11  C28 UNL     1      -9.496  44.290 -29.471  1.00  0.00     0.042 C 
HETATM   12  C29 UNL     1      -9.734  45.738 -28.980  1.00  0.00     0.067 C 
HETATM   13  C30 UNL     1     -10.247  45.652 -27.532  1.00  0.00     0.047 C 
ENDROOT
BRANCH   4  14
HETATM   14  O1  UNL     1      -7.694  48.974 -29.252  1.00  0.00    -0.370 OA
HETATM   15  H26 UNL     1      -7.911  49.828 -28.838  1.00  0.00     0.212 HD
ENDBRANCH   4  14
BRANCH   6  16
HETATM   16  C20 UNL     1      -8.860  47.170 -31.862  1.00  0.00     0.012 C 
BRANCH  16  17
HETATM   17  C21 UNL     1      -8.167  47.995 -32.952  1.00  0.00     0.027 C 
BRANCH  17  18
HETATM   18  C22 UNL     1      -7.855  47.239 -34.241  1.00  0.00     0.164 C 
BRANCH  18  19
HETATM   19  O3  UNL     1      -6.665  47.731 -34.842  1.00  0.00    -0.401 OA
HETATM   20  H34 UNL     1      -6.935  48.491 -35.405  1.00  0.00     0.209 HD
ENDBRANCH  18  19
ENDBRANCH  17  18
ENDBRANCH  16  17
ENDBRANCH   6  16
BRANCH  12  21
HETATM   21  O5  UNL     1     -10.830  46.287 -29.728  1.00  0.00    -0.389 OA
HETATM   22  H46 UNL     1     -11.617  45.731 -29.586  1.00  0.00     0.210 HD
ENDBRANCH  12  21
BRANCH   1  23
HETATM   23  C14 UNL     1      -6.231  47.744 -26.543  1.00  0.00     0.011 C 
HETATM   24  C12 UNL     1      -5.130  48.084 -27.247  1.00  0.00    -0.063 C 
HETATM   25  C13 UNL     1      -4.952  47.821 -28.722  1.00  0.00     0.048 C 
BRANCH  24  26
HETATM   26  C11 UNL     1      -4.036  48.761 -26.544  1.00  0.00     0.006 C 
HETATM   27  C10 UNL     1      -3.893  48.872 -25.212  1.00  0.00     0.001 C 
BRANCH  27  28
HETATM   28  C9  UNL     1      -2.750  49.515 -24.600  1.00  0.00     0.002 C 
HETATM   29  C7  UNL     1      -2.544  50.841 -24.480  1.00  0.00    -0.084 C 
HETATM   30  C8  UNL     1      -3.429  51.909 -25.070  1.00  0.00     0.043 C 
BRANCH  29  31
HETATM   31  C6  UNL     1      -1.325  51.356 -23.727  1.00  0.00     0.037 C 
BRANCH  31  32
HETATM   32  C5  UNL     1      -0.625  52.558 -24.389  1.00  0.00     0.031 C 
BRANCH  32  33
HETATM   33  C4  UNL     1       0.734  52.220 -24.948  1.00  0.00    -0.024 C 
HETATM   34  C2  UNL     1       1.037  51.595 -26.104  1.00  0.00    -0.091 C 
HETATM   35  C1  UNL     1       0.044  51.089 -27.114  1.00  0.00     0.042 C 
HETATM   36  C3  UNL     1       2.476  51.360 -26.487  1.00  0.00     0.042 C 
ENDBRANCH  32  33
ENDBRANCH  31  32
ENDBRANCH  29  31
ENDBRANCH  27  28
ENDBRANCH  24  26
ENDBRANCH   1  23
BRANCH   8  37
HETATM   37  C26 UNL     1      -5.424  45.448 -31.925  1.00  0.00     0.265 C 
HETATM   38  O4  UNL     1      -4.311  45.019 -32.201  1.00  0.00    -0.302 OA
ENDBRANCH   8  37
TORSDOF 13
ENDMDL
MODEL 3
REMARK minimizedAffinity -8.33101845
REMARK  13 active torsions:
REMARK  status: ('A' for Active; 'I' for Inactive)
REMARK    1  A    between atoms: C4_4  and  C5_5 
REMARK    2  A    between atoms: C5_5  and  C6_6 
REMARK    3  A    between atoms: C6_6  and  C7_7 
REMARK    4  A    between atoms: C9_9  and  C10_10 
REMARK    5  A    between atoms: C11_11  and  C12_12 
REMARK    6  A    between atoms: C14_14  and  C15_15 
REMARK    7  A    between atoms: C18_18  and  O1_19 
REMARK    8  A    between atoms: C19_21  and  C20_22 
REMARK    9  A    between atoms: C20_22  and  C21_23 
REMARK   10  A    between atoms: C21_23  and  C22_24 
REMARK   11  A    between atoms: C22_24  and  O3_25 
REMARK   12  A    between atoms: C24_27  and  C26_29 
REMARK   13  A    between atoms: C29_33  and  O5_35 
ROOT
HETATM    1  C15 UNL     1      -2.641  49.732 -25.778  1.00  0.00     0.149 C 
HETATM    2  C16 UNL     1      -2.961  48.955 -24.498  1.00  0.00     0.054 C 
HETATM    3  C17 UNL     1      -3.251  50.039 -23.423  1.00  0.00     0.050 C 
HETATM    4  C18 UNL     1      -3.802  51.141 -24.346  1.00  0.00     0.270 C 
HETATM    5  O2  UNL     1      -3.044  51.090 -25.554  1.00  0.00    -0.351 OA
HETATM    6  C19 UNL     1      -4.320  49.479 -22.392  1.00  0.00     0.032 C 
HETATM    7  C23 UNL     1      -3.677  48.349 -21.560  1.00  0.00    -0.066 C 
HETATM    8  C24 UNL     1      -4.173  47.092 -21.456  1.00  0.00    -0.021 C 
HETATM    9  C25 UNL     1      -3.523  45.975 -20.691  1.00  0.00     0.052 C 
HETATM   10  C27 UNL     1      -2.429  48.792 -20.827  1.00  0.00     0.038 C 
HETATM   11  C28 UNL     1      -1.383  49.367 -21.773  1.00  0.00     0.042 C 
HETATM   12  C29 UNL     1      -1.927  50.492 -22.685  1.00  0.00     0.067 C 
HETATM   13  C30 UNL     1      -0.763  50.961 -23.577  1.00  0.00     0.047 C 
ENDROOT
BRANCH   4  14
HETATM   14  O1  UNL     1      -5.139  50.887 -24.742  1.00  0.00    -0.370 OA
HETATM   15  H26 UNL     1      -5.349  51.621 -25.347  1.00  0.00     0.212 HD
ENDBRANCH   4  14
BRANCH   6  16
HETATM   16  C20 UNL     1      -5.000  50.457 -21.393  1.00  0.00     0.012 C 
BRANCH  16  17
HETATM   17  C21 UNL     1      -6.405  50.110 -20.887  1.00  0.00     0.027 C 
BRANCH  17  18
HETATM   18  C22 UNL     1      -7.411  49.730 -21.969  1.00  0.00     0.164 C 
BRANCH  18  19
HETATM   19  O3  UNL     1      -7.475  50.729 -22.976  1.00  0.00    -0.401 OA
HETATM   20  H34 UNL     1      -8.130  51.394 -22.663  1.00  0.00     0.209 HD
ENDBRANCH  18  19
ENDBRANCH  17  18
ENDBRANCH  16  17
ENDBRANCH   6  16
BRANCH  12  21
HETATM   21  O5  UNL     1      -2.237  51.624 -21.859  1.00  0.00    -0.389 OA
HETATM   22  H46 UNL     1      -1.429  51.905 -21.394  1.00  0.00     0.210 HD
ENDBRANCH  12  21
BRANCH   1  23
HETATM   23  C14 UNL     1      -3.366  49.212 -26.989  1.00  0.00     0.011 C 
HETATM   24  C12 UNL     1      -4.501  48.480 -27.048  1.00  0.00    -0.063 C 
HETATM   25  C13 UNL     1      -5.278  48.021 -25.840  1.00  0.00     0.048 C 
BRANCH  24  26
HETATM   26  C11 UNL     1      -5.023  48.114 -28.368  1.00  0.00     0.006 C 
HETATM   27  C10 UNL     1      -6.317  47.959 -28.697  1.00  0.00     0.001 C 
BRANCH  27  28
HETATM   28  C9  UNL     1      -6.749  47.646 -30.044  1.00  0.00     0.002 C 
HETATM   29  C7  UNL     1      -7.765  48.224 -30.715  1.00  0.00    -0.084 C 
HETATM   30  C8  UNL     1      -8.717  49.239 -30.135  1.00  0.00     0.043 C 
BRANCH  29  31
HETATM   31  C6  UNL     1      -8.035  47.840 -32.163  1.00  0.00     0.037 C 
BRANCH  31  32
HETATM   32  C5  UNL     1      -7.084  46.769 -32.729  1.00  0.00     0.031 C 
BRANCH  32  33
HETATM   33  C4  UNL     1      -5.837  47.348 -33.347  1.00  0.00    -0.024 C 
HETATM   34  C2  UNL     1      -4.549  47.037 -33.093  1.00  0.00    -0.091 C 
HETATM   35  C1  UNL     1      -4.074  46.008 -32.105  1.00  0.00     0.042 C 
HETATM   36  C3  UNL     1      -3.438  47.734 -33.835  1.00  0.00     0.042 C 
ENDBRANCH  32  33
ENDBRANCH  31  32
ENDBRANCH  29  31
ENDBRANCH  27  28
ENDBRANCH  24  26
ENDBRANCH   1  23
BRANCH   8  37
HETATM   37  C26 UNL     1      -5.477  46.704 -22.075  1.00  0.00     0.265 C 
HETATM   38  O4  UNL     1      -6.018  45.622 -21.883  1.00  0.00    -0.302 OA
ENDBRANCH   8  37
TORSDOF 13
ENDMDL
MODEL 4
REMARK minimizedAffinity -8.17500782
REMARK  13 active torsions:
REMARK  status: ('A' for Active; 'I' for Inactive)
REMARK    1  A    between atoms: C4_4  and  C5_5 
REMARK    2  A    between atoms: C5_5  and  C6_6 
REMARK    3  A    between atoms: C6_6  and  C7_7 
REMARK    4  A    between atoms: C9_9  and  C10_10 
REMARK    5  A    between atoms: C11_11  and  C12_12 
REMARK    6  A    between atoms: C14_14  and  C15_15 
REMARK    7  A    between atoms: C18_18  and  O1_19 
REMARK    8  A    between atoms: C19_21  and  C20_22 
REMARK    9  A    between atoms: C20_22  and  C21_23 
REMARK   10  A    between atoms: C21_23  and  C22_24 
REMARK   11  A    between atoms: C22_24  and  O3_25 
REMARK   12  A    between atoms: C24_27  and  C26_29 
REMARK   13  A    between atoms: C29_33  and  O5_35 
ROOT
HETATM    1  C15 UNL     1      -2.305  50.715 -26.583  1.00  0.00     0.149 C 
HETATM    2  C16 UNL     1      -2.102  50.116 -25.188  1.00  0.00     0.054 C 
HETATM    3  C17 UNL     1      -2.470  51.254 -24.196  1.00  0.00     0.050 C 
HETATM    4  C18 UNL     1      -3.505  51.993 -25.063  1.00  0.00     0.270 C 
HETATM    5  O2  UNL     1      -3.038  51.936 -26.410  1.00  0.00    -0.351 OA
HETATM    6  C19 UNL     1      -3.081  50.619 -22.877  1.00  0.00     0.032 C 
HETATM    7  C23 UNL     1      -1.970  49.861 -22.118  1.00  0.00    -0.066 C 
HETATM    8  C24 UNL     1      -2.035  48.556 -21.760  1.00  0.00    -0.021 C 
HETATM    9  C25 UNL     1      -0.935  47.802 -21.069  1.00  0.00     0.052 C 
HETATM   10  C27 UNL     1      -0.786  50.740 -21.773  1.00  0.00     0.038 C 
HETATM   11  C28 UNL     1      -0.183  51.398 -23.007  1.00  0.00     0.042 C 
HETATM   12  C29 UNL     1      -1.217  52.163 -23.867  1.00  0.00     0.067 C 
HETATM   13  C30 UNL     1      -0.461  52.761 -25.067  1.00  0.00     0.047 C 
ENDROOT
BRANCH   4  14
HETATM   14  O1  UNL     1      -4.758  51.329 -25.081  1.00  0.00    -0.370 OA
HETATM   15  H26 UNL     1      -5.300  51.865 -25.688  1.00  0.00     0.212 HD
ENDBRANCH   4  14
BRANCH   6  16
HETATM   16  C20 UNL     1      -3.796  51.539 -21.848  1.00  0.00     0.012 C 
BRANCH  16  17
HETATM   17  C21 UNL     1      -4.978  50.961 -21.062  1.00  0.00     0.027 C 
BRANCH  17  18
HETATM   18  C22 UNL     1      -5.984  50.167 -21.889  1.00  0.00     0.164 C 
BRANCH  18  19
HETATM   19  O3  UNL     1      -6.647  51.005 -22.825  1.00  0.00    -0.401 OA
HETATM   20  H34 UNL     1      -7.414  51.397 -22.349  1.00  0.00     0.209 HD
ENDBRANCH  18  19
ENDBRANCH  17  18
ENDBRANCH  16  17
ENDBRANCH   6  16
BRANCH  12  21
HETATM   21  O5  UNL     1      -1.670  53.298 -23.114  1.00  0.00    -0.389 OA
HETATM   22  H46 UNL     1      -0.904  53.859 -22.899  1.00  0.00     0.210 HD
ENDBRANCH  12  21
BRANCH   1  23
HETATM   23  C14 UNL     1      -3.080  49.820 -27.511  1.00  0.00     0.011 C 
HETATM   24  C12 UNL     1      -3.884  48.778 -27.207  1.00  0.00    -0.063 C 
HETATM   25  C13 UNL     1      -4.154  48.296 -25.804  1.00  0.00     0.048 C 
BRANCH  24  26
HETATM   26  C11 UNL     1      -4.551  48.071 -28.306  1.00  0.00     0.006 C 
HETATM   27  C10 UNL     1      -5.806  47.590 -28.298  1.00  0.00     0.001 C 
BRANCH  27  28
HETATM   28  C9  UNL     1      -6.404  46.950 -29.450  1.00  0.00     0.002 C 
HETATM   29  C7  UNL     1      -6.206  47.276 -30.743  1.00  0.00    -0.084 C 
HETATM   30  C8  UNL     1      -5.396  48.453 -31.222  1.00  0.00     0.043 C 
BRANCH  29  31
HETATM   31  C6  UNL     1      -6.846  46.442 -31.844  1.00  0.00     0.037 C 
BRANCH  31  32
HETATM   32  C5  UNL     1      -8.049  47.110 -32.535  1.00  0.00     0.031 C 
BRANCH  32  33
HETATM   33  C4  UNL     1      -9.295  47.117 -31.685  1.00  0.00    -0.024 C 
HETATM   34  C2  UNL     1      -9.732  48.073 -30.841  1.00  0.00    -0.091 C 
HETATM   35  C1  UNL     1      -9.042  49.380 -30.562  1.00  0.00     0.042 C 
HETATM   36  C3  UNL     1     -11.023  47.887 -30.085  1.00  0.00     0.042 C 
ENDBRANCH  32  33
ENDBRANCH  31  32
ENDBRANCH  29  31
ENDBRANCH  27  28
ENDBRANCH  24  26
ENDBRANCH   1  23
BRANCH   8  37
HETATM   37  C26 UNL     1      -3.262  47.735 -21.987  1.00  0.00     0.265 C 
HETATM   38  O4  UNL     1      -3.831  47.112 -21.098  1.00  0.00    -0.302 OA
ENDBRANCH   8  37
TORSDOF 13
ENDMDL
MODEL 5
REMARK minimizedAffinity -8.17114067
REMARK  13 active torsions:
REMARK  status: ('A' for Active; 'I' for Inactive)
REMARK    1  A    between atoms: C4_4  and  C5_5 
REMARK    2  A    between atoms: C5_5  and  C6_6 
REMARK    3  A    between atoms: C6_6  and  C7_7 
REMARK    4  A    between atoms: C9_9  and  C10_10 
REMARK    5  A    between atoms: C11_11  and  C12_12 
REMARK    6  A    between atoms: C14_14  and  C15_15 
REMARK    7  A    between atoms: C18_18  and  O1_19 
REMARK    8  A    between atoms: C19_21  and  C20_22 
REMARK    9  A    between atoms: C20_22  and  C21_23 
REMARK   10  A    between atoms: C21_23  and  C22_24 
REMARK   11  A    between atoms: C22_24  and  O3_25 
REMARK   12  A    between atoms: C24_27  and  C26_29 
REMARK   13  A    between atoms: C29_33  and  O5_35 
ROOT
HETATM    1  C15 UNL     1      -2.513  50.660 -26.624  1.00  0.00     0.149 C 
HETATM    2  C16 UNL     1      -2.291  50.065 -25.230  1.00  0.00     0.054 C 
HETATM    3  C17 UNL     1      -2.590  51.223 -24.238  1.00  0.00     0.050 C 
HETATM    4  C18 UNL     1      -3.623  51.991 -25.081  1.00  0.00     0.270 C 
HETATM    5  O2  UNL     1      -3.197  51.907 -26.441  1.00  0.00    -0.351 OA
HETATM    6  C19 UNL     1      -3.186  50.620 -22.896  1.00  0.00     0.032 C 
HETATM    7  C23 UNL     1      -2.081  49.830 -22.162  1.00  0.00    -0.066 C 
HETATM    8  C24 UNL     1      -2.181  48.530 -21.791  1.00  0.00    -0.021 C 
HETATM    9  C25 UNL     1      -1.089  47.743 -21.125  1.00  0.00     0.052 C 
HETATM   10  C27 UNL     1      -0.857  50.668 -21.859  1.00  0.00     0.038 C 
HETATM   11  C28 UNL     1      -0.266  51.295 -23.115  1.00  0.00     0.042 C 
HETATM   12  C29 UNL     1      -1.297  52.089 -23.952  1.00  0.00     0.067 C 
HETATM   13  C30 UNL     1      -0.555  52.651 -25.178  1.00  0.00     0.047 C 
ENDROOT
BRANCH   4  14
HETATM   14  O1  UNL     1      -4.898  51.372 -25.059  1.00  0.00    -0.370 OA
HETATM   15  H26 UNL     1      -5.438  51.922 -25.655  1.00  0.00     0.212 HD
ENDBRANCH   4  14
BRANCH   6  16
HETATM   16  C20 UNL     1      -3.838  51.573 -21.856  1.00  0.00     0.012 C 
BRANCH  16  17
HETATM   17  C21 UNL     1      -4.413  50.958 -20.575  1.00  0.00     0.027 C 
BRANCH  17  18
HETATM   18  C22 UNL     1      -5.748  50.238 -20.741  1.00  0.00     0.164 C 
BRANCH  18  19
HETATM   19  O3  UNL     1      -6.464  50.746 -21.858  1.00  0.00    -0.401 OA
HETATM   20  H34 UNL     1      -6.973  51.521 -21.529  1.00  0.00     0.209 HD
ENDBRANCH  18  19
ENDBRANCH  17  18
ENDBRANCH  16  17
ENDBRANCH   6  16
BRANCH  12  21
HETATM   21  O5  UNL     1      -1.688  53.245 -23.196  1.00  0.00    -0.389 OA
HETATM   22  H46 UNL     1      -0.897  53.780 -23.008  1.00  0.00     0.210 HD
ENDBRANCH  12  21
BRANCH   1  23
HETATM   23  C14 UNL     1      -3.344  49.785 -27.521  1.00  0.00     0.011 C 
HETATM   24  C12 UNL     1      -4.142  48.747 -27.190  1.00  0.00    -0.063 C 
HETATM   25  C13 UNL     1      -4.342  48.247 -25.781  1.00  0.00     0.048 C 
BRANCH  24  26
HETATM   26  C11 UNL     1      -4.873  48.062 -28.261  1.00  0.00     0.006 C 
HETATM   27  C10 UNL     1      -6.124  47.576 -28.187  1.00  0.00     0.001 C 
BRANCH  27  28
HETATM   28  C9  UNL     1      -6.791  46.960 -29.314  1.00  0.00     0.002 C 
HETATM   29  C7  UNL     1      -7.806  47.482 -30.030  1.00  0.00    -0.084 C 
HETATM   30  C8  UNL     1      -8.511  48.776 -29.711  1.00  0.00     0.043 C 
BRANCH  29  31
HETATM   31  C6  UNL     1      -8.339  46.740 -31.247  1.00  0.00     0.037 C 
BRANCH  31  32
HETATM   32  C5  UNL     1      -7.275  45.955 -32.035  1.00  0.00     0.031 C 
BRANCH  32  33
HETATM   33  C4  UNL     1      -6.386  46.837 -32.874  1.00  0.00    -0.024 C 
HETATM   34  C2  UNL     1      -5.040  46.926 -32.868  1.00  0.00    -0.091 C 
HETATM   35  C1  UNL     1      -4.113  46.132 -31.989  1.00  0.00     0.042 C 
HETATM   36  C3  UNL     1      -4.336  47.875 -33.803  1.00  0.00     0.042 C 
ENDBRANCH  32  33
ENDBRANCH  31  32
ENDBRANCH  29  31
ENDBRANCH  27  28
ENDBRANCH  24  26
ENDBRANCH   1  23
BRANCH   8  37
HETATM   37  C26 UNL     1      -3.443  47.751 -21.976  1.00  0.00     0.265 C 
HETATM   38  O4  UNL     1      -3.688  46.712 -21.376  1.00  0.00    -0.302 OA
ENDBRANCH   8  37
TORSDOF 13
ENDMDL
MODEL 6
REMARK minimizedAffinity -8.06956673
REMARK  13 active torsions:
REMARK  status: ('A' for Active; 'I' for Inactive)
REMARK    1  A    between atoms: C4_4  and  C5_5 
REMARK    2  A    between atoms: C5_5  and  C6_6 
REMARK    3  A    between atoms: C6_6  and  C7_7 
REMARK    4  A    between atoms: C9_9  and  C10_10 
REMARK    5  A    between atoms: C11_11  and  C12_12 
REMARK    6  A    between atoms: C14_14  and  C15_15 
REMARK    7  A    between atoms: C18_18  and  O1_19 
REMARK    8  A    between atoms: C19_21  and  C20_22 
REMARK    9  A    between atoms: C20_22  and  C21_23 
REMARK   10  A    between atoms: C21_23  and  C22_24 
REMARK   11  A    between atoms: C22_24  and  O3_25 
REMARK   12  A    between atoms: C24_27  and  C26_29 
REMARK   13  A    between atoms: C29_33  and  O5_35 
ROOT
HETATM    1  C15 UNL     1      -2.526  49.839 -25.766  1.00  0.00     0.149 C 
HETATM    2  C16 UNL     1      -2.803  49.106 -24.450  1.00  0.00     0.054 C 
HETATM    3  C17 UNL     1      -3.133  50.222 -23.421  1.00  0.00     0.050 C 
HETATM    4  C18 UNL     1      -3.737  51.258 -24.386  1.00  0.00     0.270 C 
HETATM    5  O2  UNL     1      -2.985  51.187 -25.597  1.00  0.00    -0.351 OA
HETATM    6  C19 UNL     1      -4.170  49.662 -22.358  1.00  0.00     0.032 C 
HETATM    7  C23 UNL     1      -3.473  48.598 -21.483  1.00  0.00    -0.066 C 
HETATM    8  C24 UNL     1      -3.913  47.326 -21.321  1.00  0.00    -0.021 C 
HETATM    9  C25 UNL     1      -3.210  46.273 -20.514  1.00  0.00     0.052 C 
HETATM   10  C27 UNL     1      -2.240  49.126 -20.780  1.00  0.00     0.038 C 
HETATM   11  C28 UNL     1      -1.226  49.704 -21.759  1.00  0.00     0.042 C 
HETATM   12  C29 UNL     1      -1.824  50.763 -22.715  1.00  0.00     0.067 C 
HETATM   13  C30 UNL     1      -0.689  51.243 -23.635  1.00  0.00     0.047 C 
ENDROOT
BRANCH   4  14
HETATM   14  O1  UNL     1      -5.064  50.929 -24.760  1.00  0.00    -0.370 OA
HETATM   15  H26 UNL     1      -5.310  51.626 -25.394  1.00  0.00     0.212 HD
ENDBRANCH   4  14
BRANCH   6  16
HETATM   16  C20 UNL     1      -4.885  50.652 -21.396  1.00  0.00     0.012 C 
BRANCH  16  17
HETATM   17  C21 UNL     1      -6.286  50.285 -20.895  1.00  0.00     0.027 C 
BRANCH  17  18
HETATM   18  C22 UNL     1      -7.242  49.757 -21.961  1.00  0.00     0.164 C 
BRANCH  18  19
HETATM   19  O3  UNL     1      -7.415  50.706 -23.004  1.00  0.00    -0.401 OA
HETATM   20  H34 UNL     1      -8.140  51.305 -22.713  1.00  0.00     0.209 HD
ENDBRANCH  18  19
ENDBRANCH  17  18
ENDBRANCH  16  17
ENDBRANCH   6  16
BRANCH  12  21
HETATM   21  O5  UNL     1      -2.179  51.916 -21.935  1.00  0.00    -0.389 OA
HETATM   22  H46 UNL     1      -1.381  52.251 -21.490  1.00  0.00     0.210 HD
ENDBRANCH  12  21
BRANCH   1  23
HETATM   23  C14 UNL     1      -3.235  49.236 -26.947  1.00  0.00     0.011 C 
HETATM   24  C12 UNL     1      -4.363  48.493 -26.969  1.00  0.00    -0.063 C 
HETATM   25  C13 UNL     1      -5.148  48.107 -25.740  1.00  0.00     0.048 C 
BRANCH  24  26
HETATM   26  C11 UNL     1      -4.870  48.038 -28.267  1.00  0.00     0.006 C 
HETATM   27  C10 UNL     1      -6.017  47.371 -28.484  1.00  0.00     0.001 C 
BRANCH  27  28
HETATM   28  C9  UNL     1      -6.469  47.005 -29.810  1.00  0.00     0.002 C 
HETATM   29  C7  UNL     1      -6.136  47.611 -30.967  1.00  0.00    -0.084 C 
HETATM   30  C8  UNL     1      -5.308  48.866 -31.078  1.00  0.00     0.043 C 
BRANCH  29  31
HETATM   31  C6  UNL     1      -6.630  47.045 -32.291  1.00  0.00     0.037 C 
BRANCH  31  32
HETATM   32  C5  UNL     1      -7.856  47.770 -32.879  1.00  0.00     0.031 C 
BRANCH  32  33
HETATM   33  C4  UNL     1      -9.168  47.173 -32.437  1.00  0.00    -0.024 C 
HETATM   34  C2  UNL     1      -9.936  47.519 -31.384  1.00  0.00    -0.091 C 
HETATM   35  C1  UNL     1      -9.633  48.612 -30.397  1.00  0.00     0.042 C 
HETATM   36  C3  UNL     1     -11.232  46.795 -31.118  1.00  0.00     0.042 C 
ENDBRANCH  32  33
ENDBRANCH  31  32
ENDBRANCH  29  31
ENDBRANCH  27  28
ENDBRANCH  24  26
ENDBRANCH   1  23
BRANCH   8  37
HETATM   37  C26 UNL     1      -5.203  46.855 -21.911  1.00  0.00     0.265 C 
HETATM   38  O4  UNL     1      -6.041  46.223 -21.281  1.00  0.00    -0.302 OA
ENDBRANCH   8  37
TORSDOF 13
ENDMDL
MODEL 7
REMARK minimizedAffinity -8.03440857
REMARK  13 active torsions:
REMARK  status: ('A' for Active; 'I' for Inactive)
REMARK    1  A    between atoms: C4_4  and  C5_5 
REMARK    2  A    between atoms: C5_5  and  C6_6 
REMARK    3  A    between atoms: C6_6  and  C7_7 
REMARK    4  A    between atoms: C9_9  and  C10_10 
REMARK    5  A    between atoms: C11_11  and  C12_12 
REMARK    6  A    between atoms: C14_14  and  C15_15 
REMARK    7  A    between atoms: C18_18  and  O1_19 
REMARK    8  A    between atoms: C19_21  and  C20_22 
REMARK    9  A    between atoms: C20_22  and  C21_23 
REMARK   10  A    between atoms: C21_23  and  C22_24 
REMARK   11  A    between atoms: C22_24  and  O3_25 
REMARK   12  A    between atoms: C24_27  and  C26_29 
REMARK   13  A    between atoms: C29_33  and  O5_35 
ROOT
HETATM    1  C15 UNL     1      -7.720  47.046 -25.797  1.00  0.00     0.149 C 
HETATM    2  C16 UNL     1      -7.547  46.346 -27.149  1.00  0.00     0.054 C 
HETATM    3  C17 UNL     1      -8.906  46.526 -27.880  1.00  0.00     0.050 C 
HETATM    4  C18 UNL     1      -9.334  47.863 -27.250  1.00  0.00     0.270 C 
HETATM    5  O2  UNL     1      -8.914  47.835 -25.886  1.00  0.00    -0.351 OA
HETATM    6  C19 UNL     1      -8.650  46.612 -29.444  1.00  0.00     0.032 C 
HETATM    7  C23 UNL     1      -8.176  45.235 -29.955  1.00  0.00    -0.066 C 
HETATM    8  C24 UNL     1      -7.023  45.021 -30.636  1.00  0.00    -0.021 C 
HETATM    9  C25 UNL     1      -6.533  43.676 -31.090  1.00  0.00     0.052 C 
HETATM   10  C27 UNL     1      -9.156  44.121 -29.649  1.00  0.00     0.038 C 
HETATM   11  C28 UNL     1      -9.458  44.019 -28.159  1.00  0.00     0.042 C 
HETATM   12  C29 UNL     1      -9.912  45.356 -27.528  1.00  0.00     0.067 C 
HETATM   13  C30 UNL     1     -10.172  45.092 -26.034  1.00  0.00     0.047 C 
ENDROOT
BRANCH   4  14
HETATM   14  O1  UNL     1      -8.650  48.966 -27.820  1.00  0.00    -0.370 OA
HETATM   15  H26 UNL     1      -8.974  49.732 -27.314  1.00  0.00     0.212 HD
ENDBRANCH   4  14
BRANCH   6  16
HETATM   16  C20 UNL     1      -9.799  47.080 -30.380  1.00  0.00     0.012 C 
BRANCH  16  17
HETATM   17  C21 UNL     1      -9.470  48.109 -31.467  1.00  0.00     0.027 C 
BRANCH  17  18
HETATM   18  C22 UNL     1      -8.342  49.079 -31.126  1.00  0.00     0.164 C 
BRANCH  18  19
HETATM   19  O3  UNL     1      -8.852  50.255 -30.514  1.00  0.00    -0.401 OA
HETATM   20  H34 UNL     1      -9.095  50.864 -31.248  1.00  0.00     0.209 HD
ENDBRANCH  18  19
ENDBRANCH  17  18
ENDBRANCH  16  17
ENDBRANCH   6  16
BRANCH  12  21
HETATM   21  O5  UNL     1     -11.198  45.691 -28.072  1.00  0.00    -0.389 OA
HETATM   22  H46 UNL     1     -11.822  44.972 -27.867  1.00  0.00     0.210 HD
ENDBRANCH  12  21
BRANCH   1  23
HETATM   23  C14 UNL     1      -6.573  47.952 -25.443  1.00  0.00     0.011 C 
HETATM   24  C12 UNL     1      -5.924  48.075 -24.265  1.00  0.00    -0.063 C 
HETATM   25  C13 UNL     1      -6.262  47.289 -23.023  1.00  0.00     0.048 C 
BRANCH  24  26
HETATM   26  C11 UNL     1      -4.810  49.025 -24.181  1.00  0.00     0.006 C 
HETATM   27  C10 UNL     1      -3.536  48.793 -24.542  1.00  0.00     0.001 C 
BRANCH  27  28
HETATM   28  C9  UNL     1      -2.507  49.810 -24.475  1.00  0.00     0.002 C 
HETATM   29  C7  UNL     1      -1.850  50.215 -23.371  1.00  0.00    -0.084 C 
HETATM   30  C8  UNL     1      -2.150  49.751 -21.968  1.00  0.00     0.043 C 
BRANCH  29  31
HETATM   31  C6  UNL     1      -0.728  51.238 -23.486  1.00  0.00     0.037 C 
BRANCH  31  32
HETATM   32  C5  UNL     1      -0.605  51.898 -24.871  1.00  0.00     0.031 C 
BRANCH  32  33
HETATM   33  C4  UNL     1       0.791  51.838 -25.437  1.00  0.00    -0.024 C 
HETATM   34  C2  UNL     1       1.173  51.688 -26.721  1.00  0.00    -0.091 C 
HETATM   35  C1  UNL     1       0.250  51.546 -27.900  1.00  0.00     0.042 C 
HETATM   36  C3  UNL     1       2.636  51.662 -27.082  1.00  0.00     0.042 C 
ENDBRANCH  32  33
ENDBRANCH  31  32
ENDBRANCH  29  31
ENDBRANCH  27  28
ENDBRANCH  24  26
ENDBRANCH   1  23
BRANCH   8  37
HETATM   37  C26 UNL     1      -6.131  46.146 -31.050  1.00  0.00     0.265 C 
HETATM   38  O4  UNL     1      -5.215  46.019 -31.853  1.00  0.00    -0.302 OA
ENDBRANCH   8  37
TORSDOF 13
ENDMDL
MODEL 8
REMARK minimizedAffinity -8.00504303
REMARK  13 active torsions:
REMARK  status: ('A' for Active; 'I' for Inactive)
REMARK    1  A    between atoms: C4_4  and  C5_5 
REMARK    2  A    between atoms: C5_5  and  C6_6 
REMARK    3  A    between atoms: C6_6  and  C7_7 
REMARK    4  A    between atoms: C9_9  and  C10_10 
REMARK    5  A    between atoms: C11_11  and  C12_12 
REMARK    6  A    between atoms: C14_14  and  C15_15 
REMARK    7  A    between atoms: C18_18  and  O1_19 
REMARK    8  A    between atoms: C19_21  and  C20_22 
REMARK    9  A    between atoms: C20_22  and  C21_23 
REMARK   10  A    between atoms: C21_23  and  C22_24 
REMARK   11  A    between atoms: C22_24  and  O3_25 
REMARK   12  A    between atoms: C24_27  and  C26_29 
REMARK   13  A    between atoms: C29_33  and  O5_35 
ROOT
HETATM    1  C15 UNL     1      -7.432  46.798 -26.186  1.00  0.00     0.149 C 
HETATM    2  C16 UNL     1      -7.218  46.724 -27.700  1.00  0.00     0.054 C 
HETATM    3  C17 UNL     1      -8.633  46.880 -28.322  1.00  0.00     0.050 C 
HETATM    4  C18 UNL     1      -9.275  47.750 -27.226  1.00  0.00     0.270 C 
HETATM    5  O2  UNL     1      -8.763  47.290 -25.976  1.00  0.00    -0.351 OA
HETATM    6  C19 UNL     1      -8.509  47.612 -29.725  1.00  0.00     0.032 C 
HETATM    7  C23 UNL     1      -7.807  46.670 -30.727  1.00  0.00    -0.066 C 
HETATM    8  C24 UNL     1      -6.685  46.983 -31.421  1.00  0.00    -0.021 C 
HETATM    9  C25 UNL     1      -5.969  46.051 -32.356  1.00  0.00     0.052 C 
HETATM   10  C27 UNL     1      -8.521  45.345 -30.892  1.00  0.00     0.038 C 
HETATM   11  C28 UNL     1      -8.692  44.618 -29.565  1.00  0.00     0.042 C 
HETATM   12  C29 UNL     1      -9.359  45.481 -28.468  1.00  0.00     0.067 C 
HETATM   13  C30 UNL     1      -9.456  44.616 -27.200  1.00  0.00     0.047 C 
ENDROOT
BRANCH   4  14
HETATM   14  O1  UNL     1      -8.866  49.105 -27.312  1.00  0.00    -0.370 OA
HETATM   15  H26 UNL     1      -9.300  49.530 -26.551  1.00  0.00     0.212 HD
ENDBRANCH   4  14
BRANCH   6  16
HETATM   16  C20 UNL     1      -9.791  48.150 -30.420  1.00  0.00     0.012 C 
BRANCH  16  17
HETATM   17  C21 UNL     1     -10.989  47.205 -30.555  1.00  0.00     0.027 C 
BRANCH  17  18
HETATM   18  C22 UNL     1     -12.319  47.762 -30.055  1.00  0.00     0.164 C 
BRANCH  18  19
HETATM   19  O3  UNL     1     -13.251  46.717 -29.818  1.00  0.00    -0.401 OA
HETATM   20  H34 UNL     1     -13.697  46.545 -30.678  1.00  0.00     0.209 HD
ENDBRANCH  18  19
ENDBRANCH  17  18
ENDBRANCH  16  17
ENDBRANCH   6  16
BRANCH  12  21
HETATM   21  O5  UNL     1     -10.720  45.720 -28.857  1.00  0.00    -0.389 OA
HETATM   22  H46 UNL     1     -11.173  44.864 -28.958  1.00  0.00     0.210 HD
ENDBRANCH  12  21
BRANCH   1  23
HETATM   23  C14 UNL     1      -6.467  47.718 -25.490  1.00  0.00     0.011 C 
HETATM   24  C12 UNL     1      -5.344  48.291 -25.975  1.00  0.00    -0.063 C 
HETATM   25  C13 UNL     1      -4.825  48.088 -27.376  1.00  0.00     0.048 C 
BRANCH  24  26
HETATM   26  C11 UNL     1      -4.580  49.178 -25.092  1.00  0.00     0.006 C 
HETATM   27  C10 UNL     1      -3.241  49.229 -24.980  1.00  0.00     0.001 C 
BRANCH  27  28
HETATM   28  C9  UNL     1      -2.565  50.176 -24.119  1.00  0.00     0.002 C 
HETATM   29  C7  UNL     1      -2.372  51.487 -24.363  1.00  0.00    -0.084 C 
HETATM   30  C8  UNL     1      -2.736  52.189 -25.646  1.00  0.00     0.043 C 
BRANCH  29  31
HETATM   31  C6  UNL     1      -1.715  52.368 -23.310  1.00  0.00     0.037 C 
BRANCH  31  32
HETATM   32  C5  UNL     1      -0.307  51.913 -22.883  1.00  0.00     0.031 C 
BRANCH  32  33
HETATM   33  C4  UNL     1      -0.063  52.047 -21.401  1.00  0.00    -0.024 C 
HETATM   34  C2  UNL     1       0.672  52.971 -20.749  1.00  0.00    -0.091 C 
HETATM   35  C1  UNL     1       1.427  54.102 -21.390  1.00  0.00     0.042 C 
HETATM   36  C3  UNL     1       0.781  52.934 -19.246  1.00  0.00     0.042 C 
ENDBRANCH  32  33
ENDBRANCH  31  32
ENDBRANCH  29  31
ENDBRANCH  27  28
ENDBRANCH  24  26
ENDBRANCH   1  23
BRANCH   8  37
HETATM   37  C26 UNL     1      -6.066  48.341 -31.351  1.00  0.00     0.265 C 
HETATM   38  O4  UNL     1      -5.039  48.582 -30.728  1.00  0.00    -0.302 OA
ENDBRANCH   8  37
TORSDOF 13
ENDMDL
MODEL 9
REMARK minimizedAffinity -7.76772881
REMARK  13 active torsions:
REMARK  status: ('A' for Active; 'I' for Inactive)
REMARK    1  A    between atoms: C4_4  and  C5_5 
REMARK    2  A    between atoms: C5_5  and  C6_6 
REMARK    3  A    between atoms: C6_6  and  C7_7 
REMARK    4  A    between atoms: C9_9  and  C10_10 
REMARK    5  A    between atoms: C11_11  and  C12_12 
REMARK    6  A    between atoms: C14_14  and  C15_15 
REMARK    7  A    between atoms: C18_18  and  O1_19 
REMARK    8  A    between atoms: C19_21  and  C20_22 
REMARK    9  A    between atoms: C20_22  and  C21_23 
REMARK   10  A    between atoms: C21_23  and  C22_24 
REMARK   11  A    between atoms: C22_24  and  O3_25 
REMARK   12  A    between atoms: C24_27  and  C26_29 
REMARK   13  A    between atoms: C29_33  and  O5_35 
ROOT
HETATM    1  C15 UNL     1      -1.312  52.115 -21.262  1.00  0.00     0.149 C 
HETATM    2  C16 UNL     1      -2.702  51.474 -21.195  1.00  0.00     0.054 C 
HETATM    3  C17 UNL     1      -2.825  50.629 -22.492  1.00  0.00     0.050 C 
HETATM    4  C18 UNL     1      -1.337  50.288 -22.691  1.00  0.00     0.270 C 
HETATM    5  O2  UNL     1      -0.590  51.439 -22.300  1.00  0.00    -0.351 OA
HETATM    6  C19 UNL     1      -3.736  49.361 -22.205  1.00  0.00     0.032 C 
HETATM    7  C23 UNL     1      -5.189  49.825 -21.970  1.00  0.00    -0.066 C 
HETATM    8  C24 UNL     1      -5.918  49.541 -20.863  1.00  0.00    -0.021 C 
HETATM    9  C25 UNL     1      -7.314  50.034 -20.607  1.00  0.00     0.052 C 
HETATM   10  C27 UNL     1      -5.752  50.617 -23.131  1.00  0.00     0.038 C 
HETATM   11  C28 UNL     1      -4.893  51.830 -23.466  1.00  0.00     0.042 C 
HETATM   12  C29 UNL     1      -3.401  51.487 -23.691  1.00  0.00     0.067 C 
HETATM   13  C30 UNL     1      -2.673  52.804 -24.012  1.00  0.00     0.047 C 
ENDROOT
BRANCH   4  14
HETATM   14  O1  UNL     1      -0.904  49.257 -21.820  1.00  0.00    -0.370 OA
HETATM   15  H26 UNL     1       0.046  49.170 -22.013  1.00  0.00     0.212 HD
ENDBRANCH   4  14
BRANCH   6  16
HETATM   16  C20 UNL     1      -3.783  48.205 -23.244  1.00  0.00     0.012 C 
BRANCH  16  17
HETATM   17  C21 UNL     1      -4.091  48.559 -24.703  1.00  0.00     0.027 C 
BRANCH  17  18
HETATM   18  C22 UNL     1      -5.430  48.050 -25.228  1.00  0.00     0.164 C 
BRANCH  18  19
HETATM   19  O3  UNL     1      -5.528  48.234 -26.633  1.00  0.00    -0.401 OA
HETATM   20  H34 UNL     1      -5.872  49.146 -26.768  1.00  0.00     0.209 HD
ENDBRANCH  18  19
ENDBRANCH  17  18
ENDBRANCH  16  17
ENDBRANCH   6  16
BRANCH  12  21
HETATM   21  O5  UNL     1      -3.300  50.707 -24.892  1.00  0.00    -0.389 OA
HETATM   22  H46 UNL     1      -3.660  51.225 -25.634  1.00  0.00     0.210 HD
ENDBRANCH  12  21
BRANCH   1  23
HETATM   23  C14 UNL     1      -0.535  51.992 -19.980  1.00  0.00     0.011 C 
HETATM   24  C12 UNL     1       0.485  52.755 -19.531  1.00  0.00    -0.063 C 
HETATM   25  C13 UNL     1       1.065  53.925 -20.286  1.00  0.00     0.048 C 
BRANCH  24  26
HETATM   26  C11 UNL     1       1.066  52.438 -18.223  1.00  0.00     0.006 C 
HETATM   27  C10 UNL     1       0.603  51.534 -17.343  1.00  0.00     0.001 C 
BRANCH  27  28
HETATM   28  C9  UNL     1       1.273  51.246 -16.092  1.00  0.00     0.002 C 
HETATM   29  C7  UNL     1       2.433  51.781 -15.661  1.00  0.00    -0.084 C 
HETATM   30  C8  UNL     1       3.309  52.705 -16.467  1.00  0.00     0.043 C 
BRANCH  29  31
HETATM   31  C6  UNL     1       2.959  51.437 -14.275  1.00  0.00     0.037 C 
BRANCH  31  32
HETATM   32  C5  UNL     1       2.136  50.375 -13.523  1.00  0.00     0.031 C 
BRANCH  32  33
HETATM   33  C4  UNL     1       2.703  48.984 -13.648  1.00  0.00    -0.024 C 
HETATM   34  C2  UNL     1       2.158  47.904 -14.244  1.00  0.00    -0.091 C 
HETATM   35  C1  UNL     1       0.823  47.863 -14.935  1.00  0.00     0.042 C 
HETATM   36  C3  UNL     1       2.902  46.593 -14.267  1.00  0.00     0.042 C 
ENDBRANCH  32  33
ENDBRANCH  31  32
ENDBRANCH  29  31
ENDBRANCH  27  28
ENDBRANCH  24  26
ENDBRANCH   1  23
BRANCH   8  37
HETATM   37  C26 UNL     1      -5.400  48.646 -19.784  1.00  0.00     0.265 C 
HETATM   38  O4  UNL     1      -4.995  49.058 -18.704  1.00  0.00    -0.302 OA
ENDBRANCH   8  37
TORSDOF 13
ENDMDL
