MODEL 1
REMARK minimizedAffinity -8.4013195
REMARK  9 active torsions:
REMARK  status: ('A' for Active; 'I' for Inactive)
REMARK    1  A    between atoms: C2_2  and  C3_3 
REMARK    2  A    between atoms: C2_2  and  C9_11 
REMARK    3  A    between atoms: C3_3  and  C4_4 
REMARK    4  A    between atoms: C4_4  and  C5_5 
REMARK    5  A    between atoms: C5_5  and  O1_6 
REMARK    6  A    between atoms: C5_5  and  C6_7 
REMARK    7  A    between atoms: C6_7  and  O2_10 
REMARK    8  A    between atoms: C17_19  and  C18_20 
REMARK    9  A    between atoms: C18_20  and  O3_23 
ROOT
HETATM    1  C9  UNL     1      -1.941   8.178  14.330  1.00  0.00    -0.002 C 
HETATM    2  C10 UNL     1      -1.171   7.251  15.315  1.00  0.00     0.006 C 
HETATM    3  C11 UNL     1      -0.039   6.573  14.496  1.00  0.00     0.011 C 
HETATM    4  C12 UNL     1      -0.369   6.905  13.026  1.00  0.00    -0.032 C 
HETATM    5  C13 UNL     1      -1.457   5.860  12.603  1.00  0.00     0.016 C 
HETATM    6  C14 UNL     1       0.832   6.912  12.037  1.00  0.00     0.003 C 
HETATM    7  C15 UNL     1       1.637   5.607  11.997  1.00  0.00     0.009 C 
HETATM    8  C16 UNL     1       2.584   5.469  10.806  1.00  0.00     0.042 C 
HETATM    9  C17 UNL     1       3.036   6.765  10.078  1.00  0.00     0.095 C 
HETATM   10  O4  UNL     1       3.509   6.334   8.760  1.00  0.00    -0.377 OA
HETATM   11  C21 UNL     1       2.503   6.164   7.775  1.00  0.00     0.169 C 
HETATM   12  C22 UNL     1       1.922   7.503   7.381  1.00  0.00     0.027 C 
HETATM   13  C23 UNL     1       1.833   8.484   8.544  1.00  0.00     0.010 C 
HETATM   14  C24 UNL     1       1.907   7.861   9.957  1.00  0.00     0.032 C 
HETATM   15  C25 UNL     1       0.500   7.493  10.613  1.00  0.00    -0.033 C 
HETATM   16  C26 UNL     1      -0.308   6.515   9.733  1.00  0.00     0.016 C 
HETATM   17  C27 UNL     1      -0.371   8.808  10.722  1.00  0.00     0.011 C 
HETATM   18  C28 UNL     1      -1.458   8.845  11.822  1.00  0.00     0.011 C 
HETATM   19  C29 UNL     1      -0.910   8.380  13.180  1.00  0.00    -0.032 C 
HETATM   20  C30 UNL     1       0.161   9.425  13.625  1.00  0.00     0.016 C 
ENDROOT
BRANCH   1  21
HETATM   21  C2  UNL     1      -2.645   9.425  14.942  1.00  0.00    -0.014 C 
HETATM   22  C1  UNL     1      -1.851  10.685  14.549  1.00  0.00     0.010 C 
BRANCH  21  23
HETATM   23  C3  UNL     1      -4.131   9.615  14.559  1.00  0.00     0.007 C 
BRANCH  23  24
HETATM   24  C4  UNL     1      -5.096   8.960  15.566  1.00  0.00     0.035 C 
BRANCH  24  25
HETATM   25  C5  UNL     1      -6.047   7.954  14.889  1.00  0.00     0.151 C 
BRANCH  25  26
HETATM   26  O1  UNL     1      -7.407   8.312  15.149  1.00  0.00    -0.393 OA
HETATM   27  H10 UNL     1      -7.482   8.550  16.090  1.00  0.00     0.210 HD
ENDBRANCH  25  26
BRANCH  25  28
HETATM   28  C6  UNL     1      -5.778   6.471  15.288  1.00  0.00     0.076 C 
HETATM   29  C7  UNL     1      -6.897   5.879  16.152  1.00  0.00     0.048 C 
HETATM   30  C8  UNL     1      -5.600   5.610  14.030  1.00  0.00     0.048 C 
BRANCH  28  31
HETATM   31  O2  UNL     1      -4.560   6.405  16.041  1.00  0.00    -0.388 OA
HETATM   32  H17 UNL     1      -4.369   5.470  16.227  1.00  0.00     0.210 HD
ENDBRANCH  28  31
ENDBRANCH  25  28
ENDBRANCH  24  25
ENDBRANCH  23  24
ENDBRANCH  21  23
ENDBRANCH   1  21
BRANCH   9  33
HETATM   33  C18 UNL     1       4.384   7.338  10.726  1.00  0.00     0.082 C 
HETATM   34  C19 UNL     1       4.363   7.518  12.245  1.00  0.00     0.049 C 
HETATM   35  C20 UNL     1       4.853   8.658  10.086  1.00  0.00     0.049 C 
BRANCH  33  36
HETATM   36  O3  UNL     1       5.441   6.392  10.450  1.00  0.00    -0.388 OA
HETATM   37  H37 UNL     1       5.301   6.138   9.515  1.00  0.00     0.210 HD
ENDBRANCH  33  36
ENDBRANCH   9  33
TORSDOF 9
ENDMDL
MODEL 2
REMARK minimizedAffinity -8.2567997
REMARK  9 active torsions:
REMARK  status: ('A' for Active; 'I' for Inactive)
REMARK    1  A    between atoms: C2_2  and  C3_3 
REMARK    2  A    between atoms: C2_2  and  C9_11 
REMARK    3  A    between atoms: C3_3  and  C4_4 
REMARK    4  A    between atoms: C4_4  and  C5_5 
REMARK    5  A    between atoms: C5_5  and  O1_6 
REMARK    6  A    between atoms: C5_5  and  C6_7 
REMARK    7  A    between atoms: C6_7  and  O2_10 
REMARK    8  A    between atoms: C17_19  and  C18_20 
REMARK    9  A    between atoms: C18_20  and  O3_23 
ROOT
HETATM    1  C9  UNL     1      -1.161   6.704  12.484  1.00  0.00    -0.002 C 
HETATM    2  C10 UNL     1       0.041   7.496  11.893  1.00  0.00     0.006 C 
HETATM    3  C11 UNL     1       0.188   8.785  12.747  1.00  0.00     0.011 C 
HETATM    4  C12 UNL     1      -1.094   8.833  13.604  1.00  0.00    -0.032 C 
HETATM    5  C13 UNL     1      -2.192   9.442  12.667  1.00  0.00     0.016 C 
HETATM    6  C14 UNL     1      -0.993   9.612  14.947  1.00  0.00     0.003 C 
HETATM    7  C15 UNL     1      -0.530  11.067  14.811  1.00  0.00     0.009 C 
HETATM    8  C16 UNL     1      -0.756  11.935  16.048  1.00  0.00     0.042 C 
HETATM    9  C17 UNL     1      -0.920  11.224  17.420  1.00  0.00     0.095 C 
HETATM   10  O4  UNL     1      -1.577  12.199  18.294  1.00  0.00    -0.377 OA
HETATM   11  C21 UNL     1      -2.989  12.261  18.189  1.00  0.00     0.169 C 
HETATM   12  C22 UNL     1      -3.614  11.001  18.744  1.00  0.00     0.027 C 
HETATM   13  C23 UNL     1      -2.783   9.752  18.476  1.00  0.00     0.010 C 
HETATM   14  C24 UNL     1      -1.731   9.873  17.349  1.00  0.00     0.032 C 
HETATM   15  C25 UNL     1      -2.232   9.429  15.901  1.00  0.00    -0.033 C 
HETATM   16  C26 UNL     1      -3.468  10.234  15.447  1.00  0.00     0.016 C 
HETATM   17  C27 UNL     1      -2.689   7.917  15.959  1.00  0.00     0.011 C 
HETATM   18  C28 UNL     1      -2.629   7.110  14.641  1.00  0.00     0.011 C 
HETATM   19  C29 UNL     1      -1.286   7.298  13.919  1.00  0.00    -0.032 C 
HETATM   20  C30 UNL     1      -0.183   6.676  14.832  1.00  0.00     0.016 C 
ENDROOT
BRANCH   1  21
HETATM   21  C2  UNL     1      -1.141   5.157  12.306  1.00  0.00    -0.014 C 
HETATM   22  C1  UNL     1      -0.042   4.568  13.211  1.00  0.00     0.010 C 
BRANCH  21  23
HETATM   23  C3  UNL     1      -2.478   4.429  12.582  1.00  0.00     0.007 C 
BRANCH  23  24
HETATM   24  C4  UNL     1      -2.965   3.598  11.380  1.00  0.00     0.035 C 
BRANCH  24  25
HETATM   25  C5  UNL     1      -3.875   2.431  11.811  1.00  0.00     0.151 C 
BRANCH  25  26
HETATM   26  O1  UNL     1      -3.278   1.183  11.449  1.00  0.00    -0.393 OA
HETATM   27  H10 UNL     1      -2.929   1.266  10.544  1.00  0.00     0.210 HD
ENDBRANCH  25  26
BRANCH  25  28
HETATM   28  C6  UNL     1      -5.329   2.533  11.256  1.00  0.00     0.076 C 
HETATM   29  C7  UNL     1      -6.050   1.181  11.236  1.00  0.00     0.048 C 
HETATM   30  C8  UNL     1      -6.144   3.531  12.091  1.00  0.00     0.048 C 
BRANCH  28  31
HETATM   31  O2  UNL     1      -5.280   3.024   9.910  1.00  0.00    -0.388 OA
HETATM   32  H17 UNL     1      -6.194   3.145   9.599  1.00  0.00     0.210 HD
ENDBRANCH  28  31
ENDBRANCH  25  28
ENDBRANCH  24  25
ENDBRANCH  23  24
ENDBRANCH  21  23
ENDBRANCH   1  21
BRANCH   9  33
HETATM   33  C18 UNL     1       0.499  11.054  18.142  1.00  0.00     0.082 C 
HETATM   34  C19 UNL     1       0.464  11.037  19.672  1.00  0.00     0.049 C 
HETATM   35  C20 UNL     1       1.540  12.095  17.691  1.00  0.00     0.049 C 
BRANCH  33  36
HETATM   36  O3  UNL     1       1.047   9.779  17.741  1.00  0.00    -0.388 OA
HETATM   37  H37 UNL     1       0.869   9.730  16.780  1.00  0.00     0.210 HD
ENDBRANCH  33  36
ENDBRANCH   9  33
TORSDOF 9
ENDMDL
MODEL 3
REMARK minimizedAffinity -8.10884094
REMARK  9 active torsions:
REMARK  status: ('A' for Active; 'I' for Inactive)
REMARK    1  A    between atoms: C2_2  and  C3_3 
REMARK    2  A    between atoms: C2_2  and  C9_11 
REMARK    3  A    between atoms: C3_3  and  C4_4 
REMARK    4  A    between atoms: C4_4  and  C5_5 
REMARK    5  A    between atoms: C5_5  and  O1_6 
REMARK    6  A    between atoms: C5_5  and  C6_7 
REMARK    7  A    between atoms: C6_7  and  O2_10 
REMARK    8  A    between atoms: C17_19  and  C18_20 
REMARK    9  A    between atoms: C18_20  and  O3_23 
ROOT
HETATM    1  C9  UNL     1      -0.670   6.038  12.071  1.00  0.00    -0.002 C 
HETATM    2  C10 UNL     1      -0.130   4.591  11.884  1.00  0.00     0.006 C 
HETATM    3  C11 UNL     1       1.387   4.718  11.576  1.00  0.00     0.011 C 
HETATM    4  C12 UNL     1       1.607   6.223  11.311  1.00  0.00    -0.032 C 
HETATM    5  C13 UNL     1       1.167   6.447   9.823  1.00  0.00     0.016 C 
HETATM    6  C14 UNL     1       3.041   6.764  11.572  1.00  0.00     0.003 C 
HETATM    7  C15 UNL     1       4.150   6.041  10.797  1.00  0.00     0.009 C 
HETATM    8  C16 UNL     1       5.494   6.766  10.767  1.00  0.00     0.042 C 
HETATM    9  C17 UNL     1       5.783   7.817  11.874  1.00  0.00     0.095 C 
HETATM   10  O4  UNL     1       6.863   8.657  11.349  1.00  0.00    -0.377 OA
HETATM   11  C21 UNL     1       6.457   9.711  10.493  1.00  0.00     0.169 C 
HETATM   12  C22 UNL     1       5.708  10.766  11.276  1.00  0.00     0.027 C 
HETATM   13  C23 UNL     1       4.853  10.186  12.397  1.00  0.00     0.010 C 
HETATM   14  C24 UNL     1       4.527   8.680  12.283  1.00  0.00     0.032 C 
HETATM   15  C25 UNL     1       3.163   8.333  11.533  1.00  0.00    -0.033 C 
HETATM   16  C26 UNL     1       3.131   8.906  10.100  1.00  0.00     0.016 C 
HETATM   17  C27 UNL     1       1.966   9.017  12.306  1.00  0.00     0.011 C 
HETATM   18  C28 UNL     1       0.570   8.367  12.164  1.00  0.00     0.011 C 
HETATM   19  C29 UNL     1       0.625   6.847  12.379  1.00  0.00    -0.032 C 
HETATM   20  C30 UNL     1       1.040   6.608  13.865  1.00  0.00     0.016 C 
ENDROOT
BRANCH   1  21
HETATM   21  C2  UNL     1      -1.910   6.213  12.997  1.00  0.00    -0.014 C 
HETATM   22  C1  UNL     1      -2.463   7.640  12.821  1.00  0.00     0.010 C 
BRANCH  21  23
HETATM   23  C3  UNL     1      -3.053   5.191  12.794  1.00  0.00     0.007 C 
BRANCH  23  24
HETATM   24  C4  UNL     1      -2.839   4.295  11.559  1.00  0.00     0.035 C 
BRANCH  24  25
HETATM   25  C5  UNL     1      -3.450   2.892  11.747  1.00  0.00     0.151 C 
BRANCH  25  26
HETATM   26  O1  UNL     1      -2.600   1.903  11.158  1.00  0.00    -0.393 OA
HETATM   27  H10 UNL     1      -2.308   2.234  10.290  1.00  0.00     0.210 HD
ENDBRANCH  25  26
BRANCH  25  28
HETATM   28  C6  UNL     1      -4.906   2.765  11.206  1.00  0.00     0.076 C 
HETATM   29  C7  UNL     1      -5.426   1.323  11.238  1.00  0.00     0.048 C 
HETATM   30  C8  UNL     1      -5.851   3.662  12.018  1.00  0.00     0.048 C 
BRANCH  28  31
HETATM   31  O2  UNL     1      -4.938   3.212   9.844  1.00  0.00    -0.388 OA
HETATM   32  H17 UNL     1      -5.861   3.190   9.540  1.00  0.00     0.210 HD
ENDBRANCH  28  31
ENDBRANCH  25  28
ENDBRANCH  24  25
ENDBRANCH  23  24
ENDBRANCH  21  23
ENDBRANCH   1  21
BRANCH   9  33
HETATM   33  C18 UNL     1       6.497   7.132  13.132  1.00  0.00     0.082 C 
HETATM   34  C19 UNL     1       5.828   7.376  14.486  1.00  0.00     0.049 C 
HETATM   35  C20 UNL     1       7.990   7.491  13.254  1.00  0.00     0.049 C 
BRANCH  33  36
HETATM   36  O3  UNL     1       6.472   5.701  12.928  1.00  0.00    -0.388 OA
HETATM   37  H37 UNL     1       6.709   5.587  11.985  1.00  0.00     0.210 HD
ENDBRANCH  33  36
ENDBRANCH   9  33
TORSDOF 9
ENDMDL
MODEL 4
REMARK minimizedAffinity -8.10722065
REMARK  9 active torsions:
REMARK  status: ('A' for Active; 'I' for Inactive)
REMARK    1  A    between atoms: C2_2  and  C3_3 
REMARK    2  A    between atoms: C2_2  and  C9_11 
REMARK    3  A    between atoms: C3_3  and  C4_4 
REMARK    4  A    between atoms: C4_4  and  C5_5 
REMARK    5  A    between atoms: C5_5  and  O1_6 
REMARK    6  A    between atoms: C5_5  and  C6_7 
REMARK    7  A    between atoms: C6_7  and  O2_10 
REMARK    8  A    between atoms: C17_19  and  C18_20 
REMARK    9  A    between atoms: C18_20  and  O3_23 
ROOT
HETATM    1  C9  UNL     1      -2.737   6.364  14.109  1.00  0.00    -0.002 C 
HETATM    2  C10 UNL     1      -3.193   7.820  13.803  1.00  0.00     0.006 C 
HETATM    3  C11 UNL     1      -2.059   8.477  12.970  1.00  0.00     0.011 C 
HETATM    4  C12 UNL     1      -0.879   7.487  13.069  1.00  0.00    -0.032 C 
HETATM    5  C13 UNL     1      -0.200   7.794  14.448  1.00  0.00     0.016 C 
HETATM    6  C14 UNL     1       0.151   7.527  11.904  1.00  0.00     0.003 C 
HETATM    7  C15 UNL     1       0.782   8.902  11.653  1.00  0.00     0.009 C 
HETATM    8  C16 UNL     1       2.026   8.888  10.766  1.00  0.00     0.042 C 
HETATM    9  C17 UNL     1       2.234   7.676   9.817  1.00  0.00     0.095 C 
HETATM   10  O4  UNL     1       3.659   7.683   9.473  1.00  0.00    -0.377 OA
HETATM   11  C21 UNL     1       4.518   7.060  10.413  1.00  0.00     0.169 C 
HETATM   12  C22 UNL     1       4.294   5.564  10.420  1.00  0.00     0.027 C 
HETATM   13  C23 UNL     1       2.837   5.176  10.193  1.00  0.00     0.010 C 
HETATM   14  C24 UNL     1       1.797   6.292  10.438  1.00  0.00     0.032 C 
HETATM   15  C25 UNL     1       1.191   6.345  11.913  1.00  0.00    -0.033 C 
HETATM   16  C26 UNL     1       2.291   6.516  12.983  1.00  0.00     0.016 C 
HETATM   17  C27 UNL     1       0.484   4.966  12.224  1.00  0.00     0.011 C 
HETATM   18  C28 UNL     1      -0.652   4.976  13.274  1.00  0.00     0.011 C 
HETATM   19  C29 UNL     1      -1.653   6.113  13.018  1.00  0.00    -0.032 C 
HETATM   20  C30 UNL     1      -2.354   5.809  11.656  1.00  0.00     0.016 C 
ENDROOT
BRANCH   1  21
HETATM   21  C2  UNL     1      -3.858   5.304  14.319  1.00  0.00    -0.014 C 
HETATM   22  C1  UNL     1      -5.131   6.021  14.810  1.00  0.00     0.010 C 
BRANCH  21  23
HETATM   23  C3  UNL     1      -4.202   4.433  13.088  1.00  0.00     0.007 C 
BRANCH  23  24
HETATM   24  C4  UNL     1      -5.614   4.709  12.537  1.00  0.00     0.035 C 
BRANCH  24  25
HETATM   25  C5  UNL     1      -6.335   3.414  12.111  1.00  0.00     0.151 C 
BRANCH  25  26
HETATM   26  O1  UNL     1      -6.803   2.711  13.265  1.00  0.00    -0.393 OA
HETATM   27  H10 UNL     1      -6.094   2.719  13.933  1.00  0.00     0.210 HD
ENDBRANCH  25  26
BRANCH  25  28
HETATM   28  C6  UNL     1      -5.469   2.484  11.207  1.00  0.00     0.076 C 
HETATM   29  C7  UNL     1      -4.034   2.329  11.721  1.00  0.00     0.048 C 
HETATM   30  C8  UNL     1      -6.122   1.099  11.099  1.00  0.00     0.048 C 
BRANCH  28  31
HETATM   31  O2  UNL     1      -5.406   3.044   9.889  1.00  0.00    -0.388 OA
HETATM   32  H17 UNL     1      -4.920   2.422   9.320  1.00  0.00     0.210 HD
ENDBRANCH  28  31
ENDBRANCH  25  28
ENDBRANCH  24  25
ENDBRANCH  23  24
ENDBRANCH  21  23
ENDBRANCH   1  21
BRANCH   9  33
HETATM   33  C18 UNL     1       1.562   7.951   8.391  1.00  0.00     0.082 C 
HETATM   34  C19 UNL     1       0.034   8.023   8.382  1.00  0.00     0.049 C 
HETATM   35  C20 UNL     1       2.009   6.953   7.306  1.00  0.00     0.049 C 
BRANCH  33  36
HETATM   36  O3  UNL     1       2.025   9.239   7.927  1.00  0.00    -0.388 OA
HETATM   37  H37 UNL     1       2.982   9.242   8.136  1.00  0.00     0.210 HD
ENDBRANCH  33  36
ENDBRANCH   9  33
TORSDOF 9
ENDMDL
MODEL 5
REMARK minimizedAffinity -8.07164097
REMARK  9 active torsions:
REMARK  status: ('A' for Active; 'I' for Inactive)
REMARK    1  A    between atoms: C2_2  and  C3_3 
REMARK    2  A    between atoms: C2_2  and  C9_11 
REMARK    3  A    between atoms: C3_3  and  C4_4 
REMARK    4  A    between atoms: C4_4  and  C5_5 
REMARK    5  A    between atoms: C5_5  and  O1_6 
REMARK    6  A    between atoms: C5_5  and  C6_7 
REMARK    7  A    between atoms: C6_7  and  O2_10 
REMARK    8  A    between atoms: C17_19  and  C18_20 
REMARK    9  A    between atoms: C18_20  and  O3_23 
ROOT
HETATM    1  C9  UNL     1       7.496   8.729  14.173  1.00  0.00    -0.002 C 
HETATM    2  C10 UNL     1       6.572   9.483  15.173  1.00  0.00     0.006 C 
HETATM    3  C11 UNL     1       5.142   9.453  14.568  1.00  0.00     0.011 C 
HETATM    4  C12 UNL     1       5.340   8.944  13.124  1.00  0.00    -0.032 C 
HETATM    5  C13 UNL     1       5.785  10.202  12.303  1.00  0.00     0.016 C 
HETATM    6  C14 UNL     1       4.118   8.237  12.471  1.00  0.00     0.003 C 
HETATM    7  C15 UNL     1       2.833   9.074  12.444  1.00  0.00     0.009 C 
HETATM    8  C16 UNL     1       1.741   8.549  11.514  1.00  0.00     0.042 C 
HETATM    9  C17 UNL     1       1.782   7.049  11.112  1.00  0.00     0.095 C 
HETATM   10  O4  UNL     1       0.963   6.941   9.902  1.00  0.00    -0.377 OA
HETATM   11  C21 UNL     1       1.621   7.256   8.687  1.00  0.00     0.169 C 
HETATM   12  C22 UNL     1       2.653   6.199   8.359  1.00  0.00     0.027 C 
HETATM   13  C23 UNL     1       3.343   5.632   9.593  1.00  0.00     0.010 C 
HETATM   14  C24 UNL     1       3.237   6.487  10.876  1.00  0.00     0.032 C 
HETATM   15  C25 UNL     1       4.433   7.518  11.108  1.00  0.00    -0.033 C 
HETATM   16  C26 UNL     1       4.585   8.500   9.926  1.00  0.00     0.016 C 
HETATM   17  C27 UNL     1       5.792   6.714  11.188  1.00  0.00     0.011 C 
HETATM   18  C28 UNL     1       6.950   7.362  11.981  1.00  0.00     0.011 C 
HETATM   19  C29 UNL     1       6.483   7.879  13.351  1.00  0.00    -0.032 C 
HETATM   20  C30 UNL     1       6.056   6.632  14.190  1.00  0.00     0.016 C 
ENDROOT
BRANCH   1  21
HETATM   21  C2  UNL     1       8.759   8.037  14.766  1.00  0.00    -0.014 C 
HETATM   22  C1  UNL     1       9.994   8.487  13.962  1.00  0.00     0.010 C 
BRANCH  21  23
HETATM   23  C3  UNL     1       9.013   8.277  16.273  1.00  0.00     0.007 C 
BRANCH  23  24
HETATM   24  C4  UNL     1       9.674   9.639  16.558  1.00  0.00     0.035 C 
BRANCH  24  25
HETATM   25  C5  UNL     1       9.722   9.957  18.066  1.00  0.00     0.151 C 
BRANCH  25  26
HETATM   26  O1  UNL     1       8.441  10.410  18.513  1.00  0.00    -0.393 OA
HETATM   27  H10 UNL     1       8.097  11.041  17.856  1.00  0.00     0.210 HD
ENDBRANCH  25  26
BRANCH  25  28
HETATM   28  C6  UNL     1      10.837  10.975  18.456  1.00  0.00     0.076 C 
HETATM   29  C7  UNL     1      11.351  11.778  17.256  1.00  0.00     0.048 C 
HETATM   30  C8  UNL     1      10.316  11.942  19.528  1.00  0.00     0.048 C 
BRANCH  28  31
HETATM   31  O2  UNL     1      11.947  10.258  19.013  1.00  0.00    -0.388 OA
HETATM   32  H17 UNL     1      12.606  10.908  19.312  1.00  0.00     0.210 HD
ENDBRANCH  28  31
ENDBRANCH  25  28
ENDBRANCH  24  25
ENDBRANCH  23  24
ENDBRANCH  21  23
ENDBRANCH   1  21
BRANCH   9  33
HETATM   33  C18 UNL     1       0.939   6.163  12.145  1.00  0.00     0.082 C 
HETATM   34  C19 UNL     1       0.590   4.750  11.674  1.00  0.00     0.049 C 
HETATM   35  C20 UNL     1      -0.354   6.850  12.623  1.00  0.00     0.049 C 
BRANCH  33  36
HETATM   36  O3  UNL     1       1.738   5.999  13.338  1.00  0.00    -0.388 OA
HETATM   37  H37 UNL     1       2.117   6.887  13.500  1.00  0.00     0.210 HD
ENDBRANCH  33  36
ENDBRANCH   9  33
TORSDOF 9
ENDMDL
MODEL 6
REMARK minimizedAffinity -8.06706905
REMARK  9 active torsions:
REMARK  status: ('A' for Active; 'I' for Inactive)
REMARK    1  A    between atoms: C2_2  and  C3_3 
REMARK    2  A    between atoms: C2_2  and  C9_11 
REMARK    3  A    between atoms: C3_3  and  C4_4 
REMARK    4  A    between atoms: C4_4  and  C5_5 
REMARK    5  A    between atoms: C5_5  and  O1_6 
REMARK    6  A    between atoms: C5_5  and  C6_7 
REMARK    7  A    between atoms: C6_7  and  O2_10 
REMARK    8  A    between atoms: C17_19  and  C18_20 
REMARK    9  A    between atoms: C18_20  and  O3_23 
ROOT
HETATM    1  C9  UNL     1      -2.930   7.537  14.676  1.00  0.00    -0.002 C 
HETATM    2  C10 UNL     1      -2.422   7.834  16.117  1.00  0.00     0.006 C 
HETATM    3  C11 UNL     1      -0.872   7.879  16.043  1.00  0.00     0.011 C 
HETATM    4  C12 UNL     1      -0.532   7.328  14.642  1.00  0.00    -0.032 C 
HETATM    5  C13 UNL     1      -0.594   5.769  14.788  1.00  0.00     0.016 C 
HETATM    6  C14 UNL     1       0.821   7.792  14.030  1.00  0.00     0.003 C 
HETATM    7  C15 UNL     1       2.050   7.501  14.900  1.00  0.00     0.009 C 
HETATM    8  C16 UNL     1       3.393   7.626  14.181  1.00  0.00     0.042 C 
HETATM    9  C17 UNL     1       3.454   8.490  12.891  1.00  0.00     0.095 C 
HETATM   10  O4  UNL     1       4.662   8.058  12.183  1.00  0.00    -0.377 OA
HETATM   11  C21 UNL     1       4.517   6.905  11.371  1.00  0.00     0.169 C 
HETATM   12  C22 UNL     1       3.648   7.213  10.172  1.00  0.00     0.027 C 
HETATM   13  C23 UNL     1       2.527   8.198  10.481  1.00  0.00     0.010 C 
HETATM   14  C24 UNL     1       2.174   8.368  11.976  1.00  0.00     0.032 C 
HETATM   15  C25 UNL     1       1.014   7.414  12.515  1.00  0.00    -0.033 C 
HETATM   16  C26 UNL     1       1.350   5.922  12.301  1.00  0.00     0.016 C 
HETATM   17  C27 UNL     1      -0.302   7.692  11.685  1.00  0.00     0.011 C 
HETATM   18  C28 UNL     1      -1.650   7.374  12.373  1.00  0.00     0.011 C 
HETATM   19  C29 UNL     1      -1.712   7.949  13.797  1.00  0.00    -0.032 C 
HETATM   20  C30 UNL     1      -1.674   9.504  13.666  1.00  0.00     0.016 C 
ENDROOT
BRANCH   1  21
HETATM   21  C2  UNL     1      -4.346   8.069  14.306  1.00  0.00    -0.014 C 
HETATM   22  C1  UNL     1      -4.363   8.428  12.808  1.00  0.00     0.010 C 
BRANCH  21  23
HETATM   23  C3  UNL     1      -5.526   7.118  14.618  1.00  0.00     0.007 C 
BRANCH  23  24
HETATM   24  C4  UNL     1      -6.013   6.345  13.379  1.00  0.00     0.035 C 
BRANCH  24  25
HETATM   25  C5  UNL     1      -6.072   4.824  13.629  1.00  0.00     0.151 C 
BRANCH  25  26
HETATM   26  O1  UNL     1      -5.297   4.135  12.645  1.00  0.00    -0.393 OA
HETATM   27  H10 UNL     1      -5.491   4.530  11.776  1.00  0.00     0.210 HD
ENDBRANCH  25  26
BRANCH  25  28
HETATM   28  C6  UNL     1      -7.522   4.255  13.692  1.00  0.00     0.076 C 
HETATM   29  C7  UNL     1      -8.542   5.153  12.982  1.00  0.00     0.048 C 
HETATM   30  C8  UNL     1      -7.565   2.851  13.072  1.00  0.00     0.048 C 
BRANCH  28  31
HETATM   31  O2  UNL     1      -7.918   4.141  15.065  1.00  0.00    -0.388 OA
HETATM   32  H17 UNL     1      -8.797   3.724  15.093  1.00  0.00     0.210 HD
ENDBRANCH  28  31
ENDBRANCH  25  28
ENDBRANCH  24  25
ENDBRANCH  23  24
ENDBRANCH  21  23
ENDBRANCH   1  21
BRANCH   9  33
HETATM   33  C18 UNL     1       3.818  10.009  13.243  1.00  0.00     0.082 C 
HETATM   34  C19 UNL     1       4.830  10.679  12.313  1.00  0.00     0.049 C 
HETATM   35  C20 UNL     1       4.291  10.199  14.696  1.00  0.00     0.049 C 
BRANCH  33  36
HETATM   36  O3  UNL     1       2.605  10.787  13.140  1.00  0.00    -0.388 OA
HETATM   37  H37 UNL     1       1.923  10.232  13.571  1.00  0.00     0.210 HD
ENDBRANCH  33  36
ENDBRANCH   9  33
TORSDOF 9
ENDMDL
MODEL 7
REMARK minimizedAffinity -7.9569459
REMARK  9 active torsions:
REMARK  status: ('A' for Active; 'I' for Inactive)
REMARK    1  A    between atoms: C2_2  and  C3_3 
REMARK    2  A    between atoms: C2_2  and  C9_11 
REMARK    3  A    between atoms: C3_3  and  C4_4 
REMARK    4  A    between atoms: C4_4  and  C5_5 
REMARK    5  A    between atoms: C5_5  and  O1_6 
REMARK    6  A    between atoms: C5_5  and  C6_7 
REMARK    7  A    between atoms: C6_7  and  O2_10 
REMARK    8  A    between atoms: C17_19  and  C18_20 
REMARK    9  A    between atoms: C18_20  and  O3_23 
ROOT
HETATM    1  C9  UNL     1      -2.865   7.935  14.735  1.00  0.00    -0.002 C 
HETATM    2  C10 UNL     1      -2.290   8.167  16.162  1.00  0.00     0.006 C 
HETATM    3  C11 UNL     1      -0.744   8.100  16.036  1.00  0.00     0.011 C 
HETATM    4  C12 UNL     1      -0.491   7.552  14.616  1.00  0.00    -0.032 C 
HETATM    5  C13 UNL     1      -0.664   5.999  14.738  1.00  0.00     0.016 C 
HETATM    6  C14 UNL     1       0.872   7.927  13.967  1.00  0.00     0.003 C 
HETATM    7  C15 UNL     1       2.104   7.530  14.790  1.00  0.00     0.009 C 
HETATM    8  C16 UNL     1       3.428   7.570  14.029  1.00  0.00     0.042 C 
HETATM    9  C17 UNL     1       3.511   8.451  12.752  1.00  0.00     0.095 C 
HETATM   10  O4  UNL     1       4.661   7.946  11.997  1.00  0.00    -0.377 OA
HETATM   11  C21 UNL     1       4.405   6.822  11.172  1.00  0.00     0.169 C 
HETATM   12  C22 UNL     1       3.523   7.215  10.007  1.00  0.00     0.027 C 
HETATM   13  C23 UNL     1       2.488   8.273  10.370  1.00  0.00     0.010 C 
HETATM   14  C24 UNL     1       2.197   8.441  11.878  1.00  0.00     0.032 C 
HETATM   15  C25 UNL     1       0.988   7.564  12.440  1.00  0.00    -0.033 C 
HETATM   16  C26 UNL     1       1.205   6.056  12.191  1.00  0.00     0.016 C 
HETATM   17  C27 UNL     1      -0.330   7.953  11.660  1.00  0.00     0.011 C 
HETATM   18  C28 UNL     1      -1.676   7.722  12.387  1.00  0.00     0.011 C 
HETATM   19  C29 UNL     1      -1.649   8.273  13.822  1.00  0.00    -0.032 C 
HETATM   20  C30 UNL     1      -1.500   9.824  13.715  1.00  0.00     0.016 C 
ENDROOT
BRANCH   1  21
HETATM   21  C2  UNL     1      -4.249   8.576  14.420  1.00  0.00    -0.014 C 
HETATM   22  C1  UNL     1      -4.747   8.038  13.065  1.00  0.00     0.010 C 
BRANCH  21  23
HETATM   23  C3  UNL     1      -5.346   8.367  15.490  1.00  0.00     0.007 C 
BRANCH  23  24
HETATM   24  C4  UNL     1      -6.768   8.391  14.898  1.00  0.00     0.035 C 
BRANCH  24  25
HETATM   25  C5  UNL     1      -7.798   7.726  15.834  1.00  0.00     0.151 C 
BRANCH  25  26
HETATM   26  O1  UNL     1      -7.140   7.186  16.983  1.00  0.00    -0.393 OA
HETATM   27  H10 UNL     1      -6.334   6.730  16.683  1.00  0.00     0.210 HD
ENDBRANCH  25  26
BRANCH  25  28
HETATM   28  C6  UNL     1      -8.671   6.640  15.133  1.00  0.00     0.076 C 
HETATM   29  C7  UNL     1     -10.095   7.124  14.841  1.00  0.00     0.048 C 
HETATM   30  C8  UNL     1      -8.007   6.195  13.822  1.00  0.00     0.048 C 
BRANCH  28  31
HETATM   31  O2  UNL     1      -8.764   5.494  15.990  1.00  0.00    -0.388 OA
HETATM   32  H17 UNL     1      -9.254   4.801  15.515  1.00  0.00     0.210 HD
ENDBRANCH  28  31
ENDBRANCH  25  28
ENDBRANCH  24  25
ENDBRANCH  23  24
ENDBRANCH  21  23
ENDBRANCH   1  21
BRANCH   9  33
HETATM   33  C18 UNL     1       3.997   9.932  13.116  1.00  0.00     0.082 C 
HETATM   34  C19 UNL     1       4.992  10.561  12.139  1.00  0.00     0.049 C 
HETATM   35  C20 UNL     1       4.572  10.050  14.540  1.00  0.00     0.049 C 
BRANCH  33  36
HETATM   36  O3  UNL     1       2.835  10.791  13.110  1.00  0.00    -0.388 OA
HETATM   37  H37 UNL     1       2.146  10.269  13.571  1.00  0.00     0.210 HD
ENDBRANCH  33  36
ENDBRANCH   9  33
TORSDOF 9
ENDMDL
MODEL 8
REMARK minimizedAffinity -7.89832783
REMARK  9 active torsions:
REMARK  status: ('A' for Active; 'I' for Inactive)
REMARK    1  A    between atoms: C2_2  and  C3_3 
REMARK    2  A    between atoms: C2_2  and  C9_11 
REMARK    3  A    between atoms: C3_3  and  C4_4 
REMARK    4  A    between atoms: C4_4  and  C5_5 
REMARK    5  A    between atoms: C5_5  and  O1_6 
REMARK    6  A    between atoms: C5_5  and  C6_7 
REMARK    7  A    between atoms: C6_7  and  O2_10 
REMARK    8  A    between atoms: C17_19  and  C18_20 
REMARK    9  A    between atoms: C18_20  and  O3_23 
ROOT
HETATM    1  C9  UNL     1      -5.196   6.591  14.045  1.00  0.00    -0.002 C 
HETATM    2  C10 UNL     1      -4.524   5.744  12.926  1.00  0.00     0.006 C 
HETATM    3  C11 UNL     1      -3.088   6.306  12.743  1.00  0.00     0.011 C 
HETATM    4  C12 UNL     1      -3.080   7.624  13.545  1.00  0.00    -0.032 C 
HETATM    5  C13 UNL     1      -3.740   8.685  12.599  1.00  0.00     0.016 C 
HETATM    6  C14 UNL     1      -1.695   8.104  14.064  1.00  0.00     0.003 C 
HETATM    7  C15 UNL     1      -0.626   8.273  12.977  1.00  0.00     0.009 C 
HETATM    8  C16 UNL     1       0.610   9.063  13.404  1.00  0.00     0.042 C 
HETATM    9  C17 UNL     1       0.925   9.162  14.922  1.00  0.00     0.095 C 
HETATM   10  O4  UNL     1       1.820  10.313  15.066  1.00  0.00    -0.377 OA
HETATM   11  C21 UNL     1       1.184  11.577  15.143  1.00  0.00     0.169 C 
HETATM   12  C22 UNL     1       0.433  11.709  16.450  1.00  0.00     0.027 C 
HETATM   13  C23 UNL     1      -0.190  10.399  16.917  1.00  0.00     0.010 C 
HETATM   14  C24 UNL     1      -0.354   9.308  15.835  1.00  0.00     0.032 C 
HETATM   15  C25 UNL     1      -1.759   9.304  15.080  1.00  0.00    -0.033 C 
HETATM   16  C26 UNL     1      -2.051  10.658  14.398  1.00  0.00     0.016 C 
HETATM   17  C27 UNL     1      -2.910   9.091  16.142  1.00  0.00     0.011 C 
HETATM   18  C28 UNL     1      -4.229   8.461  15.638  1.00  0.00     0.011 C 
HETATM   19  C29 UNL     1      -3.972   7.212  14.781  1.00  0.00    -0.032 C 
HETATM   20  C30 UNL     1      -3.334   6.137  15.717  1.00  0.00     0.016 C 
ENDROOT
BRANCH   1  21
HETATM   21  C2  UNL     1      -6.310   5.895  14.882  1.00  0.00    -0.014 C 
HETATM   22  C1  UNL     1      -7.455   6.899  15.114  1.00  0.00     0.010 C 
BRANCH  21  23
HETATM   23  C3  UNL     1      -6.885   4.589  14.285  1.00  0.00     0.007 C 
BRANCH  23  24
HETATM   24  C4  UNL     1      -6.931   4.607  12.745  1.00  0.00     0.035 C 
BRANCH  24  25
HETATM   25  C5  UNL     1      -7.153   3.200  12.155  1.00  0.00     0.151 C 
BRANCH  25  26
HETATM   26  O1  UNL     1      -7.702   2.331  13.150  1.00  0.00    -0.393 OA
HETATM   27  H10 UNL     1      -7.217   2.479  13.981  1.00  0.00     0.210 HD
ENDBRANCH  25  26
BRANCH  25  28
HETATM   28  C6  UNL     1      -5.872   2.577  11.520  1.00  0.00     0.076 C 
HETATM   29  C7  UNL     1      -6.024   1.080  11.229  1.00  0.00     0.048 C 
HETATM   30  C8  UNL     1      -5.516   3.313  10.221  1.00  0.00     0.048 C 
BRANCH  28  31
HETATM   31  O2  UNL     1      -4.776   2.738  12.431  1.00  0.00    -0.388 OA
HETATM   32  H17 UNL     1      -3.972   2.406  11.997  1.00  0.00     0.210 HD
ENDBRANCH  28  31
ENDBRANCH  25  28
ENDBRANCH  24  25
ENDBRANCH  23  24
ENDBRANCH  21  23
ENDBRANCH   1  21
BRANCH   9  33
HETATM   33  C18 UNL     1       1.877   7.960  15.383  1.00  0.00     0.082 C 
HETATM   34  C19 UNL     1       3.273   8.367  15.858  1.00  0.00     0.049 C 
HETATM   35  C20 UNL     1       2.027   6.860  14.316  1.00  0.00     0.049 C 
BRANCH  33  36
HETATM   36  O3  UNL     1       1.247   7.306  16.507  1.00  0.00    -0.388 OA
HETATM   37  H37 UNL     1       0.304   7.243  16.254  1.00  0.00     0.210 HD
ENDBRANCH  33  36
ENDBRANCH   9  33
TORSDOF 9
ENDMDL
MODEL 9
REMARK minimizedAffinity -7.89826441
REMARK  9 active torsions:
REMARK  status: ('A' for Active; 'I' for Inactive)
REMARK    1  A    between atoms: C2_2  and  C3_3 
REMARK    2  A    between atoms: C2_2  and  C9_11 
REMARK    3  A    between atoms: C3_3  and  C4_4 
REMARK    4  A    between atoms: C4_4  and  C5_5 
REMARK    5  A    between atoms: C5_5  and  O1_6 
REMARK    6  A    between atoms: C5_5  and  C6_7 
REMARK    7  A    between atoms: C6_7  and  O2_10 
REMARK    8  A    between atoms: C17_19  and  C18_20 
REMARK    9  A    between atoms: C18_20  and  O3_23 
ROOT
HETATM    1  C9  UNL     1      -0.279   5.966  11.329  1.00  0.00    -0.002 C 
HETATM    2  C10 UNL     1       0.334   4.537  11.272  1.00  0.00     0.006 C 
HETATM    3  C11 UNL     1       1.875   4.716  11.211  1.00  0.00     0.011 C 
HETATM    4  C12 UNL     1       2.084   6.222  10.946  1.00  0.00    -0.032 C 
HETATM    5  C13 UNL     1       1.887   6.398   9.402  1.00  0.00     0.016 C 
HETATM    6  C14 UNL     1       3.437   6.823  11.423  1.00  0.00     0.003 C 
HETATM    7  C15 UNL     1       4.681   6.127  10.859  1.00  0.00     0.009 C 
HETATM    8  C16 UNL     1       5.987   6.902  11.028  1.00  0.00     0.042 C 
HETATM    9  C17 UNL     1       6.054   7.986  12.140  1.00  0.00     0.095 C 
HETATM   10  O4  UNL     1       7.176   8.856  11.776  1.00  0.00    -0.377 OA
HETATM   11  C21 UNL     1       6.880   9.876  10.837  1.00  0.00     0.169 C 
HETATM   12  C22 UNL     1       5.977  10.918  11.460  1.00  0.00     0.027 C 
HETATM   13  C23 UNL     1       4.970  10.328  12.441  1.00  0.00     0.010 C 
HETATM   14  C24 UNL     1       4.719   8.808  12.316  1.00  0.00     0.032 C 
HETATM   15  C25 UNL     1       3.509   8.394  11.362  1.00  0.00    -0.033 C 
HETATM   16  C26 UNL     1       3.693   8.937   9.929  1.00  0.00     0.016 C 
HETATM   17  C27 UNL     1       2.179   9.048  11.912  1.00  0.00     0.011 C 
HETATM   18  C28 UNL     1       0.848   8.342  11.561  1.00  0.00     0.011 C 
HETATM   19  C29 UNL     1       0.920   6.830  11.823  1.00  0.00    -0.032 C 
HETATM   20  C30 UNL     1       1.094   6.638  13.363  1.00  0.00     0.016 C 
ENDROOT
BRANCH   1  21
HETATM   21  C2  UNL     1      -1.659   6.112  12.037  1.00  0.00    -0.014 C 
HETATM   22  C1  UNL     1      -2.304   4.719  12.156  1.00  0.00     0.010 C 
BRANCH  21  23
HETATM   23  C3  UNL     1      -1.634   6.787  13.429  1.00  0.00     0.007 C 
BRANCH  23  24
HETATM   24  C4  UNL     1      -2.609   6.133  14.426  1.00  0.00     0.035 C 
BRANCH  24  25
HETATM   25  C5  UNL     1      -3.335   7.177  15.298  1.00  0.00     0.151 C 
BRANCH  25  26
HETATM   26  O1  UNL     1      -2.963   7.014  16.670  1.00  0.00    -0.393 OA
HETATM   27  H10 UNL     1      -2.975   6.062  16.875  1.00  0.00     0.210 HD
ENDBRANCH  25  26
BRANCH  25  28
HETATM   28  C6  UNL     1      -4.885   7.159  15.138  1.00  0.00     0.076 C 
HETATM   29  C7  UNL     1      -5.514   8.547  15.306  1.00  0.00     0.048 C 
HETATM   30  C8  UNL     1      -5.266   6.594  13.762  1.00  0.00     0.048 C 
BRANCH  28  31
HETATM   31  O2  UNL     1      -5.447   6.298  16.137  1.00  0.00    -0.388 OA
HETATM   32  H17 UNL     1      -6.406   6.244  15.985  1.00  0.00     0.210 HD
ENDBRANCH  28  31
ENDBRANCH  25  28
ENDBRANCH  24  25
ENDBRANCH  23  24
ENDBRANCH  21  23
ENDBRANCH   1  21
BRANCH   9  33
HETATM   33  C18 UNL     1       6.576   7.354  13.515  1.00  0.00     0.082 C 
HETATM   34  C19 UNL     1       5.734   7.676  14.752  1.00  0.00     0.049 C 
HETATM   35  C20 UNL     1       8.045   7.698  13.824  1.00  0.00     0.049 C 
BRANCH  33  36
HETATM   36  O3  UNL     1       6.549   5.916  13.378  1.00  0.00    -0.388 OA
HETATM   37  H37 UNL     1       6.910   5.752  12.482  1.00  0.00     0.210 HD
ENDBRANCH  33  36
ENDBRANCH   9  33
TORSDOF 9
ENDMDL
