MODEL 1
REMARK minimizedAffinity -8.26671886
REMARK CNNscore 0.767975271
REMARK CNNaffinity 7.13560915
REMARK  12 active torsions:
REMARK  status: ('A' for Active; 'I' for Inactive)
REMARK    1  A    between atoms: N1_6  and  O1_8 
REMARK    2  A    between atoms: O1_8  and  C6_9 
REMARK    3  A    between atoms: C6_9  and  C7_10 
REMARK       I    between atoms: C7_10  and  N2_12 
REMARK    4  A    between atoms: N2_12  and  C8_13 
REMARK    5  A    between atoms: C8_13  and  C9_14 
REMARK    6  A    between atoms: C12_17  and  C13_18 
REMARK    7  A    between atoms: C13_18  and  O4_20 
REMARK    8  A    between atoms: C22_29  and  O5_30 
REMARK    9  A    between atoms: C29_37  and  O6_38 
REMARK   10  A    between atoms: C29_37  and  C30_39 
REMARK   11  A    between atoms: C30_39  and  C31_41 
REMARK   12  A    between atoms: C31_41  and  O8_42 
ROOT
HETATM    1  C1  UNL     1       2.740  55.859 -10.914  1.00  0.00     0.020 C 
HETATM    2  C2  UNL     1       2.161  54.672 -10.114  1.00  0.00    -0.014 C 
HETATM    3  C3  UNL     1       3.054  53.418 -10.354  1.00  0.00     0.020 C 
HETATM    4  C4  UNL     1       2.882  52.789 -11.732  1.00  0.00     0.060 C 
HETATM    5  C5  UNL     1       1.427  52.434 -11.954  1.00  0.00     0.032 C 
HETATM    6  N1  UNL     1       1.002  51.392 -12.607  1.00  0.00    -0.271 N 
ATOM      7  H1  UNL     1       0.016  51.168 -12.737  1.00  0.00     0.194 HD
HETATM    8  C16 UNL     1       0.409  53.379 -11.430  1.00  0.00     0.030 C 
HETATM    9  C17 UNL     1       0.742  54.415 -10.641  1.00  0.00    -0.069 C 
HETATM   10  C18 UNL     1      -0.310  55.423 -10.246  1.00  0.00     0.035 C 
HETATM   11  C19 UNL     1      -0.359  55.621  -8.738  1.00  0.00     0.010 C 
HETATM   12  C20 UNL     1       1.015  56.001  -8.164  1.00  0.00    -0.002 C 
HETATM   13  C21 UNL     1       2.084  54.932  -8.555  1.00  0.00     0.031 C 
HETATM   14  C22 UNL     1       3.448  55.180  -7.848  1.00  0.00     0.124 C 
HETATM   15  C23 UNL     1       3.314  55.420  -6.328  1.00  0.00     0.045 C 
HETATM   16  C24 UNL     1       2.278  56.507  -5.962  1.00  0.00     0.001 C 
HETATM   17  C25 UNL     1       2.772  57.910  -6.406  1.00  0.00     0.019 C 
HETATM   18  C26 UNL     1       0.946  56.093  -6.632  1.00  0.00     0.002 C 
HETATM   19  C27 UNL     1      -0.077  57.035  -6.010  1.00  0.00     0.009 C 
HETATM   20  C28 UNL     1       0.393  57.189  -4.552  1.00  0.00     0.047 C 
HETATM   21  C29 UNL     1       1.820  56.567  -4.466  1.00  0.00     0.128 C 
ENDROOT
BRANCH   6  22
HETATM   22  O1  UNL     1       2.052  50.614 -13.110  1.00  0.00    -0.271 OA
BRANCH  22  23
HETATM   23  C6  UNL     1       2.283  50.978 -14.469  1.00  0.00     0.303 C 
BRANCH  23  24
HETATM   24  C7  UNL     1       1.095  50.593 -15.342  1.00  0.00     0.244 C 
HETATM   25  O2  UNL     1       0.267  49.757 -14.992  1.00  0.00    -0.271 OA
HETATM   26  N2  UNL     1       0.998  51.318 -16.512  1.00  0.00    -0.355 N 
HETATM   27  H10 UNL     1       1.823  51.834 -16.796  1.00  0.00     0.162 HD
BRANCH  26  28
HETATM   28  C8  UNL     1      -0.033  51.062 -17.489  1.00  0.00     0.161 C 
BRANCH  28  29
HETATM   29  C9  UNL     1       0.262  51.765 -18.789  1.00  0.00    -0.040 A 
HETATM   30  C10 UNL     1       0.926  53.000 -18.787  1.00  0.00     0.010 A 
HETATM   31  C11 UNL     1       1.192  53.666 -19.986  1.00  0.00     0.019 A 
HETATM   32  C12 UNL     1       0.792  53.104 -21.204  1.00  0.00     0.037 A 
HETATM   33  C14 UNL     1       0.121  51.876 -21.213  1.00  0.00     0.019 A 
HETATM   34  C15 UNL     1      -0.147  51.214 -20.011  1.00  0.00     0.010 A 
BRANCH  32  35
HETATM   35  C13 UNL     1       1.099  53.843 -22.452  1.00  0.00     0.176 C 
HETATM   36  O3  UNL     1       0.767  53.517 -23.577  1.00  0.00    -0.646 OA
BRANCH  35  37
HETATM   37  O4  UNL     1       1.807  54.965 -22.233  1.00  0.00    -0.773 OA
HETATM   38  H15 UNL     1       1.924  55.344 -23.130  1.00  0.00     0.167 HD
ENDBRANCH  35  37
ENDBRANCH  32  35
ENDBRANCH  28  29
ENDBRANCH  26  28
ENDBRANCH  23  24
ENDBRANCH  22  23
ENDBRANCH   6  22
BRANCH  14  39
HETATM   39  O5  UNL     1       4.143  56.271  -8.432  1.00  0.00    -0.395 OA
HETATM   40  H26 UNL     1       5.048  56.271  -8.076  1.00  0.00     0.210 HD
ENDBRANCH  14  39
BRANCH  21  41
HETATM   41  O6  UNL     1       1.636  55.245  -3.938  1.00  0.00    -0.381 OA
HETATM   42  H37 UNL     1       2.522  54.858  -3.788  1.00  0.00     0.211 HD
ENDBRANCH  21  41
BRANCH  21  43
HETATM   43  C30 UNL     1       2.738  57.383  -3.517  1.00  0.00     0.184 C 
HETATM   44  O7  UNL     1       3.924  57.109  -3.325  1.00  0.00    -0.292 OA
BRANCH  43  45
HETATM   45  C31 UNL     1       2.106  58.555  -2.770  1.00  0.00     0.245 C 
BRANCH  45  46
HETATM   46  O8  UNL     1       2.712  59.802  -3.070  1.00  0.00    -0.393 OA
HETATM   47  H40 UNL     1       3.577  59.803  -2.614  1.00  0.00     0.209 HD
ENDBRANCH  45  46
ENDBRANCH  43  45
ENDBRANCH  21  43
TORSDOF 12
ENDMDL
MODEL 2
REMARK minimizedAffinity -9.43640614
REMARK CNNscore 0.730016232
REMARK CNNaffinity 6.96764135
REMARK  12 active torsions:
REMARK  status: ('A' for Active; 'I' for Inactive)
REMARK    1  A    between atoms: N1_6  and  O1_8 
REMARK    2  A    between atoms: O1_8  and  C6_9 
REMARK    3  A    between atoms: C6_9  and  C7_10 
REMARK       I    between atoms: C7_10  and  N2_12 
REMARK    4  A    between atoms: N2_12  and  C8_13 
REMARK    5  A    between atoms: C8_13  and  C9_14 
REMARK    6  A    between atoms: C12_17  and  C13_18 
REMARK    7  A    between atoms: C13_18  and  O4_20 
REMARK    8  A    between atoms: C22_29  and  O5_30 
REMARK    9  A    between atoms: C29_37  and  O6_38 
REMARK   10  A    between atoms: C29_37  and  C30_39 
REMARK   11  A    between atoms: C30_39  and  C31_41 
REMARK   12  A    between atoms: C31_41  and  O8_42 
ROOT
HETATM    1  C1  UNL     1      -0.156  50.033 -19.850  1.00  0.00     0.020 C 
HETATM    2  C2  UNL     1      -1.658  50.379 -19.761  1.00  0.00    -0.014 C 
HETATM    3  C3  UNL     1      -1.833  51.634 -18.854  1.00  0.00     0.020 C 
HETATM    4  C4  UNL     1      -1.639  51.356 -17.368  1.00  0.00     0.060 C 
HETATM    5  C5  UNL     1      -2.587  50.264 -16.923  1.00  0.00     0.032 C 
HETATM    6  N1  UNL     1      -3.171  50.207 -15.762  1.00  0.00    -0.271 N 
ATOM      7  H1  UNL     1      -3.814  49.464 -15.486  1.00  0.00     0.194 HD
HETATM    8  C16 UNL     1      -2.827  49.145 -17.868  1.00  0.00     0.030 C 
HETATM    9  C17 UNL     1      -2.369  49.173 -19.132  1.00  0.00    -0.069 C 
HETATM   10  C18 UNL     1      -2.521  47.955 -20.010  1.00  0.00     0.035 C 
HETATM   11  C19 UNL     1      -3.185  48.297 -21.335  1.00  0.00     0.010 C 
HETATM   12  C20 UNL     1      -2.445  49.424 -22.074  1.00  0.00    -0.002 C 
HETATM   13  C21 UNL     1      -2.324  50.687 -21.163  1.00  0.00     0.031 C 
HETATM   14  C22 UNL     1      -1.743  51.910 -21.929  1.00  0.00     0.124 C 
HETATM   15  C23 UNL     1      -2.436  52.167 -23.286  1.00  0.00     0.045 C 
HETATM   16  C24 UNL     1      -2.513  50.915 -24.189  1.00  0.00     0.001 C 
HETATM   17  C25 UNL     1      -1.101  50.509 -24.689  1.00  0.00     0.019 C 
HETATM   18  C26 UNL     1      -3.203  49.809 -23.354  1.00  0.00     0.002 C 
HETATM   19  C27 UNL     1      -3.496  48.719 -24.376  1.00  0.00     0.009 C 
HETATM   20  C28 UNL     1      -3.866  49.492 -25.654  1.00  0.00     0.047 C 
HETATM   21  C29 UNL     1      -3.495  50.985 -25.406  1.00  0.00     0.128 C 
ENDROOT
BRANCH   6  22
HETATM   22  O1  UNL     1      -2.817  51.279 -14.933  1.00  0.00    -0.271 OA
BRANCH  22  23
HETATM   23  C6  UNL     1      -3.195  50.968 -13.594  1.00  0.00     0.303 C 
BRANCH  23  24
HETATM   24  C7  UNL     1      -3.598  52.228 -12.840  1.00  0.00     0.244 C 
HETATM   25  O2  UNL     1      -3.981  53.244 -13.414  1.00  0.00    -0.271 OA
HETATM   26  N2  UNL     1      -3.564  52.098 -11.466  1.00  0.00    -0.355 N 
HETATM   27  H10 UNL     1      -3.055  51.302 -11.099  1.00  0.00     0.162 HD
BRANCH  26  28
HETATM   28  C8  UNL     1      -3.865  53.198 -10.583  1.00  0.00     0.161 C 
BRANCH  28  29
HETATM   29  C9  UNL     1      -2.630  53.672  -9.861  1.00  0.00    -0.040 A 
HETATM   30  C10 UNL     1      -1.959  54.824 -10.297  1.00  0.00     0.010 A 
HETATM   31  C11 UNL     1      -0.806  55.264  -9.643  1.00  0.00     0.019 A 
HETATM   32  C12 UNL     1      -0.308  54.554  -8.544  1.00  0.00     0.037 A 
HETATM   33  C14 UNL     1      -0.967  53.399  -8.111  1.00  0.00     0.019 A 
HETATM   34  C15 UNL     1      -2.119  52.958  -8.769  1.00  0.00     0.010 A 
BRANCH  32  35
HETATM   35  C13 UNL     1       0.916  55.060  -7.877  1.00  0.00     0.176 C 
HETATM   36  O3  UNL     1       1.428  54.598  -6.874  1.00  0.00    -0.646 OA
BRANCH  35  37
HETATM   37  O4  UNL     1       1.449  56.124  -8.503  1.00  0.00    -0.773 OA
HETATM   38  H15 UNL     1       2.239  56.338  -7.965  1.00  0.00     0.167 HD
ENDBRANCH  35  37
ENDBRANCH  32  35
ENDBRANCH  28  29
ENDBRANCH  26  28
ENDBRANCH  23  24
ENDBRANCH  22  23
ENDBRANCH   6  22
BRANCH  14  39
HETATM   39  O5  UNL     1      -0.346  51.772 -22.139  1.00  0.00    -0.395 OA
HETATM   40  H26 UNL     1      -0.008  52.627 -22.458  1.00  0.00     0.210 HD
ENDBRANCH  14  39
BRANCH  21  41
HETATM   41  O6  UNL     1      -4.720  51.634 -25.033  1.00  0.00    -0.381 OA
HETATM   42  H37 UNL     1      -4.539  52.592 -24.956  1.00  0.00     0.211 HD
ENDBRANCH  21  41
BRANCH  21  43
HETATM   43  C30 UNL     1      -2.925  51.649 -26.688  1.00  0.00     0.184 C 
HETATM   44  O7  UNL     1      -2.783  52.867 -26.812  1.00  0.00    -0.292 OA
BRANCH  43  45
HETATM   45  C31 UNL     1      -2.564  50.727 -27.851  1.00  0.00     0.245 C 
BRANCH  45  46
HETATM   46  O8  UNL     1      -3.564  50.679 -28.857  1.00  0.00    -0.393 OA
HETATM   47  H40 UNL     1      -4.298  50.150 -28.489  1.00  0.00     0.209 HD
ENDBRANCH  45  46
ENDBRANCH  43  45
ENDBRANCH  21  43
TORSDOF 12
ENDMDL
MODEL 3
REMARK minimizedAffinity -8.20798683
REMARK CNNscore 0.713303864
REMARK CNNaffinity 7.01066971
REMARK  12 active torsions:
REMARK  status: ('A' for Active; 'I' for Inactive)
REMARK    1  A    between atoms: N1_6  and  O1_8 
REMARK    2  A    between atoms: O1_8  and  C6_9 
REMARK    3  A    between atoms: C6_9  and  C7_10 
REMARK       I    between atoms: C7_10  and  N2_12 
REMARK    4  A    between atoms: N2_12  and  C8_13 
REMARK    5  A    between atoms: C8_13  and  C9_14 
REMARK    6  A    between atoms: C12_17  and  C13_18 
REMARK    7  A    between atoms: C13_18  and  O4_20 
REMARK    8  A    between atoms: C22_29  and  O5_30 
REMARK    9  A    between atoms: C29_37  and  O6_38 
REMARK   10  A    between atoms: C29_37  and  C30_39 
REMARK   11  A    between atoms: C30_39  and  C31_41 
REMARK   12  A    between atoms: C31_41  and  O8_42 
ROOT
HETATM    1  C1  UNL     1      -3.994  48.021 -23.222  1.00  0.00     0.020 C 
HETATM    2  C2  UNL     1      -3.730  48.874 -21.963  1.00  0.00    -0.014 C 
HETATM    3  C3  UNL     1      -3.784  50.381 -22.354  1.00  0.00     0.020 C 
HETATM    4  C4  UNL     1      -2.568  50.862 -23.137  1.00  0.00     0.060 C 
HETATM    5  C5  UNL     1      -1.307  50.581 -22.349  1.00  0.00     0.032 C 
HETATM    6  N1  UNL     1      -0.254  51.344 -22.324  1.00  0.00    -0.271 N 
ATOM      7  H1  UNL     1       0.582  51.138 -21.778  1.00  0.00     0.194 HD
HETATM    8  C16 UNL     1      -1.251  49.308 -21.588  1.00  0.00     0.030 C 
HETATM    9  C17 UNL     1      -2.328  48.514 -21.452  1.00  0.00    -0.069 C 
HETATM   10  C18 UNL     1      -2.185  47.167 -20.786  1.00  0.00     0.035 C 
HETATM   11  C19 UNL     1      -3.194  46.988 -19.660  1.00  0.00     0.010 C 
HETATM   12  C20 UNL     1      -4.636  47.219 -20.140  1.00  0.00    -0.002 C 
HETATM   13  C21 UNL     1      -4.773  48.629 -20.798  1.00  0.00     0.031 C 
HETATM   14  C22 UNL     1      -6.251  48.978 -21.136  1.00  0.00     0.124 C 
HETATM   15  C23 UNL     1      -7.222  48.726 -19.961  1.00  0.00     0.045 C 
HETATM   16  C24 UNL     1      -7.098  47.313 -19.347  1.00  0.00     0.001 C 
HETATM   17  C25 UNL     1      -7.604  46.233 -20.340  1.00  0.00     0.019 C 
HETATM   18  C26 UNL     1      -5.612  47.130 -18.956  1.00  0.00     0.002 C 
HETATM   19  C27 UNL     1      -5.615  45.859 -18.117  1.00  0.00     0.009 C 
HETATM   20  C28 UNL     1      -6.935  45.934 -17.328  1.00  0.00     0.047 C 
HETATM   21  C29 UNL     1      -7.772  47.092 -17.951  1.00  0.00     0.128 C 
ENDROOT
BRANCH   6  22
HETATM   22  O1  UNL     1      -0.399  52.479 -23.131  1.00  0.00    -0.271 OA
BRANCH  22  23
HETATM   23  C6  UNL     1       0.856  53.151 -23.206  1.00  0.00     0.303 C 
BRANCH  23  24
HETATM   24  C7  UNL     1       1.193  53.818 -21.879  1.00  0.00     0.244 C 
HETATM   25  O2  UNL     1       1.822  54.871 -21.813  1.00  0.00    -0.271 OA
HETATM   26  N2  UNL     1       0.668  53.176 -20.776  1.00  0.00    -0.355 N 
HETATM   27  H10 UNL     1       0.340  52.227 -20.918  1.00  0.00     0.162 HD
BRANCH  26  28
HETATM   28  C8  UNL     1       0.921  53.630 -19.431  1.00  0.00     0.161 C 
BRANCH  28  29
HETATM   29  C9  UNL     1       0.751  52.511 -18.436  1.00  0.00    -0.040 A 
HETATM   30  C10 UNL     1       1.512  52.496 -17.257  1.00  0.00     0.010 A 
HETATM   31  C11 UNL     1       1.371  51.457 -16.334  1.00  0.00     0.019 A 
HETATM   32  C12 UNL     1       0.469  50.416 -16.582  1.00  0.00     0.037 A 
HETATM   33  C14 UNL     1      -0.286  50.420 -17.759  1.00  0.00     0.019 A 
HETATM   34  C15 UNL     1      -0.142  51.460 -18.683  1.00  0.00     0.010 A 
BRANCH  32  35
HETATM   35  C13 UNL     1       0.349  49.337 -15.572  1.00  0.00     0.176 C 
HETATM   36  O3  UNL     1       0.139  49.488 -14.383  1.00  0.00    -0.646 OA
BRANCH  35  37
HETATM   37  O4  UNL     1       0.493  48.109 -16.103  1.00  0.00    -0.773 OA
HETATM   38  H15 UNL     1       0.383  47.511 -15.334  1.00  0.00     0.167 HD
ENDBRANCH  35  37
ENDBRANCH  32  35
ENDBRANCH  28  29
ENDBRANCH  26  28
ENDBRANCH  23  24
ENDBRANCH  22  23
ENDBRANCH   6  22
BRANCH  14  39
HETATM   39  O5  UNL     1      -6.704  48.262 -22.276  1.00  0.00    -0.395 OA
HETATM   40  H26 UNL     1      -7.559  48.642 -22.544  1.00  0.00     0.210 HD
ENDBRANCH  14  39
BRANCH  21  41
HETATM   41  O6  UNL     1      -7.561  48.227 -17.099  1.00  0.00    -0.381 OA
HETATM   42  H37 UNL     1      -8.143  48.948 -17.412  1.00  0.00     0.211 HD
ENDBRANCH  21  41
BRANCH  21  43
HETATM   43  C30 UNL     1      -9.284  46.742 -17.986  1.00  0.00     0.184 C 
HETATM   44  O7  UNL     1      -9.722  45.617 -17.740  1.00  0.00    -0.292 OA
BRANCH  43  45
HETATM   45  C31 UNL     1     -10.250  47.855 -18.385  1.00  0.00     0.245 C 
BRANCH  45  46
HETATM   46  O8  UNL     1     -11.044  47.529 -19.515  1.00  0.00    -0.393 OA
HETATM   47  H40 UNL     1     -10.452  47.581 -20.290  1.00  0.00     0.209 HD
ENDBRANCH  45  46
ENDBRANCH  43  45
ENDBRANCH  21  43
TORSDOF 12
ENDMDL
MODEL 4
REMARK minimizedAffinity -8.21000099
REMARK CNNscore 0.700906277
REMARK CNNaffinity 6.03808737
REMARK  12 active torsions:
REMARK  status: ('A' for Active; 'I' for Inactive)
REMARK    1  A    between atoms: N1_6  and  O1_8 
REMARK    2  A    between atoms: O1_8  and  C6_9 
REMARK    3  A    between atoms: C6_9  and  C7_10 
REMARK       I    between atoms: C7_10  and  N2_12 
REMARK    4  A    between atoms: N2_12  and  C8_13 
REMARK    5  A    between atoms: C8_13  and  C9_14 
REMARK    6  A    between atoms: C12_17  and  C13_18 
REMARK    7  A    between atoms: C13_18  and  O4_20 
REMARK    8  A    between atoms: C22_29  and  O5_30 
REMARK    9  A    between atoms: C29_37  and  O6_38 
REMARK   10  A    between atoms: C29_37  and  C30_39 
REMARK   11  A    between atoms: C30_39  and  C31_41 
REMARK   12  A    between atoms: C31_41  and  O8_42 
ROOT
HETATM    1  C1  UNL     1     -12.264  45.219 -26.335  1.00  0.00     0.020 C 
HETATM    2  C2  UNL     1     -12.918  45.430 -27.717  1.00  0.00    -0.014 C 
HETATM    3  C3  UNL     1     -14.029  46.515 -27.589  1.00  0.00     0.020 C 
HETATM    4  C4  UNL     1     -15.289  46.030 -26.882  1.00  0.00     0.060 C 
HETATM    5  C5  UNL     1     -15.840  44.813 -27.593  1.00  0.00     0.032 C 
HETATM    6  N1  UNL     1     -17.103  44.535 -27.732  1.00  0.00    -0.271 N 
ATOM      7  H1  UNL     1     -17.451  43.712 -28.223  1.00  0.00     0.194 HD
HETATM    8  C16 UNL     1     -14.858  43.835 -28.125  1.00  0.00     0.030 C 
HETATM    9  C17 UNL     1     -13.538  44.091 -28.139  1.00  0.00    -0.069 C 
HETATM   10  C18 UNL     1     -12.572  43.012 -28.565  1.00  0.00     0.035 C 
HETATM   11  C19 UNL     1     -11.632  43.500 -29.657  1.00  0.00     0.010 C 
HETATM   12  C20 UNL     1     -10.887  44.780 -29.245  1.00  0.00    -0.002 C 
HETATM   13  C21 UNL     1     -11.902  45.895 -28.838  1.00  0.00     0.031 C 
HETATM   14  C22 UNL     1     -11.203  47.262 -28.585  1.00  0.00     0.124 C 
HETATM   15  C23 UNL     1     -10.229  47.668 -29.714  1.00  0.00     0.045 C 
HETATM   16  C24 UNL     1      -9.208  46.565 -30.077  1.00  0.00     0.001 C 
HETATM   17  C25 UNL     1      -8.195  46.350 -28.922  1.00  0.00     0.019 C 
HETATM   18  C26 UNL     1     -10.028  45.295 -30.410  1.00  0.00     0.002 C 
HETATM   19  C27 UNL     1      -8.999  44.354 -31.020  1.00  0.00     0.009 C 
HETATM   20  C28 UNL     1      -8.075  45.281 -31.829  1.00  0.00     0.047 C 
HETATM   21  C29 UNL     1      -8.431  46.744 -31.424  1.00  0.00     0.128 C 
ENDROOT
BRANCH   6  22
HETATM   22  O1  UNL     1     -17.930  45.492 -27.132  1.00  0.00    -0.271 OA
BRANCH  22  23
HETATM   23  C6  UNL     1     -18.529  44.919 -25.972  1.00  0.00     0.303 C 
BRANCH  23  24
HETATM   24  C7  UNL     1     -18.783  45.983 -24.913  1.00  0.00     0.244 C 
HETATM   25  O2  UNL     1     -19.609  46.879 -25.066  1.00  0.00    -0.271 OA
HETATM   26  N2  UNL     1     -18.061  45.805 -23.750  1.00  0.00    -0.355 N 
HETATM   27  H10 UNL     1     -17.277  45.164 -23.798  1.00  0.00     0.162 HD
BRANCH  26  28
HETATM   28  C8  UNL     1     -18.131  46.737 -22.652  1.00  0.00     0.161 C 
BRANCH  28  29
HETATM   29  C9  UNL     1     -18.682  46.081 -21.413  1.00  0.00    -0.040 A 
HETATM   30  C10 UNL     1     -18.715  46.785 -20.200  1.00  0.00     0.010 A 
HETATM   31  C11 UNL     1     -19.211  46.182 -19.042  1.00  0.00     0.019 A 
HETATM   32  C12 UNL     1     -19.679  44.863 -19.083  1.00  0.00     0.037 A 
HETATM   33  C14 UNL     1     -19.640  44.152 -20.287  1.00  0.00     0.019 A 
HETATM   34  C15 UNL     1     -19.140  44.757 -21.444  1.00  0.00     0.010 A 
BRANCH  32  35
HETATM   35  C13 UNL     1     -20.201  44.264 -17.831  1.00  0.00     0.176 C 
HETATM   36  O3  UNL     1     -19.581  43.547 -17.067  1.00  0.00    -0.646 OA
BRANCH  35  37
HETATM   37  O4  UNL     1     -21.482  44.596 -17.589  1.00  0.00    -0.773 OA
HETATM   38  H15 UNL     1     -21.682  44.144 -16.742  1.00  0.00     0.167 HD
ENDBRANCH  35  37
ENDBRANCH  32  35
ENDBRANCH  28  29
ENDBRANCH  26  28
ENDBRANCH  23  24
ENDBRANCH  22  23
ENDBRANCH   6  22
BRANCH  14  39
HETATM   39  O5  UNL     1     -10.508  47.266 -27.347  1.00  0.00    -0.395 OA
HETATM   40  H26 UNL     1     -10.242  48.183 -27.159  1.00  0.00     0.210 HD
ENDBRANCH  14  39
BRANCH  21  41
HETATM   41  O6  UNL     1      -9.304  47.232 -32.454  1.00  0.00    -0.381 OA
HETATM   42  H37 UNL     1      -9.476  48.178 -32.276  1.00  0.00     0.211 HD
ENDBRANCH  21  41
BRANCH  21  43
HETATM   43  C30 UNL     1      -7.163  47.636 -31.351  1.00  0.00     0.184 C 
HETATM   44  O7  UNL     1      -7.195  48.831 -31.047  1.00  0.00    -0.292 OA
BRANCH  43  45
HETATM   45  C31 UNL     1      -5.829  46.988 -31.715  1.00  0.00     0.245 C 
BRANCH  45  46
HETATM   46  O8  UNL     1      -4.706  47.773 -31.345  1.00  0.00    -0.393 OA
HETATM   47  H40 UNL     1      -4.671  48.516 -31.979  1.00  0.00     0.209 HD
ENDBRANCH  45  46
ENDBRANCH  43  45
ENDBRANCH  21  43
TORSDOF 12
ENDMDL
MODEL 5
REMARK minimizedAffinity -8.12518024
REMARK CNNscore 0.571921468
REMARK CNNaffinity 6.90842628
REMARK  12 active torsions:
REMARK  status: ('A' for Active; 'I' for Inactive)
REMARK    1  A    between atoms: N1_6  and  O1_8 
REMARK    2  A    between atoms: O1_8  and  C6_9 
REMARK    3  A    between atoms: C6_9  and  C7_10 
REMARK       I    between atoms: C7_10  and  N2_12 
REMARK    4  A    between atoms: N2_12  and  C8_13 
REMARK    5  A    between atoms: C8_13  and  C9_14 
REMARK    6  A    between atoms: C12_17  and  C13_18 
REMARK    7  A    between atoms: C13_18  and  O4_20 
REMARK    8  A    between atoms: C22_29  and  O5_30 
REMARK    9  A    between atoms: C29_37  and  O6_38 
REMARK   10  A    between atoms: C29_37  and  C30_39 
REMARK   11  A    between atoms: C30_39  and  C31_41 
REMARK   12  A    between atoms: C31_41  and  O8_42 
ROOT
HETATM    1  C1  UNL     1      -4.602  49.890 -21.226  1.00  0.00     0.020 C 
HETATM    2  C2  UNL     1      -3.246  49.160 -21.342  1.00  0.00    -0.014 C 
HETATM    3  C3  UNL     1      -3.506  47.627 -21.447  1.00  0.00     0.020 C 
HETATM    4  C4  UNL     1      -3.930  46.980 -20.134  1.00  0.00     0.060 C 
HETATM    5  C5  UNL     1      -2.890  47.252 -19.069  1.00  0.00     0.032 C 
HETATM    6  N1  UNL     1      -2.548  46.423 -18.128  1.00  0.00    -0.271 N 
ATOM      7  H1  UNL     1      -1.838  46.625 -17.424  1.00  0.00     0.194 HD
HETATM    8  C16 UNL     1      -2.252  48.592 -19.069  1.00  0.00     0.030 C 
HETATM    9  C17 UNL     1      -2.448  49.471 -20.068  1.00  0.00    -0.069 C 
HETATM   10  C18 UNL     1      -1.887  50.868 -19.956  1.00  0.00     0.035 C 
HETATM   11  C19 UNL     1      -1.056  51.238 -21.175  1.00  0.00     0.010 C 
HETATM   12  C20 UNL     1      -1.844  51.061 -22.483  1.00  0.00    -0.002 C 
HETATM   13  C21 UNL     1      -2.391  49.603 -22.597  1.00  0.00     0.031 C 
HETATM   14  C22 UNL     1      -3.041  49.327 -23.984  1.00  0.00     0.124 C 
HETATM   15  C23 UNL     1      -2.160  49.772 -25.172  1.00  0.00     0.045 C 
HETATM   16  C24 UNL     1      -1.659  51.230 -25.059  1.00  0.00     0.001 C 
HETATM   17  C25 UNL     1      -2.835  52.230 -25.217  1.00  0.00     0.019 C 
HETATM   18  C26 UNL     1      -0.941  51.347 -23.693  1.00  0.00     0.002 C 
HETATM   19  C27 UNL     1      -0.242  52.697 -23.770  1.00  0.00     0.009 C 
HETATM   20  C28 UNL     1       0.212  52.802 -25.237  1.00  0.00     0.047 C 
HETATM   21  C29 UNL     1      -0.490  51.647 -26.013  1.00  0.00     0.128 C 
ENDROOT
BRANCH   6  22
HETATM   22  O1  UNL     1      -3.264  45.221 -18.189  1.00  0.00    -0.271 OA
BRANCH  22  23
HETATM   23  C6  UNL     1      -3.721  44.892 -16.879  1.00  0.00     0.303 C 
BRANCH  23  24
HETATM   24  C7  UNL     1      -2.568  44.413 -16.007  1.00  0.00     0.244 C 
HETATM   25  O2  UNL     1      -1.980  45.159 -15.228  1.00  0.00    -0.271 OA
HETATM   26  N2  UNL     1      -2.299  43.064 -16.119  1.00  0.00    -0.355 N 
HETATM   27  H10 UNL     1      -2.700  42.588 -16.918  1.00  0.00     0.162 HD
BRANCH  26  28
HETATM   28  C8  UNL     1      -1.212  42.438 -15.409  1.00  0.00     0.161 C 
BRANCH  28  29
HETATM   29  C9  UNL     1      -0.371  41.593 -16.331  1.00  0.00    -0.040 A 
HETATM   30  C10 UNL     1       0.542  42.201 -17.206  1.00  0.00     0.010 A 
HETATM   31  C11 UNL     1       1.316  41.429 -18.074  1.00  0.00     0.019 A 
HETATM   32  C12 UNL     1       1.183  40.035 -18.081  1.00  0.00     0.037 A 
HETATM   33  C14 UNL     1       0.268  39.423 -17.219  1.00  0.00     0.019 A 
HETATM   34  C15 UNL     1      -0.508  40.199 -16.352  1.00  0.00     0.010 A 
BRANCH  32  35
HETATM   35  C13 UNL     1       2.028  39.254 -19.017  1.00  0.00     0.176 C 
HETATM   36  O3  UNL     1       3.238  39.332 -19.123  1.00  0.00    -0.646 OA
BRANCH  35  37
HETATM   37  O4  UNL     1       1.316  38.403 -19.776  1.00  0.00    -0.773 OA
HETATM   38  H15 UNL     1       1.995  37.960 -20.326  1.00  0.00     0.167 HD
ENDBRANCH  35  37
ENDBRANCH  32  35
ENDBRANCH  28  29
ENDBRANCH  26  28
ENDBRANCH  23  24
ENDBRANCH  22  23
ENDBRANCH   6  22
BRANCH  14  39
HETATM   39  O5  UNL     1      -4.314  49.947 -24.091  1.00  0.00    -0.395 OA
HETATM   40  H26 UNL     1      -4.745  49.602 -24.893  1.00  0.00     0.210 HD
ENDBRANCH  14  39
BRANCH  21  41
HETATM   41  O6  UNL     1       0.483  50.597 -26.114  1.00  0.00    -0.381 OA
HETATM   42  H37 UNL     1       0.104  49.891 -26.674  1.00  0.00     0.211 HD
ENDBRANCH  21  41
BRANCH  21  43
HETATM   43  C30 UNL     1      -0.917  52.098 -27.436  1.00  0.00     0.184 C 
HETATM   44  O7  UNL     1      -1.413  51.334 -28.266  1.00  0.00    -0.292 OA
BRANCH  43  45
HETATM   45  C31 UNL     1      -0.663  53.556 -27.813  1.00  0.00     0.245 C 
BRANCH  45  46
HETATM   46  O8  UNL     1      -1.807  54.202 -28.349  1.00  0.00    -0.393 OA
HETATM   47  H40 UNL     1      -1.923  53.848 -29.252  1.00  0.00     0.209 HD
ENDBRANCH  45  46
ENDBRANCH  43  45
ENDBRANCH  21  43
TORSDOF 12
ENDMDL
MODEL 6
REMARK minimizedAffinity -10.112771
REMARK CNNscore 0.566962779
REMARK CNNaffinity 6.89283371
REMARK  12 active torsions:
REMARK  status: ('A' for Active; 'I' for Inactive)
REMARK    1  A    between atoms: N1_6  and  O1_8 
REMARK    2  A    between atoms: O1_8  and  C6_9 
REMARK    3  A    between atoms: C6_9  and  C7_10 
REMARK       I    between atoms: C7_10  and  N2_12 
REMARK    4  A    between atoms: N2_12  and  C8_13 
REMARK    5  A    between atoms: C8_13  and  C9_14 
REMARK    6  A    between atoms: C12_17  and  C13_18 
REMARK    7  A    between atoms: C13_18  and  O4_20 
REMARK    8  A    between atoms: C22_29  and  O5_30 
REMARK    9  A    between atoms: C29_37  and  O6_38 
REMARK   10  A    between atoms: C29_37  and  C30_39 
REMARK   11  A    between atoms: C30_39  and  C31_41 
REMARK   12  A    between atoms: C31_41  and  O8_42 
ROOT
HETATM    1  C1  UNL     1       0.364  50.120 -20.749  1.00  0.00     0.020 C 
HETATM    2  C2  UNL     1      -1.056  50.709 -20.888  1.00  0.00    -0.014 C 
HETATM    3  C3  UNL     1      -1.199  51.916 -19.914  1.00  0.00     0.020 C 
HETATM    4  C4  UNL     1      -1.328  51.517 -18.448  1.00  0.00     0.060 C 
HETATM    5  C5  UNL     1      -2.500  50.576 -18.275  1.00  0.00     0.032 C 
HETATM    6  N1  UNL     1      -3.290  50.546 -17.242  1.00  0.00    -0.271 N 
ATOM      7  H1  UNL     1      -4.080  49.908 -17.150  1.00  0.00     0.194 HD
HETATM    8  C16 UNL     1      -2.732  49.575 -19.346  1.00  0.00     0.030 C 
HETATM    9  C17 UNL     1      -2.050  49.604 -20.504  1.00  0.00    -0.069 C 
HETATM   10  C18 UNL     1      -2.225  48.487 -21.504  1.00  0.00     0.035 C 
HETATM   11  C19 UNL     1      -2.572  49.019 -22.886  1.00  0.00     0.010 C 
HETATM   12  C20 UNL     1      -1.542  50.048 -23.380  1.00  0.00    -0.002 C 
HETATM   13  C21 UNL     1      -1.396  51.212 -22.349  1.00  0.00     0.031 C 
HETATM   14  C22 UNL     1      -0.500  52.365 -22.888  1.00  0.00     0.124 C 
HETATM   15  C23 UNL     1      -0.882  52.820 -24.314  1.00  0.00     0.045 C 
HETATM   16  C24 UNL     1      -0.985  51.658 -25.329  1.00  0.00     0.001 C 
HETATM   17  C25 UNL     1       0.414  51.050 -25.614  1.00  0.00     0.019 C 
HETATM   18  C26 UNL     1      -1.981  50.635 -24.730  1.00  0.00     0.002 C 
HETATM   19  C27 UNL     1      -2.246  49.676 -25.883  1.00  0.00     0.009 C 
HETATM   20  C28 UNL     1      -2.249  50.579 -27.129  1.00  0.00     0.047 C 
HETATM   21  C29 UNL     1      -1.702  51.970 -26.684  1.00  0.00     0.128 C 
ENDROOT
BRANCH   6  22
HETATM   22  O1  UNL     1      -2.933  51.489 -16.270  1.00  0.00    -0.271 OA
BRANCH  22  23
HETATM   23  C6  UNL     1      -2.933  50.854 -14.993  1.00  0.00     0.303 C 
BRANCH  23  24
HETATM   24  C7  UNL     1      -3.318  51.841 -13.899  1.00  0.00     0.244 C 
HETATM   25  O2  UNL     1      -3.966  52.859 -14.130  1.00  0.00    -0.271 OA
HETATM   26  N2  UNL     1      -2.942  51.450 -12.630  1.00  0.00    -0.355 N 
HETATM   27  H10 UNL     1      -2.254  50.709 -12.570  1.00  0.00     0.162 HD
BRANCH  26  28
HETATM   28  C8  UNL     1      -3.176  52.277 -11.471  1.00  0.00     0.161 C 
BRANCH  28  29
HETATM   29  C9  UNL     1      -1.952  53.082 -11.119  1.00  0.00    -0.040 A 
HETATM   30  C10 UNL     1      -0.674  52.583 -11.409  1.00  0.00     0.010 A 
HETATM   31  C11 UNL     1       0.467  53.316 -11.075  1.00  0.00     0.019 A 
HETATM   32  C12 UNL     1       0.343  54.558 -10.441  1.00  0.00     0.037 A 
HETATM   33  C14 UNL     1      -0.928  55.057 -10.139  1.00  0.00     0.019 A 
HETATM   34  C15 UNL     1      -2.069  54.320 -10.472  1.00  0.00     0.010 A 
BRANCH  32  35
HETATM   35  C13 UNL     1       1.581  55.303 -10.108  1.00  0.00     0.176 C 
HETATM   36  O3  UNL     1       1.975  55.573  -8.988  1.00  0.00    -0.646 OA
BRANCH  35  37
HETATM   37  O4  UNL     1       2.276  55.673 -11.198  1.00  0.00    -0.773 OA
HETATM   38  H15 UNL     1       3.056  56.138 -10.829  1.00  0.00     0.167 HD
ENDBRANCH  35  37
ENDBRANCH  32  35
ENDBRANCH  28  29
ENDBRANCH  26  28
ENDBRANCH  23  24
ENDBRANCH  22  23
ENDBRANCH   6  22
BRANCH  14  39
HETATM   39  O5  UNL     1       0.873  52.005 -22.866  1.00  0.00    -0.395 OA
HETATM   40  H26 UNL     1       1.393  52.809 -23.043  1.00  0.00     0.210 HD
ENDBRANCH  14  39
BRANCH  21  41
HETATM   41  O6  UNL     1      -2.858  52.792 -26.470  1.00  0.00    -0.381 OA
HETATM   42  H37 UNL     1      -2.548  53.699 -26.275  1.00  0.00     0.211 HD
ENDBRANCH  21  41
BRANCH  21  43
HETATM   43  C30 UNL     1      -0.809  52.605 -27.783  1.00  0.00     0.184 C 
HETATM   44  O7  UNL     1      -0.059  51.947 -28.508  1.00  0.00    -0.292 OA
BRANCH  43  45
HETATM   45  C31 UNL     1      -0.852  54.125 -27.928  1.00  0.00     0.245 C 
BRANCH  45  46
HETATM   46  O8  UNL     1      -1.999  54.588 -28.624  1.00  0.00    -0.393 OA
HETATM   47  H40 UNL     1      -1.856  54.367 -29.565  1.00  0.00     0.209 HD
ENDBRANCH  45  46
ENDBRANCH  43  45
ENDBRANCH  21  43
TORSDOF 12
ENDMDL
MODEL 7
REMARK minimizedAffinity -8.51408482
REMARK CNNscore 0.489838839
REMARK CNNaffinity 7.10782766
REMARK  12 active torsions:
REMARK  status: ('A' for Active; 'I' for Inactive)
REMARK    1  A    between atoms: N1_6  and  O1_8 
REMARK    2  A    between atoms: O1_8  and  C6_9 
REMARK    3  A    between atoms: C6_9  and  C7_10 
REMARK       I    between atoms: C7_10  and  N2_12 
REMARK    4  A    between atoms: N2_12  and  C8_13 
REMARK    5  A    between atoms: C8_13  and  C9_14 
REMARK    6  A    between atoms: C12_17  and  C13_18 
REMARK    7  A    between atoms: C13_18  and  O4_20 
REMARK    8  A    between atoms: C22_29  and  O5_30 
REMARK    9  A    between atoms: C29_37  and  O6_38 
REMARK   10  A    between atoms: C29_37  and  C30_39 
REMARK   11  A    between atoms: C30_39  and  C31_41 
REMARK   12  A    between atoms: C31_41  and  O8_42 
ROOT
HETATM    1  C1  UNL     1      -3.865  49.337 -23.197  1.00  0.00     0.020 C 
HETATM    2  C2  UNL     1      -3.631  49.190 -21.678  1.00  0.00    -0.014 C 
HETATM    3  C3  UNL     1      -3.627  50.606 -21.029  1.00  0.00     0.020 C 
HETATM    4  C4  UNL     1      -2.366  51.414 -21.313  1.00  0.00     0.060 C 
HETATM    5  C5  UNL     1      -1.148  50.638 -20.860  1.00  0.00     0.032 C 
HETATM    6  N1  UNL     1      -0.076  51.162 -20.342  1.00  0.00    -0.271 N 
ATOM      7  H1  UNL     1       0.731  50.618 -20.036  1.00  0.00     0.194 HD
HETATM    8  C16 UNL     1      -1.159  49.169 -21.075  1.00  0.00     0.030 C 
HETATM    9  C17 UNL     1      -2.262  48.521 -21.488  1.00  0.00    -0.069 C 
HETATM   10  C18 UNL     1      -2.185  47.051 -21.821  1.00  0.00     0.035 C 
HETATM   11  C19 UNL     1      -3.245  46.251 -21.078  1.00  0.00     0.010 C 
HETATM   12  C20 UNL     1      -4.659  46.802 -21.326  1.00  0.00    -0.002 C 
HETATM   13  C21 UNL     1      -4.729  48.315 -20.947  1.00  0.00     0.031 C 
HETATM   14  C22 UNL     1      -6.181  48.870 -21.011  1.00  0.00     0.124 C 
HETATM   15  C23 UNL     1      -7.208  47.982 -20.275  1.00  0.00     0.045 C 
HETATM   16  C24 UNL     1      -7.149  46.494 -20.690  1.00  0.00     0.001 C 
HETATM   17  C25 UNL     1      -7.642  46.309 -22.150  1.00  0.00     0.019 C 
HETATM   18  C26 UNL     1      -5.686  46.033 -20.480  1.00  0.00     0.002 C 
HETATM   19  C27 UNL     1      -5.761  44.520 -20.634  1.00  0.00     0.009 C 
HETATM   20  C28 UNL     1      -7.110  44.144 -19.995  1.00  0.00     0.047 C 
HETATM   21  C29 UNL     1      -7.887  45.474 -19.760  1.00  0.00     0.128 C 
ENDROOT
BRANCH   6  22
HETATM   22  O1  UNL     1      -0.154  52.557 -20.252  1.00  0.00    -0.271 OA
BRANCH  22  23
HETATM   23  C6  UNL     1       1.150  53.103 -20.436  1.00  0.00     0.303 C 
BRANCH  23  24
HETATM   24  C7  UNL     1       1.250  53.827 -21.772  1.00  0.00     0.244 C 
HETATM   25  O2  UNL     1       1.757  54.941 -21.880  1.00  0.00    -0.271 OA
HETATM   26  N2  UNL     1       0.792  53.092 -22.847  1.00  0.00    -0.355 N 
HETATM   27  H10 UNL     1       0.223  52.282 -22.632  1.00  0.00     0.162 HD
BRANCH  26  28
HETATM   28  C8  UNL     1       0.761  53.628 -24.185  1.00  0.00     0.161 C 
BRANCH  28  29
HETATM   29  C9  UNL     1      -0.138  52.814 -25.079  1.00  0.00    -0.040 A 
HETATM   30  C10 UNL     1      -0.756  51.655 -24.587  1.00  0.00     0.010 A 
HETATM   31  C11 UNL     1      -1.581  50.886 -25.411  1.00  0.00     0.019 A 
HETATM   32  C12 UNL     1      -1.796  51.267 -26.741  1.00  0.00     0.037 A 
HETATM   33  C14 UNL     1      -1.175  52.416 -27.240  1.00  0.00     0.019 A 
HETATM   34  C15 UNL     1      -0.347  53.183 -26.415  1.00  0.00     0.010 A 
BRANCH  32  35
HETATM   35  C13 UNL     1      -2.683  50.423 -27.578  1.00  0.00     0.176 C 
HETATM   36  O3  UNL     1      -2.838  49.221 -27.470  1.00  0.00    -0.646 OA
BRANCH  35  37
HETATM   37  O4  UNL     1      -3.343  51.129 -28.514  1.00  0.00    -0.773 OA
HETATM   38  H15 UNL     1      -3.884  50.454 -28.974  1.00  0.00     0.167 HD
ENDBRANCH  35  37
ENDBRANCH  32  35
ENDBRANCH  28  29
ENDBRANCH  26  28
ENDBRANCH  23  24
ENDBRANCH  22  23
ENDBRANCH   6  22
BRANCH  14  39
HETATM   39  O5  UNL     1      -6.604  49.057 -22.353  1.00  0.00    -0.395 OA
HETATM   40  H26 UNL     1      -7.436  49.562 -22.334  1.00  0.00     0.210 HD
ENDBRANCH  14  39
BRANCH  21  41
HETATM   41  O6  UNL     1      -7.682  45.806 -18.379  1.00  0.00    -0.381 OA
HETATM   42  H37 UNL     1      -8.230  46.590 -18.174  1.00  0.00     0.211 HD
ENDBRANCH  21  41
BRANCH  21  43
HETATM   43  C30 UNL     1      -9.406  45.299 -20.031  1.00  0.00     0.184 C 
HETATM   44  O7  UNL     1      -9.873  44.349 -20.663  1.00  0.00    -0.292 OA
BRANCH  43  45
HETATM   45  C31 UNL     1     -10.340  46.390 -19.513  1.00  0.00     0.245 C 
BRANCH  45  46
HETATM   46  O8  UNL     1     -10.681  47.350 -20.500  1.00  0.00    -0.393 OA
HETATM   47  H40 UNL     1      -9.887  47.904 -20.630  1.00  0.00     0.209 HD
ENDBRANCH  45  46
ENDBRANCH  43  45
ENDBRANCH  21  43
TORSDOF 12
ENDMDL
MODEL 8
REMARK minimizedAffinity -8.28454494
REMARK CNNscore 0.434141874
REMARK CNNaffinity 5.97050428
REMARK  12 active torsions:
REMARK  status: ('A' for Active; 'I' for Inactive)
REMARK    1  A    between atoms: N1_6  and  O1_8 
REMARK    2  A    between atoms: O1_8  and  C6_9 
REMARK    3  A    between atoms: C6_9  and  C7_10 
REMARK       I    between atoms: C7_10  and  N2_12 
REMARK    4  A    between atoms: N2_12  and  C8_13 
REMARK    5  A    between atoms: C8_13  and  C9_14 
REMARK    6  A    between atoms: C12_17  and  C13_18 
REMARK    7  A    between atoms: C13_18  and  O4_20 
REMARK    8  A    between atoms: C22_29  and  O5_30 
REMARK    9  A    between atoms: C29_37  and  O6_38 
REMARK   10  A    between atoms: C29_37  and  C30_39 
REMARK   11  A    between atoms: C30_39  and  C31_41 
REMARK   12  A    between atoms: C31_41  and  O8_42 
ROOT
HETATM    1  C1  UNL     1      -5.668  50.046 -24.279  1.00  0.00     0.020 C 
HETATM    2  C2  UNL     1      -5.069  48.630 -24.423  1.00  0.00    -0.014 C 
HETATM    3  C3  UNL     1      -5.214  47.881 -23.064  1.00  0.00     0.020 C 
HETATM    4  C4  UNL     1      -4.248  48.360 -21.987  1.00  0.00     0.060 C 
HETATM    5  C5  UNL     1      -2.824  48.245 -22.488  1.00  0.00     0.032 C 
HETATM    6  N1  UNL     1      -1.797  47.927 -21.757  1.00  0.00    -0.271 N 
ATOM      7  H1  UNL     1      -0.846  47.847 -22.118  1.00  0.00     0.194 HD
HETATM    8  C16 UNL     1      -2.577  48.574 -23.914  1.00  0.00     0.030 C 
HETATM    9  C17 UNL     1      -3.585  48.794 -24.776  1.00  0.00    -0.069 C 
HETATM   10  C18 UNL     1      -3.280  49.257 -26.180  1.00  0.00     0.035 C 
HETATM   11  C19 UNL     1      -3.952  48.374 -27.221  1.00  0.00     0.010 C 
HETATM   12  C20 UNL     1      -5.468  48.266 -26.990  1.00  0.00    -0.002 C 
HETATM   13  C21 UNL     1      -5.765  47.756 -25.544  1.00  0.00     0.031 C 
HETATM   14  C22 UNL     1      -7.277  47.461 -25.324  1.00  0.00     0.124 C 
HETATM   15  C23 UNL     1      -7.900  46.599 -26.444  1.00  0.00     0.045 C 
HETATM   16  C24 UNL     1      -7.628  47.140 -27.866  1.00  0.00     0.001 C 
HETATM   17  C25 UNL     1      -8.390  48.471 -28.106  1.00  0.00     0.019 C 
HETATM   18  C26 UNL     1      -6.092  47.287 -27.997  1.00  0.00     0.002 C 
HETATM   19  C27 UNL     1      -5.882  47.547 -29.483  1.00  0.00     0.009 C 
HETATM   20  C28 UNL     1      -6.942  46.668 -30.171  1.00  0.00     0.047 C 
HETATM   21  C29 UNL     1      -7.905  46.161 -29.056  1.00  0.00     0.128 C 
ENDROOT
BRANCH   6  22
HETATM   22  O1  UNL     1      -2.142  47.706 -20.418  1.00  0.00    -0.271 OA
BRANCH  22  23
HETATM   23  C6  UNL     1      -1.600  48.759 -19.624  1.00  0.00     0.303 C 
BRANCH  23  24
HETATM   24  C7  UNL     1      -1.971  48.577 -18.158  1.00  0.00     0.244 C 
HETATM   25  O2  UNL     1      -3.134  48.448 -17.786  1.00  0.00    -0.271 OA
HETATM   26  N2  UNL     1      -0.887  48.496 -17.308  1.00  0.00    -0.355 N 
HETATM   27  H10 UNL     1       0.004  48.806 -17.679  1.00  0.00     0.162 HD
BRANCH  26  28
HETATM   28  C8  UNL     1      -1.040  48.373 -15.879  1.00  0.00     0.161 C 
BRANCH  28  29
HETATM   29  C9  UNL     1       0.258  48.648 -15.165  1.00  0.00    -0.040 A 
HETATM   30  C10 UNL     1       1.058  47.584 -14.723  1.00  0.00     0.010 A 
HETATM   31  C11 UNL     1       2.257  47.829 -14.049  1.00  0.00     0.019 A 
HETATM   32  C12 UNL     1       2.668  49.144 -13.805  1.00  0.00     0.037 A 
HETATM   33  C14 UNL     1       1.871  50.210 -14.234  1.00  0.00     0.019 A 
HETATM   34  C15 UNL     1       0.670  49.963 -14.906  1.00  0.00     0.010 A 
BRANCH  32  35
HETATM   35  C13 UNL     1       3.950  49.357 -13.089  1.00  0.00     0.176 C 
HETATM   36  O3  UNL     1       4.117  49.290 -11.886  1.00  0.00    -0.646 OA
BRANCH  35  37
HETATM   37  O4  UNL     1       4.969  49.641 -13.919  1.00  0.00    -0.773 OA
HETATM   38  H15 UNL     1       5.736  49.745 -13.317  1.00  0.00     0.167 HD
ENDBRANCH  35  37
ENDBRANCH  32  35
ENDBRANCH  28  29
ENDBRANCH  26  28
ENDBRANCH  23  24
ENDBRANCH  22  23
ENDBRANCH   6  22
BRANCH  14  39
HETATM   39  O5  UNL     1      -8.023  48.661 -25.190  1.00  0.00    -0.395 OA
HETATM   40  H26 UNL     1      -8.916  48.422 -24.884  1.00  0.00     0.210 HD
ENDBRANCH  14  39
BRANCH  21  41
HETATM   41  O6  UNL     1      -7.465  44.833 -28.735  1.00  0.00    -0.381 OA
HETATM   42  H37 UNL     1      -8.104  44.452 -28.100  1.00  0.00     0.211 HD
ENDBRANCH  21  41
BRANCH  21  43
HETATM   43  C30 UNL     1      -9.375  46.115 -29.555  1.00  0.00     0.184 C 
HETATM   44  O7  UNL     1     -10.144  47.075 -29.477  1.00  0.00    -0.292 OA
BRANCH  43  45
HETATM   45  C31 UNL     1      -9.877  44.793 -30.131  1.00  0.00     0.245 C 
BRANCH  45  46
HETATM   46  O8  UNL     1      -9.926  43.748 -29.173  1.00  0.00    -0.393 OA
HETATM   47  H40 UNL     1      -9.000  43.481 -29.010  1.00  0.00     0.209 HD
ENDBRANCH  45  46
ENDBRANCH  43  45
ENDBRANCH  21  43
TORSDOF 12
ENDMDL
MODEL 9
REMARK minimizedAffinity -9.48220634
REMARK CNNscore 0.422058195
REMARK CNNaffinity 6.76973772
REMARK  12 active torsions:
REMARK  status: ('A' for Active; 'I' for Inactive)
REMARK    1  A    between atoms: N1_6  and  O1_8 
REMARK    2  A    between atoms: O1_8  and  C6_9 
REMARK    3  A    between atoms: C6_9  and  C7_10 
REMARK       I    between atoms: C7_10  and  N2_12 
REMARK    4  A    between atoms: N2_12  and  C8_13 
REMARK    5  A    between atoms: C8_13  and  C9_14 
REMARK    6  A    between atoms: C12_17  and  C13_18 
REMARK    7  A    between atoms: C13_18  and  O4_20 
REMARK    8  A    between atoms: C22_29  and  O5_30 
REMARK    9  A    between atoms: C29_37  and  O6_38 
REMARK   10  A    between atoms: C29_37  and  C30_39 
REMARK   11  A    between atoms: C30_39  and  C31_41 
REMARK   12  A    between atoms: C31_41  and  O8_42 
ROOT
HETATM    1  C1  UNL     1      -2.781  49.153 -23.815  1.00  0.00     0.020 C 
HETATM    2  C2  UNL     1      -3.382  49.410 -22.416  1.00  0.00    -0.014 C 
HETATM    3  C3  UNL     1      -3.357  50.941 -22.130  1.00  0.00     0.020 C 
HETATM    4  C4  UNL     1      -1.971  51.491 -21.817  1.00  0.00     0.060 C 
HETATM    5  C5  UNL     1      -1.374  50.740 -20.646  1.00  0.00     0.032 C 
HETATM    6  N1  UNL     1      -0.614  51.265 -19.730  1.00  0.00    -0.271 N 
ATOM      7  H1  UNL     1      -0.230  50.740 -18.944  1.00  0.00     0.194 HD
HETATM    8  C16 UNL     1      -1.634  49.281 -20.571  1.00  0.00     0.030 C 
HETATM    9  C17 UNL     1      -2.502  48.671 -21.397  1.00  0.00    -0.069 C 
HETATM   10  C18 UNL     1      -2.630  47.168 -21.370  1.00  0.00     0.035 C 
HETATM   11  C19 UNL     1      -4.077  46.731 -21.198  1.00  0.00     0.010 C 
HETATM   12  C20 UNL     1      -4.994  47.346 -22.268  1.00  0.00    -0.002 C 
HETATM   13  C21 UNL     1      -4.872  48.903 -22.261  1.00  0.00     0.031 C 
HETATM   14  C22 UNL     1      -5.912  49.577 -23.202  1.00  0.00     0.124 C 
HETATM   15  C23 UNL     1      -7.350  49.049 -23.002  1.00  0.00     0.045 C 
HETATM   16  C24 UNL     1      -7.456  47.508 -23.049  1.00  0.00     0.001 C 
HETATM   17  C25 UNL     1      -7.181  46.980 -24.483  1.00  0.00     0.019 C 
HETATM   18  C26 UNL     1      -6.458  46.963 -21.999  1.00  0.00     0.002 C 
HETATM   19  C27 UNL     1      -6.812  45.485 -21.900  1.00  0.00     0.009 C 
HETATM   20  C28 UNL     1      -8.344  45.456 -22.046  1.00  0.00     0.047 C 
HETATM   21  C29 UNL     1      -8.784  46.878 -22.509  1.00  0.00     0.128 C 
ENDROOT
BRANCH   6  22
HETATM   22  O1  UNL     1      -0.385  52.629 -19.943  1.00  0.00    -0.271 OA
BRANCH  22  23
HETATM   23  C6  UNL     1       0.990  52.817 -20.272  1.00  0.00     0.303 C 
BRANCH  23  24
HETATM   24  C7  UNL     1       1.134  53.514 -21.619  1.00  0.00     0.244 C 
HETATM   25  O2  UNL     1       1.617  54.638 -21.729  1.00  0.00    -0.271 OA
HETATM   26  N2  UNL     1       0.745  52.744 -22.696  1.00  0.00    -0.355 N 
HETATM   27  H10 UNL     1       0.187  51.924 -22.488  1.00  0.00     0.162 HD
BRANCH  26  28
HETATM   28  C8  UNL     1       0.763  53.250 -24.046  1.00  0.00     0.161 C 
BRANCH  28  29
HETATM   29  C9  UNL     1      -0.236  52.528 -24.913  1.00  0.00    -0.040 A 
HETATM   30  C10 UNL     1       0.170  51.435 -25.694  1.00  0.00     0.010 A 
HETATM   31  C11 UNL     1      -0.745  50.767 -26.511  1.00  0.00     0.019 A 
HETATM   32  C12 UNL     1      -2.080  51.187 -26.559  1.00  0.00     0.037 A 
HETATM   33  C14 UNL     1      -2.489  52.282 -25.790  1.00  0.00     0.019 A 
HETATM   34  C15 UNL     1      -1.571  52.951 -24.976  1.00  0.00     0.010 A 
BRANCH  32  35
HETATM   35  C13 UNL     1      -3.017  50.446 -27.437  1.00  0.00     0.176 C 
HETATM   36  O3  UNL     1      -3.795  49.579 -27.083  1.00  0.00    -0.646 OA
BRANCH  35  37
HETATM   37  O4  UNL     1      -2.942  50.830 -28.723  1.00  0.00    -0.773 OA
HETATM   38  H15 UNL     1      -3.611  50.272 -29.171  1.00  0.00     0.167 HD
ENDBRANCH  35  37
ENDBRANCH  32  35
ENDBRANCH  28  29
ENDBRANCH  26  28
ENDBRANCH  23  24
ENDBRANCH  22  23
ENDBRANCH   6  22
BRANCH  14  39
HETATM   39  O5  UNL     1      -5.547  49.428 -24.566  1.00  0.00    -0.395 OA
HETATM   40  H26 UNL     1      -6.125  50.008 -25.092  1.00  0.00     0.210 HD
ENDBRANCH  14  39
BRANCH  21  41
HETATM   41  O6  UNL     1      -9.222  47.556 -21.323  1.00  0.00    -0.381 OA
HETATM   42  H37 UNL     1      -9.589  48.422 -21.592  1.00  0.00     0.211 HD
ENDBRANCH  21  41
BRANCH  21  43
HETATM   43  C30 UNL     1      -9.953  46.805 -23.529  1.00  0.00     0.184 C 
HETATM   44  O7  UNL     1     -11.031  46.261 -23.281  1.00  0.00    -0.292 OA
BRANCH  43  45
HETATM   45  C31 UNL     1      -9.715  47.411 -24.910  1.00  0.00     0.245 C 
BRANCH  45  46
HETATM   46  O8  UNL     1     -10.829  48.141 -25.399  1.00  0.00    -0.393 OA
HETATM   47  H40 UNL     1     -11.499  47.478 -25.657  1.00  0.00     0.209 HD
ENDBRANCH  45  46
ENDBRANCH  43  45
ENDBRANCH  21  43
TORSDOF 12
ENDMDL
