MODEL 1
REMARK minimizedAffinity -7.34390211
REMARK CNNscore 0.809906662
REMARK CNNaffinity 6.87320852
REMARK  7 active torsions:
REMARK  status: ('A' for Active; 'I' for Inactive)
REMARK    1  A    between atoms: C2_2  and  C30_33 
REMARK    2  A    between atoms: C3_3  and  C4_4 
REMARK    3  A    between atoms: C4_4  and  C5_5 
REMARK    4  A    between atoms: C5_5  and  C6_6 
REMARK    5  A    between atoms: C6_6  and  C8_8 
REMARK    6  A    between atoms: C19_20  and  O2_21 
REMARK    7  A    between atoms: C30_33  and  O5_35 
ROOT
HETATM    1  C8  UNL     1       4.580  55.073  -8.615  1.00  0.00    -0.002 C 
HETATM    2  C9  UNL     1       4.398  56.511  -8.056  1.00  0.00     0.007 C 
HETATM    3  C10 UNL     1       2.874  56.728  -7.890  1.00  0.00     0.018 C 
HETATM    4  C11 UNL     1       2.226  55.541  -8.629  1.00  0.00     0.025 C 
HETATM    5  C12 UNL     1       2.130  55.968 -10.111  1.00  0.00     0.024 C 
HETATM    6  C13 UNL     1       0.830  55.116  -8.169  1.00  0.00     0.147 C 
HETATM    7  O1  UNL     1       0.163  55.879  -7.464  1.00  0.00    -0.296 OA
HETATM    8  C14 UNL     1       0.268  53.712  -8.622  1.00  0.00     0.055 C 
HETATM    9  C15 UNL     1       1.446  52.665  -8.752  1.00  0.00     0.021 C 
HETATM   10  C16 UNL     1       2.852  53.176  -9.115  1.00  0.00     0.012 C 
HETATM   11  C17 UNL     1       3.221  54.400  -8.274  1.00  0.00    -0.026 C 
HETATM   12  C18 UNL     1       3.188  54.004  -6.766  1.00  0.00     0.016 C 
HETATM   13  C19 UNL     1      -0.657  53.157  -7.474  1.00  0.00     0.135 C 
HETATM   14  C20 UNL     1      -1.517  52.117  -8.185  1.00  0.00     0.039 C 
HETATM   15  C21 UNL     1      -2.031  52.899  -9.405  1.00  0.00     0.012 C 
HETATM   16  C22 UNL     1      -2.809  52.067 -10.464  1.00  0.00     0.018 C 
HETATM   17  C23 UNL     1      -3.808  51.115  -9.772  1.00  0.00     0.023 C 
HETATM   18  C24 UNL     1      -3.617  52.973 -11.414  1.00  0.00     0.023 C 
HETATM   19  C25 UNL     1      -1.875  51.245 -11.342  1.00  0.00     0.135 C 
HETATM   20  O3  UNL     1      -2.259  50.232 -11.932  1.00  0.00    -0.297 OA
HETATM   21  C26 UNL     1      -0.444  51.688 -11.483  1.00  0.00     0.080 C 
HETATM   22  C27 UNL     1      -0.226  53.176 -11.219  1.00  0.00     0.018 C 
HETATM   23  C28 UNL     1      -0.776  53.736  -9.878  1.00  0.00    -0.022 C 
HETATM   24  C29 UNL     1      -1.281  55.180 -10.148  1.00  0.00     0.017 C 
ENDROOT
BRANCH  13  25
HETATM   25  O2  UNL     1      -1.569  54.104  -6.920  1.00  0.00    -0.394 OA
HETATM   26  H29 UNL     1      -1.086  54.945  -6.764  1.00  0.00     0.210 HD
ENDBRANCH  13  25
BRANCH   1  27
HETATM   27  C6  UNL     1       5.899  54.331  -8.247  1.00  0.00    -0.014 C 
HETATM   28  C7  UNL     1       6.309  53.435  -9.433  1.00  0.00     0.010 C 
BRANCH  27  29
HETATM   29  C5  UNL     1       7.090  55.235  -7.855  1.00  0.00     0.008 C 
BRANCH  29  30
HETATM   30  C4  UNL     1       7.436  55.174  -6.361  1.00  0.00     0.028 C 
BRANCH  30  31
HETATM   31  C3  UNL     1       7.902  56.514  -5.856  1.00  0.00    -0.013 C 
HETATM   32  C2  UNL     1       9.035  56.806  -5.187  1.00  0.00     0.008 C 
HETATM   33  C1  UNL     1       9.328  58.208  -4.733  1.00  0.00     0.055 C 
BRANCH  32  34
HETATM   34  C30 UNL     1      10.070  55.779  -4.904  1.00  0.00     0.171 C 
HETATM   35  O4  UNL     1       9.997  54.845  -4.127  1.00  0.00    -0.646 OA
BRANCH  34  36
HETATM   36  O5  UNL     1      11.176  55.968  -5.646  1.00  0.00    -0.773 OA
HETATM   37  H46 UNL     1      11.762  55.234  -5.368  1.00  0.00     0.167 HD
ENDBRANCH  34  36
ENDBRANCH  32  34
ENDBRANCH  30  31
ENDBRANCH  29  30
ENDBRANCH  27  29
ENDBRANCH   1  27
TORSDOF 7
ENDMDL
MODEL 2
REMARK minimizedAffinity -8.02346039
REMARK CNNscore 0.779021442
REMARK CNNaffinity 6.45484924
REMARK  7 active torsions:
REMARK  status: ('A' for Active; 'I' for Inactive)
REMARK    1  A    between atoms: C2_2  and  C30_33 
REMARK    2  A    between atoms: C3_3  and  C4_4 
REMARK    3  A    between atoms: C4_4  and  C5_5 
REMARK    4  A    between atoms: C5_5  and  C6_6 
REMARK    5  A    between atoms: C6_6  and  C8_8 
REMARK    6  A    between atoms: C19_20  and  O2_21 
REMARK    7  A    between atoms: C30_33  and  O5_35 
ROOT
HETATM    1  C8  UNL     1     -12.842  46.215 -26.622  1.00  0.00    -0.002 C 
HETATM    2  C9  UNL     1     -12.158  46.750 -25.334  1.00  0.00     0.007 C 
HETATM    3  C10 UNL     1     -10.767  47.278 -25.763  1.00  0.00     0.018 C 
HETATM    4  C11 UNL     1     -10.579  46.765 -27.202  1.00  0.00     0.025 C 
HETATM    5  C12 UNL     1     -10.001  45.337 -27.070  1.00  0.00     0.024 C 
HETATM    6  C13 UNL     1      -9.646  47.569 -28.110  1.00  0.00     0.147 C 
HETATM    7  O1  UNL     1      -8.869  48.388 -27.611  1.00  0.00    -0.296 OA
HETATM    8  C14 UNL     1      -9.688  47.319 -29.668  1.00  0.00     0.055 C 
HETATM    9  C15 UNL     1     -11.154  46.940 -30.124  1.00  0.00     0.021 C 
HETATM   10  C16 UNL     1     -12.077  46.225 -29.122  1.00  0.00     0.012 C 
HETATM   11  C17 UNL     1     -12.027  46.904 -27.752  1.00  0.00    -0.026 C 
HETATM   12  C18 UNL     1     -12.483  48.387 -27.908  1.00  0.00     0.016 C 
HETATM   13  C19 UNL     1      -9.364  48.678 -30.395  1.00  0.00     0.135 C 
HETATM   14  C20 UNL     1      -8.931  48.239 -31.790  1.00  0.00     0.039 C 
HETATM   15  C21 UNL     1      -7.885  47.156 -31.480  1.00  0.00     0.012 C 
HETATM   16  C22 UNL     1      -7.360  46.351 -32.704  1.00  0.00     0.018 C 
HETATM   17  C23 UNL     1      -7.055  47.302 -33.881  1.00  0.00     0.023 C 
HETATM   18  C24 UNL     1      -6.058  45.598 -32.369  1.00  0.00     0.023 C 
HETATM   19  C25 UNL     1      -8.360  45.300 -33.167  1.00  0.00     0.135 C 
HETATM   20  O3  UNL     1      -8.356  44.860 -34.319  1.00  0.00    -0.297 OA
HETATM   21  C26 UNL     1      -9.382  44.796 -32.184  1.00  0.00     0.080 C 
HETATM   22  C27 UNL     1      -8.964  44.944 -30.723  1.00  0.00     0.018 C 
HETATM   23  C28 UNL     1      -8.510  46.359 -30.266  1.00  0.00    -0.022 C 
HETATM   24  C29 UNL     1      -7.372  46.169 -29.226  1.00  0.00     0.017 C 
ENDROOT
BRANCH  13  25
HETATM   25  O2  UNL     1      -8.261  49.406 -29.856  1.00  0.00    -0.394 OA
HETATM   26  H29 UNL     1      -8.340  49.408 -28.877  1.00  0.00     0.210 HD
ENDBRANCH  13  25
BRANCH   1  27
HETATM   27  C6  UNL     1     -14.398  46.273 -26.675  1.00  0.00    -0.014 C 
HETATM   28  C7  UNL     1     -14.924  44.932 -27.223  1.00  0.00     0.010 C 
BRANCH  27  29
HETATM   29  C5  UNL     1     -15.103  46.589 -25.336  1.00  0.00     0.008 C 
BRANCH  29  30
HETATM   30  C4  UNL     1     -16.380  45.768 -25.112  1.00  0.00     0.028 C 
BRANCH  30  31
HETATM   31  C3  UNL     1     -16.879  45.914 -23.698  1.00  0.00    -0.013 C 
HETATM   32  C2  UNL     1     -18.116  46.248 -23.280  1.00  0.00     0.008 C 
HETATM   33  C1  UNL     1     -18.433  46.373 -21.817  1.00  0.00     0.055 C 
BRANCH  32  34
HETATM   34  C30 UNL     1     -19.238  46.462 -24.230  1.00  0.00     0.171 C 
HETATM   35  O4  UNL     1     -20.137  45.690 -24.504  1.00  0.00    -0.646 OA
BRANCH  34  36
HETATM   36  O5  UNL     1     -19.185  47.681 -24.796  1.00  0.00    -0.773 OA
HETATM   37  H46 UNL     1     -19.968  47.691 -25.385  1.00  0.00     0.167 HD
ENDBRANCH  34  36
ENDBRANCH  32  34
ENDBRANCH  30  31
ENDBRANCH  29  30
ENDBRANCH  27  29
ENDBRANCH   1  27
TORSDOF 7
ENDMDL
MODEL 3
REMARK minimizedAffinity -7.5810895
REMARK CNNscore 0.773742497
REMARK CNNaffinity 7.04886293
REMARK  7 active torsions:
REMARK  status: ('A' for Active; 'I' for Inactive)
REMARK    1  A    between atoms: C2_2  and  C30_33 
REMARK    2  A    between atoms: C3_3  and  C4_4 
REMARK    3  A    between atoms: C4_4  and  C5_5 
REMARK    4  A    between atoms: C5_5  and  C6_6 
REMARK    5  A    between atoms: C6_6  and  C8_8 
REMARK    6  A    between atoms: C19_20  and  O2_21 
REMARK    7  A    between atoms: C30_33  and  O5_35 
ROOT
HETATM    1  C8  UNL     1       4.819  54.579  -9.571  1.00  0.00    -0.002 C 
HETATM    2  C9  UNL     1       4.815  55.969  -8.879  1.00  0.00     0.007 C 
HETATM    3  C10 UNL     1       3.343  56.269  -8.504  1.00  0.00     0.018 C 
HETATM    4  C11 UNL     1       2.523  55.198  -9.248  1.00  0.00     0.025 C 
HETATM    5  C12 UNL     1       2.280  55.762 -10.667  1.00  0.00     0.024 C 
HETATM    6  C13 UNL     1       1.164  54.824  -8.651  1.00  0.00     0.147 C 
HETATM    7  O1  UNL     1       0.647  55.563  -7.807  1.00  0.00    -0.296 OA
HETATM    8  C14 UNL     1       0.447  53.507  -9.141  1.00  0.00     0.055 C 
HETATM    9  C15 UNL     1       1.518  52.401  -9.504  1.00  0.00     0.021 C 
HETATM   10  C16 UNL     1       2.904  52.851 -10.000  1.00  0.00     0.012 C 
HETATM   11  C17 UNL     1       3.464  53.967  -9.116  1.00  0.00    -0.026 C 
HETATM   12  C18 UNL     1       3.583  53.441  -7.653  1.00  0.00     0.016 C 
HETATM   13  C19 UNL     1      -0.372  52.912  -7.934  1.00  0.00     0.135 C 
HETATM   14  C20 UNL     1      -1.388  51.998  -8.612  1.00  0.00     0.039 C 
HETATM   15  C21 UNL     1      -1.985  52.919  -9.689  1.00  0.00     0.012 C 
HETATM   16  C22 UNL     1      -2.946  52.237 -10.705  1.00  0.00     0.018 C 
HETATM   17  C23 UNL     1      -3.923  51.294  -9.970  1.00  0.00     0.023 C 
HETATM   18  C24 UNL     1      -3.792  53.276 -11.467  1.00  0.00     0.023 C 
HETATM   19  C25 UNL     1      -2.190  51.439 -11.758  1.00  0.00     0.135 C 
HETATM   20  O3  UNL     1      -2.718  50.510 -12.374  1.00  0.00    -0.297 OA
HETATM   21  C26 UNL     1      -0.757  51.798 -12.043  1.00  0.00     0.080 C 
HETATM   22  C27 UNL     1      -0.396  53.239 -11.689  1.00  0.00     0.018 C 
HETATM   23  C28 UNL     1      -0.737  53.711 -10.248  1.00  0.00    -0.022 C 
HETATM   24  C29 UNL     1      -1.160  55.203 -10.334  1.00  0.00     0.017 C 
ENDROOT
BRANCH  13  25
HETATM   25  O2  UNL     1      -1.136  53.863  -7.193  1.00  0.00    -0.394 OA
HETATM   26  H29 UNL     1      -0.575  54.653  -7.032  1.00  0.00     0.210 HD
ENDBRANCH  13  25
BRANCH   1  27
HETATM   27  C6  UNL     1       6.112  53.722  -9.435  1.00  0.00    -0.014 C 
HETATM   28  C7  UNL     1       6.835  54.122  -8.133  1.00  0.00     0.010 C 
BRANCH  27  29
HETATM   29  C5  UNL     1       5.906  52.190  -9.453  1.00  0.00     0.008 C 
BRANCH  29  30
HETATM   30  C4  UNL     1       7.073  51.410  -8.831  1.00  0.00     0.028 C 
BRANCH  30  31
HETATM   31  C3  UNL     1       6.651  50.017  -8.445  1.00  0.00    -0.013 C 
HETATM   32  C2  UNL     1       7.091  48.844  -8.942  1.00  0.00     0.008 C 
HETATM   33  C1  UNL     1       6.535  47.537  -8.453  1.00  0.00     0.055 C 
BRANCH  32  34
HETATM   34  C30 UNL     1       8.173  48.775  -9.957  1.00  0.00     0.171 C 
HETATM   35  O4  UNL     1       9.272  48.264  -9.839  1.00  0.00    -0.646 OA
BRANCH  34  36
HETATM   36  O5  UNL     1       7.808  49.354 -11.114  1.00  0.00    -0.773 OA
HETATM   37  H46 UNL     1       8.597  49.237 -11.684  1.00  0.00     0.167 HD
ENDBRANCH  34  36
ENDBRANCH  32  34
ENDBRANCH  30  31
ENDBRANCH  29  30
ENDBRANCH  27  29
ENDBRANCH   1  27
TORSDOF 7
ENDMDL
MODEL 4
REMARK minimizedAffinity -7.05934763
REMARK CNNscore 0.541956842
REMARK CNNaffinity 6.31941032
REMARK  7 active torsions:
REMARK  status: ('A' for Active; 'I' for Inactive)
REMARK    1  A    between atoms: C2_2  and  C30_33 
REMARK    2  A    between atoms: C3_3  and  C4_4 
REMARK    3  A    between atoms: C4_4  and  C5_5 
REMARK    4  A    between atoms: C5_5  and  C6_6 
REMARK    5  A    between atoms: C6_6  and  C8_8 
REMARK    6  A    between atoms: C19_20  and  O2_21 
REMARK    7  A    between atoms: C30_33  and  O5_35 
ROOT
HETATM    1  C8  UNL     1       1.882  55.504 -10.107  1.00  0.00    -0.002 C 
HETATM    2  C9  UNL     1       3.221  55.275 -10.860  1.00  0.00     0.007 C 
HETATM    3  C10 UNL     1       4.340  55.331  -9.791  1.00  0.00     0.018 C 
HETATM    4  C11 UNL     1       3.650  55.879  -8.528  1.00  0.00     0.025 C 
HETATM    5  C12 UNL     1       3.693  57.418  -8.657  1.00  0.00     0.024 C 
HETATM    6  C13 UNL     1       4.268  55.502  -7.179  1.00  0.00     0.147 C 
HETATM    7  O1  UNL     1       5.416  55.048  -7.142  1.00  0.00    -0.296 OA
HETATM    8  C14 UNL     1       3.426  55.718  -5.862  1.00  0.00     0.055 C 
HETATM    9  C15 UNL     1       1.887  55.497  -6.152  1.00  0.00     0.021 C 
HETATM   10  C16 UNL     1       1.351  55.797  -7.564  1.00  0.00     0.012 C 
HETATM   11  C17 UNL     1       2.261  55.187  -8.633  1.00  0.00    -0.026 C 
HETATM   12  C18 UNL     1       2.326  53.644  -8.420  1.00  0.00     0.016 C 
HETATM   13  C19 UNL     1       3.821  54.592  -4.834  1.00  0.00     0.135 C 
HETATM   14  C20 UNL     1       3.377  55.168  -3.492  1.00  0.00     0.039 C 
HETATM   15  C21 UNL     1       4.003  56.571  -3.518  1.00  0.00     0.012 C 
HETATM   16  C22 UNL     1       3.588  57.519  -2.355  1.00  0.00     0.018 C 
HETATM   17  C23 UNL     1       3.618  56.763  -1.009  1.00  0.00     0.023 C 
HETATM   18  C24 UNL     1       4.547  58.719  -2.233  1.00  0.00     0.023 C 
HETATM   19  C25 UNL     1       2.195  58.099  -2.562  1.00  0.00     0.135 C 
HETATM   20  O3  UNL     1       1.514  58.508  -1.619  1.00  0.00    -0.297 OA
HETATM   21  C26 UNL     1       1.643  58.166  -3.960  1.00  0.00     0.080 C 
HETATM   22  C27 UNL     1       2.712  58.189  -5.049  1.00  0.00     0.018 C 
HETATM   23  C28 UNL     1       3.781  57.062  -5.004  1.00  0.00    -0.022 C 
HETATM   24  C29 UNL     1       5.127  57.677  -5.475  1.00  0.00     0.017 C 
ENDROOT
BRANCH  13  25
HETATM   25  O2  UNL     1       5.222  54.350  -4.709  1.00  0.00    -0.394 OA
HETATM   26  H29 UNL     1       5.612  54.316  -5.610  1.00  0.00     0.210 HD
ENDBRANCH  13  25
BRANCH   1  27
HETATM   27  C6  UNL     1       0.607  54.846 -10.712  1.00  0.00    -0.014 C 
HETATM   28  C7  UNL     1       0.960  53.418 -11.175  1.00  0.00     0.010 C 
BRANCH  27  29
HETATM   29  C5  UNL     1      -0.625  54.789  -9.780  1.00  0.00     0.008 C 
BRANCH  29  30
HETATM   30  C4  UNL     1      -1.962  54.832 -10.532  1.00  0.00     0.028 C 
BRANCH  30  31
HETATM   31  C3  UNL     1      -2.820  53.644 -10.183  1.00  0.00    -0.013 C 
HETATM   32  C2  UNL     1      -3.458  52.801 -11.018  1.00  0.00     0.008 C 
HETATM   33  C1  UNL     1      -4.300  51.674 -10.489  1.00  0.00     0.055 C 
BRANCH  32  34
HETATM   34  C30 UNL     1      -3.330  52.907 -12.494  1.00  0.00     0.171 C 
HETATM   35  O4  UNL     1      -2.545  52.320 -13.216  1.00  0.00    -0.646 OA
BRANCH  34  36
HETATM   36  O5  UNL     1      -4.232  53.759 -13.013  1.00  0.00    -0.773 OA
HETATM   37  H46 UNL     1      -4.042  53.731 -13.973  1.00  0.00     0.167 HD
ENDBRANCH  34  36
ENDBRANCH  32  34
ENDBRANCH  30  31
ENDBRANCH  29  30
ENDBRANCH  27  29
ENDBRANCH   1  27
TORSDOF 7
ENDMDL
MODEL 5
REMARK minimizedAffinity -8.12499428
REMARK CNNscore 0.525041103
REMARK CNNaffinity 5.99997187
REMARK  7 active torsions:
REMARK  status: ('A' for Active; 'I' for Inactive)
REMARK    1  A    between atoms: C2_2  and  C30_33 
REMARK    2  A    between atoms: C3_3  and  C4_4 
REMARK    3  A    between atoms: C4_4  and  C5_5 
REMARK    4  A    between atoms: C5_5  and  C6_6 
REMARK    5  A    between atoms: C6_6  and  C8_8 
REMARK    6  A    between atoms: C19_20  and  O2_21 
REMARK    7  A    between atoms: C30_33  and  O5_35 
ROOT
HETATM    1  C8  UNL     1     -13.048  46.634 -26.613  1.00  0.00    -0.002 C 
HETATM    2  C9  UNL     1     -14.277  46.346 -27.517  1.00  0.00     0.007 C 
HETATM    3  C10 UNL     1     -13.719  46.003 -28.920  1.00  0.00     0.018 C 
HETATM    4  C11 UNL     1     -12.230  46.391 -28.856  1.00  0.00     0.025 C 
HETATM    5  C12 UNL     1     -12.171  47.897 -29.197  1.00  0.00     0.024 C 
HETATM    6  C13 UNL     1     -11.278  45.655 -29.802  1.00  0.00     0.147 C 
HETATM    7  O1  UNL     1     -11.739  45.023 -30.757  1.00  0.00    -0.296 OA
HETATM    8  C14 UNL     1      -9.724  45.737 -29.544  1.00  0.00     0.055 C 
HETATM    9  C15 UNL     1      -9.429  45.832 -27.993  1.00  0.00     0.021 C 
HETATM   10  C16 UNL     1     -10.480  46.492 -27.081  1.00  0.00     0.012 C 
HETATM   11  C17 UNL     1     -11.883  45.970 -27.399  1.00  0.00    -0.026 C 
HETATM   12  C18 UNL     1     -11.907  44.426 -27.184  1.00  0.00     0.016 C 
HETATM   13  C19 UNL     1      -9.075  44.379 -30.008  1.00  0.00     0.135 C 
HETATM   14  C20 UNL     1      -7.604  44.738 -30.200  1.00  0.00     0.039 C 
HETATM   15  C21 UNL     1      -7.689  45.997 -31.078  1.00  0.00     0.012 C 
HETATM   16  C22 UNL     1      -6.347  46.746 -31.319  1.00  0.00     0.018 C 
HETATM   17  C23 UNL     1      -5.222  45.741 -31.645  1.00  0.00     0.023 C 
HETATM   18  C24 UNL     1      -6.450  47.724 -32.505  1.00  0.00     0.023 C 
HETATM   19  C25 UNL     1      -5.932  47.575 -30.111  1.00  0.00     0.135 C 
HETATM   20  O3  UNL     1      -4.757  47.891 -29.911  1.00  0.00    -0.297 OA
HETATM   21  C26 UNL     1      -6.992  48.009 -29.136  1.00  0.00     0.080 C 
HETATM   22  C27 UNL     1      -8.395  48.077 -29.735  1.00  0.00     0.018 C 
HETATM   23  C28 UNL     1      -8.904  46.805 -30.469  1.00  0.00    -0.022 C 
HETATM   24  C29 UNL     1      -9.771  47.275 -31.669  1.00  0.00     0.017 C 
ENDROOT
BRANCH  13  25
HETATM   25  O2  UNL     1      -9.526  43.892 -31.271  1.00  0.00    -0.394 OA
HETATM   26  H29 UNL     1     -10.504  43.976 -31.304  1.00  0.00     0.210 HD
ENDBRANCH  13  25
BRANCH   1  27
HETATM   27  C6  UNL     1     -13.198  46.327 -25.093  1.00  0.00    -0.014 C 
HETATM   28  C7  UNL     1     -11.888  46.716 -24.379  1.00  0.00     0.010 C 
BRANCH  27  29
HETATM   29  C5  UNL     1     -14.388  47.014 -24.385  1.00  0.00     0.008 C 
BRANCH  29  30
HETATM   30  C4  UNL     1     -15.755  46.486 -24.841  1.00  0.00     0.028 C 
BRANCH  30  31
HETATM   31  C3  UNL     1     -16.691  46.320 -23.672  1.00  0.00    -0.013 C 
HETATM   32  C2  UNL     1     -18.039  46.306 -23.677  1.00  0.00     0.008 C 
HETATM   33  C1  UNL     1     -18.818  46.154 -22.402  1.00  0.00     0.055 C 
BRANCH  32  34
HETATM   34  C30 UNL     1     -18.823  46.392 -24.936  1.00  0.00     0.171 C 
HETATM   35  O4  UNL     1     -19.914  46.905 -25.098  1.00  0.00    -0.646 OA
BRANCH  34  36
HETATM   36  O5  UNL     1     -18.171  45.827 -25.968  1.00  0.00    -0.773 OA
HETATM   37  H46 UNL     1     -18.786  45.954 -26.720  1.00  0.00     0.167 HD
ENDBRANCH  34  36
ENDBRANCH  32  34
ENDBRANCH  30  31
ENDBRANCH  29  30
ENDBRANCH  27  29
ENDBRANCH   1  27
TORSDOF 7
ENDMDL
MODEL 6
REMARK minimizedAffinity -8.12204075
REMARK CNNscore 0.502333045
REMARK CNNaffinity 6.64987707
REMARK  7 active torsions:
REMARK  status: ('A' for Active; 'I' for Inactive)
REMARK    1  A    between atoms: C2_2  and  C30_33 
REMARK    2  A    between atoms: C3_3  and  C4_4 
REMARK    3  A    between atoms: C4_4  and  C5_5 
REMARK    4  A    between atoms: C5_5  and  C6_6 
REMARK    5  A    between atoms: C6_6  and  C8_8 
REMARK    6  A    between atoms: C19_20  and  O2_21 
REMARK    7  A    between atoms: C30_33  and  O5_35 
ROOT
HETATM    1  C8  UNL     1      -2.397  49.543 -22.608  1.00  0.00    -0.002 C 
HETATM    2  C9  UNL     1      -2.915  48.087 -22.751  1.00  0.00     0.007 C 
HETATM    3  C10 UNL     1      -3.034  47.520 -21.314  1.00  0.00     0.018 C 
HETATM    4  C11 UNL     1      -2.308  48.548 -20.426  1.00  0.00     0.025 C 
HETATM    5  C12 UNL     1      -0.813  48.156 -20.461  1.00  0.00     0.024 C 
HETATM    6  C13 UNL     1      -2.740  48.628 -18.960  1.00  0.00     0.147 C 
HETATM    7  O1  UNL     1      -3.408  47.711 -18.473  1.00  0.00    -0.296 OA
HETATM    8  C14 UNL     1      -2.307  49.878 -18.100  1.00  0.00     0.055 C 
HETATM    9  C15 UNL     1      -2.235  51.171 -19.007  1.00  0.00     0.021 C 
HETATM   10  C16 UNL     1      -1.898  51.007 -20.500  1.00  0.00     0.012 C 
HETATM   11  C17 UNL     1      -2.718  49.876 -21.124  1.00  0.00    -0.026 C 
HETATM   12  C18 UNL     1      -4.233  50.207 -20.969  1.00  0.00     0.016 C 
HETATM   13  C19 UNL     1      -3.444  50.170 -17.049  1.00  0.00     0.135 C 
HETATM   14  C20 UNL     1      -2.736  51.006 -15.987  1.00  0.00     0.039 C 
HETATM   15  C21 UNL     1      -1.484  50.164 -15.692  1.00  0.00     0.012 C 
HETATM   16  C22 UNL     1      -0.425  50.827 -14.764  1.00  0.00     0.018 C 
HETATM   17  C23 UNL     1      -1.114  51.503 -13.559  1.00  0.00     0.023 C 
HETATM   18  C24 UNL     1       0.568  49.789 -14.207  1.00  0.00     0.023 C 
HETATM   19  C25 UNL     1       0.407  51.868 -15.502  1.00  0.00     0.135 C 
HETATM   20  O3  UNL     1       0.981  52.783 -14.907  1.00  0.00    -0.297 OA
HETATM   21  C26 UNL     1       0.520  51.771 -16.999  1.00  0.00     0.080 C 
HETATM   22  C27 UNL     1       0.288  50.365 -17.549  1.00  0.00     0.018 C 
HETATM   23  C28 UNL     1      -1.024  49.653 -17.115  1.00  0.00    -0.022 C 
HETATM   24  C29 UNL     1      -0.704  48.141 -16.962  1.00  0.00     0.017 C 
ENDROOT
BRANCH  13  25
HETATM   25  O2  UNL     1      -3.950  49.023 -16.368  1.00  0.00    -0.394 OA
HETATM   26  H29 UNL     1      -4.097  48.311 -17.029  1.00  0.00     0.210 HD
ENDBRANCH  13  25
BRANCH   1  27
HETATM   27  C6  UNL     1      -2.818  50.558 -23.713  1.00  0.00    -0.014 C 
HETATM   28  C7  UNL     1      -3.002  51.945 -23.066  1.00  0.00     0.010 C 
BRANCH  27  29
HETATM   29  C5  UNL     1      -1.853  50.679 -24.914  1.00  0.00     0.008 C 
BRANCH  29  30
HETATM   30  C4  UNL     1      -2.214  49.750 -26.082  1.00  0.00     0.028 C 
BRANCH  30  31
HETATM   31  C3  UNL     1      -3.541  49.077 -25.850  1.00  0.00    -0.013 C 
HETATM   32  C2  UNL     1      -4.423  48.633 -26.768  1.00  0.00     0.008 C 
HETATM   33  C1  UNL     1      -5.722  48.003 -26.353  1.00  0.00     0.055 C 
BRANCH  32  34
HETATM   34  C30 UNL     1      -4.144  48.700 -28.225  1.00  0.00     0.171 C 
HETATM   35  O4  UNL     1      -4.111  47.777 -29.018  1.00  0.00    -0.646 OA
BRANCH  34  36
HETATM   36  O5  UNL     1      -3.930  49.963 -28.635  1.00  0.00    -0.773 OA
HETATM   37  H46 UNL     1      -3.766  49.864 -29.595  1.00  0.00     0.167 HD
ENDBRANCH  34  36
ENDBRANCH  32  34
ENDBRANCH  30  31
ENDBRANCH  29  30
ENDBRANCH  27  29
ENDBRANCH   1  27
TORSDOF 7
ENDMDL
MODEL 7
REMARK minimizedAffinity -7.99325562
REMARK CNNscore 0.427463949
REMARK CNNaffinity 6.53387785
REMARK  7 active torsions:
REMARK  status: ('A' for Active; 'I' for Inactive)
REMARK    1  A    between atoms: C2_2  and  C30_33 
REMARK    2  A    between atoms: C3_3  and  C4_4 
REMARK    3  A    between atoms: C4_4  and  C5_5 
REMARK    4  A    between atoms: C5_5  and  C6_6 
REMARK    5  A    between atoms: C6_6  and  C8_8 
REMARK    6  A    between atoms: C19_20  and  O2_21 
REMARK    7  A    between atoms: C30_33  and  O5_35 
ROOT
HETATM    1  C8  UNL     1      -3.245  48.881 -20.943  1.00  0.00    -0.002 C 
HETATM    2  C9  UNL     1      -4.265  50.035 -21.137  1.00  0.00     0.007 C 
HETATM    3  C10 UNL     1      -3.892  51.130 -20.107  1.00  0.00     0.018 C 
HETATM    4  C11 UNL     1      -2.876  50.454 -19.168  1.00  0.00     0.025 C 
HETATM    5  C12 UNL     1      -3.713  49.723 -18.094  1.00  0.00     0.024 C 
HETATM    6  C13 UNL     1      -1.881  51.367 -18.448  1.00  0.00     0.147 C 
HETATM    7  O1  UNL     1      -2.096  52.582 -18.399  1.00  0.00    -0.296 OA
HETATM    8  C14 UNL     1      -0.606  50.730 -17.770  1.00  0.00     0.055 C 
HETATM    9  C15 UNL     1      -0.120  49.469 -18.591  1.00  0.00     0.021 C 
HETATM   10  C16 UNL     1      -1.161  48.655 -19.380  1.00  0.00     0.012 C 
HETATM   11  C17 UNL     1      -2.083  49.578 -20.179  1.00  0.00    -0.026 C 
HETATM   12  C18 UNL     1      -1.222  50.416 -21.172  1.00  0.00     0.016 C 
HETATM   13  C19 UNL     1       0.574  51.769 -17.864  1.00  0.00     0.135 C 
HETATM   14  C20 UNL     1       1.542  51.303 -16.781  1.00  0.00     0.039 C 
HETATM   15  C21 UNL     1       0.618  51.156 -15.561  1.00  0.00     0.012 C 
HETATM   16  C22 UNL     1       1.259  50.509 -14.300  1.00  0.00     0.018 C 
HETATM   17  C23 UNL     1       2.663  51.100 -14.047  1.00  0.00     0.023 C 
HETATM   18  C24 UNL     1       0.414  50.769 -13.038  1.00  0.00     0.023 C 
HETATM   19  C25 UNL     1       1.379  48.996 -14.434  1.00  0.00     0.135 C 
HETATM   20  O3  UNL     1       2.205  48.349 -13.786  1.00  0.00    -0.297 OA
HETATM   21  C26 UNL     1       0.464  48.283 -15.392  1.00  0.00     0.080 C 
HETATM   22  C27 UNL     1      -0.833  49.033 -15.685  1.00  0.00     0.018 C 
HETATM   23  C28 UNL     1      -0.696  50.508 -16.154  1.00  0.00    -0.022 C 
HETATM   24  C29 UNL     1      -1.891  51.300 -15.555  1.00  0.00     0.017 C 
ENDROOT
BRANCH  13  25
HETATM   25  O2  UNL     1       0.229  53.111 -17.527  1.00  0.00    -0.394 OA
HETATM   26  H29 UNL     1      -0.623  53.331 -17.965  1.00  0.00     0.210 HD
ENDBRANCH  13  25
BRANCH   1  27
HETATM   27  C6  UNL     1      -2.908  48.014 -22.192  1.00  0.00    -0.014 C 
HETATM   28  C7  UNL     1      -2.826  46.536 -21.760  1.00  0.00     0.010 C 
BRANCH  27  29
HETATM   29  C5  UNL     1      -3.888  48.144 -23.381  1.00  0.00     0.008 C 
BRANCH  29  30
HETATM   30  C4  UNL     1      -3.248  48.760 -24.633  1.00  0.00     0.028 C 
BRANCH  30  31
HETATM   31  C3  UNL     1      -3.958  48.310 -25.883  1.00  0.00    -0.013 C 
HETATM   32  C2  UNL     1      -3.872  48.830 -27.124  1.00  0.00     0.008 C 
HETATM   33  C1  UNL     1      -4.680  48.266 -28.258  1.00  0.00     0.055 C 
BRANCH  32  34
HETATM   34  C30 UNL     1      -2.951  49.949 -27.448  1.00  0.00     0.171 C 
HETATM   35  O4  UNL     1      -1.965  50.302 -26.828  1.00  0.00    -0.646 OA
BRANCH  34  36
HETATM   36  O5  UNL     1      -3.312  50.581 -28.579  1.00  0.00    -0.773 OA
HETATM   37  H46 UNL     1      -2.631  51.279 -28.675  1.00  0.00     0.167 HD
ENDBRANCH  34  36
ENDBRANCH  32  34
ENDBRANCH  30  31
ENDBRANCH  29  30
ENDBRANCH  27  29
ENDBRANCH   1  27
TORSDOF 7
ENDMDL
MODEL 8
REMARK minimizedAffinity -8.58281898
REMARK CNNscore 0.408189416
REMARK CNNaffinity 6.27903366
REMARK  7 active torsions:
REMARK  status: ('A' for Active; 'I' for Inactive)
REMARK    1  A    between atoms: C2_2  and  C30_33 
REMARK    2  A    between atoms: C3_3  and  C4_4 
REMARK    3  A    between atoms: C4_4  and  C5_5 
REMARK    4  A    between atoms: C5_5  and  C6_6 
REMARK    5  A    between atoms: C6_6  and  C8_8 
REMARK    6  A    between atoms: C19_20  and  O2_21 
REMARK    7  A    between atoms: C30_33  and  O5_35 
ROOT
HETATM    1  C8  UNL     1      -6.949  47.139 -20.636  1.00  0.00    -0.002 C 
HETATM    2  C9  UNL     1      -6.277  47.360 -19.254  1.00  0.00     0.007 C 
HETATM    3  C10 UNL     1      -5.128  48.374 -19.481  1.00  0.00     0.018 C 
HETATM    4  C11 UNL     1      -4.989  48.472 -21.012  1.00  0.00     0.025 C 
HETATM    5  C12 UNL     1      -4.052  47.313 -21.425  1.00  0.00     0.024 C 
HETATM    6  C13 UNL     1      -4.408  49.771 -21.575  1.00  0.00     0.147 C 
HETATM    7  O1  UNL     1      -3.813  50.548 -20.822  1.00  0.00    -0.296 OA
HETATM    8  C14 UNL     1      -4.570  50.079 -23.115  1.00  0.00     0.055 C 
HETATM    9  C15 UNL     1      -5.934  49.487 -23.653  1.00  0.00     0.021 C 
HETATM   10  C16 UNL     1      -6.516  48.236 -22.969  1.00  0.00     0.012 C 
HETATM   11  C17 UNL     1      -6.479  48.380 -21.446  1.00  0.00    -0.026 C 
HETATM   12  C18 UNL     1      -7.315  49.630 -21.037  1.00  0.00     0.016 C 
HETATM   13  C19 UNL     1      -4.695  51.639 -23.294  1.00  0.00     0.135 C 
HETATM   14  C20 UNL     1      -4.334  51.856 -24.761  1.00  0.00     0.039 C 
HETATM   15  C21 UNL     1      -3.016  51.076 -24.889  1.00  0.00     0.012 C 
HETATM   16  C22 UNL     1      -2.451  50.932 -26.332  1.00  0.00     0.018 C 
HETATM   17  C23 UNL     1      -2.543  52.279 -27.081  1.00  0.00     0.023 C 
HETATM   18  C24 UNL     1      -0.969  50.510 -26.321  1.00  0.00     0.023 C 
HETATM   19  C25 UNL     1      -3.196  49.872 -27.133  1.00  0.00     0.135 C 
HETATM   20  O3  UNL     1      -3.217  49.883 -28.366  1.00  0.00    -0.297 OA
HETATM   21  C26 UNL     1      -3.930  48.790 -26.388  1.00  0.00     0.080 C 
HETATM   22  C27 UNL     1      -3.392  48.531 -24.983  1.00  0.00     0.018 C 
HETATM   23  C28 UNL     1      -3.265  49.763 -24.045  1.00  0.00    -0.022 C 
HETATM   24  C29 UNL     1      -2.001  49.552 -23.167  1.00  0.00     0.017 C 
ENDROOT
BRANCH  13  25
HETATM   25  O2  UNL     1      -3.759  52.413 -22.544  1.00  0.00    -0.394 OA
HETATM   26  H29 UNL     1      -3.718  52.050 -21.632  1.00  0.00     0.210 HD
ENDBRANCH  13  25
BRANCH   1  27
HETATM   27  C6  UNL     1      -8.463  46.771 -20.638  1.00  0.00    -0.014 C 
HETATM   28  C7  UNL     1      -8.598  45.238 -20.739  1.00  0.00     0.010 C 
BRANCH  27  29
HETATM   29  C5  UNL     1      -9.276  47.275 -19.424  1.00  0.00     0.008 C 
BRANCH  29  30
HETATM   30  C4  UNL     1     -10.607  47.934 -19.814  1.00  0.00     0.028 C 
BRANCH  30  31
HETATM   31  C3  UNL     1     -11.721  47.487 -18.905  1.00  0.00    -0.013 C 
HETATM   32  C2  UNL     1     -13.022  47.837 -18.946  1.00  0.00     0.008 C 
HETATM   33  C1  UNL     1     -13.999  47.310 -17.934  1.00  0.00     0.055 C 
BRANCH  32  34
HETATM   34  C30 UNL     1     -13.568  48.718 -20.009  1.00  0.00     0.171 C 
HETATM   35  O4  UNL     1     -13.814  49.908 -19.935  1.00  0.00    -0.646 OA
BRANCH  34  36
HETATM   36  O5  UNL     1     -13.770  48.047 -21.157  1.00  0.00    -0.773 OA
HETATM   37  H46 UNL     1     -14.121  48.734 -21.762  1.00  0.00     0.167 HD
ENDBRANCH  34  36
ENDBRANCH  32  34
ENDBRANCH  30  31
ENDBRANCH  29  30
ENDBRANCH  27  29
ENDBRANCH   1  27
TORSDOF 7
ENDMDL
MODEL 9
REMARK minimizedAffinity -7.59871721
REMARK CNNscore 0.367794156
REMARK CNNaffinity 6.43865824
REMARK  7 active torsions:
REMARK  status: ('A' for Active; 'I' for Inactive)
REMARK    1  A    between atoms: C2_2  and  C30_33 
REMARK    2  A    between atoms: C3_3  and  C4_4 
REMARK    3  A    between atoms: C4_4  and  C5_5 
REMARK    4  A    between atoms: C5_5  and  C6_6 
REMARK    5  A    between atoms: C6_6  and  C8_8 
REMARK    6  A    between atoms: C19_20  and  O2_21 
REMARK    7  A    between atoms: C30_33  and  O5_35 
ROOT
HETATM    1  C8  UNL     1      -5.710  47.209 -21.855  1.00  0.00    -0.002 C 
HETATM    2  C9  UNL     1      -5.490  46.055 -20.840  1.00  0.00     0.007 C 
HETATM    3  C10 UNL     1      -4.287  46.471 -19.957  1.00  0.00     0.018 C 
HETATM    4  C11 UNL     1      -3.676  47.689 -20.675  1.00  0.00     0.025 C 
HETATM    5  C12 UNL     1      -2.707  47.114 -21.732  1.00  0.00     0.024 C 
HETATM    6  C13 UNL     1      -2.897  48.684 -19.812  1.00  0.00     0.147 C 
HETATM    7  O1  UNL     1      -2.533  48.353 -18.680  1.00  0.00    -0.296 OA
HETATM    8  C14 UNL     1      -2.562  50.110 -20.400  1.00  0.00     0.055 C 
HETATM    9  C15 UNL     1      -3.715  50.589 -21.369  1.00  0.00     0.021 C 
HETATM   10  C16 UNL     1      -4.531  49.527 -22.127  1.00  0.00     0.012 C 
HETATM   11  C17 UNL     1      -4.962  48.398 -21.189  1.00  0.00    -0.026 C 
HETATM   12  C18 UNL     1      -5.831  48.998 -20.042  1.00  0.00     0.016 C 
HETATM   13  C19 UNL     1      -2.560  51.145 -19.212  1.00  0.00     0.135 C 
HETATM   14  C20 UNL     1      -1.754  52.317 -19.765  1.00  0.00     0.039 C 
HETATM   15  C21 UNL     1      -0.495  51.619 -20.303  1.00  0.00     0.012 C 
HETATM   16  C22 UNL     1       0.482  52.517 -21.115  1.00  0.00     0.018 C 
HETATM   17  C23 UNL     1       0.682  53.873 -20.405  1.00  0.00     0.023 C 
HETATM   18  C24 UNL     1       1.869  51.861 -21.257  1.00  0.00     0.023 C 
HETATM   19  C25 UNL     1      -0.021  52.773 -22.530  1.00  0.00     0.135 C 
HETATM   20  O3  UNL     1       0.341  53.754 -23.182  1.00  0.00    -0.297 OA
HETATM   21  C26 UNL     1      -0.993  51.797 -23.136  1.00  0.00     0.080 C 
HETATM   22  C27 UNL     1      -0.928  50.398 -22.527  1.00  0.00     0.018 C 
HETATM   23  C28 UNL     1      -1.047  50.302 -20.980  1.00  0.00    -0.022 C 
HETATM   24  C29 UNL     1      -0.126  49.142 -20.513  1.00  0.00     0.017 C 
ENDROOT
BRANCH  13  25
HETATM   25  O2  UNL     1      -1.872  50.719 -18.037  1.00  0.00    -0.394 OA
HETATM   26  H29 UNL     1      -2.130  49.790 -17.847  1.00  0.00     0.210 HD
ENDBRANCH  13  25
BRANCH   1  27
HETATM   27  C6  UNL     1      -7.162  47.432 -22.372  1.00  0.00    -0.014 C 
HETATM   28  C7  UNL     1      -8.144  46.753 -21.396  1.00  0.00     0.010 C 
BRANCH  27  29
HETATM   29  C5  UNL     1      -7.583  48.906 -22.575  1.00  0.00     0.008 C 
BRANCH  29  30
HETATM   30  C4  UNL     1      -8.013  49.225 -24.013  1.00  0.00     0.028 C 
BRANCH  30  31
HETATM   31  C3  UNL     1      -7.729  48.067 -24.934  1.00  0.00    -0.013 C 
HETATM   32  C2  UNL     1      -8.365  47.733 -26.075  1.00  0.00     0.008 C 
HETATM   33  C1  UNL     1      -7.960  46.518 -26.861  1.00  0.00     0.055 C 
BRANCH  32  34
HETATM   34  C30 UNL     1      -9.460  48.563 -26.639  1.00  0.00     0.171 C 
HETATM   35  O4  UNL     1     -10.600  48.668 -26.228  1.00  0.00    -0.646 OA
BRANCH  34  36
HETATM   36  O5  UNL     1      -9.053  49.258 -27.717  1.00  0.00    -0.773 OA
HETATM   37  H46 UNL     1      -9.855  49.755 -27.981  1.00  0.00     0.167 HD
ENDBRANCH  34  36
ENDBRANCH  32  34
ENDBRANCH  30  31
ENDBRANCH  29  30
ENDBRANCH  27  29
ENDBRANCH   1  27
TORSDOF 7
ENDMDL
