MODEL 1
REMARK minimizedAffinity -8.574646
REMARK  12 active torsions:
REMARK  status: ('A' for Active; 'I' for Inactive)
REMARK    1  A    between atoms: C4_4  and  C5_5 
REMARK    2  A    between atoms: C5_5  and  C6_6 
REMARK    3  A    between atoms: C6_6  and  C7_7 
REMARK    4  A    between atoms: C9_9  and  C10_10 
REMARK    5  A    between atoms: C11_11  and  C12_12 
REMARK    6  A    between atoms: C14_14  and  C15_15 
REMARK    7  A    between atoms: C19_20  and  C20_21 
REMARK    8  A    between atoms: C20_21  and  C21_22 
REMARK    9  A    between atoms: C21_22  and  C22_23 
REMARK   10  A    between atoms: C22_23  and  O2_24 
REMARK   11  A    between atoms: C24_26  and  C26_28 
REMARK   12  A    between atoms: C29_32  and  O4_34 
ROOT
HETATM    1  C15 UNL     1      -5.066  47.575 -29.027  1.00  0.00     0.145 C 
HETATM    2  C16 UNL     1      -6.498  47.316 -28.551  1.00  0.00     0.051 C 
HETATM    3  C17 UNL     1      -7.393  47.629 -29.762  1.00  0.00     0.022 C 
HETATM    4  C18 UNL     1      -6.525  48.715 -30.419  1.00  0.00     0.181 C 
HETATM    5  O1  UNL     1      -5.167  48.281 -30.279  1.00  0.00    -0.381 OA
HETATM    6  C19 UNL     1      -7.616  46.391 -30.728  1.00  0.00     0.029 C 
HETATM    7  C23 UNL     1      -8.446  46.852 -31.949  1.00  0.00    -0.066 C 
HETATM    8  C24 UNL     1      -8.087  46.983 -33.251  1.00  0.00    -0.021 C 
HETATM    9  C25 UNL     1      -9.055  47.299 -34.366  1.00  0.00     0.052 C 
HETATM   10  C27 UNL     1      -9.839  47.262 -31.484  1.00  0.00     0.038 C 
HETATM   11  C28 UNL     1      -9.714  48.456 -30.536  1.00  0.00     0.042 C 
HETATM   12  C29 UNL     1      -8.801  48.186 -29.321  1.00  0.00     0.065 C 
HETATM   13  C30 UNL     1      -9.524  47.267 -28.314  1.00  0.00     0.047 C 
ENDROOT
BRANCH   6  14
HETATM   14  C20 UNL     1      -6.419  45.433 -30.955  1.00  0.00     0.012 C 
BRANCH  14  15
HETATM   15  C21 UNL     1      -5.315  45.939 -31.903  1.00  0.00     0.027 C 
BRANCH  15  16
HETATM   16  C22 UNL     1      -4.214  44.931 -32.215  1.00  0.00     0.164 C 
BRANCH  16  17
HETATM   17  O2  UNL     1      -4.608  44.091 -33.291  1.00  0.00    -0.401 OA
HETATM   18  H34 UNL     1      -3.952  43.374 -33.346  1.00  0.00     0.209 HD
ENDBRANCH  16  17
ENDBRANCH  15  16
ENDBRANCH  14  15
ENDBRANCH   6  14
BRANCH  12  19
HETATM   19  O4  UNL     1      -8.620  49.440 -28.646  1.00  0.00    -0.389 OA
HETATM   20  H46 UNL     1      -9.484  49.744 -28.312  1.00  0.00     0.210 HD
ENDBRANCH  12  19
BRANCH   1  21
HETATM   21  C14 UNL     1      -4.269  48.420 -28.074  1.00  0.00     0.011 C 
HETATM   22  C12 UNL     1      -4.471  48.571 -26.747  1.00  0.00    -0.063 C 
HETATM   23  C13 UNL     1      -5.599  47.905 -26.000  1.00  0.00     0.048 C 
BRANCH  22  24
HETATM   24  C11 UNL     1      -3.564  49.439 -25.995  1.00  0.00     0.006 C 
HETATM   25  C10 UNL     1      -2.281  49.707 -26.294  1.00  0.00     0.001 C 
BRANCH  25  26
HETATM   26  C9  UNL     1      -1.459  50.575 -25.475  1.00  0.00     0.002 C 
HETATM   27  C7  UNL     1      -0.322  51.203 -25.837  1.00  0.00    -0.084 C 
HETATM   28  C8  UNL     1       0.314  51.157 -27.202  1.00  0.00     0.043 C 
BRANCH  27  29
HETATM   29  C6  UNL     1       0.415  52.063 -24.823  1.00  0.00     0.037 C 
BRANCH  29  30
HETATM   30  C5  UNL     1      -0.185  51.946 -23.417  1.00  0.00     0.031 C 
BRANCH  30  31
HETATM   31  C4  UNL     1       0.483  52.889 -22.452  1.00  0.00    -0.024 C 
HETATM   32  C2  UNL     1       0.503  52.800 -21.107  1.00  0.00    -0.091 C 
HETATM   33  C1  UNL     1       1.256  53.809 -20.280  1.00  0.00     0.042 C 
HETATM   34  C3  UNL     1      -0.202  51.741 -20.303  1.00  0.00     0.042 C 
ENDBRANCH  30  31
ENDBRANCH  29  30
ENDBRANCH  27  29
ENDBRANCH  25  26
ENDBRANCH  22  24
ENDBRANCH   1  21
BRANCH   8  35
HETATM   35  C26 UNL     1      -6.670  46.901 -33.720  1.00  0.00     0.265 C 
HETATM   36  O3  UNL     1      -6.077  47.850 -34.220  1.00  0.00    -0.302 OA
ENDBRANCH   8  35
TORSDOF 12
ENDMDL
MODEL 2
REMARK minimizedAffinity -8.40688801
REMARK  12 active torsions:
REMARK  status: ('A' for Active; 'I' for Inactive)
REMARK    1  A    between atoms: C4_4  and  C5_5 
REMARK    2  A    between atoms: C5_5  and  C6_6 
REMARK    3  A    between atoms: C6_6  and  C7_7 
REMARK    4  A    between atoms: C9_9  and  C10_10 
REMARK    5  A    between atoms: C11_11  and  C12_12 
REMARK    6  A    between atoms: C14_14  and  C15_15 
REMARK    7  A    between atoms: C19_20  and  C20_21 
REMARK    8  A    between atoms: C20_21  and  C21_22 
REMARK    9  A    between atoms: C21_22  and  C22_23 
REMARK   10  A    between atoms: C22_23  and  O2_24 
REMARK   11  A    between atoms: C24_26  and  C26_28 
REMARK   12  A    between atoms: C29_32  and  O4_34 
ROOT
HETATM    1  C15 UNL     1      -1.979  51.869 -22.376  1.00  0.00     0.145 C 
HETATM    2  C16 UNL     1      -1.500  52.608 -23.628  1.00  0.00     0.051 C 
HETATM    3  C17 UNL     1      -1.649  51.598 -24.778  1.00  0.00     0.022 C 
HETATM    4  C18 UNL     1      -1.410  50.303 -23.985  1.00  0.00     0.181 C 
HETATM    5  O1  UNL     1      -2.076  50.476 -22.728  1.00  0.00    -0.381 OA
HETATM    6  C19 UNL     1      -3.080  51.614 -25.461  1.00  0.00     0.029 C 
HETATM    7  C23 UNL     1      -3.137  50.499 -26.531  1.00  0.00    -0.066 C 
HETATM    8  C24 UNL     1      -3.848  49.342 -26.552  1.00  0.00    -0.021 C 
HETATM    9  C25 UNL     1      -3.921  48.418 -27.743  1.00  0.00     0.052 C 
HETATM   10  C27 UNL     1      -2.150  50.821 -27.647  1.00  0.00     0.038 C 
HETATM   11  C28 UNL     1      -0.734  50.833 -27.069  1.00  0.00     0.042 C 
HETATM   12  C29 UNL     1      -0.554  51.817 -25.893  1.00  0.00     0.065 C 
HETATM   13  C30 UNL     1      -0.515  53.267 -26.423  1.00  0.00     0.047 C 
ENDROOT
BRANCH   6  14
HETATM   14  C20 UNL     1      -4.310  51.835 -24.544  1.00  0.00     0.012 C 
BRANCH  14  15
HETATM   15  C21 UNL     1      -4.753  50.626 -23.698  1.00  0.00     0.027 C 
BRANCH  15  16
HETATM   16  C22 UNL     1      -5.665  50.955 -22.522  1.00  0.00     0.164 C 
BRANCH  16  17
HETATM   17  O2  UNL     1      -7.026  50.797 -22.897  1.00  0.00    -0.401 OA
HETATM   18  H34 UNL     1      -7.565  51.167 -22.175  1.00  0.00     0.209 HD
ENDBRANCH  16  17
ENDBRANCH  15  16
ENDBRANCH  14  15
ENDBRANCH   6  14
BRANCH  12  19
HETATM   19  O4  UNL     1       0.744  51.570 -25.333  1.00  0.00    -0.389 OA
HETATM   20  H46 UNL     1       1.419  51.777 -26.005  1.00  0.00     0.210 HD
ENDBRANCH  12  19
BRANCH   1  21
HETATM   21  C14 UNL     1      -1.033  51.996 -21.215  1.00  0.00     0.011 C 
HETATM   22  C12 UNL     1       0.163  52.622 -21.198  1.00  0.00    -0.063 C 
HETATM   23  C13 UNL     1       0.765  53.291 -22.408  1.00  0.00     0.048 C 
BRANCH  22  24
HETATM   24  C11 UNL     1       0.927  52.639 -19.950  1.00  0.00     0.006 C 
HETATM   25  C10 UNL     1       0.427  52.569 -18.704  1.00  0.00     0.001 C 
BRANCH  25  26
HETATM   26  C9  UNL     1       1.271  52.606 -17.526  1.00  0.00     0.002 C 
HETATM   27  C7  UNL     1       1.359  51.674 -16.556  1.00  0.00    -0.084 C 
HETATM   28  C8  UNL     1       0.610  50.367 -16.518  1.00  0.00     0.043 C 
BRANCH  27  29
HETATM   29  C6  UNL     1       2.294  51.903 -15.380  1.00  0.00     0.037 C 
BRANCH  29  30
HETATM   30  C5  UNL     1       1.646  51.534 -14.041  1.00  0.00     0.031 C 
BRANCH  30  31
HETATM   31  C4  UNL     1       2.681  51.262 -12.982  1.00  0.00    -0.024 C 
HETATM   32  C2  UNL     1       3.378  50.124 -12.795  1.00  0.00    -0.091 C 
HETATM   33  C1  UNL     1       4.415  50.026 -11.707  1.00  0.00     0.042 C 
HETATM   34  C3  UNL     1       3.206  48.866 -13.602  1.00  0.00     0.042 C 
ENDBRANCH  30  31
ENDBRANCH  29  30
ENDBRANCH  27  29
ENDBRANCH  25  26
ENDBRANCH  22  24
ENDBRANCH   1  21
BRANCH   8  35
HETATM   35  C26 UNL     1      -4.587  48.816 -25.364  1.00  0.00     0.265 C 
HETATM   36  O3  UNL     1      -5.520  48.027 -25.454  1.00  0.00    -0.302 OA
ENDBRANCH   8  35
TORSDOF 12
ENDMDL
MODEL 3
REMARK minimizedAffinity -8.3843317
REMARK  12 active torsions:
REMARK  status: ('A' for Active; 'I' for Inactive)
REMARK    1  A    between atoms: C4_4  and  C5_5 
REMARK    2  A    between atoms: C5_5  and  C6_6 
REMARK    3  A    between atoms: C6_6  and  C7_7 
REMARK    4  A    between atoms: C9_9  and  C10_10 
REMARK    5  A    between atoms: C11_11  and  C12_12 
REMARK    6  A    between atoms: C14_14  and  C15_15 
REMARK    7  A    between atoms: C19_20  and  C20_21 
REMARK    8  A    between atoms: C20_21  and  C21_22 
REMARK    9  A    between atoms: C21_22  and  C22_23 
REMARK   10  A    between atoms: C22_23  and  O2_24 
REMARK   11  A    between atoms: C24_26  and  C26_28 
REMARK   12  A    between atoms: C29_32  and  O4_34 
ROOT
HETATM    1  C15 UNL     1      -3.972  48.351 -25.635  1.00  0.00     0.145 C 
HETATM    2  C16 UNL     1      -2.636  49.095 -25.580  1.00  0.00     0.051 C 
HETATM    3  C17 UNL     1      -2.781  50.110 -24.433  1.00  0.00     0.022 C 
HETATM    4  C18 UNL     1      -4.293  50.367 -24.540  1.00  0.00     0.181 C 
HETATM    5  O1  UNL     1      -4.896  49.097 -24.820  1.00  0.00    -0.381 OA
HETATM    6  C19 UNL     1      -2.382  49.530 -23.013  1.00  0.00     0.029 C 
HETATM    7  C23 UNL     1      -2.659  50.605 -21.936  1.00  0.00    -0.066 C 
HETATM    8  C24 UNL     1      -3.591  50.634 -20.949  1.00  0.00    -0.021 C 
HETATM    9  C25 UNL     1      -3.643  51.688 -19.869  1.00  0.00     0.052 C 
HETATM   10  C27 UNL     1      -1.735  51.796 -22.164  1.00  0.00     0.038 C 
HETATM   11  C28 UNL     1      -2.051  52.415 -23.527  1.00  0.00     0.042 C 
HETATM   12  C29 UNL     1      -1.940  51.418 -24.700  1.00  0.00     0.065 C 
HETATM   13  C30 UNL     1      -0.455  51.128 -25.005  1.00  0.00     0.047 C 
ENDROOT
BRANCH   6  14
HETATM   14  C20 UNL     1      -2.751  48.055 -22.710  1.00  0.00     0.012 C 
BRANCH  14  15
HETATM   15  C21 UNL     1      -1.785  47.289 -21.787  1.00  0.00     0.027 C 
BRANCH  15  16
HETATM   16  C22 UNL     1      -0.909  48.162 -20.895  1.00  0.00     0.164 C 
BRANCH  16  17
HETATM   17  O2  UNL     1      -1.229  47.944 -19.528  1.00  0.00    -0.401 OA
HETATM   18  H34 UNL     1      -0.764  48.629 -19.015  1.00  0.00     0.209 HD
ENDBRANCH  16  17
ENDBRANCH  15  16
ENDBRANCH  14  15
ENDBRANCH   6  14
BRANCH  12  19
HETATM   19  O4  UNL     1      -2.457  52.081 -25.864  1.00  0.00    -0.389 OA
HETATM   20  H46 UNL     1      -1.890  52.846 -26.065  1.00  0.00     0.210 HD
ENDBRANCH  12  19
BRANCH   1  21
HETATM   21  C14 UNL     1      -4.541  48.258 -27.023  1.00  0.00     0.011 C 
HETATM   22  C12 UNL     1      -5.785  47.869 -27.374  1.00  0.00    -0.063 C 
HETATM   23  C13 UNL     1      -6.825  47.421 -26.378  1.00  0.00     0.048 C 
BRANCH  22  24
HETATM   24  C11 UNL     1      -6.142  47.861 -28.793  1.00  0.00     0.006 C 
HETATM   25  C10 UNL     1      -7.165  47.195 -29.358  1.00  0.00     0.001 C 
BRANCH  25  26
HETATM   26  C9  UNL     1      -7.429  47.241 -30.782  1.00  0.00     0.002 C 
HETATM   27  C7  UNL     1      -8.059  48.219 -31.464  1.00  0.00    -0.084 C 
HETATM   28  C8  UNL     1      -8.594  49.499 -30.877  1.00  0.00     0.043 C 
BRANCH  27  29
HETATM   29  C6  UNL     1      -8.260  48.077 -32.964  1.00  0.00     0.037 C 
BRANCH  29  30
HETATM   30  C5  UNL     1      -7.296  47.060 -33.585  1.00  0.00     0.031 C 
BRANCH  30  31
HETATM   31  C4  UNL     1      -5.955  47.679 -33.880  1.00  0.00    -0.024 C 
HETATM   32  C2  UNL     1      -4.749  47.250 -33.458  1.00  0.00    -0.091 C 
HETATM   33  C1  UNL     1      -3.489  47.963 -33.877  1.00  0.00     0.042 C 
HETATM   34  C3  UNL     1      -4.522  46.074 -32.549  1.00  0.00     0.042 C 
ENDBRANCH  30  31
ENDBRANCH  29  30
ENDBRANCH  27  29
ENDBRANCH  25  26
ENDBRANCH  22  24
ENDBRANCH   1  21
BRANCH   8  35
HETATM   35  C26 UNL     1      -4.720  49.659 -20.862  1.00  0.00     0.265 C 
HETATM   36  O3  UNL     1      -5.278  49.375 -19.809  1.00  0.00    -0.302 OA
ENDBRANCH   8  35
TORSDOF 12
ENDMDL
MODEL 4
REMARK minimizedAffinity -8.24141121
REMARK  12 active torsions:
REMARK  status: ('A' for Active; 'I' for Inactive)
REMARK    1  A    between atoms: C4_4  and  C5_5 
REMARK    2  A    between atoms: C5_5  and  C6_6 
REMARK    3  A    between atoms: C6_6  and  C7_7 
REMARK    4  A    between atoms: C9_9  and  C10_10 
REMARK    5  A    between atoms: C11_11  and  C12_12 
REMARK    6  A    between atoms: C14_14  and  C15_15 
REMARK    7  A    between atoms: C19_20  and  C20_21 
REMARK    8  A    between atoms: C20_21  and  C21_22 
REMARK    9  A    between atoms: C21_22  and  C22_23 
REMARK   10  A    between atoms: C22_23  and  O2_24 
REMARK   11  A    between atoms: C24_26  and  C26_28 
REMARK   12  A    between atoms: C29_32  and  O4_34 
ROOT
HETATM    1  C15 UNL     1      -5.046  47.426 -28.883  1.00  0.00     0.145 C 
HETATM    2  C16 UNL     1      -6.505  47.107 -28.548  1.00  0.00     0.051 C 
HETATM    3  C17 UNL     1      -7.313  47.553 -29.779  1.00  0.00     0.022 C 
HETATM    4  C18 UNL     1      -6.414  48.712 -30.240  1.00  0.00     0.181 C 
HETATM    5  O1  UNL     1      -5.064  48.271 -30.050  1.00  0.00    -0.381 OA
HETATM    6  C19 UNL     1      -7.448  46.433 -30.894  1.00  0.00     0.029 C 
HETATM    7  C23 UNL     1      -8.192  47.027 -32.112  1.00  0.00    -0.066 C 
HETATM    8  C24 UNL     1      -7.740  47.310 -33.361  1.00  0.00    -0.021 C 
HETATM    9  C25 UNL     1      -8.628  47.747 -34.501  1.00  0.00     0.052 C 
HETATM   10  C27 UNL     1      -9.621  47.375 -31.709  1.00  0.00     0.038 C 
HETATM   11  C28 UNL     1      -9.582  48.452 -30.623  1.00  0.00     0.042 C 
HETATM   12  C29 UNL     1      -8.757  48.048 -29.382  1.00  0.00     0.065 C 
HETATM   13  C30 UNL     1      -9.540  47.015 -28.544  1.00  0.00     0.047 C 
ENDROOT
BRANCH   6  14
HETATM   14  C20 UNL     1      -6.224  45.514 -31.139  1.00  0.00     0.012 C 
BRANCH  14  15
HETATM   15  C21 UNL     1      -6.536  44.075 -31.592  1.00  0.00     0.027 C 
BRANCH  15  16
HETATM   16  C22 UNL     1      -5.342  43.285 -32.117  1.00  0.00     0.164 C 
BRANCH  16  17
HETATM   17  O2  UNL     1      -4.592  44.077 -33.027  1.00  0.00    -0.401 OA
HETATM   18  H34 UNL     1      -3.944  43.487 -33.450  1.00  0.00     0.209 HD
ENDBRANCH  16  17
ENDBRANCH  15  16
ENDBRANCH  14  15
ENDBRANCH   6  14
BRANCH  12  19
HETATM   19  O4  UNL     1      -8.643  49.217 -28.556  1.00  0.00    -0.389 OA
HETATM   20  H46 UNL     1      -9.533  49.476 -28.255  1.00  0.00     0.210 HD
ENDBRANCH  12  19
BRANCH   1  21
HETATM   21  C14 UNL     1      -4.332  48.159 -27.783  1.00  0.00     0.011 C 
HETATM   22  C12 UNL     1      -4.749  48.333 -26.510  1.00  0.00    -0.063 C 
HETATM   23  C13 UNL     1      -6.069  47.819 -25.993  1.00  0.00     0.048 C 
BRANCH  22  24
HETATM   24  C11 UNL     1      -3.890  49.076 -25.587  1.00  0.00     0.006 C 
HETATM   25  C10 UNL     1      -3.465  48.663 -24.381  1.00  0.00     0.001 C 
BRANCH  25  26
HETATM   26  C9  UNL     1      -2.622  49.481 -23.532  1.00  0.00     0.002 C 
HETATM   27  C7  UNL     1      -1.960  49.095 -22.423  1.00  0.00    -0.084 C 
HETATM   28  C8  UNL     1      -1.934  47.701 -21.853  1.00  0.00     0.043 C 
BRANCH  27  29
HETATM   29  C6  UNL     1      -1.135  50.112 -21.650  1.00  0.00     0.037 C 
BRANCH  29  30
HETATM   30  C5  UNL     1      -0.977  51.431 -22.413  1.00  0.00     0.031 C 
BRANCH  30  31
HETATM   31  C4  UNL     1       0.044  52.327 -21.763  1.00  0.00    -0.024 C 
HETATM   32  C2  UNL     1       0.098  52.696 -20.467  1.00  0.00    -0.091 C 
HETATM   33  C1  UNL     1       1.216  53.571 -19.962  1.00  0.00     0.042 C 
HETATM   34  C3  UNL     1      -0.910  52.311 -19.420  1.00  0.00     0.042 C 
ENDBRANCH  30  31
ENDBRANCH  29  30
ENDBRANCH  27  29
ENDBRANCH  25  26
ENDBRANCH  22  24
ENDBRANCH   1  21
BRANCH   8  35
HETATM   35  C26 UNL     1      -6.292  47.290 -33.729  1.00  0.00     0.265 C 
HETATM   36  O3  UNL     1      -5.782  48.114 -34.479  1.00  0.00    -0.302 OA
ENDBRANCH   8  35
TORSDOF 12
ENDMDL
MODEL 5
REMARK minimizedAffinity -8.22935677
REMARK  12 active torsions:
REMARK  status: ('A' for Active; 'I' for Inactive)
REMARK    1  A    between atoms: C4_4  and  C5_5 
REMARK    2  A    between atoms: C5_5  and  C6_6 
REMARK    3  A    between atoms: C6_6  and  C7_7 
REMARK    4  A    between atoms: C9_9  and  C10_10 
REMARK    5  A    between atoms: C11_11  and  C12_12 
REMARK    6  A    between atoms: C14_14  and  C15_15 
REMARK    7  A    between atoms: C19_20  and  C20_21 
REMARK    8  A    between atoms: C20_21  and  C21_22 
REMARK    9  A    between atoms: C21_22  and  C22_23 
REMARK   10  A    between atoms: C22_23  and  O2_24 
REMARK   11  A    between atoms: C24_26  and  C26_28 
REMARK   12  A    between atoms: C29_32  and  O4_34 
ROOT
HETATM    1  C15 UNL     1      -4.890  47.601 -28.882  1.00  0.00     0.145 C 
HETATM    2  C16 UNL     1      -6.325  47.239 -28.491  1.00  0.00     0.051 C 
HETATM    3  C17 UNL     1      -7.186  47.610 -29.711  1.00  0.00     0.022 C 
HETATM    4  C18 UNL     1      -6.347  48.785 -30.239  1.00  0.00     0.181 C 
HETATM    5  O1  UNL     1      -4.976  48.403 -30.076  1.00  0.00    -0.381 OA
HETATM    6  C19 UNL     1      -7.310  46.447 -30.782  1.00  0.00     0.029 C 
HETATM    7  C23 UNL     1      -8.112  46.969 -31.996  1.00  0.00    -0.066 C 
HETATM    8  C24 UNL     1      -7.709  47.224 -33.267  1.00  0.00    -0.021 C 
HETATM    9  C25 UNL     1      -8.646  47.586 -34.394  1.00  0.00     0.052 C 
HETATM   10  C27 UNL     1      -9.541  47.276 -31.561  1.00  0.00     0.038 C 
HETATM   11  C28 UNL     1      -9.512  48.391 -30.515  1.00  0.00     0.042 C 
HETATM   12  C29 UNL     1      -8.636  48.063 -29.287  1.00  0.00     0.065 C 
HETATM   13  C30 UNL     1      -9.352  47.031 -28.390  1.00  0.00     0.047 C 
ENDROOT
BRANCH   6  14
HETATM   14  C20 UNL     1      -6.059  45.567 -31.034  1.00  0.00     0.012 C 
BRANCH  14  15
HETATM   15  C21 UNL     1      -6.326  44.137 -31.543  1.00  0.00     0.027 C 
BRANCH  15  16
HETATM   16  C22 UNL     1      -5.258  43.568 -32.471  1.00  0.00     0.164 C 
BRANCH  16  17
HETATM   17  O2  UNL     1      -4.994  42.212 -32.142  1.00  0.00    -0.401 OA
HETATM   18  H34 UNL     1      -4.205  41.945 -32.647  1.00  0.00     0.209 HD
ENDBRANCH  16  17
ENDBRANCH  15  16
ENDBRANCH  14  15
ENDBRANCH   6  14
BRANCH  12  19
HETATM   19  O4  UNL     1      -8.544  49.264 -28.505  1.00  0.00    -0.389 OA
HETATM   20  H46 UNL     1      -9.434  49.499 -28.186  1.00  0.00     0.210 HD
ENDBRANCH  12  19
BRANCH   1  21
HETATM   21  C14 UNL     1      -4.174  48.400 -27.830  1.00  0.00     0.011 C 
HETATM   22  C12 UNL     1      -4.546  48.581 -26.544  1.00  0.00    -0.063 C 
HETATM   23  C13 UNL     1      -5.811  48.007 -25.959  1.00  0.00     0.048 C 
BRANCH  22  24
HETATM   24  C11 UNL     1      -3.692  49.393 -25.676  1.00  0.00     0.006 C 
HETATM   25  C10 UNL     1      -3.229  49.050 -24.462  1.00  0.00     0.001 C 
BRANCH  25  26
HETATM   26  C9  UNL     1      -2.395  49.933 -23.671  1.00  0.00     0.002 C 
HETATM   27  C7  UNL     1      -2.624  51.231 -23.383  1.00  0.00    -0.084 C 
HETATM   28  C8  UNL     1      -3.832  52.027 -23.803  1.00  0.00     0.043 C 
BRANCH  27  29
HETATM   29  C6  UNL     1      -1.615  52.002 -22.548  1.00  0.00     0.037 C 
BRANCH  29  30
HETATM   30  C5  UNL     1      -0.215  51.990 -23.171  1.00  0.00     0.031 C 
BRANCH  30  31
HETATM   31  C4  UNL     1      -0.148  52.862 -24.396  1.00  0.00    -0.024 C 
HETATM   32  C2  UNL     1      -0.008  52.462 -25.676  1.00  0.00    -0.091 C 
HETATM   33  C1  UNL     1       0.001  53.466 -26.800  1.00  0.00     0.042 C 
HETATM   34  C3  UNL     1       0.164  51.035 -26.118  1.00  0.00     0.042 C 
ENDBRANCH  30  31
ENDBRANCH  29  30
ENDBRANCH  27  29
ENDBRANCH  25  26
ENDBRANCH  22  24
ENDBRANCH   1  21
BRANCH   8  35
HETATM   35  C26 UNL     1      -6.272  47.246 -33.679  1.00  0.00     0.265 C 
HETATM   36  O3  UNL     1      -5.833  48.013 -34.528  1.00  0.00    -0.302 OA
ENDBRANCH   8  35
TORSDOF 12
ENDMDL
MODEL 6
REMARK minimizedAffinity -8.22377777
REMARK  12 active torsions:
REMARK  status: ('A' for Active; 'I' for Inactive)
REMARK    1  A    between atoms: C4_4  and  C5_5 
REMARK    2  A    between atoms: C5_5  and  C6_6 
REMARK    3  A    between atoms: C6_6  and  C7_7 
REMARK    4  A    between atoms: C9_9  and  C10_10 
REMARK    5  A    between atoms: C11_11  and  C12_12 
REMARK    6  A    between atoms: C14_14  and  C15_15 
REMARK    7  A    between atoms: C19_20  and  C20_21 
REMARK    8  A    between atoms: C20_21  and  C21_22 
REMARK    9  A    between atoms: C21_22  and  C22_23 
REMARK   10  A    between atoms: C22_23  and  O2_24 
REMARK   11  A    between atoms: C24_26  and  C26_28 
REMARK   12  A    between atoms: C29_32  and  O4_34 
ROOT
HETATM    1  C15 UNL     1      -2.409  49.842 -25.327  1.00  0.00     0.145 C 
HETATM    2  C16 UNL     1      -3.228  50.977 -24.707  1.00  0.00     0.051 C 
HETATM    3  C17 UNL     1      -3.362  50.617 -23.218  1.00  0.00     0.022 C 
HETATM    4  C18 UNL     1      -3.340  49.085 -23.345  1.00  0.00     0.181 C 
HETATM    5  O1  UNL     1      -2.367  48.781 -24.353  1.00  0.00    -0.381 OA
HETATM    6  C19 UNL     1      -2.166  51.149 -22.322  1.00  0.00     0.029 C 
HETATM    7  C23 UNL     1      -2.363  50.646 -20.873  1.00  0.00    -0.066 C 
HETATM    8  C24 UNL     1      -1.648  49.741 -20.157  1.00  0.00    -0.021 C 
HETATM    9  C25 UNL     1      -1.868  49.463 -18.690  1.00  0.00     0.052 C 
HETATM   10  C27 UNL     1      -3.622  51.276 -20.288  1.00  0.00     0.038 C 
HETATM   11  C28 UNL     1      -4.832  50.817 -21.104  1.00  0.00     0.042 C 
HETATM   12  C29 UNL     1      -4.720  51.139 -22.610  1.00  0.00     0.065 C 
HETATM   13  C30 UNL     1      -4.944  52.648 -22.843  1.00  0.00     0.047 C 
ENDROOT
BRANCH   6  14
HETATM   14  C20 UNL     1      -0.743  51.124 -22.936  1.00  0.00     0.012 C 
BRANCH  14  15
HETATM   15  C21 UNL     1      -0.064  52.493 -23.133  1.00  0.00     0.027 C 
BRANCH  15  16
HETATM   16  C22 UNL     1      -0.129  53.053 -24.550  1.00  0.00     0.164 C 
BRANCH  16  17
HETATM   17  O2  UNL     1       1.161  53.472 -24.972  1.00  0.00    -0.401 OA
HETATM   18  H34 UNL     1       1.043  53.961 -25.805  1.00  0.00     0.209 HD
ENDBRANCH  16  17
ENDBRANCH  15  16
ENDBRANCH  14  15
ENDBRANCH   6  14
BRANCH  12  19
HETATM   19  O4  UNL     1      -5.813  50.475 -23.262  1.00  0.00    -0.389 OA
HETATM   20  H46 UNL     1      -6.649  50.853 -22.935  1.00  0.00     0.210 HD
ENDBRANCH  12  19
BRANCH   1  21
HETATM   21  C14 UNL     1      -3.014  49.296 -26.590  1.00  0.00     0.011 C 
HETATM   22  C12 UNL     1      -4.179  48.625 -26.716  1.00  0.00    -0.063 C 
HETATM   23  C13 UNL     1      -5.068  48.282 -25.549  1.00  0.00     0.048 C 
BRANCH  22  24
HETATM   24  C11 UNL     1      -4.593  48.188 -28.050  1.00  0.00     0.006 C 
HETATM   25  C10 UNL     1      -5.820  47.774 -28.412  1.00  0.00     0.001 C 
BRANCH  25  26
HETATM   26  C9  UNL     1      -6.129  47.348 -29.762  1.00  0.00     0.002 C 
HETATM   27  C7  UNL     1      -6.619  46.153 -30.149  1.00  0.00    -0.084 C 
HETATM   28  C8  UNL     1      -6.984  45.013 -29.235  1.00  0.00     0.043 C 
BRANCH  27  29
HETATM   29  C6  UNL     1      -6.861  45.885 -31.625  1.00  0.00     0.037 C 
BRANCH  29  30
HETATM   30  C5  UNL     1      -5.743  45.047 -32.254  1.00  0.00     0.031 C 
BRANCH  30  31
HETATM   31  C4  UNL     1      -4.573  45.903 -32.661  1.00  0.00    -0.024 C 
HETATM   32  C2  UNL     1      -4.604  47.032 -33.396  1.00  0.00    -0.091 C 
HETATM   33  C1  UNL     1      -3.340  47.800 -33.682  1.00  0.00     0.042 C 
HETATM   34  C3  UNL     1      -5.843  47.629 -34.004  1.00  0.00     0.042 C 
ENDBRANCH  30  31
ENDBRANCH  29  30
ENDBRANCH  27  29
ENDBRANCH  25  26
ENDBRANCH  22  24
ENDBRANCH   1  21
BRANCH   8  35
HETATM   35  C26 UNL     1      -0.603  48.861 -20.763  1.00  0.00     0.265 C 
HETATM   36  O3  UNL     1      -0.724  47.645 -20.851  1.00  0.00    -0.302 OA
ENDBRANCH   8  35
TORSDOF 12
ENDMDL
MODEL 7
REMARK minimizedAffinity -8.15654659
REMARK  12 active torsions:
REMARK  status: ('A' for Active; 'I' for Inactive)
REMARK    1  A    between atoms: C4_4  and  C5_5 
REMARK    2  A    between atoms: C5_5  and  C6_6 
REMARK    3  A    between atoms: C6_6  and  C7_7 
REMARK    4  A    between atoms: C9_9  and  C10_10 
REMARK    5  A    between atoms: C11_11  and  C12_12 
REMARK    6  A    between atoms: C14_14  and  C15_15 
REMARK    7  A    between atoms: C19_20  and  C20_21 
REMARK    8  A    between atoms: C20_21  and  C21_22 
REMARK    9  A    between atoms: C21_22  and  C22_23 
REMARK   10  A    between atoms: C22_23  and  O2_24 
REMARK   11  A    between atoms: C24_26  and  C26_28 
REMARK   12  A    between atoms: C29_32  and  O4_34 
ROOT
HETATM    1  C15 UNL     1      -5.292  47.719 -29.282  1.00  0.00     0.145 C 
HETATM    2  C16 UNL     1      -6.470  47.365 -28.371  1.00  0.00     0.051 C 
HETATM    3  C17 UNL     1      -7.712  47.407 -29.276  1.00  0.00     0.022 C 
HETATM    4  C18 UNL     1      -7.244  48.487 -30.265  1.00  0.00     0.181 C 
HETATM    5  O1  UNL     1      -5.854  48.234 -30.504  1.00  0.00    -0.381 OA
HETATM    6  C19 UNL     1      -8.017  46.033 -30.006  1.00  0.00     0.029 C 
HETATM    7  C23 UNL     1      -9.223  46.227 -30.954  1.00  0.00    -0.066 C 
HETATM    8  C24 UNL     1      -9.279  46.222 -32.311  1.00  0.00    -0.021 C 
HETATM    9  C25 UNL     1     -10.564  46.271 -33.102  1.00  0.00     0.052 C 
HETATM   10  C27 UNL     1     -10.468  46.534 -30.129  1.00  0.00     0.038 C 
HETATM   11  C28 UNL     1     -10.254  47.851 -29.380  1.00  0.00     0.042 C 
HETATM   12  C29 UNL     1      -9.000  47.854 -28.481  1.00  0.00     0.065 C 
HETATM   13  C30 UNL     1      -9.255  47.001 -27.220  1.00  0.00     0.047 C 
ENDROOT
BRANCH   6  14
HETATM   14  C20 UNL     1      -6.807  45.196 -30.496  1.00  0.00     0.012 C 
BRANCH  14  15
HETATM   15  C21 UNL     1      -6.121  45.685 -31.785  1.00  0.00     0.027 C 
BRANCH  15  16
HETATM   16  C22 UNL     1      -4.728  45.116 -32.036  1.00  0.00     0.164 C 
BRANCH  16  17
HETATM   17  O2  UNL     1      -4.678  44.485 -33.307  1.00  0.00    -0.401 OA
HETATM   18  H34 UNL     1      -3.831  44.005 -33.353  1.00  0.00     0.209 HD
ENDBRANCH  16  17
ENDBRANCH  15  16
ENDBRANCH  14  15
ENDBRANCH   6  14
BRANCH  12  19
HETATM   19  O4  UNL     1      -8.821  49.200 -28.015  1.00  0.00    -0.389 OA
HETATM   20  H46 UNL     1      -9.587  49.444 -27.464  1.00  0.00     0.210 HD
ENDBRANCH  12  19
BRANCH   1  21
HETATM   21  C14 UNL     1      -4.389  48.771 -28.701  1.00  0.00     0.011 C 
HETATM   22  C12 UNL     1      -4.084  48.960 -27.399  1.00  0.00    -0.063 C 
HETATM   23  C13 UNL     1      -4.657  48.123 -26.284  1.00  0.00     0.048 C 
BRANCH  22  24
HETATM   24  C11 UNL     1      -3.167  50.044 -27.045  1.00  0.00     0.006 C 
HETATM   25  C10 UNL     1      -2.182  49.994 -26.131  1.00  0.00     0.001 C 
BRANCH  25  26
HETATM   26  C9  UNL     1      -1.332  51.131 -25.843  1.00  0.00     0.002 C 
HETATM   27  C7  UNL     1      -1.604  52.167 -25.023  1.00  0.00    -0.084 C 
HETATM   28  C8  UNL     1      -2.854  52.334 -24.200  1.00  0.00     0.043 C 
BRANCH  27  29
HETATM   29  C6  UNL     1      -0.585  53.284 -24.865  1.00  0.00     0.037 C 
BRANCH  29  30
HETATM   30  C5  UNL     1       0.697  52.807 -24.173  1.00  0.00     0.031 C 
BRANCH  30  31
HETATM   31  C4  UNL     1       0.424  52.326 -22.773  1.00  0.00    -0.024 C 
HETATM   32  C2  UNL     1       0.736  52.951 -21.620  1.00  0.00    -0.091 C 
HETATM   33  C1  UNL     1       0.354  52.351 -20.292  1.00  0.00     0.042 C 
HETATM   34  C3  UNL     1       1.482  54.253 -21.521  1.00  0.00     0.042 C 
ENDBRANCH  30  31
ENDBRANCH  29  30
ENDBRANCH  27  29
ENDBRANCH  25  26
ENDBRANCH  22  24
ENDBRANCH   1  21
BRANCH   8  35
HETATM   35  C26 UNL     1      -8.063  46.240 -33.179  1.00  0.00     0.265 C 
HETATM   36  O3  UNL     1      -8.086  46.588 -34.353  1.00  0.00    -0.302 OA
ENDBRANCH   8  35
TORSDOF 12
ENDMDL
MODEL 8
REMARK minimizedAffinity -8.13784504
REMARK  12 active torsions:
REMARK  status: ('A' for Active; 'I' for Inactive)
REMARK    1  A    between atoms: C4_4  and  C5_5 
REMARK    2  A    between atoms: C5_5  and  C6_6 
REMARK    3  A    between atoms: C6_6  and  C7_7 
REMARK    4  A    between atoms: C9_9  and  C10_10 
REMARK    5  A    between atoms: C11_11  and  C12_12 
REMARK    6  A    between atoms: C14_14  and  C15_15 
REMARK    7  A    between atoms: C19_20  and  C20_21 
REMARK    8  A    between atoms: C20_21  and  C21_22 
REMARK    9  A    between atoms: C21_22  and  C22_23 
REMARK   10  A    between atoms: C22_23  and  O2_24 
REMARK   11  A    between atoms: C24_26  and  C26_28 
REMARK   12  A    between atoms: C29_32  and  O4_34 
ROOT
HETATM    1  C15 UNL     1      -2.725  51.290 -21.846  1.00  0.00     0.145 C 
HETATM    2  C16 UNL     1      -2.106  52.147 -22.953  1.00  0.00     0.051 C 
HETATM    3  C17 UNL     1      -2.083  51.247 -24.200  1.00  0.00     0.022 C 
HETATM    4  C18 UNL     1      -1.919  49.886 -23.503  1.00  0.00     0.181 C 
HETATM    5  O1  UNL     1      -2.745  49.934 -22.333  1.00  0.00    -0.381 OA
HETATM    6  C19 UNL     1      -3.415  51.312 -25.058  1.00  0.00     0.029 C 
HETATM    7  C23 UNL     1      -3.310  50.300 -26.223  1.00  0.00    -0.066 C 
HETATM    8  C24 UNL     1      -3.987  49.143 -26.441  1.00  0.00    -0.021 C 
HETATM    9  C25 UNL     1      -3.885  48.333 -27.711  1.00  0.00     0.052 C 
HETATM   10  C27 UNL     1      -2.195  50.734 -27.168  1.00  0.00     0.038 C 
HETATM   11  C28 UNL     1      -0.865  50.707 -26.412  1.00  0.00     0.042 C 
HETATM   12  C29 UNL     1      -0.860  51.580 -25.139  1.00  0.00     0.065 C 
HETATM   13  C30 UNL     1      -0.785  53.072 -25.525  1.00  0.00     0.047 C 
ENDROOT
BRANCH   6  14
HETATM   14  C20 UNL     1      -4.757  51.434 -24.292  1.00  0.00     0.012 C 
BRANCH  14  15
HETATM   15  C21 UNL     1      -5.205  50.189 -23.503  1.00  0.00     0.027 C 
BRANCH  15  16
HETATM   16  C22 UNL     1      -6.487  50.358 -22.695  1.00  0.00     0.164 C 
BRANCH  16  17
HETATM   17  O2  UNL     1      -6.181  50.779 -21.373  1.00  0.00    -0.401 OA
HETATM   18  H34 UNL     1      -7.006  50.719 -20.858  1.00  0.00     0.209 HD
ENDBRANCH  16  17
ENDBRANCH  15  16
ENDBRANCH  14  15
ENDBRANCH   6  14
BRANCH  12  19
HETATM   19  O4  UNL     1       0.361  51.294 -24.440  1.00  0.00    -0.389 OA
HETATM   20  H46 UNL     1       1.112  51.569 -24.996  1.00  0.00     0.210 HD
ENDBRANCH  12  19
BRANCH   1  21
HETATM   21  C14 UNL     1      -1.939  51.317 -20.565  1.00  0.00     0.011 C 
HETATM   22  C12 UNL     1      -0.760  51.938 -20.342  1.00  0.00    -0.063 C 
HETATM   23  C13 UNL     1      -0.012  52.703 -21.403  1.00  0.00     0.048 C 
BRANCH  22  24
HETATM   24  C11 UNL     1      -0.164  51.849 -19.008  1.00  0.00     0.006 C 
HETATM   25  C10 UNL     1      -0.582  51.070 -17.995  1.00  0.00     0.001 C 
BRANCH  25  26
HETATM   26  C9  UNL     1       0.071  51.063 -16.701  1.00  0.00     0.002 C 
HETATM   27  C7  UNL     1       0.292  49.998 -15.904  1.00  0.00    -0.084 C 
HETATM   28  C8  UNL     1      -0.071  48.571 -16.219  1.00  0.00     0.043 C 
BRANCH  27  29
HETATM   29  C6  UNL     1       0.980  50.196 -14.563  1.00  0.00     0.037 C 
BRANCH  29  30
HETATM   30  C5  UNL     1       1.306  51.668 -14.288  1.00  0.00     0.031 C 
BRANCH  30  31
HETATM   31  C4  UNL     1       2.392  52.173 -15.200  1.00  0.00    -0.024 C 
HETATM   32  C2  UNL     1       3.670  51.750 -15.261  1.00  0.00    -0.091 C 
HETATM   33  C1  UNL     1       4.628  52.335 -16.264  1.00  0.00     0.042 C 
HETATM   34  C3  UNL     1       4.272  50.701 -14.366  1.00  0.00     0.042 C 
ENDBRANCH  30  31
ENDBRANCH  29  30
ENDBRANCH  27  29
ENDBRANCH  25  26
ENDBRANCH  22  24
ENDBRANCH   1  21
BRANCH   8  35
HETATM   35  C26 UNL     1      -4.859  48.501 -25.412  1.00  0.00     0.265 C 
HETATM   36  O3  UNL     1      -5.888  47.898 -25.692  1.00  0.00    -0.302 OA
ENDBRANCH   8  35
TORSDOF 12
ENDMDL
MODEL 9
REMARK minimizedAffinity -8.07731819
REMARK  12 active torsions:
REMARK  status: ('A' for Active; 'I' for Inactive)
REMARK    1  A    between atoms: C4_4  and  C5_5 
REMARK    2  A    between atoms: C5_5  and  C6_6 
REMARK    3  A    between atoms: C6_6  and  C7_7 
REMARK    4  A    between atoms: C9_9  and  C10_10 
REMARK    5  A    between atoms: C11_11  and  C12_12 
REMARK    6  A    between atoms: C14_14  and  C15_15 
REMARK    7  A    between atoms: C19_20  and  C20_21 
REMARK    8  A    between atoms: C20_21  and  C21_22 
REMARK    9  A    between atoms: C21_22  and  C22_23 
REMARK   10  A    between atoms: C22_23  and  O2_24 
REMARK   11  A    between atoms: C24_26  and  C26_28 
REMARK   12  A    between atoms: C29_32  and  O4_34 
ROOT
HETATM    1  C15 UNL     1      -3.439  48.977 -23.067  1.00  0.00     0.145 C 
HETATM    2  C16 UNL     1      -2.272  49.500 -23.909  1.00  0.00     0.051 C 
HETATM    3  C17 UNL     1      -1.761  50.747 -23.167  1.00  0.00     0.022 C 
HETATM    4  C18 UNL     1      -3.087  51.205 -22.540  1.00  0.00     0.181 C 
HETATM    5  O1  UNL     1      -3.765  50.014 -22.122  1.00  0.00    -0.381 OA
HETATM    6  C19 UNL     1      -0.667  50.429 -22.064  1.00  0.00     0.029 C 
HETATM    7  C23 UNL     1      -0.304  51.740 -21.327  1.00  0.00    -0.066 C 
HETATM    8  C24 UNL     1      -0.555  52.123 -20.049  1.00  0.00    -0.021 C 
HETATM    9  C25 UNL     1      -0.000  53.378 -19.421  1.00  0.00     0.052 C 
HETATM   10  C27 UNL     1       0.369  52.697 -22.305  1.00  0.00     0.038 C 
HETATM   11  C28 UNL     1      -0.622  53.051 -23.415  1.00  0.00     0.042 C 
HETATM   12  C29 UNL     1      -1.177  51.821 -24.164  1.00  0.00     0.065 C 
HETATM   13  C30 UNL     1      -0.095  51.246 -25.104  1.00  0.00     0.047 C 
ENDROOT
BRANCH   6  14
HETATM   14  C20 UNL     1      -0.837  49.128 -21.237  1.00  0.00     0.012 C 
BRANCH  14  15
HETATM   15  C21 UNL     1      -1.975  49.128 -20.200  1.00  0.00     0.027 C 
BRANCH  15  16
HETATM   16  C22 UNL     1      -2.330  47.760 -19.625  1.00  0.00     0.164 C 
BRANCH  16  17
HETATM   17  O2  UNL     1      -1.960  47.693 -18.255  1.00  0.00    -0.401 OA
HETATM   18  H34 UNL     1      -2.057  46.764 -17.980  1.00  0.00     0.209 HD
ENDBRANCH  16  17
ENDBRANCH  15  16
ENDBRANCH  14  15
ENDBRANCH   6  14
BRANCH  12  19
HETATM   19  O4  UNL     1      -2.230  52.291 -25.019  1.00  0.00    -0.389 OA
HETATM   20  H46 UNL     1      -1.850  52.898 -25.679  1.00  0.00     0.210 HD
ENDBRANCH  12  19
BRANCH   1  21
HETATM   21  C14 UNL     1      -4.667  48.677 -23.878  1.00  0.00     0.011 C 
HETATM   22  C12 UNL     1      -4.730  48.402 -25.199  1.00  0.00    -0.063 C 
HETATM   23  C13 UNL     1      -3.521  48.385 -26.099  1.00  0.00     0.048 C 
BRANCH  22  24
HETATM   24  C11 UNL     1      -6.037  48.125 -25.795  1.00  0.00     0.006 C 
HETATM   25  C10 UNL     1      -6.268  47.636 -27.026  1.00  0.00     0.001 C 
BRANCH  25  26
HETATM   26  C9  UNL     1      -7.607  47.408 -27.531  1.00  0.00     0.002 C 
HETATM   27  C7  UNL     1      -7.997  46.464 -28.413  1.00  0.00    -0.084 C 
HETATM   28  C8  UNL     1      -7.110  45.417 -29.033  1.00  0.00     0.043 C 
BRANCH  27  29
HETATM   29  C6  UNL     1      -9.455  46.395 -28.840  1.00  0.00     0.037 C 
BRANCH  29  30
HETATM   30  C5  UNL     1      -9.917  47.677 -29.540  1.00  0.00     0.031 C 
BRANCH  30  31
HETATM   31  C4  UNL     1      -9.083  47.973 -30.758  1.00  0.00    -0.024 C 
HETATM   32  C2  UNL     1      -9.233  47.458 -31.995  1.00  0.00    -0.091 C 
HETATM   33  C1  UNL     1      -8.334  47.891 -33.124  1.00  0.00     0.042 C 
HETATM   34  C3  UNL     1     -10.259  46.427 -32.379  1.00  0.00     0.042 C 
ENDBRANCH  30  31
ENDBRANCH  29  30
ENDBRANCH  27  29
ENDBRANCH  25  26
ENDBRANCH  22  24
ENDBRANCH   1  21
BRANCH   8  35
HETATM   35  C26 UNL     1      -1.474  51.376 -19.138  1.00  0.00     0.265 C 
HETATM   36  O3  UNL     1      -2.363  51.920 -18.494  1.00  0.00    -0.302 OA
ENDBRANCH   8  35
TORSDOF 12
ENDMDL
