MODEL 1
REMARK minimizedAffinity -9.79774284
REMARK  4 active torsions:
REMARK  status: ('A' for Active; 'I' for Inactive)
REMARK    1  A    between atoms: C2_2  and  C4_4 
REMARK    2  A    between atoms: C4_4  and  C5_5 
REMARK    3  A    between atoms: C5_5  and  O1_6 
REMARK    4  A    between atoms: C8_9  and  C9_10 
ROOT
HETATM    1  C9  UNL     1      -1.438  48.807 -18.268  1.00  0.00     0.001 C 
HETATM    2  C10 UNL     1      -2.544  47.752 -18.546  1.00  0.00     0.007 C 
HETATM    3  C11 UNL     1      -2.979  47.922 -20.012  1.00  0.00     0.011 C 
HETATM    4  C12 UNL     1      -1.875  48.778 -20.659  1.00  0.00    -0.032 C 
HETATM    5  C13 UNL     1      -0.720  47.798 -21.037  1.00  0.00     0.016 C 
HETATM    6  C14 UNL     1      -2.334  49.577 -21.908  1.00  0.00     0.004 C 
HETATM    7  C15 UNL     1      -2.614  48.711 -23.143  1.00  0.00     0.007 C 
HETATM    8  C16 UNL     1      -3.120  49.576 -24.295  1.00  0.00     0.007 C 
HETATM    9  C17 UNL     1      -1.990  50.479 -24.807  1.00  0.00     0.010 C 
HETATM   10  C18 UNL     1      -2.378  51.399 -26.009  1.00  0.00     0.018 C 
HETATM   11  C19 UNL     1      -3.568  52.327 -25.714  1.00  0.00     0.023 C 
HETATM   12  C20 UNL     1      -2.707  50.549 -27.249  1.00  0.00     0.023 C 
HETATM   13  C21 UNL     1      -1.176  52.283 -26.376  1.00  0.00     0.135 C 
HETATM   14  O2  UNL     1      -1.246  53.155 -27.245  1.00  0.00    -0.297 OA
HETATM   15  C22 UNL     1       0.137  51.986 -25.695  1.00  0.00     0.080 C 
HETATM   16  C23 UNL     1      -0.028  51.992 -24.183  1.00  0.00     0.018 C 
HETATM   17  C24 UNL     1      -1.293  51.278 -23.697  1.00  0.00    -0.026 A 
HETATM   18  C25 UNL     1      -2.098  52.028 -22.663  1.00  0.00     0.021 A 
HETATM   19  C26 UNL     1      -1.386  50.760 -22.232  1.00  0.00    -0.027 A 
HETATM   20  C27 UNL     1      -0.143  50.921 -21.351  1.00  0.00     0.011 C 
HETATM   21  C28 UNL     1      -0.256  50.533 -19.864  1.00  0.00     0.011 C 
HETATM   22  C29 UNL     1      -1.540  49.779 -19.489  1.00  0.00    -0.032 C 
HETATM   23  C30 UNL     1      -2.645  50.837 -19.225  1.00  0.00     0.016 C 
ENDROOT
BRANCH   1  24
HETATM   24  C8  UNL     1      -1.386  49.283 -16.789  1.00  0.00     0.014 C 
HETATM   25  C7  UNL     1      -0.079  48.901 -16.087  1.00  0.00     0.010 C 
HETATM   26  C6  UNL     1      -0.143  49.238 -14.597  1.00  0.00     0.041 C 
HETATM   27  C4  UNL     1      -0.594  50.691 -14.311  1.00  0.00     0.085 C 
HETATM   28  O3  UNL     1      -1.786  50.983 -15.080  1.00  0.00    -0.377 OA
HETATM   29  C31 UNL     1      -1.709  50.751 -16.490  1.00  0.00     0.174 C 
BRANCH  27  30
HETATM   30  C2  UNL     1      -1.035  50.807 -12.804  1.00  0.00     0.014 C 
HETATM   31  C1  UNL     1      -0.833  49.526 -11.980  1.00  0.00     0.012 C 
HETATM   32  C3  UNL     1      -2.472  51.304 -12.603  1.00  0.00     0.012 C 
ENDBRANCH  27  30
BRANCH  27  33
HETATM   33  C5  UNL     1       0.527  51.697 -14.693  1.00  0.00     0.202 C 
BRANCH  33  34
HETATM   34  O1  UNL     1       0.488  52.867 -13.877  1.00  0.00    -0.398 OA
HETATM   35  H10 UNL     1      -0.455  53.016 -13.671  1.00  0.00     0.209 HD
ENDBRANCH  33  34
ENDBRANCH  27  33
ENDBRANCH   1  24
TORSDOF 4
ENDMDL
MODEL 2
REMARK minimizedAffinity -9.78898811
REMARK  4 active torsions:
REMARK  status: ('A' for Active; 'I' for Inactive)
REMARK    1  A    between atoms: C2_2  and  C4_4 
REMARK    2  A    between atoms: C4_4  and  C5_5 
REMARK    3  A    between atoms: C5_5  and  O1_6 
REMARK    4  A    between atoms: C8_9  and  C9_10 
ROOT
HETATM    1  C9  UNL     1      -1.613  49.487 -18.077  1.00  0.00     0.001 C 
HETATM    2  C10 UNL     1      -2.751  48.455 -18.306  1.00  0.00     0.007 C 
HETATM    3  C11 UNL     1      -3.101  48.486 -19.804  1.00  0.00     0.011 C 
HETATM    4  C12 UNL     1      -1.925  49.222 -20.473  1.00  0.00    -0.032 C 
HETATM    5  C13 UNL     1      -0.800  48.159 -20.680  1.00  0.00     0.016 C 
HETATM    6  C14 UNL     1      -2.280  49.901 -21.822  1.00  0.00     0.004 C 
HETATM    7  C15 UNL     1      -2.535  48.921 -22.974  1.00  0.00     0.007 C 
HETATM    8  C16 UNL     1      -2.939  49.679 -24.237  1.00  0.00     0.007 C 
HETATM    9  C17 UNL     1      -1.742  50.475 -24.776  1.00  0.00     0.010 C 
HETATM   10  C18 UNL     1      -2.022  51.277 -26.086  1.00  0.00     0.018 C 
HETATM   11  C19 UNL     1      -3.180  52.280 -25.959  1.00  0.00     0.023 C 
HETATM   12  C20 UNL     1      -2.325  50.314 -27.248  1.00  0.00     0.023 C 
HETATM   13  C21 UNL     1      -0.761  52.065 -26.474  1.00  0.00     0.135 C 
HETATM   14  O2  UNL     1      -0.745  52.842 -27.432  1.00  0.00    -0.297 OA
HETATM   15  C22 UNL     1       0.498  51.787 -25.693  1.00  0.00     0.080 C 
HETATM   16  C23 UNL     1       0.254  51.962 -24.201  1.00  0.00     0.018 C 
HETATM   17  C24 UNL     1      -1.066  51.357 -23.717  1.00  0.00    -0.026 A 
HETATM   18  C25 UNL     1      -1.888  52.246 -22.813  1.00  0.00     0.021 A 
HETATM   19  C26 UNL     1      -1.261  51.003 -22.213  1.00  0.00    -0.027 A 
HETATM   20  C27 UNL     1      -0.059  51.204 -21.284  1.00  0.00     0.011 C 
HETATM   21  C28 UNL     1      -0.268  50.982 -19.774  1.00  0.00     0.011 C 
HETATM   22  C29 UNL     1      -1.604  50.326 -19.396  1.00  0.00    -0.032 C 
HETATM   23  C30 UNL     1      -2.670  51.453 -19.308  1.00  0.00     0.016 C 
ENDROOT
BRANCH   1  24
HETATM   24  C8  UNL     1      -1.615  50.116 -16.655  1.00  0.00     0.014 C 
HETATM   25  C7  UNL     1      -3.026  50.281 -16.081  1.00  0.00     0.010 C 
HETATM   26  C6  UNL     1      -2.989  51.055 -14.763  1.00  0.00     0.041 C 
HETATM   27  C4  UNL     1      -1.971  50.490 -13.743  1.00  0.00     0.085 C 
HETATM   28  O3  UNL     1      -0.695  50.292 -14.398  1.00  0.00    -0.377 OA
HETATM   29  C31 UNL     1      -0.706  49.497 -15.589  1.00  0.00     0.174 C 
BRANCH  27  30
HETATM   30  C2  UNL     1      -1.702  51.570 -12.630  1.00  0.00     0.014 C 
HETATM   31  C1  UNL     1      -2.894  52.493 -12.335  1.00  0.00     0.012 C 
HETATM   32  C3  UNL     1      -0.458  52.433 -12.876  1.00  0.00     0.012 C 
ENDBRANCH  27  30
BRANCH  27  33
HETATM   33  C5  UNL     1      -2.469  49.136 -13.164  1.00  0.00     0.202 C 
BRANCH  33  34
HETATM   34  O1  UNL     1      -3.888  49.117 -13.011  1.00  0.00    -0.398 OA
HETATM   35  H10 UNL     1      -4.144  50.034 -12.791  1.00  0.00     0.209 HD
ENDBRANCH  33  34
ENDBRANCH  27  33
ENDBRANCH   1  24
TORSDOF 4
ENDMDL
MODEL 3
REMARK minimizedAffinity -9.63505554
REMARK  4 active torsions:
REMARK  status: ('A' for Active; 'I' for Inactive)
REMARK    1  A    between atoms: C2_2  and  C4_4 
REMARK    2  A    between atoms: C4_4  and  C5_5 
REMARK    3  A    between atoms: C5_5  and  O1_6 
REMARK    4  A    between atoms: C8_9  and  C9_10 
ROOT
HETATM    1  C9  UNL     1      -1.767  50.998 -21.924  1.00  0.00     0.001 C 
HETATM    2  C10 UNL     1      -3.087  50.182 -21.981  1.00  0.00     0.007 C 
HETATM    3  C11 UNL     1      -3.356  49.649 -20.563  1.00  0.00     0.011 C 
HETATM    4  C12 UNL     1      -2.430  50.470 -19.646  1.00  0.00    -0.032 C 
HETATM    5  C13 UNL     1      -3.170  51.815 -19.363  1.00  0.00     0.016 C 
HETATM    6  C14 UNL     1      -2.061  49.766 -18.314  1.00  0.00     0.004 C 
HETATM    7  C15 UNL     1      -3.221  49.656 -17.316  1.00  0.00     0.007 C 
HETATM    8  C16 UNL     1      -2.779  48.894 -16.069  1.00  0.00     0.007 C 
HETATM    9  C17 UNL     1      -1.773  49.735 -15.271  1.00  0.00     0.010 C 
HETATM   10  C18 UNL     1      -1.262  49.071 -13.952  1.00  0.00     0.018 C 
HETATM   11  C19 UNL     1      -0.598  47.702 -14.169  1.00  0.00     0.023 C 
HETATM   12  C20 UNL     1      -2.420  48.910 -12.952  1.00  0.00     0.023 C 
HETATM   13  C21 UNL     1      -0.225  49.994 -13.293  1.00  0.00     0.135 C 
HETATM   14  O2  UNL     1       0.390  49.666 -12.276  1.00  0.00    -0.297 OA
HETATM   15  C22 UNL     1      -0.045  51.370 -13.884  1.00  0.00     0.080 C 
HETATM   16  C23 UNL     1       0.259  51.280 -15.372  1.00  0.00     0.018 C 
HETATM   17  C24 UNL     1      -0.606  50.260 -16.118  1.00  0.00    -0.026 A 
HETATM   18  C25 UNL     1       0.145  49.342 -17.054  1.00  0.00     0.021 A 
HETATM   19  C26 UNL     1      -0.791  50.369 -17.661  1.00  0.00    -0.027 A 
HETATM   20  C27 UNL     1      -0.150  51.573 -18.360  1.00  0.00     0.011 C 
HETATM   21  C28 UNL     1      -0.211  51.630 -19.899  1.00  0.00     0.011 C 
HETATM   22  C29 UNL     1      -1.144  50.598 -20.547  1.00  0.00    -0.032 C 
HETATM   23  C30 UNL     1      -0.343  49.275 -20.699  1.00  0.00     0.016 C 
ENDROOT
BRANCH   1  24
HETATM   24  C8  UNL     1      -0.974  50.998 -23.262  1.00  0.00     0.014 C 
HETATM   25  C7  UNL     1      -1.879  50.860 -24.490  1.00  0.00     0.010 C 
HETATM   26  C6  UNL     1      -1.048  50.695 -25.762  1.00  0.00     0.041 C 
HETATM   27  C4  UNL     1       0.053  51.770 -25.926  1.00  0.00     0.085 C 
HETATM   28  O3  UNL     1       0.800  51.884 -24.691  1.00  0.00    -0.377 OA
HETATM   29  C31 UNL     1       0.037  52.124 -23.503  1.00  0.00     0.174 C 
BRANCH  27  30
HETATM   30  C2  UNL     1       1.097  51.281 -26.998  1.00  0.00     0.014 C 
HETATM   31  C1  UNL     1       2.566  51.486 -26.597  1.00  0.00     0.012 C 
HETATM   32  C3  UNL     1       0.881  51.862 -28.400  1.00  0.00     0.012 C 
ENDBRANCH  27  30
BRANCH  27  33
HETATM   33  C5  UNL     1      -0.575  53.148 -26.278  1.00  0.00     0.202 C 
BRANCH  33  34
HETATM   34  O1  UNL     1       0.364  54.211 -26.128  1.00  0.00    -0.398 OA
HETATM   35  H10 UNL     1       0.944  53.950 -25.387  1.00  0.00     0.209 HD
ENDBRANCH  33  34
ENDBRANCH  27  33
ENDBRANCH   1  24
TORSDOF 4
ENDMDL
MODEL 4
REMARK minimizedAffinity -9.28259277
REMARK  4 active torsions:
REMARK  status: ('A' for Active; 'I' for Inactive)
REMARK    1  A    between atoms: C2_2  and  C4_4 
REMARK    2  A    between atoms: C4_4  and  C5_5 
REMARK    3  A    between atoms: C5_5  and  O1_6 
REMARK    4  A    between atoms: C8_9  and  C9_10 
ROOT
HETATM    1  C9  UNL     1      -1.895  51.140 -22.412  1.00  0.00     0.001 C 
HETATM    2  C10 UNL     1      -3.227  51.922 -22.575  1.00  0.00     0.007 C 
HETATM    3  C11 UNL     1      -4.314  51.135 -21.824  1.00  0.00     0.011 C 
HETATM    4  C12 UNL     1      -3.545  50.147 -20.928  1.00  0.00    -0.032 C 
HETATM    5  C13 UNL     1      -3.131  50.941 -19.649  1.00  0.00     0.016 C 
HETATM    6  C14 UNL     1      -4.348  48.878 -20.538  1.00  0.00     0.004 C 
HETATM    7  C15 UNL     1      -5.493  49.135 -19.550  1.00  0.00     0.007 C 
HETATM    8  C16 UNL     1      -6.261  47.843 -19.279  1.00  0.00     0.007 C 
HETATM    9  C17 UNL     1      -5.384  46.870 -18.480  1.00  0.00     0.010 C 
HETATM   10  C18 UNL     1      -6.070  45.514 -18.117  1.00  0.00     0.018 C 
HETATM   11  C19 UNL     1      -6.572  44.731 -19.340  1.00  0.00     0.023 C 
HETATM   12  C20 UNL     1      -7.252  45.752 -17.160  1.00  0.00     0.023 C 
HETATM   13  C21 UNL     1      -5.062  44.624 -17.373  1.00  0.00     0.135 C 
HETATM   14  O2  UNL     1      -5.332  43.467 -17.042  1.00  0.00    -0.297 OA
HETATM   15  C22 UNL     1      -3.748  45.247 -16.972  1.00  0.00     0.080 C 
HETATM   16  C23 UNL     1      -3.056  45.862 -18.180  1.00  0.00     0.018 C 
HETATM   17  C24 UNL     1      -3.998  46.645 -19.099  1.00  0.00    -0.026 A 
HETATM   18  C25 UNL     1      -3.848  46.352 -20.573  1.00  0.00     0.021 A 
HETATM   19  C26 UNL     1      -3.428  47.719 -20.071  1.00  0.00    -0.027 A 
HETATM   20  C27 UNL     1      -1.925  48.007 -19.996  1.00  0.00     0.011 C 
HETATM   21  C28 UNL     1      -1.322  48.971 -21.036  1.00  0.00     0.011 C 
HETATM   22  C29 UNL     1      -2.351  49.744 -21.874  1.00  0.00    -0.032 C 
HETATM   23  C30 UNL     1      -2.764  48.834 -23.063  1.00  0.00     0.016 C 
ENDROOT
BRANCH   1  24
HETATM   24  C8  UNL     1      -0.911  51.325 -23.601  1.00  0.00     0.014 C 
HETATM   25  C7  UNL     1      -1.561  51.047 -24.960  1.00  0.00     0.010 C 
HETATM   26  C6  UNL     1      -0.519  51.076 -26.078  1.00  0.00     0.041 C 
HETATM   27  C4  UNL     1       0.366  52.346 -26.066  1.00  0.00     0.085 C 
HETATM   28  O3  UNL     1       0.866  52.570 -24.726  1.00  0.00    -0.377 OA
HETATM   29  C31 UNL     1      -0.111  52.630 -23.681  1.00  0.00     0.174 C 
BRANCH  27  30
HETATM   30  C2  UNL     1       1.644  52.093 -26.949  1.00  0.00     0.014 C 
HETATM   31  C1  UNL     1       1.348  51.685 -28.400  1.00  0.00     0.012 C 
HETATM   32  C3  UNL     1       2.639  51.093 -26.347  1.00  0.00     0.012 C 
ENDBRANCH  27  30
BRANCH  27  33
HETATM   33  C5  UNL     1      -0.451  53.586 -26.526  1.00  0.00     0.202 C 
BRANCH  33  34
HETATM   34  O1  UNL     1       0.256  54.802 -26.290  1.00  0.00    -0.398 OA
HETATM   35  H10 UNL     1       0.778  54.652 -25.478  1.00  0.00     0.209 HD
ENDBRANCH  33  34
ENDBRANCH  27  33
ENDBRANCH   1  24
TORSDOF 4
ENDMDL
MODEL 5
REMARK minimizedAffinity -9.2659483
REMARK  4 active torsions:
REMARK  status: ('A' for Active; 'I' for Inactive)
REMARK    1  A    between atoms: C2_2  and  C4_4 
REMARK    2  A    between atoms: C4_4  and  C5_5 
REMARK    3  A    between atoms: C5_5  and  O1_6 
REMARK    4  A    between atoms: C8_9  and  C9_10 
ROOT
HETATM    1  C9  UNL     1      -2.252  50.922 -22.764  1.00  0.00     0.001 C 
HETATM    2  C10 UNL     1      -3.153  52.158 -22.493  1.00  0.00     0.007 C 
HETATM    3  C11 UNL     1      -4.519  51.632 -22.019  1.00  0.00     0.011 C 
HETATM    4  C12 UNL     1      -4.272  50.157 -21.649  1.00  0.00    -0.032 C 
HETATM    5  C13 UNL     1      -3.684  50.157 -20.203  1.00  0.00     0.016 C 
HETATM    6  C14 UNL     1      -5.536  49.260 -21.718  1.00  0.00     0.004 C 
HETATM    7  C15 UNL     1      -6.565  49.535 -20.613  1.00  0.00     0.007 C 
HETATM    8  C16 UNL     1      -7.796  48.652 -20.803  1.00  0.00     0.007 C 
HETATM    9  C17 UNL     1      -7.438  47.186 -20.526  1.00  0.00     0.010 C 
HETATM   10  C18 UNL     1      -8.626  46.181 -20.663  1.00  0.00     0.018 C 
HETATM   11  C19 UNL     1      -9.294  46.203 -22.047  1.00  0.00     0.023 C 
HETATM   12  C20 UNL     1      -9.693  46.466 -19.591  1.00  0.00     0.023 C 
HETATM   13  C21 UNL     1      -8.111  44.755 -20.415  1.00  0.00     0.135 C 
HETATM   14  O2  UNL     1      -8.837  43.766 -20.540  1.00  0.00    -0.297 OA
HETATM   15  C22 UNL     1      -6.695  44.604 -19.918  1.00  0.00     0.080 C 
HETATM   16  C23 UNL     1      -5.722  45.319 -20.844  1.00  0.00     0.018 C 
HETATM   17  C24 UNL     1      -6.205  46.699 -21.300  1.00  0.00    -0.026 A 
HETATM   18  C25 UNL     1      -6.064  46.974 -22.779  1.00  0.00     0.021 A 
HETATM   19  C26 UNL     1      -5.185  47.753 -21.821  1.00  0.00    -0.027 A 
HETATM   20  C27 UNL     1      -3.700  47.377 -21.770  1.00  0.00     0.011 C 
HETATM   21  C28 UNL     1      -2.686  48.353 -22.398  1.00  0.00     0.011 C 
HETATM   22  C29 UNL     1      -3.259  49.726 -22.776  1.00  0.00    -0.032 C 
HETATM   23  C30 UNL     1      -3.899  49.594 -24.186  1.00  0.00     0.016 C 
ENDROOT
BRANCH   1  24
HETATM   24  C8  UNL     1      -1.181  51.158 -23.867  1.00  0.00     0.014 C 
HETATM   25  C7  UNL     1      -1.732  50.957 -25.283  1.00  0.00     0.010 C 
HETATM   26  C6  UNL     1      -0.609  51.033 -26.317  1.00  0.00     0.041 C 
HETATM   27  C4  UNL     1       0.280  52.291 -26.175  1.00  0.00     0.085 C 
HETATM   28  O3  UNL     1       0.683  52.440 -24.791  1.00  0.00    -0.377 OA
HETATM   29  C31 UNL     1      -0.369  52.456 -23.820  1.00  0.00     0.174 C 
BRANCH  27  30
HETATM   30  C2  UNL     1       1.619  52.071 -26.973  1.00  0.00     0.014 C 
HETATM   31  C1  UNL     1       1.427  51.674 -28.445  1.00  0.00     0.012 C 
HETATM   32  C3  UNL     1       2.590  51.081 -26.317  1.00  0.00     0.012 C 
ENDBRANCH  27  30
BRANCH  27  33
HETATM   33  C5  UNL     1      -0.492  53.562 -26.628  1.00  0.00     0.202 C 
BRANCH  33  34
HETATM   34  O1  UNL     1       0.266  54.750 -26.403  1.00  0.00    -0.398 OA
HETATM   35  H10 UNL     1       0.791  54.580 -25.596  1.00  0.00     0.209 HD
ENDBRANCH  33  34
ENDBRANCH  27  33
ENDBRANCH   1  24
TORSDOF 4
ENDMDL
MODEL 6
REMARK minimizedAffinity -9.07785892
REMARK  4 active torsions:
REMARK  status: ('A' for Active; 'I' for Inactive)
REMARK    1  A    between atoms: C2_2  and  C4_4 
REMARK    2  A    between atoms: C4_4  and  C5_5 
REMARK    3  A    between atoms: C5_5  and  O1_6 
REMARK    4  A    between atoms: C8_9  and  C9_10 
ROOT
HETATM    1  C9  UNL     1      -1.865  50.128 -22.935  1.00  0.00     0.001 C 
HETATM    2  C10 UNL     1      -1.035  50.086 -21.623  1.00  0.00     0.007 C 
HETATM    3  C11 UNL     1      -1.991  49.672 -20.490  1.00  0.00     0.011 C 
HETATM    4  C12 UNL     1      -3.234  49.109 -21.204  1.00  0.00    -0.032 C 
HETATM    5  C13 UNL     1      -2.900  47.627 -21.567  1.00  0.00     0.016 C 
HETATM    6  C14 UNL     1      -4.538  49.179 -20.367  1.00  0.00     0.004 C 
HETATM    7  C15 UNL     1      -4.578  48.208 -19.180  1.00  0.00     0.007 C 
HETATM    8  C16 UNL     1      -5.868  48.397 -18.383  1.00  0.00     0.007 C 
HETATM    9  C17 UNL     1      -7.068  47.916 -19.208  1.00  0.00     0.010 C 
HETATM   10  C18 UNL     1      -8.450  48.034 -18.489  1.00  0.00     0.018 C 
HETATM   11  C19 UNL     1      -8.788  49.463 -18.035  1.00  0.00     0.023 C 
HETATM   12  C20 UNL     1      -8.498  47.101 -17.266  1.00  0.00     0.023 C 
HETATM   13  C21 UNL     1      -9.559  47.574 -19.448  1.00  0.00     0.135 C 
HETATM   14  O2  UNL     1     -10.753  47.642 -19.148  1.00  0.00    -0.297 OA
HETATM   15  C22 UNL     1      -9.133  46.942 -20.749  1.00  0.00     0.080 C 
HETATM   16  C23 UNL     1      -8.184  47.859 -21.506  1.00  0.00     0.018 C 
HETATM   17  C24 UNL     1      -7.123  48.517 -20.619  1.00  0.00    -0.026 A 
HETATM   18  C25 UNL     1      -6.934  50.000 -20.835  1.00  0.00     0.021 A 
HETATM   19  C26 UNL     1      -5.810  49.070 -21.248  1.00  0.00    -0.027 A 
HETATM   20  C27 UNL     1      -5.603  48.846 -22.750  1.00  0.00     0.011 C 
HETATM   21  C28 UNL     1      -4.374  49.497 -23.414  1.00  0.00     0.011 C 
HETATM   22  C29 UNL     1      -3.346  50.084 -22.436  1.00  0.00    -0.032 C 
HETATM   23  C30 UNL     1      -3.818  51.518 -22.067  1.00  0.00     0.016 C 
ENDROOT
BRANCH   1  24
HETATM   24  C8  UNL     1      -1.336  51.154 -23.977  1.00  0.00     0.014 C 
HETATM   25  C7  UNL     1      -0.009  51.796 -23.558  1.00  0.00     0.010 C 
HETATM   26  C6  UNL     1       0.381  52.914 -24.525  1.00  0.00     0.041 C 
HETATM   27  C4  UNL     1       0.345  52.488 -26.012  1.00  0.00     0.085 C 
HETATM   28  O3  UNL     1      -0.910  51.820 -26.289  1.00  0.00    -0.377 OA
HETATM   29  C31 UNL     1      -1.246  50.716 -25.442  1.00  0.00     0.174 C 
BRANCH  27  30
HETATM   30  C2  UNL     1       0.338  53.775 -26.919  1.00  0.00     0.014 C 
HETATM   31  C1  UNL     1       0.130  55.092 -26.155  1.00  0.00     0.012 C 
HETATM   32  C3  UNL     1      -0.653  53.718 -28.087  1.00  0.00     0.012 C 
ENDBRANCH  27  30
BRANCH  27  33
HETATM   33  C5  UNL     1       1.524  51.527 -26.335  1.00  0.00     0.202 C 
BRANCH  33  34
HETATM   34  O1  UNL     1       2.732  52.240 -26.593  1.00  0.00    -0.398 OA
HETATM   35  H10 UNL     1       2.460  53.076 -27.019  1.00  0.00     0.209 HD
ENDBRANCH  33  34
ENDBRANCH  27  33
ENDBRANCH   1  24
TORSDOF 4
ENDMDL
MODEL 7
REMARK minimizedAffinity -9.0373621
REMARK  4 active torsions:
REMARK  status: ('A' for Active; 'I' for Inactive)
REMARK    1  A    between atoms: C2_2  and  C4_4 
REMARK    2  A    between atoms: C4_4  and  C5_5 
REMARK    3  A    between atoms: C5_5  and  O1_6 
REMARK    4  A    between atoms: C8_9  and  C9_10 
ROOT
HETATM    1  C9  UNL     1      -2.111  49.709 -23.111  1.00  0.00     0.001 C 
HETATM    2  C10 UNL     1      -1.249  49.827 -21.824  1.00  0.00     0.007 C 
HETATM    3  C11 UNL     1      -2.171  49.530 -20.628  1.00  0.00     0.011 C 
HETATM    4  C12 UNL     1      -3.421  48.872 -21.242  1.00  0.00    -0.032 C 
HETATM    5  C13 UNL     1      -3.071  47.364 -21.444  1.00  0.00     0.016 C 
HETATM    6  C14 UNL     1      -4.706  49.017 -20.385  1.00  0.00     0.004 C 
HETATM    7  C15 UNL     1      -4.702  48.187 -19.096  1.00  0.00     0.007 C 
HETATM    8  C16 UNL     1      -5.975  48.446 -18.293  1.00  0.00     0.007 C 
HETATM    9  C17 UNL     1      -7.187  47.858 -19.028  1.00  0.00     0.010 C 
HETATM   10  C18 UNL     1      -8.553  48.037 -18.292  1.00  0.00     0.018 C 
HETATM   11  C19 UNL     1      -8.904  49.503 -17.993  1.00  0.00     0.023 C 
HETATM   12  C20 UNL     1      -8.556  47.247 -16.971  1.00  0.00     0.023 C 
HETATM   13  C21 UNL     1      -9.676  47.455 -19.165  1.00  0.00     0.135 C 
HETATM   14  O2  UNL     1     -10.864  47.540 -18.844  1.00  0.00    -0.297 OA
HETATM   15  C22 UNL     1      -9.270  46.687 -20.397  1.00  0.00     0.080 C 
HETATM   16  C23 UNL     1      -8.355  47.526 -21.276  1.00  0.00     0.018 C 
HETATM   17  C24 UNL     1      -7.284  48.295 -20.496  1.00  0.00    -0.026 A 
HETATM   18  C25 UNL     1      -7.126  49.747 -20.882  1.00  0.00     0.021 A 
HETATM   19  C26 UNL     1      -5.996  48.792 -21.216  1.00  0.00    -0.027 A 
HETATM   20  C27 UNL     1      -5.821  48.403 -22.688  1.00  0.00     0.011 C 
HETATM   21  C28 UNL     1      -4.619  48.992 -23.452  1.00  0.00     0.011 C 
HETATM   22  C29 UNL     1      -3.579  49.700 -22.573  1.00  0.00    -0.032 C 
HETATM   23  C30 UNL     1      -4.066  51.159 -22.356  1.00  0.00     0.016 C 
ENDROOT
BRANCH   1  24
HETATM   24  C8  UNL     1      -1.624  50.618 -24.274  1.00  0.00     0.014 C 
HETATM   25  C7  UNL     1      -1.417  49.848 -25.583  1.00  0.00     0.010 C 
HETATM   26  C6  UNL     1      -0.780  50.745 -26.645  1.00  0.00     0.041 C 
HETATM   27  C4  UNL     1      -1.511  52.096 -26.834  1.00  0.00     0.085 C 
HETATM   28  O3  UNL     1      -1.733  52.706 -25.540  1.00  0.00    -0.377 OA
HETATM   29  C31 UNL     1      -2.406  51.904 -24.563  1.00  0.00     0.174 C 
BRANCH  27  30
HETATM   30  C2  UNL     1      -0.566  53.091 -27.604  1.00  0.00     0.014 C 
HETATM   31  C1  UNL     1       0.573  52.416 -28.383  1.00  0.00     0.012 C 
HETATM   32  C3  UNL     1       0.025  54.204 -26.730  1.00  0.00     0.012 C 
ENDBRANCH  27  30
BRANCH  27  33
HETATM   33  C5  UNL     1      -2.876  51.885 -27.546  1.00  0.00     0.202 C 
BRANCH  33  34
HETATM   34  O1  UNL     1      -2.810  50.843 -28.519  1.00  0.00    -0.398 OA
HETATM   35  H10 UNL     1      -1.903  50.877 -28.882  1.00  0.00     0.209 HD
ENDBRANCH  33  34
ENDBRANCH  27  33
ENDBRANCH   1  24
TORSDOF 4
ENDMDL
MODEL 8
REMARK minimizedAffinity -8.91520023
REMARK  4 active torsions:
REMARK  status: ('A' for Active; 'I' for Inactive)
REMARK    1  A    between atoms: C2_2  and  C4_4 
REMARK    2  A    between atoms: C4_4  and  C5_5 
REMARK    3  A    between atoms: C5_5  and  O1_6 
REMARK    4  A    between atoms: C8_9  and  C9_10 
ROOT
HETATM    1  C9  UNL     1      -2.571  50.121 -22.798  1.00  0.00     0.001 C 
HETATM    2  C10 UNL     1      -2.836  48.613 -23.064  1.00  0.00     0.007 C 
HETATM    3  C11 UNL     1      -2.864  47.907 -21.697  1.00  0.00     0.011 C 
HETATM    4  C12 UNL     1      -3.007  49.040 -20.665  1.00  0.00    -0.032 C 
HETATM    5  C13 UNL     1      -4.528  49.388 -20.600  1.00  0.00     0.016 C 
HETATM    6  C14 UNL     1      -2.474  48.690 -19.251  1.00  0.00     0.004 C 
HETATM    7  C15 UNL     1      -3.328  47.667 -18.490  1.00  0.00     0.007 C 
HETATM    8  C16 UNL     1      -2.690  47.340 -17.142  1.00  0.00     0.007 C 
HETATM    9  C17 UNL     1      -2.774  48.557 -16.212  1.00  0.00     0.010 C 
HETATM   10  C18 UNL     1      -2.174  48.339 -14.787  1.00  0.00     0.018 C 
HETATM   11  C19 UNL     1      -0.697  47.912 -14.799  1.00  0.00     0.023 C 
HETATM   12  C20 UNL     1      -2.990  47.283 -14.019  1.00  0.00     0.023 C 
HETATM   13  C21 UNL     1      -2.276  49.650 -13.991  1.00  0.00     0.135 C 
HETATM   14  O2  UNL     1      -1.801  49.765 -12.859  1.00  0.00    -0.297 OA
HETATM   15  C22 UNL     1      -3.064  50.777 -14.608  1.00  0.00     0.080 C 
HETATM   16  C23 UNL     1      -2.545  51.093 -16.004  1.00  0.00     0.018 C 
HETATM   17  C24 UNL     1      -2.245  49.851 -16.847  1.00  0.00    -0.026 A 
HETATM   18  C25 UNL     1      -0.920  49.870 -17.571  1.00  0.00     0.021 A 
HETATM   19  C26 UNL     1      -2.186  49.953 -18.399  1.00  0.00    -0.027 A 
HETATM   20  C27 UNL     1      -2.525  51.310 -19.026  1.00  0.00     0.011 C 
HETATM   21  C28 UNL     1      -2.348  51.466 -20.549  1.00  0.00     0.011 C 
HETATM   22  C29 UNL     1      -2.099  50.156 -21.308  1.00  0.00    -0.032 C 
HETATM   23  C30 UNL     1      -0.577  49.854 -21.233  1.00  0.00     0.016 C 
ENDROOT
BRANCH   1  24
HETATM   24  C8  UNL     1      -1.822  50.837 -23.957  1.00  0.00     0.014 C 
HETATM   25  C7  UNL     1      -1.726  49.979 -25.223  1.00  0.00     0.010 C 
HETATM   26  C6  UNL     1      -0.839  50.653 -26.270  1.00  0.00     0.041 C 
HETATM   27  C4  UNL     1      -1.224  52.126 -26.551  1.00  0.00     0.085 C 
HETATM   28  O3  UNL     1      -1.370  52.832 -25.295  1.00  0.00    -0.377 OA
HETATM   29  C31 UNL     1      -2.265  52.253 -24.338  1.00  0.00     0.174 C 
BRANCH  27  30
HETATM   30  C2  UNL     1      -0.031  52.840 -27.290  1.00  0.00     0.014 C 
HETATM   31  C1  UNL     1      -0.440  54.053 -28.139  1.00  0.00     0.012 C 
HETATM   32  C3  UNL     1       0.831  51.904 -28.146  1.00  0.00     0.012 C 
ENDBRANCH  27  30
BRANCH  27  33
HETATM   33  C5  UNL     1      -2.558  52.202 -27.344  1.00  0.00     0.202 C 
BRANCH  33  34
HETATM   34  O1  UNL     1      -2.676  51.135 -28.284  1.00  0.00    -0.398 OA
HETATM   35  H10 UNL     1      -1.767  50.948 -28.589  1.00  0.00     0.209 HD
ENDBRANCH  33  34
ENDBRANCH  27  33
ENDBRANCH   1  24
TORSDOF 4
ENDMDL
MODEL 9
REMARK minimizedAffinity -8.90060806
REMARK  4 active torsions:
REMARK  status: ('A' for Active; 'I' for Inactive)
REMARK    1  A    between atoms: C2_2  and  C4_4 
REMARK    2  A    between atoms: C4_4  and  C5_5 
REMARK    3  A    between atoms: C5_5  and  O1_6 
REMARK    4  A    between atoms: C8_9  and  C9_10 
ROOT
HETATM    1  C9  UNL     1      -7.583  47.611 -21.296  1.00  0.00     0.001 C 
HETATM    2  C10 UNL     1      -7.467  46.436 -22.306  1.00  0.00     0.007 C 
HETATM    3  C11 UNL     1      -6.376  46.815 -23.323  1.00  0.00     0.011 C 
HETATM    4  C12 UNL     1      -5.620  47.991 -22.677  1.00  0.00    -0.032 C 
HETATM    5  C13 UNL     1      -4.587  47.361 -21.691  1.00  0.00     0.016 C 
HETATM    6  C14 UNL     1      -4.901  48.922 -23.689  1.00  0.00     0.004 C 
HETATM    7  C15 UNL     1      -3.677  48.292 -24.366  1.00  0.00     0.007 C 
HETATM    8  C16 UNL     1      -3.079  49.258 -25.387  1.00  0.00     0.007 C 
HETATM    9  C17 UNL     1      -2.445  50.455 -24.667  1.00  0.00     0.010 C 
HETATM   10  C18 UNL     1      -1.774  51.507 -25.607  1.00  0.00     0.018 C 
HETATM   11  C19 UNL     1      -2.732  52.097 -26.654  1.00  0.00     0.023 C 
HETATM   12  C20 UNL     1      -0.567  50.884 -26.332  1.00  0.00     0.023 C 
HETATM   13  C21 UNL     1      -1.236  52.670 -24.758  1.00  0.00     0.135 C 
HETATM   14  O2  UNL     1      -0.727  53.671 -25.269  1.00  0.00    -0.297 OA
HETATM   15  C22 UNL     1      -1.266  52.508 -23.259  1.00  0.00     0.080 C 
HETATM   16  C23 UNL     1      -2.671  52.168 -22.784  1.00  0.00     0.018 C 
HETATM   17  C24 UNL     1      -3.383  51.130 -23.657  1.00  0.00    -0.026 A 
HETATM   18  C25 UNL     1      -4.805  51.473 -24.032  1.00  0.00     0.021 A 
HETATM   19  C26 UNL     1      -4.578  50.312 -23.083  1.00  0.00    -0.027 A 
HETATM   20  C27 UNL     1      -4.935  50.533 -21.610  1.00  0.00     0.011 C 
HETATM   21  C28 UNL     1      -6.192  49.831 -21.059  1.00  0.00     0.011 C 
HETATM   22  C29 UNL     1      -6.802  48.774 -21.990  1.00  0.00    -0.032 C 
HETATM   23  C30 UNL     1      -7.737  49.511 -22.987  1.00  0.00     0.016 C 
ENDROOT
BRANCH   1  24
HETATM   24  C8  UNL     1      -9.004  47.771 -20.685  1.00  0.00     0.014 C 
HETATM   25  C7  UNL     1      -9.815  46.472 -20.717  1.00  0.00     0.010 C 
HETATM   26  C6  UNL     1     -11.255  46.719 -20.265  1.00  0.00     0.041 C 
HETATM   27  C4  UNL     1     -11.359  47.478 -18.920  1.00  0.00     0.085 C 
HETATM   28  O3  UNL     1     -10.498  48.641 -18.957  1.00  0.00    -0.377 OA
HETATM   29  C31 UNL     1      -9.126  48.409 -19.297  1.00  0.00     0.174 C 
BRANCH  27  30
HETATM   30  C2  UNL     1     -12.818  48.048 -18.761  1.00  0.00     0.014 C 
HETATM   31  C1  UNL     1     -13.850  47.028 -18.257  1.00  0.00     0.012 C 
HETATM   32  C3  UNL     1     -13.370  48.730 -20.019  1.00  0.00     0.012 C 
ENDBRANCH  27  30
BRANCH  27  33
HETATM   33  C5  UNL     1     -10.936  46.560 -17.739  1.00  0.00     0.202 C 
BRANCH  33  34
HETATM   34  O1  UNL     1     -10.917  47.267 -16.500  1.00  0.00    -0.398 OA
HETATM   35  H10 UNL     1     -10.650  48.181 -16.721  1.00  0.00     0.209 HD
ENDBRANCH  33  34
ENDBRANCH  27  33
ENDBRANCH   1  24
TORSDOF 4
ENDMDL
