MODEL 1
REMARK minimizedAffinity -8.90847969
REMARK  4 active torsions:
REMARK  status: ('A' for Active; 'I' for Inactive)
REMARK    1  A    between atoms: C10_11  and  O2_12 
REMARK    2  A    between atoms: C14_16  and  C15_17 
REMARK    3  A    between atoms: C15_17  and  O3_18 
REMARK    4  A    between atoms: C16_20  and  O5_21 
ROOT
HETATM    1  C1  UNL     1       9.242  63.019 -33.795  1.00  0.00     0.023 C 
HETATM    2  C2  UNL     1       8.382  62.682 -35.020  1.00  0.00     0.018 C 
HETATM    3  C3  UNL     1       9.289  61.986 -36.059  1.00  0.00     0.023 C 
HETATM    4  C4  UNL     1       7.303  61.662 -34.602  1.00  0.00     0.135 C 
HETATM    5  O1  UNL     1       7.572  60.481 -34.375  1.00  0.00    -0.297 OA
HETATM    6  C5  UNL     1       5.875  62.158 -34.489  1.00  0.00     0.080 C 
HETATM    7  C6  UNL     1       5.893  63.548 -33.878  1.00  0.00     0.022 C 
HETATM    8  C7  UNL     1       6.546  64.614 -34.807  1.00  0.00    -0.007 C 
HETATM    9  C8  UNL     1       7.048  65.738 -33.860  1.00  0.00     0.021 C 
HETATM   10  C9  UNL     1       5.663  65.310 -35.873  1.00  0.00     0.003 A 
HETATM   11  C10 UNL     1       4.261  65.311 -35.891  1.00  0.00     0.107 A 
HETATM   12  C11 UNL     1       3.584  65.964 -36.913  1.00  0.00     0.112 A 
HETATM   13  C12 UNL     1       4.229  66.633 -37.932  1.00  0.00     0.015 A 
HETATM   14  C13 UNL     1       3.224  67.245 -38.830  1.00  0.00     0.079 C 
HETATM   15  C14 UNL     1       1.968  66.506 -38.340  1.00  0.00     0.157 C 
HETATM   16  O4  UNL     1       2.211  66.004 -37.000  1.00  0.00    -0.340 OA
HETATM   17  C16 UNL     1       5.608  66.672 -37.955  1.00  0.00     0.089 A 
HETATM   18  C17 UNL     1       6.328  66.025 -36.931  1.00  0.00     0.053 A 
HETATM   19  C18 UNL     1       7.826  66.096 -36.926  1.00  0.00     0.163 C 
HETATM   20  O6  UNL     1       8.430  67.061 -37.386  1.00  0.00    -0.292 OA
HETATM   21  C19 UNL     1       8.597  64.960 -36.283  1.00  0.00     0.091 C 
HETATM   22  C20 UNL     1       7.666  63.911 -35.669  1.00  0.00     0.021 C 
ENDROOT
BRANCH  15  23
HETATM   23  C15 UNL     1       0.729  67.399 -38.339  1.00  0.00     0.196 C 
BRANCH  23  24
HETATM   24  O3  UNL     1       0.026  67.298 -37.107  1.00  0.00    -0.398 OA
HETATM   25  H20 UNL     1       0.489  67.855 -36.457  1.00  0.00     0.209 HD
ENDBRANCH  23  24
ENDBRANCH  15  23
BRANCH  17  26
HETATM   26  O5  UNL     1       6.249  67.289 -38.987  1.00  0.00    -0.359 OA
HETATM   27  H21 UNL     1       5.659  67.929 -39.414  1.00  0.00     0.217 HD
ENDBRANCH  17  26
BRANCH  11  28
HETATM   28  O2  UNL     1       3.507  64.687 -34.946  1.00  0.00    -0.357 OA
HETATM   29  H14 UNL     1       2.573  64.862 -35.173  1.00  0.00     0.217 HD
ENDBRANCH  11  28
TORSDOF 4
ENDMDL
MODEL 2
REMARK minimizedAffinity -8.70268059
REMARK  4 active torsions:
REMARK  status: ('A' for Active; 'I' for Inactive)
REMARK    1  A    between atoms: C10_11  and  O2_12 
REMARK    2  A    between atoms: C14_16  and  C15_17 
REMARK    3  A    between atoms: C15_17  and  O3_18 
REMARK    4  A    between atoms: C16_20  and  O5_21 
ROOT
HETATM    1  C1  UNL     1      -1.742  51.989 -26.522  1.00  0.00     0.023 C 
HETATM    2  C2  UNL     1      -0.561  51.452 -25.703  1.00  0.00     0.018 C 
HETATM    3  C3  UNL     1      -0.002  50.210 -26.434  1.00  0.00     0.023 C 
HETATM    4  C4  UNL     1       0.557  52.514 -25.691  1.00  0.00     0.135 C 
HETATM    5  O1  UNL     1       1.253  52.742 -26.682  1.00  0.00    -0.297 OA
HETATM    6  C5  UNL     1       0.790  53.275 -24.400  1.00  0.00     0.080 C 
HETATM    7  C6  UNL     1      -0.558  53.574 -23.767  1.00  0.00     0.022 C 
HETATM    8  C7  UNL     1      -1.297  52.295 -23.275  1.00  0.00    -0.007 C 
HETATM    9  C8  UNL     1      -2.806  52.666 -23.263  1.00  0.00     0.021 C 
HETATM   10  C9  UNL     1      -0.976  51.749 -21.860  1.00  0.00     0.003 A 
HETATM   11  C10 UNL     1      -0.316  52.460 -20.847  1.00  0.00     0.107 A 
HETATM   12  C11 UNL     1      -0.076  51.852 -19.622  1.00  0.00     0.112 A 
HETATM   13  C12 UNL     1      -0.465  50.560 -19.337  1.00  0.00     0.015 A 
HETATM   14  C13 UNL     1      -0.092  50.233 -17.942  1.00  0.00     0.079 C 
HETATM   15  C14 UNL     1       0.860  51.406 -17.655  1.00  0.00     0.157 C 
HETATM   16  O4  UNL     1       0.570  52.484 -18.583  1.00  0.00    -0.340 OA
HETATM   17  C16 UNL     1      -1.127  49.821 -20.294  1.00  0.00     0.089 A 
HETATM   18  C17 UNL     1      -1.393  50.408 -21.549  1.00  0.00     0.053 A 
HETATM   19  C18 UNL     1      -2.149  49.626 -22.582  1.00  0.00     0.163 C 
HETATM   20  O6  UNL     1      -2.985  48.783 -22.272  1.00  0.00    -0.292 OA
HETATM   21  C19 UNL     1      -1.897  49.938 -24.043  1.00  0.00     0.091 C 
HETATM   22  C20 UNL     1      -0.908  51.093 -24.222  1.00  0.00     0.021 C 
ENDROOT
BRANCH  15  23
HETATM   23  C15 UNL     1       0.743  51.915 -16.221  1.00  0.00     0.196 C 
BRANCH  23  24
HETATM   24  O3  UNL     1       1.476  53.119 -16.043  1.00  0.00    -0.398 OA
HETATM   25  H20 UNL     1       0.937  53.848 -16.398  1.00  0.00     0.209 HD
ENDBRANCH  23  24
ENDBRANCH  15  23
BRANCH  17  26
HETATM   26  O5  UNL     1      -1.469  48.528 -20.034  1.00  0.00    -0.359 OA
HETATM   27  H21 UNL     1      -1.511  48.378 -19.077  1.00  0.00     0.217 HD
ENDBRANCH  17  26
BRANCH  11  28
HETATM   28  O2  UNL     1       0.120  53.739 -21.003  1.00  0.00    -0.357 OA
HETATM   29  H14 UNL     1       0.515  54.006 -20.149  1.00  0.00     0.217 HD
ENDBRANCH  11  28
TORSDOF 4
ENDMDL
MODEL 3
REMARK minimizedAffinity -8.65108299
REMARK  4 active torsions:
REMARK  status: ('A' for Active; 'I' for Inactive)
REMARK    1  A    between atoms: C10_11  and  O2_12 
REMARK    2  A    between atoms: C14_16  and  C15_17 
REMARK    3  A    between atoms: C15_17  and  O3_18 
REMARK    4  A    between atoms: C16_20  and  O5_21 
ROOT
HETATM    1  C1  UNL     1      -4.080  48.888 -19.411  1.00  0.00     0.023 C 
HETATM    2  C2  UNL     1      -3.028  48.567 -20.481  1.00  0.00     0.018 C 
HETATM    3  C3  UNL     1      -1.921  47.715 -19.817  1.00  0.00     0.023 C 
HETATM    4  C4  UNL     1      -3.681  47.693 -21.571  1.00  0.00     0.135 C 
HETATM    5  O1  UNL     1      -3.957  46.507 -21.381  1.00  0.00    -0.297 OA
HETATM    6  C5  UNL     1      -3.969  48.341 -22.911  1.00  0.00     0.080 C 
HETATM    7  C6  UNL     1      -4.460  49.757 -22.667  1.00  0.00     0.022 C 
HETATM    8  C7  UNL     1      -3.363  50.689 -22.071  1.00  0.00    -0.007 C 
HETATM    9  C8  UNL     1      -4.133  51.812 -21.324  1.00  0.00     0.021 C 
HETATM   10  C9  UNL     1      -2.390  51.406 -23.042  1.00  0.00     0.003 A 
HETATM   11  C10 UNL     1      -2.583  51.552 -24.423  1.00  0.00     0.107 A 
HETATM   12  C11 UNL     1      -1.627  52.207 -25.188  1.00  0.00     0.112 A 
HETATM   13  C12 UNL     1      -0.474  52.739 -24.652  1.00  0.00     0.015 A 
HETATM   14  C13 UNL     1       0.308  53.396 -25.724  1.00  0.00     0.079 C 
HETATM   15  C14 UNL     1      -0.421  52.824 -26.951  1.00  0.00     0.157 C 
HETATM   16  O4  UNL     1      -1.745  52.384 -26.548  1.00  0.00    -0.340 OA
HETATM   17  C16 UNL     1      -0.240  52.633 -23.296  1.00  0.00     0.089 A 
HETATM   18  C17 UNL     1      -1.192  51.979 -22.487  1.00  0.00     0.053 A 
HETATM   19  C18 UNL     1      -0.967  51.894 -21.008  1.00  0.00     0.163 C 
HETATM   20  O6  UNL     1      -0.347  52.760 -20.396  1.00  0.00    -0.292 OA
HETATM   21  C19 UNL     1      -1.573  50.726 -20.255  1.00  0.00     0.091 C 
HETATM   22  C20 UNL     1      -2.400  49.820 -21.171  1.00  0.00     0.021 C 
ENDROOT
BRANCH  15  23
HETATM   23  C15 UNL     1      -0.539  53.839 -28.085  1.00  0.00     0.196 C 
BRANCH  23  24
HETATM   24  O3  UNL     1      -1.900  54.096 -28.403  1.00  0.00    -0.398 OA
HETATM   25  H20 UNL     1      -2.245  54.722 -27.741  1.00  0.00     0.209 HD
ENDBRANCH  23  24
ENDBRANCH  15  23
BRANCH  17  26
HETATM   26  O5  UNL     1       0.921  53.114 -22.771  1.00  0.00    -0.359 OA
HETATM   27  H21 UNL     1       1.303  53.784 -23.358  1.00  0.00     0.217 HD
ENDBRANCH  17  26
BRANCH  11  28
HETATM   28  O2  UNL     1      -3.676  51.070 -25.074  1.00  0.00    -0.357 OA
HETATM   29  H14 UNL     1      -3.580  51.328 -26.012  1.00  0.00     0.217 HD
ENDBRANCH  11  28
TORSDOF 4
ENDMDL
MODEL 4
REMARK minimizedAffinity -8.61189079
REMARK  4 active torsions:
REMARK  status: ('A' for Active; 'I' for Inactive)
REMARK    1  A    between atoms: C10_11  and  O2_12 
REMARK    2  A    between atoms: C14_16  and  C15_17 
REMARK    3  A    between atoms: C15_17  and  O3_18 
REMARK    4  A    between atoms: C16_20  and  O5_21 
ROOT
HETATM    1  C1  UNL     1      -3.761  49.933 -23.134  1.00  0.00     0.023 C 
HETATM    2  C2  UNL     1      -3.837  50.938 -21.977  1.00  0.00     0.018 C 
HETATM    3  C3  UNL     1      -4.498  52.228 -22.513  1.00  0.00     0.023 C 
HETATM    4  C4  UNL     1      -4.769  50.369 -20.888  1.00  0.00     0.135 C 
HETATM    5  O1  UNL     1      -5.993  50.327 -21.030  1.00  0.00    -0.297 OA
HETATM    6  C5  UNL     1      -4.129  49.865 -19.609  1.00  0.00     0.080 C 
HETATM    7  C6  UNL     1      -2.839  49.147 -19.966  1.00  0.00     0.022 C 
HETATM    8  C7  UNL     1      -1.747  50.101 -20.535  1.00  0.00    -0.007 C 
HETATM    9  C8  UNL     1      -0.818  49.202 -21.396  1.00  0.00     0.021 C 
HETATM   10  C9  UNL     1      -0.824  50.849 -19.540  1.00  0.00     0.003 A 
HETATM   11  C10 UNL     1      -0.658  50.525 -18.187  1.00  0.00     0.107 A 
HETATM   12  C11 UNL     1       0.194  51.284 -17.394  1.00  0.00     0.112 A 
HETATM   13  C12 UNL     1       0.907  52.361 -17.878  1.00  0.00     0.015 A 
HETATM   14  C13 UNL     1       1.740  52.925 -16.792  1.00  0.00     0.079 C 
HETATM   15  C14 UNL     1       1.097  52.216 -15.589  1.00  0.00     0.157 C 
HETATM   16  O4  UNL     1       0.404  51.030 -16.058  1.00  0.00    -0.340 OA
HETATM   17  C16 UNL     1       0.788  52.716 -19.206  1.00  0.00     0.089 A 
HETATM   18  C17 UNL     1      -0.064  51.964 -20.041  1.00  0.00     0.053 A 
HETATM   19  C18 UNL     1      -0.168  52.317 -21.495  1.00  0.00     0.163 C 
HETATM   20  O6  UNL     1       0.770  52.817 -22.109  1.00  0.00    -0.292 OA
HETATM   21  C19 UNL     1      -1.459  51.993 -22.221  1.00  0.00     0.091 C 
HETATM   22  C20 UNL     1      -2.461  51.273 -21.316  1.00  0.00     0.021 C 
ENDROOT
BRANCH  15  23
HETATM   23  C15 UNL     1       2.120  51.828 -14.525  1.00  0.00     0.196 C 
BRANCH  23  24
HETATM   24  O3  UNL     1       3.311  52.593 -14.657  1.00  0.00    -0.398 OA
HETATM   25  H20 UNL     1       3.148  53.465 -14.253  1.00  0.00     0.209 HD
ENDBRANCH  23  24
ENDBRANCH  15  23
BRANCH  17  26
HETATM   26  O5  UNL     1       1.451  53.809 -19.676  1.00  0.00    -0.359 OA
HETATM   27  H21 UNL     1       2.204  54.017 -19.102  1.00  0.00     0.217 HD
ENDBRANCH  17  26
BRANCH  11  28
HETATM   28  O2  UNL     1      -1.304  49.489 -17.588  1.00  0.00    -0.357 OA
HETATM   29  H14 UNL     1      -0.994  49.463 -16.661  1.00  0.00     0.217 HD
ENDBRANCH  11  28
TORSDOF 4
ENDMDL
MODEL 5
REMARK minimizedAffinity -8.40422344
REMARK  4 active torsions:
REMARK  status: ('A' for Active; 'I' for Inactive)
REMARK    1  A    between atoms: C10_11  and  O2_12 
REMARK    2  A    between atoms: C14_16  and  C15_17 
REMARK    3  A    between atoms: C15_17  and  O3_18 
REMARK    4  A    between atoms: C16_20  and  O5_21 
ROOT
HETATM    1  C1  UNL     1      -3.438  51.035 -26.024  1.00  0.00     0.023 C 
HETATM    2  C2  UNL     1      -2.343  50.270 -25.267  1.00  0.00     0.018 C 
HETATM    3  C3  UNL     1      -2.345  48.812 -25.779  1.00  0.00     0.023 C 
HETATM    4  C4  UNL     1      -0.973  50.878 -25.630  1.00  0.00     0.135 C 
HETATM    5  O1  UNL     1      -0.446  50.693 -26.729  1.00  0.00    -0.297 OA
HETATM    6  C5  UNL     1      -0.274  51.713 -24.576  1.00  0.00     0.080 C 
HETATM    7  C6  UNL     1      -1.316  52.549 -23.853  1.00  0.00     0.022 C 
HETATM    8  C7  UNL     1      -2.302  51.693 -23.004  1.00  0.00    -0.007 C 
HETATM    9  C8  UNL     1      -3.592  52.550 -22.878  1.00  0.00     0.021 C 
HETATM   10  C9  UNL     1      -1.896  51.308 -21.559  1.00  0.00     0.003 A 
HETATM   11  C10 UNL     1      -0.868  51.906 -20.818  1.00  0.00     0.107 A 
HETATM   12  C11 UNL     1      -0.594  51.460 -19.532  1.00  0.00     0.112 A 
HETATM   13  C12 UNL     1      -1.298  50.440 -18.926  1.00  0.00     0.015 A 
HETATM   14  C13 UNL     1      -0.781  50.236 -17.554  1.00  0.00     0.079 C 
HETATM   15  C14 UNL     1       0.521  51.048 -17.653  1.00  0.00     0.157 C 
HETATM   16  O4  UNL     1       0.402  51.995 -18.746  1.00  0.00    -0.340 OA
HETATM   17  C16 UNL     1      -2.327  49.825 -19.608  1.00  0.00     0.089 A 
HETATM   18  C17 UNL     1      -2.637  50.256 -20.914  1.00  0.00     0.053 A 
HETATM   19  C18 UNL     1      -3.780  49.620 -21.647  1.00  0.00     0.163 C 
HETATM   20  O6  UNL     1      -4.758  49.171 -21.056  1.00  0.00    -0.292 OA
HETATM   21  C19 UNL     1      -3.732  49.587 -23.161  1.00  0.00     0.091 C 
HETATM   22  C20 UNL     1      -2.491  50.294 -23.711  1.00  0.00     0.021 C 
ENDROOT
BRANCH  15  23
HETATM   23  C15 UNL     1       0.845  51.791 -16.360  1.00  0.00     0.196 C 
BRANCH  23  24
HETATM   24  O3  UNL     1       1.275  53.120 -16.627  1.00  0.00    -0.398 OA
HETATM   25  H20 UNL     1       0.481  53.658 -16.795  1.00  0.00     0.209 HD
ENDBRANCH  23  24
ENDBRANCH  15  23
BRANCH  17  26
HETATM   26  O5  UNL     1      -2.991  48.784 -19.032  1.00  0.00    -0.359 OA
HETATM   27  H21 UNL     1      -2.892  48.814 -18.068  1.00  0.00     0.217 HD
ENDBRANCH  17  26
BRANCH  11  28
HETATM   28  O2  UNL     1      -0.099  52.919 -21.301  1.00  0.00    -0.357 OA
HETATM   29  H14 UNL     1       0.515  53.171 -20.584  1.00  0.00     0.217 HD
ENDBRANCH  11  28
TORSDOF 4
ENDMDL
MODEL 6
REMARK minimizedAffinity -8.29295444
REMARK  4 active torsions:
REMARK  status: ('A' for Active; 'I' for Inactive)
REMARK    1  A    between atoms: C10_11  and  O2_12 
REMARK    2  A    between atoms: C14_16  and  C15_17 
REMARK    3  A    between atoms: C15_17  and  O3_18 
REMARK    4  A    between atoms: C16_20  and  O5_21 
ROOT
HETATM    1  C1  UNL     1      -1.601  52.585 -26.812  1.00  0.00     0.023 C 
HETATM    2  C2  UNL     1      -0.610  51.700 -26.045  1.00  0.00     0.018 C 
HETATM    3  C3  UNL     1      -0.056  50.645 -27.030  1.00  0.00     0.023 C 
HETATM    4  C4  UNL     1       0.581  52.568 -25.592  1.00  0.00     0.135 C 
HETATM    5  O1  UNL     1       1.437  52.968 -26.383  1.00  0.00    -0.297 OA
HETATM    6  C5  UNL     1       0.680  52.911 -24.118  1.00  0.00     0.080 C 
HETATM    7  C6  UNL     1      -0.717  53.193 -23.594  1.00  0.00     0.022 C 
HETATM    8  C7  UNL     1      -1.631  51.931 -23.585  1.00  0.00    -0.007 C 
HETATM    9  C8  UNL     1      -3.086  52.473 -23.650  1.00  0.00     0.021 C 
HETATM   10  C9  UNL     1      -1.577  50.984 -22.360  1.00  0.00     0.003 A 
HETATM   11  C10 UNL     1      -1.020  51.301 -21.113  1.00  0.00     0.107 A 
HETATM   12  C11 UNL     1      -1.023  50.356 -20.095  1.00  0.00     0.112 A 
HETATM   13  C12 UNL     1      -1.561  49.095 -20.245  1.00  0.00     0.015 A 
HETATM   14  C13 UNL     1      -1.435  48.354 -18.970  1.00  0.00     0.079 C 
HETATM   15  C14 UNL     1      -0.439  49.274 -18.243  1.00  0.00     0.157 C 
HETATM   16  O4  UNL     1      -0.490  50.592 -18.848  1.00  0.00    -0.340 OA
HETATM   17  C16 UNL     1      -2.132  48.736 -21.448  1.00  0.00     0.089 A 
HETATM   18  C17 UNL     1      -2.152  49.672 -22.502  1.00  0.00     0.053 A 
HETATM   19  C18 UNL     1      -2.806  49.305 -23.801  1.00  0.00     0.163 C 
HETATM   20  O6  UNL     1      -3.750  48.521 -23.851  1.00  0.00    -0.292 OA
HETATM   21  C19 UNL     1      -2.309  49.970 -25.068  1.00  0.00     0.091 C 
HETATM   22  C20 UNL     1      -1.208  50.996 -24.784  1.00  0.00     0.021 C 
ENDROOT
BRANCH  15  23
HETATM   23  C15 UNL     1      -0.729  49.381 -16.748  1.00  0.00     0.196 C 
BRANCH  23  24
HETATM   24  O3  UNL     1      -0.847  48.094 -16.156  1.00  0.00    -0.398 OA
HETATM   25  H20 UNL     1       0.053  47.754 -16.007  1.00  0.00     0.209 HD
ENDBRANCH  23  24
ENDBRANCH  15  23
BRANCH  17  26
HETATM   26  O5  UNL     1      -2.620  47.475 -21.616  1.00  0.00    -0.359 OA
HETATM   27  H21 UNL     1      -2.820  47.075 -20.755  1.00  0.00     0.217 HD
ENDBRANCH  17  26
BRANCH  11  28
HETATM   28  O2  UNL     1      -0.456  52.508 -20.839  1.00  0.00    -0.357 OA
HETATM   29  H14 UNL     1      -0.174  52.479 -19.903  1.00  0.00     0.217 HD
ENDBRANCH  11  28
TORSDOF 4
ENDMDL
MODEL 7
REMARK minimizedAffinity -8.20656013
REMARK  4 active torsions:
REMARK  status: ('A' for Active; 'I' for Inactive)
REMARK    1  A    between atoms: C10_11  and  O2_12 
REMARK    2  A    between atoms: C14_16  and  C15_17 
REMARK    3  A    between atoms: C15_17  and  O3_18 
REMARK    4  A    between atoms: C16_20  and  O5_21 
ROOT
HETATM    1  C1  UNL     1       2.997  67.995 -36.089  1.00  0.00     0.023 C 
HETATM    2  C2  UNL     1       3.498  66.719 -36.778  1.00  0.00     0.018 C 
HETATM    3  C3  UNL     1       2.280  65.797 -37.013  1.00  0.00     0.023 C 
HETATM    4  C4  UNL     1       4.059  67.093 -38.165  1.00  0.00     0.135 C 
HETATM    5  O1  UNL     1       3.326  67.401 -39.106  1.00  0.00    -0.297 OA
HETATM    6  C5  UNL     1       5.564  67.059 -38.346  1.00  0.00     0.080 C 
HETATM    7  C6  UNL     1       6.215  67.600 -37.085  1.00  0.00     0.022 C 
HETATM    8  C7  UNL     1       6.004  66.678 -35.847  1.00  0.00    -0.007 C 
HETATM    9  C8  UNL     1       6.140  67.608 -34.610  1.00  0.00     0.021 C 
HETATM   10  C9  UNL     1       6.993  65.507 -35.617  1.00  0.00     0.003 A 
HETATM   11  C10 UNL     1       8.245  65.369 -36.232  1.00  0.00     0.107 A 
HETATM   12  C11 UNL     1       9.035  64.262 -35.949  1.00  0.00     0.112 A 
HETATM   13  C12 UNL     1       8.649  63.271 -35.072  1.00  0.00     0.015 A 
HETATM   14  C13 UNL     1       9.727  62.261 -34.970  1.00  0.00     0.079 C 
HETATM   15  C14 UNL     1      10.576  62.677 -36.182  1.00  0.00     0.157 C 
HETATM   16  O4  UNL     1      10.272  64.056 -36.517  1.00  0.00    -0.340 OA
HETATM   17  C16 UNL     1       7.431  63.363 -34.432  1.00  0.00     0.089 A 
HETATM   18  C17 UNL     1       6.605  64.476 -34.690  1.00  0.00     0.053 A 
HETATM   19  C18 UNL     1       5.297  64.606 -33.968  1.00  0.00     0.163 C 
HETATM   20  O6  UNL     1       5.133  64.152 -32.840  1.00  0.00    -0.292 OA
HETATM   21  C19 UNL     1       4.176  65.368 -34.646  1.00  0.00     0.091 C 
HETATM   22  C20 UNL     1       4.611  65.951 -35.993  1.00  0.00     0.021 C 
ENDROOT
BRANCH  15  23
HETATM   23  C15 UNL     1      12.074  62.528 -35.924  1.00  0.00     0.196 C 
BRANCH  23  24
HETATM   24  O3  UNL     1      12.441  63.124 -34.687  1.00  0.00    -0.398 OA
HETATM   25  H20 UNL     1      12.207  62.499 -33.977  1.00  0.00     0.209 HD
ENDBRANCH  23  24
ENDBRANCH  15  23
BRANCH  17  26
HETATM   26  O5  UNL     1       7.025  62.361 -33.603  1.00  0.00    -0.359 OA
HETATM   27  H21 UNL     1       7.790  61.853 -33.290  1.00  0.00     0.217 HD
ENDBRANCH  17  26
BRANCH  11  28
HETATM   28  O2  UNL     1       8.740  66.276 -37.117  1.00  0.00    -0.357 OA
HETATM   29  H14 UNL     1       9.630  65.962 -37.371  1.00  0.00     0.217 HD
ENDBRANCH  11  28
TORSDOF 4
ENDMDL
MODEL 8
REMARK minimizedAffinity -8.1333847
REMARK  4 active torsions:
REMARK  status: ('A' for Active; 'I' for Inactive)
REMARK    1  A    between atoms: C10_11  and  O2_12 
REMARK    2  A    between atoms: C14_16  and  C15_17 
REMARK    3  A    between atoms: C15_17  and  O3_18 
REMARK    4  A    between atoms: C16_20  and  O5_21 
ROOT
HETATM    1  C1  UNL     1      -6.441  46.903 -22.130  1.00  0.00     0.023 C 
HETATM    2  C2  UNL     1      -6.286  48.425 -22.255  1.00  0.00     0.018 C 
HETATM    3  C3  UNL     1      -7.332  48.925 -23.278  1.00  0.00     0.023 C 
HETATM    4  C4  UNL     1      -6.632  49.071 -20.898  1.00  0.00     0.135 C 
HETATM    5  O1  UNL     1      -7.791  49.149 -20.487  1.00  0.00    -0.297 OA
HETATM    6  C5  UNL     1      -5.488  49.630 -20.075  1.00  0.00     0.080 C 
HETATM    7  C6  UNL     1      -4.302  48.689 -20.195  1.00  0.00     0.022 C 
HETATM    8  C7  UNL     1      -3.697  48.652 -21.630  1.00  0.00    -0.007 C 
HETATM    9  C8  UNL     1      -2.987  47.275 -21.746  1.00  0.00     0.021 C 
HETATM   10  C9  UNL     1      -2.639  49.717 -22.017  1.00  0.00     0.003 A 
HETATM   11  C10 UNL     1      -1.935  50.527 -21.114  1.00  0.00     0.107 A 
HETATM   12  C11 UNL     1      -1.018  51.455 -21.590  1.00  0.00     0.112 A 
HETATM   13  C12 UNL     1      -0.752  51.625 -22.933  1.00  0.00     0.015 A 
HETATM   14  C13 UNL     1       0.293  52.661 -23.097  1.00  0.00     0.079 C 
HETATM   15  C14 UNL     1       0.278  53.259 -21.680  1.00  0.00     0.157 C 
HETATM   16  O4  UNL     1      -0.294  52.287 -20.767  1.00  0.00    -0.340 OA
HETATM   17  C16 UNL     1      -1.409  50.846 -23.862  1.00  0.00     0.089 A 
HETATM   18  C17 UNL     1      -2.342  49.889 -23.415  1.00  0.00     0.053 A 
HETATM   19  C18 UNL     1      -3.032  49.010 -24.415  1.00  0.00     0.163 C 
HETATM   20  O6  UNL     1      -2.495  48.684 -25.469  1.00  0.00    -0.292 OA
HETATM   21  C19 UNL     1      -4.408  48.476 -24.073  1.00  0.00     0.091 C 
HETATM   22  C20 UNL     1      -4.856  48.900 -22.672  1.00  0.00     0.021 C 
ENDROOT
BRANCH  15  23
HETATM   23  C15 UNL     1       1.671  53.659 -21.201  1.00  0.00     0.196 C 
BRANCH  23  24
HETATM   24  O3  UNL     1       2.083  54.885 -21.791  1.00  0.00    -0.398 OA
HETATM   25  H20 UNL     1       1.653  55.608 -21.300  1.00  0.00     0.209 HD
ENDBRANCH  23  24
ENDBRANCH  15  23
BRANCH  17  26
HETATM   26  O5  UNL     1      -1.185  51.045 -25.191  1.00  0.00    -0.359 OA
HETATM   27  H21 UNL     1      -0.330  51.483 -25.325  1.00  0.00     0.217 HD
ENDBRANCH  17  26
BRANCH  11  28
HETATM   28  O2  UNL     1      -2.108  50.459 -19.767  1.00  0.00    -0.357 OA
HETATM   29  H14 UNL     1      -1.485  51.100 -19.372  1.00  0.00     0.217 HD
ENDBRANCH  11  28
TORSDOF 4
ENDMDL
MODEL 9
REMARK minimizedAffinity -8.01258183
REMARK  4 active torsions:
REMARK  status: ('A' for Active; 'I' for Inactive)
REMARK    1  A    between atoms: C10_11  and  O2_12 
REMARK    2  A    between atoms: C14_16  and  C15_17 
REMARK    3  A    between atoms: C15_17  and  O3_18 
REMARK    4  A    between atoms: C16_20  and  O5_21 
ROOT
HETATM    1  C1  UNL     1      -0.096  53.541 -27.420  1.00  0.00     0.023 C 
HETATM    2  C2  UNL     1       0.285  52.118 -26.992  1.00  0.00     0.018 C 
HETATM    3  C3  UNL     1       0.571  51.299 -28.271  1.00  0.00     0.023 C 
HETATM    4  C4  UNL     1       1.600  52.179 -26.188  1.00  0.00     0.135 C 
HETATM    5  O1  UNL     1       2.688  52.387 -26.728  1.00  0.00    -0.297 OA
HETATM    6  C5  UNL     1       1.518  51.959 -24.690  1.00  0.00     0.080 C 
HETATM    7  C6  UNL     1       0.269  52.647 -24.169  1.00  0.00     0.022 C 
HETATM    8  C7  UNL     1      -1.047  51.988 -24.678  1.00  0.00    -0.007 C 
HETATM    9  C8  UNL     1      -2.125  53.105 -24.607  1.00  0.00     0.021 C 
HETATM   10  C9  UNL     1      -1.625  50.781 -23.894  1.00  0.00     0.003 A 
HETATM   11  C10 UNL     1      -1.258  50.408 -22.594  1.00  0.00     0.107 A 
HETATM   12  C11 UNL     1      -1.843  49.295 -22.004  1.00  0.00     0.112 A 
HETATM   13  C12 UNL     1      -2.790  48.520 -22.641  1.00  0.00     0.015 A 
HETATM   14  C13 UNL     1      -3.232  47.440 -21.731  1.00  0.00     0.079 C 
HETATM   15  C14 UNL     1      -2.129  47.544 -20.664  1.00  0.00     0.157 C 
HETATM   16  O4  UNL     1      -1.531  48.865 -20.735  1.00  0.00    -0.340 OA
HETATM   17  C16 UNL     1      -3.194  48.850 -23.918  1.00  0.00     0.089 A 
HETATM   18  C17 UNL     1      -2.626  49.978 -24.545  1.00  0.00     0.053 A 
HETATM   19  C18 UNL     1      -3.088  50.368 -25.917  1.00  0.00     0.163 C 
HETATM   20  O6  UNL     1      -4.231  50.142 -26.304  1.00  0.00    -0.292 OA
HETATM   21  C19 UNL     1      -2.119  51.107 -26.818  1.00  0.00     0.091 C 
HETATM   22  C20 UNL     1      -0.788  51.393 -26.117  1.00  0.00     0.021 C 
ENDROOT
BRANCH  15  23
HETATM   23  C15 UNL     1      -2.655  47.291 -19.254  1.00  0.00     0.196 C 
BRANCH  23  24
HETATM   24  O3  UNL     1      -1.723  47.727 -18.274  1.00  0.00    -0.398 OA
HETATM   25  H20 UNL     1      -1.816  48.693 -18.187  1.00  0.00     0.209 HD
ENDBRANCH  23  24
ENDBRANCH  15  23
BRANCH  17  26
HETATM   26  O5  UNL     1      -4.092  48.059 -24.569  1.00  0.00    -0.359 OA
HETATM   27  H21 UNL     1      -4.606  47.540 -23.931  1.00  0.00     0.217 HD
ENDBRANCH  17  26
BRANCH  11  28
HETATM   28  O2  UNL     1      -0.336  51.087 -21.860  1.00  0.00    -0.357 OA
HETATM   29  H14 UNL     1      -0.288  50.643 -20.990  1.00  0.00     0.217 HD
ENDBRANCH  11  28
TORSDOF 4
ENDMDL
