MODEL 1
REMARK minimizedAffinity -8.90423775
REMARK  13 active torsions:
REMARK  status: ('A' for Active; 'I' for Inactive)
REMARK    1  A    between atoms: C4_4  and  C5_5 
REMARK    2  A    between atoms: C5_5  and  C6_6 
REMARK    3  A    between atoms: C6_6  and  C7_7 
REMARK    4  A    between atoms: C7_7  and  O1_9 
REMARK    5  A    between atoms: C7_7  and  C9_10 
REMARK    6  A    between atoms: C9_10  and  O2_11 
REMARK    7  A    between atoms: C9_10  and  C10_12 
REMARK    8  A    between atoms: C10_12  and  C11_13 
REMARK    9  A    between atoms: C11_13  and  C12_14 
REMARK   10  A    between atoms: C14_16  and  C15_17 
REMARK   11  A    between atoms: C15_17  and  C16_18 
REMARK   12  A    between atoms: C16_18  and  C17_19 
REMARK   13  A    between atoms: C23_25  and  O3_26 
ROOT
HETATM    1  C12 UNL     1      -3.316  49.271 -26.285  1.00  0.00    -0.087 C 
HETATM    2  C13 UNL     1      -3.187  48.617 -24.934  1.00  0.00     0.043 C 
HETATM    3  C14 UNL     1      -3.206  50.600 -26.502  1.00  0.00    -0.024 C 
ENDROOT
BRANCH   1   4
HETATM    4  C11 UNL     1      -3.632  48.291 -27.410  1.00  0.00     0.036 C 
BRANCH   4   5
HETATM    5  C10 UNL     1      -5.091  48.104 -27.834  1.00  0.00     0.039 C 
BRANCH   5   6
HETATM    6  C9  UNL     1      -5.380  47.949 -29.336  1.00  0.00     0.152 C 
BRANCH   6   7
HETATM    7  C7  UNL     1      -6.856  47.719 -29.803  1.00  0.00     0.080 C 
HETATM    8  C8  UNL     1      -7.878  48.095 -28.729  1.00  0.00     0.048 C 
BRANCH   7   9
HETATM    9  C6  UNL     1      -7.150  48.410 -31.158  1.00  0.00     0.044 C 
BRANCH   9  10
HETATM   10  C5  UNL     1      -6.944  47.570 -32.429  1.00  0.00     0.030 C 
BRANCH  10  11
HETATM   11  C4  UNL     1      -5.656  47.855 -33.151  1.00  0.00    -0.025 C 
HETATM   12  C2  UNL     1      -4.495  47.175 -33.066  1.00  0.00    -0.091 C 
HETATM   13  C1  UNL     1      -4.276  45.935 -32.245  1.00  0.00     0.042 C 
HETATM   14  C3  UNL     1      -3.287  47.627 -33.843  1.00  0.00     0.042 C 
ENDBRANCH  10  11
ENDBRANCH   9  10
ENDBRANCH   7   9
BRANCH   7  15
HETATM   15  O1  UNL     1      -6.985  46.292 -29.974  1.00  0.00    -0.388 OA
HETATM   16  H15 UNL     1      -6.177  46.032 -30.465  1.00  0.00     0.210 HD
ENDBRANCH   7  15
ENDBRANCH   6   7
BRANCH   6  17
HETATM   17  O2  UNL     1      -4.939  49.177 -29.970  1.00  0.00    -0.393 OA
HETATM   18  H17 UNL     1      -3.980  49.248 -29.815  1.00  0.00     0.210 HD
ENDBRANCH   6  17
ENDBRANCH   5   6
ENDBRANCH   4   5
ENDBRANCH   1   4
BRANCH   3  19
HETATM   19  C15 UNL     1      -2.917  51.787 -25.608  1.00  0.00     0.030 C 
BRANCH  19  20
HETATM   20  C16 UNL     1      -1.621  52.578 -25.786  1.00  0.00     0.042 C 
BRANCH  20  21
HETATM   21  C17 UNL     1      -0.313  51.928 -25.250  1.00  0.00     0.065 C 
HETATM   22  C18 UNL     1       0.067  50.825 -26.267  1.00  0.00     0.046 C 
HETATM   23  C19 UNL     1       0.894  52.876 -25.150  1.00  0.00     0.043 C 
HETATM   24  C20 UNL     1       0.903  53.738 -23.904  1.00  0.00     0.044 C 
HETATM   25  C21 UNL     1       0.477  52.949 -22.707  1.00  0.00    -0.021 A 
HETATM   26  C22 UNL     1       0.776  53.434 -21.426  1.00  0.00     0.046 A 
HETATM   27  C27 UNL     1      -0.237  51.755 -22.837  1.00  0.00     0.082 A 
HETATM   28  C23 UNL     1       0.387  52.719 -20.300  1.00  0.00     0.066 A 
HETATM   29  C24 UNL     1      -0.311  51.524 -20.420  1.00  0.00     0.046 A 
HETATM   30  C25 UNL     1      -0.631  51.032 -21.694  1.00  0.00    -0.025 A 
HETATM   31  C26 UNL     1      -1.397  49.745 -21.830  1.00  0.00     0.051 C 
HETATM   32  O4  UNL     1      -0.594  51.213 -24.039  1.00  0.00    -0.340 OA
BRANCH  28  33
HETATM   33  O3  UNL     1       0.719  53.229 -19.078  1.00  0.00    -0.361 OA
HETATM   34  H38 UNL     1       0.402  52.618 -18.394  1.00  0.00     0.217 HD
ENDBRANCH  28  33
ENDBRANCH  20  21
ENDBRANCH  19  20
ENDBRANCH   3  19
TORSDOF 13
ENDMDL
MODEL 2
REMARK minimizedAffinity -8.7980423
REMARK  13 active torsions:
REMARK  status: ('A' for Active; 'I' for Inactive)
REMARK    1  A    between atoms: C4_4  and  C5_5 
REMARK    2  A    between atoms: C5_5  and  C6_6 
REMARK    3  A    between atoms: C6_6  and  C7_7 
REMARK    4  A    between atoms: C7_7  and  O1_9 
REMARK    5  A    between atoms: C7_7  and  C9_10 
REMARK    6  A    between atoms: C9_10  and  O2_11 
REMARK    7  A    between atoms: C9_10  and  C10_12 
REMARK    8  A    between atoms: C10_12  and  C11_13 
REMARK    9  A    between atoms: C11_13  and  C12_14 
REMARK   10  A    between atoms: C14_16  and  C15_17 
REMARK   11  A    between atoms: C15_17  and  C16_18 
REMARK   12  A    between atoms: C16_18  and  C17_19 
REMARK   13  A    between atoms: C23_25  and  O3_26 
ROOT
HETATM    1  C12 UNL     1      -4.869  48.248 -26.036  1.00  0.00    -0.087 C 
HETATM    2  C13 UNL     1      -6.087  48.117 -25.158  1.00  0.00     0.043 C 
HETATM    3  C14 UNL     1      -3.622  48.497 -25.579  1.00  0.00    -0.024 C 
ENDROOT
BRANCH   1   4
HETATM    4  C11 UNL     1      -5.173  48.117 -27.524  1.00  0.00     0.036 C 
BRANCH   4   5
HETATM    5  C10 UNL     1      -6.544  47.585 -27.950  1.00  0.00     0.039 C 
BRANCH   5   6
HETATM    6  C9  UNL     1      -6.991  47.850 -29.398  1.00  0.00     0.152 C 
BRANCH   6   7
HETATM    7  C7  UNL     1      -8.419  48.435 -29.655  1.00  0.00     0.080 C 
HETATM    8  C8  UNL     1      -8.466  49.362 -30.871  1.00  0.00     0.048 C 
BRANCH   7   9
HETATM    9  C6  UNL     1      -9.497  47.324 -29.723  1.00  0.00     0.044 C 
BRANCH   9  10
HETATM   10  C5  UNL     1     -10.821  47.678 -30.418  1.00  0.00     0.030 C 
BRANCH  10  11
HETATM   11  C4  UNL     1     -11.996  46.863 -29.952  1.00  0.00    -0.025 C 
HETATM   12  C2  UNL     1     -12.743  47.050 -28.847  1.00  0.00    -0.091 C 
HETATM   13  C1  UNL     1     -12.570  48.175 -27.864  1.00  0.00     0.042 C 
HETATM   14  C3  UNL     1     -13.870  46.107 -28.518  1.00  0.00     0.042 C 
ENDBRANCH  10  11
ENDBRANCH   9  10
ENDBRANCH   7   9
BRANCH   7  15
HETATM   15  O1  UNL     1      -8.697  49.278 -28.518  1.00  0.00    -0.388 OA
HETATM   16  H15 UNL     1      -8.424  48.742 -27.744  1.00  0.00     0.210 HD
ENDBRANCH   7  15
ENDBRANCH   6   7
BRANCH   6  17
HETATM   17  O2  UNL     1      -6.052  48.809 -29.949  1.00  0.00    -0.393 OA
HETATM   18  H17 UNL     1      -5.175  48.387 -29.938  1.00  0.00     0.210 HD
ENDBRANCH   6  17
ENDBRANCH   5   6
ENDBRANCH   4   5
ENDBRANCH   1   4
BRANCH   3  19
HETATM   19  C15 UNL     1      -3.032  48.683 -24.197  1.00  0.00     0.030 C 
BRANCH  19  20
HETATM   20  C16 UNL     1      -3.520  49.824 -23.307  1.00  0.00     0.042 C 
BRANCH  20  21
HETATM   21  C17 UNL     1      -3.313  51.274 -23.832  1.00  0.00     0.065 C 
HETATM   22  C18 UNL     1      -4.725  51.897 -23.945  1.00  0.00     0.046 C 
HETATM   23  C19 UNL     1      -2.495  52.193 -22.908  1.00  0.00     0.043 C 
HETATM   24  C20 UNL     1      -0.994  52.017 -23.030  1.00  0.00     0.044 C 
HETATM   25  C21 UNL     1      -0.592  51.852 -24.461  1.00  0.00    -0.021 A 
HETATM   26  C22 UNL     1       0.747  52.055 -24.822  1.00  0.00     0.046 A 
HETATM   27  C27 UNL     1      -1.514  51.472 -25.439  1.00  0.00     0.082 A 
HETATM   28  C23 UNL     1       1.145  51.905 -26.145  1.00  0.00     0.066 A 
HETATM   29  C24 UNL     1       0.231  51.541 -27.127  1.00  0.00     0.046 A 
HETATM   30  C25 UNL     1      -1.110  51.319 -26.780  1.00  0.00    -0.025 A 
HETATM   31  C26 UNL     1      -2.100  50.914 -27.836  1.00  0.00     0.051 C 
HETATM   32  O4  UNL     1      -2.834  51.231 -25.183  1.00  0.00    -0.340 OA
BRANCH  28  33
HETATM   33  O3  UNL     1       2.457  52.131 -26.444  1.00  0.00    -0.361 OA
HETATM   34  H38 UNL     1       2.581  52.008 -27.399  1.00  0.00     0.217 HD
ENDBRANCH  28  33
ENDBRANCH  20  21
ENDBRANCH  19  20
ENDBRANCH   3  19
TORSDOF 13
ENDMDL
MODEL 3
REMARK minimizedAffinity -8.76386929
REMARK  13 active torsions:
REMARK  status: ('A' for Active; 'I' for Inactive)
REMARK    1  A    between atoms: C4_4  and  C5_5 
REMARK    2  A    between atoms: C5_5  and  C6_6 
REMARK    3  A    between atoms: C6_6  and  C7_7 
REMARK    4  A    between atoms: C7_7  and  O1_9 
REMARK    5  A    between atoms: C7_7  and  C9_10 
REMARK    6  A    between atoms: C9_10  and  O2_11 
REMARK    7  A    between atoms: C9_10  and  C10_12 
REMARK    8  A    between atoms: C10_12  and  C11_13 
REMARK    9  A    between atoms: C11_13  and  C12_14 
REMARK   10  A    between atoms: C14_16  and  C15_17 
REMARK   11  A    between atoms: C15_17  and  C16_18 
REMARK   12  A    between atoms: C16_18  and  C17_19 
REMARK   13  A    between atoms: C23_25  and  O3_26 
ROOT
HETATM    1  C12 UNL     1      -4.138  48.475 -25.572  1.00  0.00    -0.087 C 
HETATM    2  C13 UNL     1      -5.560  48.289 -25.109  1.00  0.00     0.043 C 
HETATM    3  C14 UNL     1      -3.115  48.836 -24.767  1.00  0.00    -0.024 C 
ENDROOT
BRANCH   1   4
HETATM    4  C11 UNL     1      -3.951  48.259 -27.070  1.00  0.00     0.036 C 
BRANCH   4   5
HETATM    5  C10 UNL     1      -5.187  47.995 -27.934  1.00  0.00     0.039 C 
BRANCH   5   6
HETATM    6  C9  UNL     1      -5.014  48.068 -29.461  1.00  0.00     0.152 C 
BRANCH   6   7
HETATM    7  C7  UNL     1      -6.246  47.763 -30.377  1.00  0.00     0.080 C 
HETATM    8  C8  UNL     1      -5.838  47.293 -31.775  1.00  0.00     0.048 C 
BRANCH   7   9
HETATM    9  C6  UNL     1      -7.245  46.790 -29.701  1.00  0.00     0.044 C 
BRANCH   9  10
HETATM   10  C5  UNL     1      -8.453  46.339 -30.536  1.00  0.00     0.030 C 
BRANCH  10  11
HETATM   11  C4  UNL     1      -9.780  46.787 -29.989  1.00  0.00    -0.025 C 
HETATM   12  C2  UNL     1     -10.934  46.962 -30.664  1.00  0.00    -0.091 C 
HETATM   13  C1  UNL     1     -11.131  46.686 -32.128  1.00  0.00     0.042 C 
HETATM   14  C3  UNL     1     -12.167  47.454 -29.953  1.00  0.00     0.042 C 
ENDBRANCH  10  11
ENDBRANCH   9  10
ENDBRANCH   7   9
BRANCH   7  15
HETATM   15  O1  UNL     1      -6.900  49.034 -30.574  1.00  0.00    -0.388 OA
HETATM   16  H15 UNL     1      -6.932  49.432 -29.679  1.00  0.00     0.210 HD
ENDBRANCH   7  15
ENDBRANCH   6   7
BRANCH   6  17
HETATM   17  O2  UNL     1      -4.606  49.426 -29.765  1.00  0.00    -0.393 OA
HETATM   18  H17 UNL     1      -3.752  49.573 -29.321  1.00  0.00     0.210 HD
ENDBRANCH   6  17
ENDBRANCH   5   6
ENDBRANCH   4   5
ENDBRANCH   1   4
BRANCH   3  19
HETATM   19  C15 UNL     1      -3.000  49.123 -23.285  1.00  0.00     0.030 C 
BRANCH  19  20
HETATM   20  C16 UNL     1      -1.885  50.032 -22.769  1.00  0.00     0.042 C 
BRANCH  20  21
HETATM   21  C17 UNL     1      -1.788  51.457 -23.386  1.00  0.00     0.065 C 
HETATM   22  C18 UNL     1      -3.159  52.130 -23.132  1.00  0.00     0.046 C 
HETATM   23  C19 UNL     1      -0.723  52.370 -22.757  1.00  0.00     0.043 C 
HETATM   24  C20 UNL     1       0.681  52.134 -23.277  1.00  0.00     0.044 C 
HETATM   25  C21 UNL     1       0.671  51.912 -24.756  1.00  0.00    -0.021 A 
HETATM   26  C22 UNL     1       1.865  52.054 -25.477  1.00  0.00     0.046 A 
HETATM   27  C27 UNL     1      -0.495  51.540 -25.430  1.00  0.00     0.082 A 
HETATM   28  C23 UNL     1       1.880  51.850 -26.852  1.00  0.00     0.066 A 
HETATM   29  C24 UNL     1       0.722  51.494 -27.532  1.00  0.00     0.046 A 
HETATM   30  C25 UNL     1      -0.478  51.333 -26.823  1.00  0.00    -0.025 A 
HETATM   31  C26 UNL     1      -1.731  50.935 -27.552  1.00  0.00     0.051 C 
HETATM   32  O4  UNL     1      -1.700  51.356 -24.814  1.00  0.00    -0.340 OA
BRANCH  28  33
HETATM   33  O3  UNL     1       3.066  52.018 -27.506  1.00  0.00    -0.361 OA
HETATM   34  H38 UNL     1       2.919  51.862 -28.453  1.00  0.00     0.217 HD
ENDBRANCH  28  33
ENDBRANCH  20  21
ENDBRANCH  19  20
ENDBRANCH   3  19
TORSDOF 13
ENDMDL
MODEL 4
REMARK minimizedAffinity -8.7061615
REMARK  13 active torsions:
REMARK  status: ('A' for Active; 'I' for Inactive)
REMARK    1  A    between atoms: C4_4  and  C5_5 
REMARK    2  A    between atoms: C5_5  and  C6_6 
REMARK    3  A    between atoms: C6_6  and  C7_7 
REMARK    4  A    between atoms: C7_7  and  O1_9 
REMARK    5  A    between atoms: C7_7  and  C9_10 
REMARK    6  A    between atoms: C9_10  and  O2_11 
REMARK    7  A    between atoms: C9_10  and  C10_12 
REMARK    8  A    between atoms: C10_12  and  C11_13 
REMARK    9  A    between atoms: C11_13  and  C12_14 
REMARK   10  A    between atoms: C14_16  and  C15_17 
REMARK   11  A    between atoms: C15_17  and  C16_18 
REMARK   12  A    between atoms: C16_18  and  C17_19 
REMARK   13  A    between atoms: C23_25  and  O3_26 
ROOT
HETATM    1  C12 UNL     1      -4.462  48.459 -25.897  1.00  0.00    -0.087 C 
HETATM    2  C13 UNL     1      -5.848  48.168 -25.382  1.00  0.00     0.043 C 
HETATM    3  C14 UNL     1      -3.420  48.821 -25.118  1.00  0.00    -0.024 C 
ENDROOT
BRANCH   1   4
HETATM    4  C11 UNL     1      -4.339  48.350 -27.413  1.00  0.00     0.036 C 
BRANCH   4   5
HETATM    5  C10 UNL     1      -5.568  47.926 -28.222  1.00  0.00     0.039 C 
BRANCH   5   6
HETATM    6  C9  UNL     1      -5.441  47.917 -29.755  1.00  0.00     0.152 C 
BRANCH   6   7
HETATM    7  C7  UNL     1      -6.743  47.852 -30.621  1.00  0.00     0.080 C 
HETATM    8  C8  UNL     1      -6.461  47.996 -32.118  1.00  0.00     0.048 C 
BRANCH   7   9
HETATM    9  C6  UNL     1      -7.589  46.594 -30.303  1.00  0.00     0.044 C 
BRANCH   9  10
HETATM   10  C5  UNL     1      -6.852  45.394 -29.688  1.00  0.00     0.030 C 
BRANCH  10  11
HETATM   11  C4  UNL     1      -6.973  44.124 -30.486  1.00  0.00    -0.025 C 
HETATM   12  C2  UNL     1      -6.271  43.767 -31.579  1.00  0.00    -0.091 C 
HETATM   13  C1  UNL     1      -5.164  44.574 -32.199  1.00  0.00     0.042 C 
HETATM   14  C3  UNL     1      -6.553  42.461 -32.275  1.00  0.00     0.042 C 
ENDBRANCH  10  11
ENDBRANCH   9  10
ENDBRANCH   7   9
BRANCH   7  15
HETATM   15  O1  UNL     1      -7.503  49.024 -30.258  1.00  0.00    -0.388 OA
HETATM   16  H15 UNL     1      -7.462  49.046 -29.279  1.00  0.00     0.210 HD
ENDBRANCH   7  15
ENDBRANCH   6   7
BRANCH   6  17
HETATM   17  O2  UNL     1      -4.769  49.149 -30.120  1.00  0.00    -0.393 OA
HETATM   18  H17 UNL     1      -3.888  49.125 -29.707  1.00  0.00     0.210 HD
ENDBRANCH   6  17
ENDBRANCH   5   6
ENDBRANCH   4   5
ENDBRANCH   1   4
BRANCH   3  19
HETATM   19  C15 UNL     1      -3.246  49.018 -23.627  1.00  0.00     0.030 C 
BRANCH  19  20
HETATM   20  C16 UNL     1      -2.095  49.874 -23.100  1.00  0.00     0.042 C 
BRANCH  20  21
HETATM   21  C17 UNL     1      -1.974  51.321 -23.656  1.00  0.00     0.065 C 
HETATM   22  C18 UNL     1      -3.356  51.983 -23.438  1.00  0.00     0.046 C 
HETATM   23  C19 UNL     1      -0.939  52.210 -22.946  1.00  0.00     0.043 C 
HETATM   24  C20 UNL     1       0.487  51.995 -23.412  1.00  0.00     0.044 C 
HETATM   25  C21 UNL     1       0.543  51.832 -24.898  1.00  0.00    -0.021 A 
HETATM   26  C22 UNL     1       1.767  52.002 -25.559  1.00  0.00     0.046 A 
HETATM   27  C27 UNL     1      -0.591  51.485 -25.636  1.00  0.00     0.082 A 
HETATM   28  C23 UNL     1       1.842  51.852 -26.939  1.00  0.00     0.066 A 
HETATM   29  C24 UNL     1       0.717  51.521 -27.682  1.00  0.00     0.046 A 
HETATM   30  C25 UNL     1      -0.513  51.332 -27.034  1.00  0.00    -0.025 A 
HETATM   31  C26 UNL     1      -1.732  50.963 -27.833  1.00  0.00     0.051 C 
HETATM   32  O4  UNL     1      -1.823  51.277 -25.082  1.00  0.00    -0.340 OA
BRANCH  28  33
HETATM   33  O3  UNL     1       3.056  52.046 -27.532  1.00  0.00    -0.361 OA
HETATM   34  H38 UNL     1       2.952  51.927 -28.490  1.00  0.00     0.217 HD
ENDBRANCH  28  33
ENDBRANCH  20  21
ENDBRANCH  19  20
ENDBRANCH   3  19
TORSDOF 13
ENDMDL
MODEL 5
REMARK minimizedAffinity -8.60003948
REMARK  13 active torsions:
REMARK  status: ('A' for Active; 'I' for Inactive)
REMARK    1  A    between atoms: C4_4  and  C5_5 
REMARK    2  A    between atoms: C5_5  and  C6_6 
REMARK    3  A    between atoms: C6_6  and  C7_7 
REMARK    4  A    between atoms: C7_7  and  O1_9 
REMARK    5  A    between atoms: C7_7  and  C9_10 
REMARK    6  A    between atoms: C9_10  and  O2_11 
REMARK    7  A    between atoms: C9_10  and  C10_12 
REMARK    8  A    between atoms: C10_12  and  C11_13 
REMARK    9  A    between atoms: C11_13  and  C12_14 
REMARK   10  A    between atoms: C14_16  and  C15_17 
REMARK   11  A    between atoms: C15_17  and  C16_18 
REMARK   12  A    between atoms: C16_18  and  C17_19 
REMARK   13  A    between atoms: C23_25  and  O3_26 
ROOT
HETATM    1  C12 UNL     1      -1.283  51.376 -22.945  1.00  0.00    -0.087 C 
HETATM    2  C13 UNL     1      -2.637  52.031 -22.852  1.00  0.00     0.043 C 
HETATM    3  C14 UNL     1      -0.977  50.178 -22.400  1.00  0.00    -0.024 C 
ENDROOT
BRANCH   1   4
HETATM    4  C11 UNL     1      -0.249  52.216 -23.685  1.00  0.00     0.036 C 
BRANCH   4   5
HETATM    5  C10 UNL     1      -0.736  53.333 -24.613  1.00  0.00     0.039 C 
BRANCH   5   6
HETATM    6  C9  UNL     1       0.058  53.578 -25.907  1.00  0.00     0.152 C 
BRANCH   6   7
HETATM    7  C7  UNL     1      -0.550  53.103 -27.269  1.00  0.00     0.080 C 
HETATM    8  C8  UNL     1       0.471  52.378 -28.148  1.00  0.00     0.048 C 
BRANCH   7   9
HETATM    9  C6  UNL     1      -1.843  52.274 -27.068  1.00  0.00     0.044 C 
BRANCH   9  10
HETATM   10  C5  UNL     1      -1.714  50.745 -27.162  1.00  0.00     0.030 C 
BRANCH  10  11
HETATM   11  C4  UNL     1      -2.287  50.007 -25.984  1.00  0.00    -0.025 C 
HETATM   12  C2  UNL     1      -3.225  49.040 -25.993  1.00  0.00    -0.091 C 
HETATM   13  C1  UNL     1      -3.862  48.463 -27.227  1.00  0.00     0.042 C 
HETATM   14  C3  UNL     1      -3.707  48.431 -24.702  1.00  0.00     0.042 C 
ENDBRANCH  10  11
ENDBRANCH   9  10
ENDBRANCH   7   9
BRANCH   7  15
HETATM   15  O1  UNL     1      -0.882  54.312 -27.982  1.00  0.00    -0.388 OA
HETATM   16  H15 UNL     1      -1.330  54.873 -27.314  1.00  0.00     0.210 HD
ENDBRANCH   7  15
ENDBRANCH   6   7
BRANCH   6  17
HETATM   17  O2  UNL     1       0.234  55.013 -26.017  1.00  0.00    -0.393 OA
HETATM   18  H17 UNL     1       0.752  55.297 -25.244  1.00  0.00     0.210 HD
ENDBRANCH   6  17
ENDBRANCH   5   6
ENDBRANCH   4   5
ENDBRANCH   1   4
BRANCH   3  19
HETATM   19  C15 UNL     1      -1.768  49.149 -21.621  1.00  0.00     0.030 C 
BRANCH  19  20
HETATM   20  C16 UNL     1      -1.456  48.905 -20.145  1.00  0.00     0.042 C 
BRANCH  20  21
HETATM   21  C17 UNL     1      -1.948  49.975 -19.129  1.00  0.00     0.065 C 
HETATM   22  C18 UNL     1      -3.378  50.366 -19.575  1.00  0.00     0.046 C 
HETATM   23  C19 UNL     1      -2.055  49.493 -17.672  1.00  0.00     0.043 C 
HETATM   24  C20 UNL     1      -0.739  49.497 -16.920  1.00  0.00     0.044 C 
HETATM   25  C21 UNL     1       0.054  50.724 -17.241  1.00  0.00    -0.021 A 
HETATM   26  C22 UNL     1       1.098  51.106 -16.387  1.00  0.00     0.046 A 
HETATM   27  C27 UNL     1      -0.205  51.480 -18.386  1.00  0.00     0.082 A 
HETATM   28  C23 UNL     1       1.849  52.241 -16.667  1.00  0.00     0.066 A 
HETATM   29  C24 UNL     1       1.590  53.007 -17.796  1.00  0.00     0.046 A 
HETATM   30  C25 UNL     1       0.559  52.630 -18.669  1.00  0.00    -0.025 A 
HETATM   31  C26 UNL     1       0.282  53.448 -19.900  1.00  0.00     0.051 C 
HETATM   32  O4  UNL     1      -1.184  51.178 -19.290  1.00  0.00    -0.340 OA
BRANCH  28  33
HETATM   33  O3  UNL     1       2.843  52.576 -15.792  1.00  0.00    -0.361 OA
HETATM   34  H38 UNL     1       3.264  53.393 -16.105  1.00  0.00     0.217 HD
ENDBRANCH  28  33
ENDBRANCH  20  21
ENDBRANCH  19  20
ENDBRANCH   3  19
TORSDOF 13
ENDMDL
MODEL 6
REMARK minimizedAffinity -8.5873127
REMARK  13 active torsions:
REMARK  status: ('A' for Active; 'I' for Inactive)
REMARK    1  A    between atoms: C4_4  and  C5_5 
REMARK    2  A    between atoms: C5_5  and  C6_6 
REMARK    3  A    between atoms: C6_6  and  C7_7 
REMARK    4  A    between atoms: C7_7  and  O1_9 
REMARK    5  A    between atoms: C7_7  and  C9_10 
REMARK    6  A    between atoms: C9_10  and  O2_11 
REMARK    7  A    between atoms: C9_10  and  C10_12 
REMARK    8  A    between atoms: C10_12  and  C11_13 
REMARK    9  A    between atoms: C11_13  and  C12_14 
REMARK   10  A    between atoms: C14_16  and  C15_17 
REMARK   11  A    between atoms: C15_17  and  C16_18 
REMARK   12  A    between atoms: C16_18  and  C17_19 
REMARK   13  A    between atoms: C23_25  and  O3_26 
ROOT
HETATM    1  C12 UNL     1      -4.266  48.365 -26.656  1.00  0.00    -0.087 C 
HETATM    2  C13 UNL     1      -2.767  48.514 -26.633  1.00  0.00     0.043 C 
HETATM    3  C14 UNL     1      -5.051  48.384 -25.556  1.00  0.00    -0.024 C 
ENDROOT
BRANCH   1   4
HETATM    4  C11 UNL     1      -4.836  48.140 -28.052  1.00  0.00     0.036 C 
BRANCH   4   5
HETATM    5  C10 UNL     1      -6.324  47.808 -28.194  1.00  0.00     0.039 C 
BRANCH   5   6
HETATM    6  C9  UNL     1      -6.955  47.959 -29.589  1.00  0.00     0.152 C 
BRANCH   6   7
HETATM    7  C7  UNL     1      -8.419  48.499 -29.702  1.00  0.00     0.080 C 
HETATM    8  C8  UNL     1      -8.584  49.523 -30.827  1.00  0.00     0.048 C 
BRANCH   7   9
HETATM    9  C6  UNL     1      -9.455  47.351 -29.800  1.00  0.00     0.044 C 
BRANCH   9  10
HETATM   10  C5  UNL     1     -10.742  47.637 -30.589  1.00  0.00     0.030 C 
BRANCH  10  11
HETATM   11  C4  UNL     1     -11.929  46.828 -30.143  1.00  0.00    -0.025 C 
HETATM   12  C2  UNL     1     -12.676  47.003 -29.035  1.00  0.00    -0.091 C 
HETATM   13  C1  UNL     1     -12.489  48.105 -28.029  1.00  0.00     0.042 C 
HETATM   14  C3  UNL     1     -13.817  46.069 -28.728  1.00  0.00     0.042 C 
ENDBRANCH  10  11
ENDBRANCH   9  10
ENDBRANCH   7   9
BRANCH   7  15
HETATM   15  O1  UNL     1      -8.654  49.229 -28.480  1.00  0.00    -0.388 OA
HETATM   16  H15 UNL     1      -8.308  48.641 -27.776  1.00  0.00     0.210 HD
ENDBRANCH   7  15
ENDBRANCH   6   7
BRANCH   6  17
HETATM   17  O2  UNL     1      -6.119  48.891 -30.321  1.00  0.00    -0.393 OA
HETATM   18  H17 UNL     1      -5.236  48.486 -30.391  1.00  0.00     0.210 HD
ENDBRANCH   6  17
ENDBRANCH   5   6
ENDBRANCH   4   5
ENDBRANCH   1   4
BRANCH   3  19
HETATM   19  C15 UNL     1      -4.778  48.573 -24.079  1.00  0.00     0.030 C 
BRANCH  19  20
HETATM   20  C16 UNL     1      -3.508  49.291 -23.624  1.00  0.00     0.042 C 
BRANCH  20  21
HETATM   21  C17 UNL     1      -3.644  50.788 -23.225  1.00  0.00     0.065 C 
HETATM   22  C18 UNL     1      -4.840  51.343 -24.035  1.00  0.00     0.046 C 
HETATM   23  C19 UNL     1      -3.958  51.043 -21.741  1.00  0.00     0.043 C 
HETATM   24  C20 UNL     1      -2.745  50.992 -20.833  1.00  0.00     0.044 C 
HETATM   25  C21 UNL     1      -1.573  51.666 -21.472  1.00  0.00    -0.021 A 
HETATM   26  C22 UNL     1      -0.491  52.060 -20.673  1.00  0.00     0.046 A 
HETATM   27  C27 UNL     1      -1.520  51.886 -22.851  1.00  0.00     0.082 A 
HETATM   28  C23 UNL     1       0.610  52.687 -21.245  1.00  0.00     0.066 A 
HETATM   29  C24 UNL     1       0.664  52.921 -22.613  1.00  0.00     0.046 A 
HETATM   30  C25 UNL     1      -0.403  52.520 -23.430  1.00  0.00    -0.025 A 
HETATM   31  C26 UNL     1      -0.344  52.761 -24.913  1.00  0.00     0.051 C 
HETATM   32  O4  UNL     1      -2.512  51.520 -23.715  1.00  0.00    -0.340 OA
BRANCH  28  33
HETATM   33  O3  UNL     1       1.627  53.064 -20.417  1.00  0.00    -0.361 OA
HETATM   34  H38 UNL     1       2.311  53.500 -20.950  1.00  0.00     0.217 HD
ENDBRANCH  28  33
ENDBRANCH  20  21
ENDBRANCH  19  20
ENDBRANCH   3  19
TORSDOF 13
ENDMDL
MODEL 7
REMARK minimizedAffinity -8.5300703
REMARK  13 active torsions:
REMARK  status: ('A' for Active; 'I' for Inactive)
REMARK    1  A    between atoms: C4_4  and  C5_5 
REMARK    2  A    between atoms: C5_5  and  C6_6 
REMARK    3  A    between atoms: C6_6  and  C7_7 
REMARK    4  A    between atoms: C7_7  and  O1_9 
REMARK    5  A    between atoms: C7_7  and  C9_10 
REMARK    6  A    between atoms: C9_10  and  O2_11 
REMARK    7  A    between atoms: C9_10  and  C10_12 
REMARK    8  A    between atoms: C10_12  and  C11_13 
REMARK    9  A    between atoms: C11_13  and  C12_14 
REMARK   10  A    between atoms: C14_16  and  C15_17 
REMARK   11  A    between atoms: C15_17  and  C16_18 
REMARK   12  A    between atoms: C16_18  and  C17_19 
REMARK   13  A    between atoms: C23_25  and  O3_26 
ROOT
HETATM    1  C12 UNL     1      -2.691  51.710 -22.676  1.00  0.00    -0.087 C 
HETATM    2  C13 UNL     1      -4.067  52.193 -23.059  1.00  0.00     0.043 C 
HETATM    3  C14 UNL     1      -2.331  51.348 -21.425  1.00  0.00    -0.024 C 
ENDROOT
BRANCH   1   4
HETATM    4  C11 UNL     1      -1.702  51.707 -23.836  1.00  0.00     0.036 C 
BRANCH   4   5
HETATM    5  C10 UNL     1      -1.162  53.046 -24.346  1.00  0.00     0.039 C 
BRANCH   5   6
HETATM    6  C9  UNL     1      -0.306  53.025 -25.624  1.00  0.00     0.152 C 
BRANCH   6   7
HETATM    7  C7  UNL     1      -1.014  52.830 -27.006  1.00  0.00     0.080 C 
HETATM    8  C8  UNL     1      -0.566  53.857 -28.047  1.00  0.00     0.048 C 
BRANCH   7   9
HETATM    9  C6  UNL     1      -0.882  51.376 -27.524  1.00  0.00     0.044 C 
BRANCH   9  10
HETATM   10  C5  UNL     1      -1.413  50.258 -26.612  1.00  0.00     0.030 C 
BRANCH  10  11
HETATM   11  C4  UNL     1      -2.677  49.612 -27.105  1.00  0.00    -0.025 C 
HETATM   12  C2  UNL     1      -3.546  48.856 -26.403  1.00  0.00    -0.091 C 
HETATM   13  C1  UNL     1      -3.436  48.549 -24.935  1.00  0.00     0.042 C 
HETATM   14  C3  UNL     1      -4.753  48.257 -27.075  1.00  0.00     0.042 C 
ENDBRANCH  10  11
ENDBRANCH   9  10
ENDBRANCH   7   9
BRANCH   7  15
HETATM   15  O1  UNL     1      -2.408  53.109 -26.765  1.00  0.00    -0.388 OA
HETATM   16  H15 UNL     1      -2.614  52.625 -25.938  1.00  0.00     0.210 HD
ENDBRANCH   7  15
ENDBRANCH   6   7
BRANCH   6  17
HETATM   17  O2  UNL     1       0.368  54.308 -25.689  1.00  0.00    -0.393 OA
HETATM   18  H17 UNL     1       0.937  54.371 -24.901  1.00  0.00     0.210 HD
ENDBRANCH   6  17
ENDBRANCH   5   6
ENDBRANCH   4   5
ENDBRANCH   1   4
BRANCH   3  19
HETATM   19  C15 UNL     1      -3.070  51.261 -20.107  1.00  0.00     0.030 C 
BRANCH  19  20
HETATM   20  C16 UNL     1      -2.294  51.008 -18.814  1.00  0.00     0.042 C 
BRANCH  20  21
HETATM   21  C17 UNL     1      -0.821  50.529 -18.952  1.00  0.00     0.065 C 
HETATM   22  C18 UNL     1      -0.835  49.395 -20.006  1.00  0.00     0.046 C 
HETATM   23  C19 UNL     1       0.168  51.592 -19.458  1.00  0.00     0.043 C 
HETATM   24  C20 UNL     1       0.660  52.542 -18.384  1.00  0.00     0.044 C 
HETATM   25  C21 UNL     1       0.944  51.807 -17.113  1.00  0.00    -0.021 A 
HETATM   26  C22 UNL     1       1.750  52.413 -16.139  1.00  0.00     0.046 A 
HETATM   27  C27 UNL     1       0.402  50.544 -16.864  1.00  0.00     0.082 A 
HETATM   28  C23 UNL     1       2.025  51.749 -14.949  1.00  0.00     0.066 A 
HETATM   29  C24 UNL     1       1.501  50.487 -14.699  1.00  0.00     0.046 A 
HETATM   30  C25 UNL     1       0.681  49.874 -15.657  1.00  0.00    -0.025 A 
HETATM   31  C26 UNL     1       0.101  48.513 -15.386  1.00  0.00     0.051 C 
HETATM   32  O4  UNL     1      -0.411  49.882 -17.739  1.00  0.00    -0.340 OA
BRANCH  28  33
HETATM   33  O3  UNL     1       2.829  52.379 -14.043  1.00  0.00    -0.361 OA
HETATM   34  H38 UNL     1       2.947  51.793 -13.278  1.00  0.00     0.217 HD
ENDBRANCH  28  33
ENDBRANCH  20  21
ENDBRANCH  19  20
ENDBRANCH   3  19
TORSDOF 13
ENDMDL
MODEL 8
REMARK minimizedAffinity -8.51849937
REMARK  13 active torsions:
REMARK  status: ('A' for Active; 'I' for Inactive)
REMARK    1  A    between atoms: C4_4  and  C5_5 
REMARK    2  A    between atoms: C5_5  and  C6_6 
REMARK    3  A    between atoms: C6_6  and  C7_7 
REMARK    4  A    between atoms: C7_7  and  O1_9 
REMARK    5  A    between atoms: C7_7  and  C9_10 
REMARK    6  A    between atoms: C9_10  and  O2_11 
REMARK    7  A    between atoms: C9_10  and  C10_12 
REMARK    8  A    between atoms: C10_12  and  C11_13 
REMARK    9  A    between atoms: C11_13  and  C12_14 
REMARK   10  A    between atoms: C14_16  and  C15_17 
REMARK   11  A    between atoms: C15_17  and  C16_18 
REMARK   12  A    between atoms: C16_18  and  C17_19 
REMARK   13  A    between atoms: C23_25  and  O3_26 
ROOT
HETATM    1  C12 UNL     1      -3.872  48.535 -25.653  1.00  0.00    -0.087 C 
HETATM    2  C13 UNL     1      -2.587  48.666 -26.429  1.00  0.00     0.043 C 
HETATM    3  C14 UNL     1      -3.965  48.632 -24.309  1.00  0.00    -0.024 C 
ENDROOT
BRANCH   1   4
HETATM    4  C11 UNL     1      -5.084  48.233 -26.528  1.00  0.00     0.036 C 
BRANCH   4   5
HETATM    5  C10 UNL     1      -4.882  48.084 -28.038  1.00  0.00     0.039 C 
BRANCH   5   6
HETATM    6  C9  UNL     1      -6.140  47.964 -28.915  1.00  0.00     0.152 C 
BRANCH   6   7
HETATM    7  C7  UNL     1      -6.021  48.236 -30.451  1.00  0.00     0.080 C 
HETATM    8  C8  UNL     1      -5.407  47.058 -31.211  1.00  0.00     0.048 C 
BRANCH   7   9
HETATM    9  C6  UNL     1      -7.368  48.690 -31.066  1.00  0.00     0.044 C 
BRANCH   9  10
HETATM   10  C5  UNL     1      -7.809  48.002 -32.368  1.00  0.00     0.030 C 
BRANCH  10  11
HETATM   11  C4  UNL     1      -8.940  47.027 -32.194  1.00  0.00    -0.025 C 
HETATM   12  C2  UNL     1      -9.966  47.100 -31.323  1.00  0.00    -0.091 C 
HETATM   13  C1  UNL     1     -10.209  48.232 -30.364  1.00  0.00     0.042 C 
HETATM   14  C3  UNL     1     -10.999  46.005 -31.265  1.00  0.00     0.042 C 
ENDBRANCH  10  11
ENDBRANCH   9  10
ENDBRANCH   7   9
BRANCH   7  15
HETATM   15  O1  UNL     1      -5.069  49.313 -30.576  1.00  0.00    -0.388 OA
HETATM   16  H15 UNL     1      -5.346  49.962 -29.895  1.00  0.00     0.210 HD
ENDBRANCH   7  15
ENDBRANCH   6   7
BRANCH   6  17
HETATM   17  O2  UNL     1      -6.609  46.598 -28.777  1.00  0.00    -0.393 OA
HETATM   18  H17 UNL     1      -6.836  46.468 -27.839  1.00  0.00     0.210 HD
ENDBRANCH   6  17
ENDBRANCH   5   6
ENDBRANCH   4   5
ENDBRANCH   1   4
BRANCH   3  19
HETATM   19  C15 UNL     1      -2.963  48.906 -23.207  1.00  0.00     0.030 C 
BRANCH  19  20
HETATM   20  C16 UNL     1      -1.994  50.081 -23.334  1.00  0.00     0.042 C 
BRANCH  20  21
HETATM   21  C17 UNL     1      -2.392  51.409 -22.629  1.00  0.00     0.065 C 
HETATM   22  C18 UNL     1      -3.322  52.157 -23.616  1.00  0.00     0.046 C 
HETATM   23  C19 UNL     1      -3.179  51.243 -21.318  1.00  0.00     0.043 C 
HETATM   24  C20 UNL     1      -2.313  50.952 -20.108  1.00  0.00     0.044 C 
HETATM   25  C21 UNL     1      -1.071  51.785 -20.130  1.00  0.00    -0.021 A 
HETATM   26  C22 UNL     1      -0.338  51.950 -18.946  1.00  0.00     0.046 A 
HETATM   27  C27 UNL     1      -0.610  52.377 -21.308  1.00  0.00     0.082 A 
HETATM   28  C23 UNL     1       0.820  52.718 -18.943  1.00  0.00     0.066 A 
HETATM   29  C24 UNL     1       1.278  53.322 -20.108  1.00  0.00     0.046 A 
HETATM   30  C25 UNL     1       0.565  53.153 -21.304  1.00  0.00    -0.025 A 
HETATM   31  C26 UNL     1       1.063  53.795 -22.570  1.00  0.00     0.051 C 
HETATM   32  O4  UNL     1      -1.240  52.256 -22.514  1.00  0.00    -0.340 OA
BRANCH  28  33
HETATM   33  O3  UNL     1       1.485  52.860 -17.759  1.00  0.00    -0.361 OA
HETATM   34  H38 UNL     1       2.256  53.431 -17.907  1.00  0.00     0.217 HD
ENDBRANCH  28  33
ENDBRANCH  20  21
ENDBRANCH  19  20
ENDBRANCH   3  19
TORSDOF 13
ENDMDL
MODEL 9
REMARK minimizedAffinity -8.50214291
REMARK  13 active torsions:
REMARK  status: ('A' for Active; 'I' for Inactive)
REMARK    1  A    between atoms: C4_4  and  C5_5 
REMARK    2  A    between atoms: C5_5  and  C6_6 
REMARK    3  A    between atoms: C6_6  and  C7_7 
REMARK    4  A    between atoms: C7_7  and  O1_9 
REMARK    5  A    between atoms: C7_7  and  C9_10 
REMARK    6  A    between atoms: C9_10  and  O2_11 
REMARK    7  A    between atoms: C9_10  and  C10_12 
REMARK    8  A    between atoms: C10_12  and  C11_13 
REMARK    9  A    between atoms: C11_13  and  C12_14 
REMARK   10  A    between atoms: C14_16  and  C15_17 
REMARK   11  A    between atoms: C15_17  and  C16_18 
REMARK   12  A    between atoms: C16_18  and  C17_19 
REMARK   13  A    between atoms: C23_25  and  O3_26 
ROOT
HETATM    1  C12 UNL     1       0.579  52.657 -22.715  1.00  0.00    -0.087 C 
HETATM    2  C13 UNL     1       1.049  53.593 -21.631  1.00  0.00     0.043 C 
HETATM    3  C14 UNL     1      -0.013  51.464 -22.489  1.00  0.00    -0.024 C 
ENDROOT
BRANCH   1   4
HETATM    4  C11 UNL     1       0.874  53.160 -24.124  1.00  0.00     0.036 C 
BRANCH   4   5
HETATM    5  C10 UNL     1      -0.301  53.437 -25.066  1.00  0.00     0.039 C 
BRANCH   5   6
HETATM    6  C9  UNL     1      -0.037  53.339 -26.578  1.00  0.00     0.152 C 
BRANCH   6   7
HETATM    7  C7  UNL     1       0.339  51.950 -27.192  1.00  0.00     0.080 C 
HETATM    8  C8  UNL     1       1.825  51.844 -27.540  1.00  0.00     0.048 C 
BRANCH   7   9
HETATM    9  C6  UNL     1      -0.140  50.775 -26.303  1.00  0.00     0.044 C 
BRANCH   9  10
HETATM   10  C5  UNL     1      -1.635  50.729 -25.953  1.00  0.00     0.030 C 
BRANCH  10  11
HETATM   11  C4  UNL     1      -2.478  49.988 -26.954  1.00  0.00    -0.025 C 
HETATM   12  C2  UNL     1      -3.352  48.989 -26.718  1.00  0.00    -0.091 C 
HETATM   13  C1  UNL     1      -3.697  48.443 -25.360  1.00  0.00     0.042 C 
HETATM   14  C3  UNL     1      -4.091  48.335 -27.856  1.00  0.00     0.042 C 
ENDBRANCH  10  11
ENDBRANCH   9  10
ENDBRANCH   7   9
BRANCH   7  15
HETATM   15  O1  UNL     1      -0.357  51.888 -28.454  1.00  0.00    -0.388 OA
HETATM   16  H15 UNL     1      -1.262  52.201 -28.248  1.00  0.00     0.210 HD
ENDBRANCH   7  15
ENDBRANCH   6   7
BRANCH   6  17
HETATM   17  O2  UNL     1      -1.259  53.759 -27.238  1.00  0.00    -0.393 OA
HETATM   18  H17 UNL     1      -1.417  54.685 -26.981  1.00  0.00     0.210 HD
ENDBRANCH   6  17
ENDBRANCH   5   6
ENDBRANCH   4   5
ENDBRANCH   1   4
BRANCH   3  19
HETATM   19  C15 UNL     1      -0.414  50.716 -21.235  1.00  0.00     0.030 C 
BRANCH  19  20
HETATM   20  C16 UNL     1      -1.436  49.583 -21.318  1.00  0.00     0.042 C 
BRANCH  20  21
HETATM   21  C17 UNL     1      -2.779  49.782 -20.559  1.00  0.00     0.065 C 
HETATM   22  C18 UNL     1      -2.482  49.476 -19.071  1.00  0.00     0.046 C 
HETATM   23  C19 UNL     1      -3.355  51.207 -20.612  1.00  0.00     0.043 C 
HETATM   24  C20 UNL     1      -4.118  51.520 -21.885  1.00  0.00     0.044 C 
HETATM   25  C21 UNL     1      -4.966  50.359 -22.296  1.00  0.00    -0.021 A 
HETATM   26  C22 UNL     1      -6.015  50.566 -23.203  1.00  0.00     0.046 A 
HETATM   27  C27 UNL     1      -4.718  49.069 -21.820  1.00  0.00     0.082 A 
HETATM   28  C23 UNL     1      -6.815  49.502 -23.601  1.00  0.00     0.066 A 
HETATM   29  C24 UNL     1      -6.584  48.218 -23.122  1.00  0.00     0.046 A 
HETATM   30  C25 UNL     1      -5.529  47.991 -22.226  1.00  0.00    -0.025 A 
HETATM   31  C26 UNL     1      -5.267  46.602 -21.714  1.00  0.00     0.051 C 
HETATM   32  O4  UNL     1      -3.708  48.762 -20.953  1.00  0.00    -0.340 OA
BRANCH  28  33
HETATM   33  O3  UNL     1      -7.833  49.764 -24.472  1.00  0.00    -0.361 OA
HETATM   34  H38 UNL     1      -8.311  48.937 -24.643  1.00  0.00     0.217 HD
ENDBRANCH  28  33
ENDBRANCH  20  21
ENDBRANCH  19  20
ENDBRANCH   3  19
TORSDOF 13
ENDMDL
