MODEL 1
REMARK minimizedAffinity -9.83837509
REMARK  10 active torsions:
REMARK  status: ('A' for Active; 'I' for Inactive)
REMARK    1  A    between atoms: C14_14  and  C15_15 
REMARK    2  A    between atoms: C15_15  and  C17_17 
REMARK    3  A    between atoms: C17_17  and  C18_18 
REMARK    4  A    between atoms: C18_18  and  C19_19 
REMARK    5  A    between atoms: C20_20  and  C22_22 
REMARK    6  A    between atoms: C22_22  and  O2_24 
REMARK    7  A    between atoms: C27_29  and  C28_30 
REMARK    8  A    between atoms: C28_30  and  C29_31 
REMARK    9  A    between atoms: C29_31  and  C30_32 
REMARK   10  A    between atoms: C30_32  and  O4_34 
ROOT
HETATM    1  C1  UNL     1      -1.477  50.449 -15.835  1.00  0.00     0.043 C 
HETATM    2  C2  UNL     1      -0.795  50.778 -17.150  1.00  0.00    -0.085 C 
HETATM    3  C3  UNL     1       0.685  50.509 -17.064  1.00  0.00     0.043 C 
HETATM    4  C4  UNL     1      -1.486  51.203 -18.245  1.00  0.00    -0.073 C 
HETATM    5  C5  UNL     1      -3.006  51.103 -18.234  1.00  0.00     0.035 C 
HETATM    6  C6  UNL     1      -3.640  51.094 -19.624  1.00  0.00     0.010 C 
HETATM    7  C7  UNL     1      -2.856  50.259 -20.674  1.00  0.00     0.003 C 
HETATM    8  C8  UNL     1      -1.277  50.574 -20.699  1.00  0.00    -0.032 C 
HETATM    9  C9  UNL     1      -0.448  49.315 -20.317  1.00  0.00     0.016 C 
HETATM   10  C10 UNL     1      -0.782  50.989 -22.123  1.00  0.00     0.011 C 
HETATM   11  C11 UNL     1      -1.342  50.228 -23.345  1.00  0.00     0.011 C 
HETATM   12  C12 UNL     1      -2.709  49.550 -23.147  1.00  0.00    -0.032 C 
HETATM   13  C13 UNL     1      -2.499  48.063 -22.746  1.00  0.00     0.016 C 
HETATM   14  C14 UNL     1      -3.673  49.580 -24.384  1.00  0.00    -0.002 C 
HETATM   15  C23 UNL     1      -5.085  49.461 -23.740  1.00  0.00     0.006 C 
HETATM   16  C24 UNL     1      -4.911  49.698 -22.224  1.00  0.00     0.011 C 
HETATM   17  C25 UNL     1      -3.530  50.370 -22.088  1.00  0.00    -0.032 C 
HETATM   18  C26 UNL     1      -3.757  51.881 -22.453  1.00  0.00     0.016 C 
HETATM   19  C27 UNL     1      -0.971  51.699 -19.617  1.00  0.00     0.024 C 
ENDROOT
BRANCH  14  20
HETATM   20  C15 UNL     1      -3.466  48.701 -25.659  1.00  0.00    -0.014 C 
HETATM   21  C16 UNL     1      -4.813  48.261 -26.247  1.00  0.00     0.010 C 
BRANCH  20  22
HETATM   22  C17 UNL     1      -2.545  49.260 -26.770  1.00  0.00     0.008 C 
BRANCH  22  23
HETATM   23  C18 UNL     1      -3.127  50.448 -27.556  1.00  0.00     0.028 C 
BRANCH  23  24
HETATM   24  C19 UNL     1      -2.338  51.715 -27.376  1.00  0.00    -0.013 C 
HETATM   25  C20 UNL     1      -1.034  51.844 -27.058  1.00  0.00     0.008 C 
HETATM   26  C21 UNL     1      -0.068  50.726 -26.802  1.00  0.00     0.055 C 
BRANCH  25  27
HETATM   27  C22 UNL     1      -0.516  53.233 -26.948  1.00  0.00     0.171 C 
HETATM   28  O1  UNL     1       0.377  53.626 -26.218  1.00  0.00    -0.646 OA
BRANCH  27  29
HETATM   29  O2  UNL     1      -1.149  54.083 -27.774  1.00  0.00    -0.773 OA
HETATM   30  H35 UNL     1      -0.710  54.940 -27.597  1.00  0.00     0.167 HD
ENDBRANCH  27  29
ENDBRANCH  25  27
ENDBRANCH  23  24
ENDBRANCH  22  23
ENDBRANCH  20  22
ENDBRANCH  14  20
BRANCH  19  31
HETATM   31  C28 UNL     1       0.429  52.372 -19.675  1.00  0.00     0.020 C 
BRANCH  31  32
HETATM   32  C29 UNL     1       0.408  53.770 -20.304  1.00  0.00     0.110 C 
BRANCH  32  33
HETATM   33  C30 UNL     1       1.171  53.896 -21.590  1.00  0.00     0.139 C 
HETATM   34  O3  UNL     1       0.963  53.270 -22.617  1.00  0.00    -0.650 OA
BRANCH  33  35
HETATM   35  O4  UNL     1       2.181  54.781 -21.516  1.00  0.00    -0.776 OA
HETATM   36  H48 UNL     1       2.557  54.772 -22.421  1.00  0.00     0.167 HD
ENDBRANCH  33  35
ENDBRANCH  32  33
ENDBRANCH  31  32
ENDBRANCH  19  31
TORSDOF 10
ENDMDL
MODEL 2
REMARK minimizedAffinity -9.31334209
REMARK  10 active torsions:
REMARK  status: ('A' for Active; 'I' for Inactive)
REMARK    1  A    between atoms: C14_14  and  C15_15 
REMARK    2  A    between atoms: C15_15  and  C17_17 
REMARK    3  A    between atoms: C17_17  and  C18_18 
REMARK    4  A    between atoms: C18_18  and  C19_19 
REMARK    5  A    between atoms: C20_20  and  C22_22 
REMARK    6  A    between atoms: C22_22  and  O2_24 
REMARK    7  A    between atoms: C27_29  and  C28_30 
REMARK    8  A    between atoms: C28_30  and  C29_31 
REMARK    9  A    between atoms: C29_31  and  C30_32 
REMARK   10  A    between atoms: C30_32  and  O4_34 
ROOT
HETATM    1  C1  UNL     1      -3.393  50.700 -28.193  1.00  0.00     0.043 C 
HETATM    2  C2  UNL     1      -2.421  51.189 -27.135  1.00  0.00    -0.085 C 
HETATM    3  C3  UNL     1      -1.985  52.601 -27.426  1.00  0.00     0.043 C 
HETATM    4  C4  UNL     1      -2.069  50.430 -26.060  1.00  0.00    -0.073 C 
HETATM    5  C5  UNL     1      -2.860  49.161 -25.771  1.00  0.00     0.035 C 
HETATM    6  C6  UNL     1      -2.761  48.680 -24.324  1.00  0.00     0.010 C 
HETATM    7  C7  UNL     1      -2.794  49.823 -23.271  1.00  0.00     0.003 C 
HETATM    8  C8  UNL     1      -1.790  51.037 -23.607  1.00  0.00    -0.032 C 
HETATM    9  C9  UNL     1      -2.572  52.362 -23.835  1.00  0.00     0.016 C 
HETATM   10  C10 UNL     1      -0.802  51.326 -22.431  1.00  0.00     0.011 C 
HETATM   11  C11 UNL     1      -1.347  51.275 -20.986  1.00  0.00     0.011 C 
HETATM   12  C12 UNL     1      -2.606  50.416 -20.771  1.00  0.00    -0.032 C 
HETATM   13  C13 UNL     1      -3.869  51.318 -20.853  1.00  0.00     0.016 C 
HETATM   14  C14 UNL     1      -2.670  49.623 -19.419  1.00  0.00    -0.002 C 
HETATM   15  C23 UNL     1      -3.610  48.428 -19.752  1.00  0.00     0.006 C 
HETATM   16  C24 UNL     1      -3.769  48.391 -21.287  1.00  0.00     0.011 C 
HETATM   17  C25 UNL     1      -2.604  49.249 -21.822  1.00  0.00    -0.032 C 
HETATM   18  C26 UNL     1      -1.339  48.320 -21.778  1.00  0.00     0.016 C 
HETATM   19  C27 UNL     1      -1.019  50.694 -24.956  1.00  0.00     0.024 C 
ENDROOT
BRANCH  14  20
HETATM   20  C15 UNL     1      -2.942  50.297 -18.037  1.00  0.00    -0.014 C 
HETATM   21  C16 UNL     1      -3.658  49.330 -17.085  1.00  0.00     0.010 C 
BRANCH  20  22
HETATM   22  C17 UNL     1      -1.747  50.974 -17.324  1.00  0.00     0.008 C 
BRANCH  22  23
HETATM   23  C18 UNL     1      -0.574  50.034 -16.991  1.00  0.00     0.028 C 
BRANCH  23  24
HETATM   24  C19 UNL     1       0.605  50.752 -16.396  1.00  0.00    -0.013 C 
HETATM   25  C20 UNL     1       1.232  51.850 -16.864  1.00  0.00     0.008 C 
HETATM   26  C21 UNL     1       0.886  52.606 -18.112  1.00  0.00     0.055 C 
BRANCH  25  27
HETATM   27  C22 UNL     1       2.379  52.347 -16.059  1.00  0.00     0.171 C 
HETATM   28  O1  UNL     1       2.806  51.871 -15.022  1.00  0.00    -0.646 OA
BRANCH  27  29
HETATM   29  O2  UNL     1       2.952  53.435 -16.601  1.00  0.00    -0.773 OA
HETATM   30  H35 UNL     1       3.678  53.642 -15.978  1.00  0.00     0.167 HD
ENDBRANCH  27  29
ENDBRANCH  25  27
ENDBRANCH  23  24
ENDBRANCH  22  23
ENDBRANCH  20  22
ENDBRANCH  14  20
BRANCH  19  31
HETATM   31  C28 UNL     1       0.210  51.578 -25.309  1.00  0.00     0.020 C 
BRANCH  31  32
HETATM   32  C29 UNL     1       1.271  50.843 -26.138  1.00  0.00     0.110 C 
BRANCH  32  33
HETATM   33  C30 UNL     1       1.899  51.663 -27.227  1.00  0.00     0.139 C 
HETATM   34  O3  UNL     1       1.307  52.286 -28.094  1.00  0.00    -0.650 OA
BRANCH  33  35
HETATM   35  O4  UNL     1       3.243  51.635 -27.194  1.00  0.00    -0.776 OA
HETATM   36  H48 UNL     1       3.500  52.227 -27.933  1.00  0.00     0.167 HD
ENDBRANCH  33  35
ENDBRANCH  32  33
ENDBRANCH  31  32
ENDBRANCH  19  31
TORSDOF 10
ENDMDL
MODEL 3
REMARK minimizedAffinity -9.18575859
REMARK  10 active torsions:
REMARK  status: ('A' for Active; 'I' for Inactive)
REMARK    1  A    between atoms: C14_14  and  C15_15 
REMARK    2  A    between atoms: C15_15  and  C17_17 
REMARK    3  A    between atoms: C17_17  and  C18_18 
REMARK    4  A    between atoms: C18_18  and  C19_19 
REMARK    5  A    between atoms: C20_20  and  C22_22 
REMARK    6  A    between atoms: C22_22  and  O2_24 
REMARK    7  A    between atoms: C27_29  and  C28_30 
REMARK    8  A    between atoms: C28_30  and  C29_31 
REMARK    9  A    between atoms: C29_31  and  C30_32 
REMARK   10  A    between atoms: C30_32  and  O4_34 
ROOT
HETATM    1  C1  UNL     1      -2.092  49.879 -16.206  1.00  0.00     0.043 C 
HETATM    2  C2  UNL     1      -1.266  50.406 -17.365  1.00  0.00    -0.085 C 
HETATM    3  C3  UNL     1       0.189  50.059 -17.183  1.00  0.00     0.043 C 
HETATM    4  C4  UNL     1      -1.825  51.050 -18.427  1.00  0.00    -0.073 C 
HETATM    5  C5  UNL     1      -3.340  51.020 -18.586  1.00  0.00     0.035 C 
HETATM    6  C6  UNL     1      -3.823  51.287 -20.010  1.00  0.00     0.010 C 
HETATM    7  C7  UNL     1      -2.956  50.618 -21.112  1.00  0.00     0.003 C 
HETATM    8  C8  UNL     1      -1.375  50.860 -20.922  1.00  0.00    -0.032 C 
HETATM    9  C9  UNL     1      -0.626  49.516 -20.695  1.00  0.00     0.016 C 
HETATM   10  C10 UNL     1      -0.721  51.499 -22.190  1.00  0.00     0.011 C 
HETATM   11  C11 UNL     1      -1.169  50.995 -23.580  1.00  0.00     0.011 C 
HETATM   12  C12 UNL     1      -2.567  50.355 -23.645  1.00  0.00    -0.032 C 
HETATM   13  C13 UNL     1      -2.440  48.812 -23.502  1.00  0.00     0.016 C 
HETATM   14  C14 UNL     1      -3.394  50.649 -24.946  1.00  0.00    -0.002 C 
HETATM   15  C23 UNL     1      -4.868  50.482 -24.477  1.00  0.00     0.006 C 
HETATM   16  C24 UNL     1      -4.849  50.436 -22.933  1.00  0.00     0.011 C 
HETATM   17  C25 UNL     1      -3.473  51.010 -22.541  1.00  0.00    -0.032 C 
HETATM   18  C26 UNL     1      -3.619  52.570 -22.645  1.00  0.00     0.016 C 
HETATM   19  C27 UNL     1      -1.155  51.759 -19.628  1.00  0.00     0.024 C 
ENDROOT
BRANCH  14  20
HETATM   20  C15 UNL     1      -3.077  50.003 -26.332  1.00  0.00    -0.014 C 
HETATM   21  C16 UNL     1      -1.665  50.376 -26.802  1.00  0.00     0.010 C 
BRANCH  20  22
HETATM   22  C17 UNL     1      -3.314  48.481 -26.482  1.00  0.00     0.008 C 
BRANCH  22  23
HETATM   23  C18 UNL     1      -4.708  48.091 -27.006  1.00  0.00     0.028 C 
BRANCH  23  24
HETATM   24  C19 UNL     1      -4.869  48.330 -28.481  1.00  0.00    -0.013 C 
HETATM   25  C20 UNL     1      -5.759  47.765 -29.323  1.00  0.00     0.008 C 
HETATM   26  C21 UNL     1      -6.799  46.747 -28.962  1.00  0.00     0.055 C 
BRANCH  25  27
HETATM   27  C22 UNL     1      -5.688  48.197 -30.744  1.00  0.00     0.171 C 
HETATM   28  O1  UNL     1      -4.680  48.380 -31.404  1.00  0.00    -0.646 OA
BRANCH  27  29
HETATM   29  O2  UNL     1      -6.904  48.379 -31.285  1.00  0.00    -0.773 OA
HETATM   30  H35 UNL     1      -6.704  48.652 -32.204  1.00  0.00     0.167 HD
ENDBRANCH  27  29
ENDBRANCH  25  27
ENDBRANCH  23  24
ENDBRANCH  22  23
ENDBRANCH  20  22
ENDBRANCH  14  20
BRANCH  19  31
HETATM   31  C28 UNL     1       0.261  52.366 -19.423  1.00  0.00     0.020 C 
BRANCH  31  32
HETATM   32  C29 UNL     1       0.398  53.791 -19.974  1.00  0.00     0.110 C 
BRANCH  32  33
HETATM   33  C30 UNL     1       1.471  53.967 -21.010  1.00  0.00     0.139 C 
HETATM   34  O3  UNL     1       1.685  54.975 -21.662  1.00  0.00    -0.650 OA
BRANCH  33  35
HETATM   35  O4  UNL     1       2.205  52.855 -21.197  1.00  0.00    -0.776 OA
HETATM   36  H48 UNL     1       2.867  53.131 -21.866  1.00  0.00     0.167 HD
ENDBRANCH  33  35
ENDBRANCH  32  33
ENDBRANCH  31  32
ENDBRANCH  19  31
TORSDOF 10
ENDMDL
MODEL 4
REMARK minimizedAffinity -8.99581623
REMARK  10 active torsions:
REMARK  status: ('A' for Active; 'I' for Inactive)
REMARK    1  A    between atoms: C14_14  and  C15_15 
REMARK    2  A    between atoms: C15_15  and  C17_17 
REMARK    3  A    between atoms: C17_17  and  C18_18 
REMARK    4  A    between atoms: C18_18  and  C19_19 
REMARK    5  A    between atoms: C20_20  and  C22_22 
REMARK    6  A    between atoms: C22_22  and  O2_24 
REMARK    7  A    between atoms: C27_29  and  C28_30 
REMARK    8  A    between atoms: C28_30  and  C29_31 
REMARK    9  A    between atoms: C29_31  and  C30_32 
REMARK   10  A    between atoms: C30_32  and  O4_34 
ROOT
HETATM    1  C1  UNL     1      -8.333  45.824 -19.841  1.00  0.00     0.043 C 
HETATM    2  C2  UNL     1      -8.134  47.079 -20.671  1.00  0.00    -0.085 C 
HETATM    3  C3  UNL     1      -9.311  48.008 -20.520  1.00  0.00     0.043 C 
HETATM    4  C4  UNL     1      -7.001  47.306 -21.391  1.00  0.00    -0.073 C 
HETATM    5  C5  UNL     1      -5.795  46.404 -21.161  1.00  0.00     0.035 C 
HETATM    6  C6  UNL     1      -4.464  47.022 -21.585  1.00  0.00     0.010 C 
HETATM    7  C7  UNL     1      -4.327  48.532 -21.246  1.00  0.00     0.003 C 
HETATM    8  C8  UNL     1      -5.604  49.410 -21.687  1.00  0.00    -0.032 C 
HETATM    9  C9  UNL     1      -6.294  50.055 -20.452  1.00  0.00     0.016 C 
HETATM   10  C10 UNL     1      -5.206  50.600 -22.618  1.00  0.00     0.011 C 
HETATM   11  C11 UNL     1      -3.920  51.391 -22.290  1.00  0.00     0.011 C 
HETATM   12  C12 UNL     1      -2.858  50.638 -21.469  1.00  0.00    -0.032 C 
HETATM   13  C13 UNL     1      -3.039  50.967 -19.960  1.00  0.00     0.016 C 
HETATM   14  C14 UNL     1      -1.365  50.931 -21.847  1.00  0.00    -0.002 C 
HETATM   15  C23 UNL     1      -0.620  49.645 -21.386  1.00  0.00     0.006 C 
HETATM   16  C24 UNL     1      -1.699  48.581 -21.088  1.00  0.00     0.011 C 
HETATM   17  C25 UNL     1      -2.969  49.104 -21.788  1.00  0.00    -0.032 C 
HETATM   18  C26 UNL     1      -2.801  48.730 -23.304  1.00  0.00     0.016 C 
HETATM   19  C27 UNL     1      -6.662  48.445 -22.381  1.00  0.00     0.024 C 
ENDROOT
BRANCH  14  20
HETATM   20  C15 UNL     1      -0.633  52.266 -21.495  1.00  0.00    -0.014 C 
HETATM   21  C16 UNL     1       0.234  52.102 -20.241  1.00  0.00     0.010 C 
BRANCH  20  22
HETATM   22  C17 UNL     1       0.168  52.960 -22.622  1.00  0.00     0.008 C 
BRANCH  22  23
HETATM   23  C18 UNL     1       0.241  52.174 -23.944  1.00  0.00     0.028 C 
BRANCH  23  24
HETATM   24  C19 UNL     1      -0.086  53.015 -25.147  1.00  0.00    -0.013 C 
HETATM   25  C20 UNL     1       0.405  52.902 -26.398  1.00  0.00     0.008 C 
HETATM   26  C21 UNL     1       1.412  51.896 -26.869  1.00  0.00     0.055 C 
BRANCH  25  27
HETATM   27  C22 UNL     1      -0.104  53.879 -27.396  1.00  0.00     0.171 C 
HETATM   28  O1  UNL     1      -0.198  55.086 -27.257  1.00  0.00    -0.646 OA
BRANCH  27  29
HETATM   29  O2  UNL     1      -0.477  53.291 -28.545  1.00  0.00    -0.773 OA
HETATM   30  H35 UNL     1      -0.781  54.041 -29.095  1.00  0.00     0.167 HD
ENDBRANCH  27  29
ENDBRANCH  25  27
ENDBRANCH  23  24
ENDBRANCH  22  23
ENDBRANCH  20  22
ENDBRANCH  14  20
BRANCH  19  31
HETATM   31  C28 UNL     1      -7.832  49.120 -23.152  1.00  0.00     0.020 C 
BRANCH  31  32
HETATM   32  C29 UNL     1      -7.893  48.726 -24.632  1.00  0.00     0.110 C 
BRANCH  32  33
HETATM   33  C30 UNL     1      -9.246  48.866 -25.267  1.00  0.00     0.139 C 
HETATM   34  O3  UNL     1     -10.134  48.028 -25.265  1.00  0.00    -0.650 OA
BRANCH  33  35
HETATM   35  O4  UNL     1      -9.409  50.041 -25.900  1.00  0.00    -0.776 OA
HETATM   36  H48 UNL     1     -10.331  49.995 -26.230  1.00  0.00     0.167 HD
ENDBRANCH  33  35
ENDBRANCH  32  33
ENDBRANCH  31  32
ENDBRANCH  19  31
TORSDOF 10
ENDMDL
MODEL 5
REMARK minimizedAffinity -8.93101692
REMARK  10 active torsions:
REMARK  status: ('A' for Active; 'I' for Inactive)
REMARK    1  A    between atoms: C14_14  and  C15_15 
REMARK    2  A    between atoms: C15_15  and  C17_17 
REMARK    3  A    between atoms: C17_17  and  C18_18 
REMARK    4  A    between atoms: C18_18  and  C19_19 
REMARK    5  A    between atoms: C20_20  and  C22_22 
REMARK    6  A    between atoms: C22_22  and  O2_24 
REMARK    7  A    between atoms: C27_29  and  C28_30 
REMARK    8  A    between atoms: C28_30  and  C29_31 
REMARK    9  A    between atoms: C29_31  and  C30_32 
REMARK   10  A    between atoms: C30_32  and  O4_34 
ROOT
HETATM    1  C1  UNL     1       0.273  53.280 -27.368  1.00  0.00     0.043 C 
HETATM    2  C2  UNL     1       0.072  53.204 -25.865  1.00  0.00    -0.085 C 
HETATM    3  C3  UNL     1       0.247  54.562 -25.236  1.00  0.00     0.043 C 
HETATM    4  C4  UNL     1      -0.272  52.049 -25.232  1.00  0.00    -0.073 C 
HETATM    5  C5  UNL     1      -0.719  50.859 -26.073  1.00  0.00     0.035 C 
HETATM    6  C6  UNL     1      -1.558  49.836 -25.310  1.00  0.00     0.010 C 
HETATM    7  C7  UNL     1      -2.582  50.463 -24.323  1.00  0.00     0.003 C 
HETATM    8  C8  UNL     1      -1.948  51.599 -23.373  1.00  0.00    -0.032 C 
HETATM    9  C9  UNL     1      -2.617  52.979 -23.627  1.00  0.00     0.016 C 
HETATM   10  C10 UNL     1      -2.175  51.292 -21.858  1.00  0.00     0.011 C 
HETATM   11  C11 UNL     1      -3.545  50.728 -21.420  1.00  0.00     0.011 C 
HETATM   12  C12 UNL     1      -4.348  49.992 -22.507  1.00  0.00    -0.032 C 
HETATM   13  C13 UNL     1      -5.348  50.978 -23.173  1.00  0.00     0.016 C 
HETATM   14  C14 UNL     1      -5.160  48.739 -22.027  1.00  0.00    -0.002 C 
HETATM   15  C23 UNL     1      -5.286  47.879 -23.318  1.00  0.00     0.006 C 
HETATM   16  C24 UNL     1      -4.305  48.472 -24.353  1.00  0.00     0.011 C 
HETATM   17  C25 UNL     1      -3.341  49.345 -23.524  1.00  0.00    -0.032 C 
HETATM   18  C26 UNL     1      -2.307  48.348 -22.889  1.00  0.00     0.016 C 
HETATM   19  C27 UNL     1      -0.402  51.741 -23.722  1.00  0.00     0.024 C 
ENDROOT
BRANCH  14  20
HETATM   20  C15 UNL     1      -6.469  48.833 -21.180  1.00  0.00    -0.014 C 
HETATM   21  C16 UNL     1      -6.366  49.949 -20.132  1.00  0.00     0.010 C 
BRANCH  20  22
HETATM   22  C17 UNL     1      -7.810  48.931 -21.947  1.00  0.00     0.008 C 
BRANCH  22  23
HETATM   23  C18 UNL     1      -7.966  47.932 -23.107  1.00  0.00     0.028 C 
BRANCH  23  24
HETATM   24  C19 UNL     1      -8.802  48.468 -24.236  1.00  0.00    -0.013 C 
HETATM   25  C20 UNL     1      -9.050  47.895 -25.432  1.00  0.00     0.008 C 
HETATM   26  C21 UNL     1      -8.526  46.574 -25.909  1.00  0.00     0.055 C 
BRANCH  25  27
HETATM   27  C22 UNL     1      -9.923  48.661 -26.361  1.00  0.00     0.171 C 
HETATM   28  O1  UNL     1     -11.124  48.836 -26.259  1.00  0.00    -0.646 OA
BRANCH  27  29
HETATM   29  O2  UNL     1      -9.239  49.184 -27.392  1.00  0.00    -0.773 OA
HETATM   30  H35 UNL     1      -9.928  49.652 -27.906  1.00  0.00     0.167 HD
ENDBRANCH  27  29
ENDBRANCH  25  27
ENDBRANCH  23  24
ENDBRANCH  22  23
ENDBRANCH  20  22
ENDBRANCH  14  20
BRANCH  19  31
HETATM   31  C28 UNL     1       0.472  52.559 -22.729  1.00  0.00     0.020 C 
BRANCH  31  32
HETATM   32  C29 UNL     1      -0.129  52.651 -21.322  1.00  0.00     0.110 C 
BRANCH  32  33
HETATM   33  C30 UNL     1       0.574  53.601 -20.397  1.00  0.00     0.139 C 
HETATM   34  O3  UNL     1       1.344  54.490 -20.723  1.00  0.00    -0.650 OA
BRANCH  33  35
HETATM   35  O4  UNL     1       0.298  53.371 -19.100  1.00  0.00    -0.776 OA
HETATM   36  H48 UNL     1       0.797  54.075 -18.634  1.00  0.00     0.167 HD
ENDBRANCH  33  35
ENDBRANCH  32  33
ENDBRANCH  31  32
ENDBRANCH  19  31
TORSDOF 10
ENDMDL
MODEL 6
REMARK minimizedAffinity -8.9262886
REMARK  10 active torsions:
REMARK  status: ('A' for Active; 'I' for Inactive)
REMARK    1  A    between atoms: C14_14  and  C15_15 
REMARK    2  A    between atoms: C15_15  and  C17_17 
REMARK    3  A    between atoms: C17_17  and  C18_18 
REMARK    4  A    between atoms: C18_18  and  C19_19 
REMARK    5  A    between atoms: C20_20  and  C22_22 
REMARK    6  A    between atoms: C22_22  and  O2_24 
REMARK    7  A    between atoms: C27_29  and  C28_30 
REMARK    8  A    between atoms: C28_30  and  C29_31 
REMARK    9  A    between atoms: C29_31  and  C30_32 
REMARK   10  A    between atoms: C30_32  and  O4_34 
ROOT
HETATM    1  C1  UNL     1      -8.936  47.335 -22.653  1.00  0.00     0.043 C 
HETATM    2  C2  UNL     1      -7.810  47.940 -23.471  1.00  0.00    -0.085 C 
HETATM    3  C3  UNL     1      -8.356  48.898 -24.499  1.00  0.00     0.043 C 
HETATM    4  C4  UNL     1      -6.499  47.662 -23.229  1.00  0.00    -0.073 C 
HETATM    5  C5  UNL     1      -6.133  46.927 -21.945  1.00  0.00     0.035 C 
HETATM    6  C6  UNL     1      -4.682  47.120 -21.509  1.00  0.00     0.010 C 
HETATM    7  C7  UNL     1      -4.146  48.565 -21.706  1.00  0.00     0.003 C 
HETATM    8  C8  UNL     1      -4.455  49.173 -23.166  1.00  0.00    -0.032 C 
HETATM    9  C9  UNL     1      -5.371  50.426 -23.067  1.00  0.00     0.016 C 
HETATM   10  C10 UNL     1      -3.157  49.654 -23.890  1.00  0.00     0.011 C 
HETATM   11  C11 UNL     1      -2.085  50.395 -23.060  1.00  0.00     0.011 C 
HETATM   12  C12 UNL     1      -2.090  50.110 -21.548  1.00  0.00    -0.032 C 
HETATM   13  C13 UNL     1      -2.921  51.201 -20.816  1.00  0.00     0.016 C 
HETATM   14  C14 UNL     1      -0.682  50.041 -20.860  1.00  0.00    -0.002 C 
HETATM   15  C23 UNL     1      -0.936  49.140 -19.616  1.00  0.00     0.006 C 
HETATM   16  C24 UNL     1      -2.320  48.483 -19.810  1.00  0.00     0.011 C 
HETATM   17  C25 UNL     1      -2.629  48.654 -21.311  1.00  0.00    -0.032 C 
HETATM   18  C26 UNL     1      -1.820  47.522 -22.041  1.00  0.00     0.016 C 
HETATM   19  C27 UNL     1      -5.232  48.074 -24.014  1.00  0.00     0.024 C 
ENDROOT
BRANCH  14  20
HETATM   20  C15 UNL     1       0.203  51.297 -20.580  1.00  0.00    -0.014 C 
HETATM   21  C16 UNL     1       0.379  52.139 -21.851  1.00  0.00     0.010 C 
BRANCH  20  22
HETATM   22  C17 UNL     1      -0.190  52.196 -19.384  1.00  0.00     0.008 C 
BRANCH  22  23
HETATM   23  C18 UNL     1       0.993  52.720 -18.550  1.00  0.00     0.028 C 
BRANCH  23  24
HETATM   24  C19 UNL     1       1.001  52.190 -17.143  1.00  0.00    -0.013 C 
HETATM   25  C20 UNL     1       2.001  52.245 -16.240  1.00  0.00     0.008 C 
HETATM   26  C21 UNL     1       3.355  52.854 -16.451  1.00  0.00     0.055 C 
BRANCH  25  27
HETATM   27  C22 UNL     1       1.725  51.635 -14.913  1.00  0.00     0.171 C 
HETATM   28  O1  UNL     1       0.889  50.786 -14.657  1.00  0.00    -0.646 OA
BRANCH  27  29
HETATM   29  O2  UNL     1       2.524  52.122 -13.948  1.00  0.00    -0.773 OA
HETATM   30  H35 UNL     1       2.235  51.636 -13.149  1.00  0.00     0.167 HD
ENDBRANCH  27  29
ENDBRANCH  25  27
ENDBRANCH  23  24
ENDBRANCH  22  23
ENDBRANCH  20  22
ENDBRANCH  14  20
BRANCH  19  31
HETATM   31  C28 UNL     1      -5.366  48.327 -25.542  1.00  0.00     0.020 C 
BRANCH  31  32
HETATM   32  C29 UNL     1      -4.019  48.365 -26.274  1.00  0.00     0.110 C 
BRANCH  32  33
HETATM   33  C30 UNL     1      -4.100  48.739 -27.725  1.00  0.00     0.139 C 
HETATM   34  O3  UNL     1      -4.328  47.980 -28.654  1.00  0.00    -0.650 OA
BRANCH  33  35
HETATM   35  O4  UNL     1      -3.860  50.044 -27.945  1.00  0.00    -0.776 OA
HETATM   36  H48 UNL     1      -3.976  50.136 -28.914  1.00  0.00     0.167 HD
ENDBRANCH  33  35
ENDBRANCH  32  33
ENDBRANCH  31  32
ENDBRANCH  19  31
TORSDOF 10
ENDMDL
MODEL 7
REMARK minimizedAffinity -8.83609962
REMARK  10 active torsions:
REMARK  status: ('A' for Active; 'I' for Inactive)
REMARK    1  A    between atoms: C14_14  and  C15_15 
REMARK    2  A    between atoms: C15_15  and  C17_17 
REMARK    3  A    between atoms: C17_17  and  C18_18 
REMARK    4  A    between atoms: C18_18  and  C19_19 
REMARK    5  A    between atoms: C20_20  and  C22_22 
REMARK    6  A    between atoms: C22_22  and  O2_24 
REMARK    7  A    between atoms: C27_29  and  C28_30 
REMARK    8  A    between atoms: C28_30  and  C29_31 
REMARK    9  A    between atoms: C29_31  and  C30_32 
REMARK   10  A    between atoms: C30_32  and  O4_34 
ROOT
HETATM    1  C1  UNL     1       0.828  51.446 -26.173  1.00  0.00     0.043 C 
HETATM    2  C2  UNL     1      -0.424  51.432 -25.315  1.00  0.00    -0.085 C 
HETATM    3  C3  UNL     1      -1.498  50.591 -25.955  1.00  0.00     0.043 C 
HETATM    4  C4  UNL     1      -0.492  52.067 -24.112  1.00  0.00    -0.073 C 
HETATM    5  C5  UNL     1       0.795  52.590 -23.487  1.00  0.00     0.035 C 
HETATM    6  C6  UNL     1       0.716  52.795 -21.976  1.00  0.00     0.010 C 
HETATM    7  C7  UNL     1      -0.067  51.684 -21.223  1.00  0.00     0.003 C 
HETATM    8  C8  UNL     1      -1.490  51.333 -21.892  1.00  0.00    -0.032 C 
HETATM    9  C9  UNL     1      -1.529  49.859 -22.383  1.00  0.00     0.016 C 
HETATM   10  C10 UNL     1      -2.668  51.470 -20.873  1.00  0.00     0.011 C 
HETATM   11  C11 UNL     1      -2.452  50.964 -19.430  1.00  0.00     0.011 C 
HETATM   12  C12 UNL     1      -0.992  50.902 -18.949  1.00  0.00    -0.032 C 
HETATM   13  C13 UNL     1      -0.431  49.470 -19.172  1.00  0.00     0.016 C 
HETATM   14  C14 UNL     1      -0.750  51.282 -17.446  1.00  0.00    -0.002 C 
HETATM   15  C23 UNL     1       0.731  51.763 -17.434  1.00  0.00     0.006 C 
HETATM   16  C24 UNL     1       1.156  51.955 -18.906  1.00  0.00     0.011 C 
HETATM   17  C25 UNL     1      -0.170  52.016 -19.692  1.00  0.00    -0.032 C 
HETATM   18  C26 UNL     1      -0.710  53.477 -19.499  1.00  0.00     0.016 C 
HETATM   19  C27 UNL     1      -1.694  52.271 -23.161  1.00  0.00     0.024 C 
ENDROOT
BRANCH  14  20
HETATM   20  C15 UNL     1      -1.140  50.356 -16.250  1.00  0.00    -0.014 C 
HETATM   21  C16 UNL     1      -0.025  50.319 -15.198  1.00  0.00     0.010 C 
BRANCH  20  22
HETATM   22  C17 UNL     1      -2.513  50.600 -15.578  1.00  0.00     0.008 C 
BRANCH  22  23
HETATM   23  C18 UNL     1      -2.502  50.530 -14.040  1.00  0.00     0.028 C 
BRANCH  23  24
HETATM   24  C19 UNL     1      -3.160  51.717 -13.392  1.00  0.00    -0.013 C 
HETATM   25  C20 UNL     1      -3.048  52.134 -12.115  1.00  0.00     0.008 C 
HETATM   26  C21 UNL     1      -2.233  51.486 -11.037  1.00  0.00     0.055 C 
BRANCH  25  27
HETATM   27  C22 UNL     1      -3.819  53.353 -11.751  1.00  0.00     0.171 C 
HETATM   28  O1  UNL     1      -4.113  53.724 -10.628  1.00  0.00    -0.646 OA
BRANCH  27  29
HETATM   29  O2  UNL     1      -4.190  54.065 -12.827  1.00  0.00    -0.773 OA
HETATM   30  H35 UNL     1      -4.675  54.823 -12.441  1.00  0.00     0.167 HD
ENDBRANCH  27  29
ENDBRANCH  25  27
ENDBRANCH  23  24
ENDBRANCH  22  23
ENDBRANCH  20  22
ENDBRANCH  14  20
BRANCH  19  31
HETATM   31  C28 UNL     1      -3.120  52.318 -23.780  1.00  0.00     0.020 C 
BRANCH  31  32
HETATM   32  C29 UNL     1      -4.240  52.209 -22.738  1.00  0.00     0.110 C 
BRANCH  32  33
HETATM   33  C30 UNL     1      -5.335  51.243 -23.088  1.00  0.00     0.139 C 
HETATM   34  O3  UNL     1      -5.903  50.488 -22.316  1.00  0.00    -0.650 OA
BRANCH  33  35
HETATM   35  O4  UNL     1      -5.643  51.252 -24.397  1.00  0.00    -0.776 OA
HETATM   36  H48 UNL     1      -6.377  50.605 -24.461  1.00  0.00     0.167 HD
ENDBRANCH  33  35
ENDBRANCH  32  33
ENDBRANCH  31  32
ENDBRANCH  19  31
TORSDOF 10
ENDMDL
MODEL 8
REMARK minimizedAffinity -8.82645988
REMARK  10 active torsions:
REMARK  status: ('A' for Active; 'I' for Inactive)
REMARK    1  A    between atoms: C14_14  and  C15_15 
REMARK    2  A    between atoms: C15_15  and  C17_17 
REMARK    3  A    between atoms: C17_17  and  C18_18 
REMARK    4  A    between atoms: C18_18  and  C19_19 
REMARK    5  A    between atoms: C20_20  and  C22_22 
REMARK    6  A    between atoms: C22_22  and  O2_24 
REMARK    7  A    between atoms: C27_29  and  C28_30 
REMARK    8  A    between atoms: C28_30  and  C29_31 
REMARK    9  A    between atoms: C29_31  and  C30_32 
REMARK   10  A    between atoms: C30_32  and  O4_34 
ROOT
HETATM    1  C1  UNL     1      -1.984  50.275 -16.393  1.00  0.00     0.043 C 
HETATM    2  C2  UNL     1      -1.200  50.487 -17.675  1.00  0.00    -0.085 C 
HETATM    3  C3  UNL     1       0.188  49.914 -17.551  1.00  0.00     0.043 C 
HETATM    4  C4  UNL     1      -1.746  51.074 -18.776  1.00  0.00    -0.073 C 
HETATM    5  C5  UNL     1      -3.253  51.293 -18.816  1.00  0.00     0.035 C 
HETATM    6  C6  UNL     1      -3.823  51.450 -20.225  1.00  0.00     0.010 C 
HETATM    7  C7  UNL     1      -3.191  50.496 -21.277  1.00  0.00     0.003 C 
HETATM    8  C8  UNL     1      -1.581  50.477 -21.242  1.00  0.00    -0.032 C 
HETATM    9  C9  UNL     1      -1.046  49.063 -20.875  1.00  0.00     0.016 C 
HETATM   10  C10 UNL     1      -0.958  50.815 -22.635  1.00  0.00     0.011 C 
HETATM   11  C11 UNL     1      -1.617  50.218 -23.898  1.00  0.00     0.011 C 
HETATM   12  C12 UNL     1      -3.102  49.834 -23.765  1.00  0.00    -0.032 C 
HETATM   13  C13 UNL     1      -3.219  48.327 -23.405  1.00  0.00     0.016 C 
HETATM   14  C14 UNL     1      -3.992  50.095 -25.030  1.00  0.00    -0.002 C 
HETATM   15  C23 UNL     1      -5.420  50.257 -24.434  1.00  0.00     0.006 C 
HETATM   16  C24 UNL     1      -5.258  50.414 -22.907  1.00  0.00     0.011 C 
HETATM   17  C25 UNL     1      -3.773  50.781 -22.706  1.00  0.00    -0.032 C 
HETATM   18  C26 UNL     1      -3.668  52.314 -23.029  1.00  0.00     0.016 C 
HETATM   19  C27 UNL     1      -1.089  51.486 -20.114  1.00  0.00     0.024 C 
ENDROOT
BRANCH  14  20
HETATM   20  C15 UNL     1      -3.924  49.225 -26.325  1.00  0.00    -0.014 C 
HETATM   21  C16 UNL     1      -2.519  48.640 -26.521  1.00  0.00     0.010 C 
BRANCH  20  22
HETATM   22  C17 UNL     1      -4.999  48.126 -26.504  1.00  0.00     0.008 C 
BRANCH  22  23
HETATM   23  C18 UNL     1      -5.430  47.872 -27.960  1.00  0.00     0.028 C 
BRANCH  23  24
HETATM   24  C19 UNL     1      -6.902  47.603 -28.099  1.00  0.00    -0.013 C 
HETATM   25  C20 UNL     1      -7.780  47.265 -27.133  1.00  0.00     0.008 C 
HETATM   26  C21 UNL     1      -7.469  47.072 -25.679  1.00  0.00     0.055 C 
BRANCH  25  27
HETATM   27  C22 UNL     1      -9.189  47.060 -27.564  1.00  0.00     0.171 C 
HETATM   28  O1  UNL     1     -10.121  47.829 -27.406  1.00  0.00    -0.646 OA
BRANCH  27  29
HETATM   29  O2  UNL     1      -9.368  45.884 -28.186  1.00  0.00    -0.773 OA
HETATM   30  H35 UNL     1     -10.321  45.889 -28.411  1.00  0.00     0.167 HD
ENDBRANCH  27  29
ENDBRANCH  25  27
ENDBRANCH  23  24
ENDBRANCH  22  23
ENDBRANCH  20  22
ENDBRANCH  14  20
BRANCH  19  31
HETATM   31  C28 UNL     1       0.422  51.853 -20.107  1.00  0.00     0.020 C 
BRANCH  31  32
HETATM   32  C29 UNL     1       0.857  52.667 -21.332  1.00  0.00     0.110 C 
BRANCH  32  33
HETATM   33  C30 UNL     1       1.442  54.013 -21.021  1.00  0.00     0.139 C 
HETATM   34  O3  UNL     1       1.882  54.813 -21.830  1.00  0.00    -0.650 OA
BRANCH  33  35
HETATM   35  O4  UNL     1       1.475  54.277 -19.702  1.00  0.00    -0.776 OA
HETATM   36  H48 UNL     1       1.849  55.183 -19.662  1.00  0.00     0.167 HD
ENDBRANCH  33  35
ENDBRANCH  32  33
ENDBRANCH  31  32
ENDBRANCH  19  31
TORSDOF 10
ENDMDL
MODEL 9
REMARK minimizedAffinity -8.48685551
REMARK  10 active torsions:
REMARK  status: ('A' for Active; 'I' for Inactive)
REMARK    1  A    between atoms: C14_14  and  C15_15 
REMARK    2  A    between atoms: C15_15  and  C17_17 
REMARK    3  A    between atoms: C17_17  and  C18_18 
REMARK    4  A    between atoms: C18_18  and  C19_19 
REMARK    5  A    between atoms: C20_20  and  C22_22 
REMARK    6  A    between atoms: C22_22  and  O2_24 
REMARK    7  A    between atoms: C27_29  and  C28_30 
REMARK    8  A    between atoms: C28_30  and  C29_31 
REMARK    9  A    between atoms: C29_31  and  C30_32 
REMARK   10  A    between atoms: C30_32  and  O4_34 
ROOT
HETATM    1  C1  UNL     1       0.303  52.914 -27.308  1.00  0.00     0.043 C 
HETATM    2  C2  UNL     1       0.008  52.934 -25.820  1.00  0.00    -0.085 C 
HETATM    3  C3  UNL     1       0.175  54.324 -25.263  1.00  0.00     0.043 C 
HETATM    4  C4  UNL     1      -0.402  51.826 -25.141  1.00  0.00    -0.073 C 
HETATM    5  C5  UNL     1      -0.823  50.597 -25.937  1.00  0.00     0.035 C 
HETATM    6  C6  UNL     1      -1.732  49.639 -25.168  1.00  0.00     0.010 C 
HETATM    7  C7  UNL     1      -2.800  50.344 -24.287  1.00  0.00     0.003 C 
HETATM    8  C8  UNL     1      -2.199  51.523 -23.368  1.00  0.00    -0.032 C 
HETATM    9  C9  UNL     1      -2.819  52.898 -23.746  1.00  0.00     0.016 C 
HETATM   10  C10 UNL     1      -2.526  51.314 -21.854  1.00  0.00     0.011 C 
HETATM   11  C11 UNL     1      -3.933  50.805 -21.471  1.00  0.00     0.011 C 
HETATM   12  C12 UNL     1      -4.684  50.020 -22.560  1.00  0.00    -0.032 C 
HETATM   13  C13 UNL     1      -5.618  50.983 -23.345  1.00  0.00     0.016 C 
HETATM   14  C14 UNL     1      -5.553  48.814 -22.058  1.00  0.00    -0.002 C 
HETATM   15  C23 UNL     1      -5.620  47.880 -23.302  1.00  0.00     0.006 C 
HETATM   16  C24 UNL     1      -4.564  48.389 -24.307  1.00  0.00     0.011 C 
HETATM   17  C25 UNL     1      -3.632  49.292 -23.472  1.00  0.00    -0.032 C 
HETATM   18  C26 UNL     1      -2.663  48.316 -22.715  1.00  0.00     0.016 C 
HETATM   19  C27 UNL     1      -0.631  51.614 -23.627  1.00  0.00     0.024 C 
ENDROOT
BRANCH  14  20
HETATM   20  C15 UNL     1      -6.910  48.986 -21.303  1.00  0.00    -0.014 C 
HETATM   21  C16 UNL     1      -8.054  48.311 -22.069  1.00  0.00     0.010 C 
BRANCH  20  22
HETATM   22  C17 UNL     1      -6.949  48.588 -19.807  1.00  0.00     0.008 C 
BRANCH  22  23
HETATM   23  C18 UNL     1      -7.786  49.520 -18.912  1.00  0.00     0.028 C 
BRANCH  23  24
HETATM   24  C19 UNL     1      -8.642  48.775 -17.926  1.00  0.00    -0.013 C 
HETATM   25  C20 UNL     1      -9.866  48.244 -18.122  1.00  0.00     0.008 C 
HETATM   26  C21 UNL     1     -10.660  48.289 -19.393  1.00  0.00     0.055 C 
BRANCH  25  27
HETATM   27  C22 UNL     1     -10.480  47.554 -16.957  1.00  0.00     0.171 C 
HETATM   28  O1  UNL     1     -11.341  46.692 -16.987  1.00  0.00    -0.646 OA
BRANCH  27  29
HETATM   29  O2  UNL     1      -9.977  47.980 -15.786  1.00  0.00    -0.773 OA
HETATM   30  H35 UNL     1     -10.463  47.446 -15.124  1.00  0.00     0.167 HD
ENDBRANCH  27  29
ENDBRANCH  25  27
ENDBRANCH  23  24
ENDBRANCH  22  23
ENDBRANCH  20  22
ENDBRANCH  14  20
BRANCH  19  31
HETATM   31  C28 UNL     1       0.199  52.473 -22.632  1.00  0.00     0.020 C 
BRANCH  31  32
HETATM   32  C29 UNL     1      -0.112  52.172 -21.161  1.00  0.00     0.110 C 
BRANCH  32  33
HETATM   33  C30 UNL     1       0.456  53.157 -20.181  1.00  0.00     0.139 C 
HETATM   34  O3  UNL     1       1.023  54.202 -20.456  1.00  0.00    -0.650 OA
BRANCH  33  35
HETATM   35  O4  UNL     1       0.312  52.767 -18.902  1.00  0.00    -0.776 OA
HETATM   36  H48 UNL     1       0.697  53.511 -18.393  1.00  0.00     0.167 HD
ENDBRANCH  33  35
ENDBRANCH  32  33
ENDBRANCH  31  32
ENDBRANCH  19  31
TORSDOF 10
ENDMDL
