MODEL 1
REMARK minimizedAffinity -9.97557926
REMARK CNNscore 0.752747357
REMARK CNNaffinity 7.02137232
REMARK  8 active torsions:
REMARK  status: ('A' for Active; 'I' for Inactive)
REMARK    1  A    between atoms: C2_2  and  C30_35 
REMARK    2  A    between atoms: C3_3  and  C4_4 
REMARK    3  A    between atoms: C4_4  and  O1_5 
REMARK    4  A    between atoms: C4_4  and  C5_6 
REMARK    5  A    between atoms: C5_6  and  C6_7 
REMARK    6  A    between atoms: C6_7  and  C8_9 
REMARK    7  A    between atoms: C29_33  and  O5_34 
REMARK    8  A    between atoms: C30_35  and  O7_37 
ROOT
HETATM    1  C8  UNL     1      -0.929  49.483 -18.190  1.00  0.00     0.006 C 
HETATM    2  C9  UNL     1      -1.825  48.247 -17.926  1.00  0.00     0.085 C 
HETATM    3  C10 UNL     1      -2.555  48.061 -19.240  1.00  0.00     0.140 C 
HETATM    4  O2  UNL     1      -3.331  47.135 -19.456  1.00  0.00    -0.297 OA
HETATM    5  C11 UNL     1      -2.136  49.114 -20.275  1.00  0.00     0.051 C 
HETATM    6  C12 UNL     1      -0.984  48.408 -21.053  1.00  0.00     0.029 C 
HETATM    7  C13 UNL     1      -3.075  49.681 -21.323  1.00  0.00    -0.024 C 
HETATM    8  C14 UNL     1      -2.740  50.833 -21.966  1.00  0.00     0.003 C 
HETATM    9  C15 UNL     1      -1.555  51.635 -21.439  1.00  0.00     0.157 C 
HETATM   10  O3  UNL     1      -1.092  52.577 -22.085  1.00  0.00    -0.293 OA
HETATM   11  C16 UNL     1      -0.903  51.275 -20.104  1.00  0.00     0.094 C 
HETATM   12  C17 UNL     1      -1.712  50.263 -19.295  1.00  0.00    -0.015 C 
HETATM   13  C18 UNL     1      -2.939  51.006 -18.685  1.00  0.00     0.018 C 
HETATM   14  C19 UNL     1      -3.505  51.378 -23.194  1.00  0.00    -0.008 C 
HETATM   15  C20 UNL     1      -4.335  52.594 -22.704  1.00  0.00     0.021 C 
HETATM   16  C21 UNL     1      -2.547  51.873 -24.326  1.00  0.00     0.022 C 
HETATM   17  C22 UNL     1      -3.136  51.770 -25.723  1.00  0.00     0.080 C 
HETATM   18  C23 UNL     1      -3.427  50.327 -26.068  1.00  0.00     0.135 C 
HETATM   19  O4  UNL     1      -3.310  49.934 -27.230  1.00  0.00    -0.297 OA
HETATM   20  C24 UNL     1      -3.880  49.399 -24.927  1.00  0.00     0.018 C 
HETATM   21  C25 UNL     1      -2.665  48.548 -24.532  1.00  0.00     0.023 C 
HETATM   22  C26 UNL     1      -4.953  48.450 -25.508  1.00  0.00     0.023 C 
HETATM   23  C27 UNL     1      -4.494  50.303 -23.798  1.00  0.00     0.016 C 
HETATM   24  C28 UNL     1      -5.229  49.565 -22.674  1.00  0.00     0.043 C 
HETATM   25  C29 UNL     1      -4.316  48.893 -21.655  1.00  0.00     0.149 C 
ENDROOT
BRANCH   1  26
HETATM   26  C6  UNL     1      -0.406  50.157 -16.888  1.00  0.00    -0.011 C 
HETATM   27  C7  UNL     1      -1.468  50.619 -15.882  1.00  0.00     0.010 C 
BRANCH  26  28
HETATM   28  C5  UNL     1       0.613  51.284 -17.204  1.00  0.00     0.040 C 
BRANCH  28  29
HETATM   29  C4  UNL     1       0.969  52.172 -15.998  1.00  0.00     0.142 C 
BRANCH  29  30
HETATM   30  C3  UNL     1       1.877  51.432 -15.047  1.00  0.00     0.018 C 
HETATM   31  C2  UNL     1       3.224  51.398 -14.957  1.00  0.00     0.010 C 
HETATM   32  C1  UNL     1       4.173  52.154 -15.845  1.00  0.00     0.055 C 
BRANCH  31  33
HETATM   33  C30 UNL     1       3.878  50.569 -13.907  1.00  0.00     0.171 C 
HETATM   34  O6  UNL     1       4.879  49.888 -14.060  1.00  0.00    -0.646 OA
BRANCH  33  35
HETATM   35  O7  UNL     1       3.261  50.610 -12.714  1.00  0.00    -0.773 OA
HETATM   36  H42 UNL     1       3.804  50.007 -12.161  1.00  0.00     0.167 HD
ENDBRANCH  33  35
ENDBRANCH  31  33
ENDBRANCH  29  30
BRANCH  29  37
HETATM   37  O1  UNL     1       1.557  53.374 -16.453  1.00  0.00    -0.392 OA
HETATM   38  H6  UNL     1       1.454  54.028 -15.737  1.00  0.00     0.210 HD
ENDBRANCH  29  37
ENDBRANCH  28  29
ENDBRANCH  26  28
ENDBRANCH   1  26
BRANCH  25  39
HETATM   39  O5  UNL     1      -5.099  48.760 -20.470  1.00  0.00    -0.391 OA
HETATM   40  H41 UNL     1      -4.849  47.898 -20.074  1.00  0.00     0.210 HD
ENDBRANCH  25  39
TORSDOF 8
ENDMDL
MODEL 2
REMARK minimizedAffinity -8.07618141
REMARK CNNscore 0.580970705
REMARK CNNaffinity 5.67874289
REMARK  8 active torsions:
REMARK  status: ('A' for Active; 'I' for Inactive)
REMARK    1  A    between atoms: C2_2  and  C30_35 
REMARK    2  A    between atoms: C3_3  and  C4_4 
REMARK    3  A    between atoms: C4_4  and  O1_5 
REMARK    4  A    between atoms: C4_4  and  C5_6 
REMARK    5  A    between atoms: C5_6  and  C6_7 
REMARK    6  A    between atoms: C6_7  and  C8_9 
REMARK    7  A    between atoms: C29_33  and  O5_34 
REMARK    8  A    between atoms: C30_35  and  O7_37 
ROOT
HETATM    1  C8  UNL     1     -13.888  46.285 -27.436  1.00  0.00     0.006 C 
HETATM    2  C9  UNL     1     -13.403  47.361 -26.433  1.00  0.00     0.085 C 
HETATM    3  C10 UNL     1     -12.055  47.770 -26.988  1.00  0.00     0.140 C 
HETATM    4  O2  UNL     1     -11.364  48.658 -26.498  1.00  0.00    -0.297 OA
HETATM    5  C11 UNL     1     -11.716  47.003 -28.274  1.00  0.00     0.051 C 
HETATM    6  C12 UNL     1     -12.235  47.948 -29.400  1.00  0.00     0.029 C 
HETATM    7  C13 UNL     1     -10.305  46.605 -28.666  1.00  0.00    -0.024 C 
HETATM    8  C14 UNL     1     -10.120  45.650 -29.617  1.00  0.00     0.003 C 
HETATM    9  C15 UNL     1     -11.332  44.846 -30.078  1.00  0.00     0.157 C 
HETATM   10  O3  UNL     1     -11.265  44.106 -31.060  1.00  0.00    -0.293 OA
HETATM   11  C16 UNL     1     -12.667  44.958 -29.340  1.00  0.00     0.094 C 
HETATM   12  C17 UNL     1     -12.556  45.705 -28.011  1.00  0.00    -0.015 C 
HETATM   13  C18 UNL     1     -11.875  44.754 -26.980  1.00  0.00     0.018 C 
HETATM   14  C19 UNL     1      -8.746  45.326 -30.247  1.00  0.00    -0.008 C 
HETATM   15  C20 UNL     1      -8.284  43.971 -29.647  1.00  0.00     0.021 C 
HETATM   16  C21 UNL     1      -8.822  45.163 -31.801  1.00  0.00     0.022 C 
HETATM   17  C22 UNL     1      -7.533  45.521 -32.523  1.00  0.00     0.080 C 
HETATM   18  C23 UNL     1      -7.192  46.978 -32.303  1.00  0.00     0.135 C 
HETATM   19  O4  UNL     1      -6.630  47.621 -33.191  1.00  0.00    -0.297 OA
HETATM   20  C24 UNL     1      -7.558  47.598 -30.943  1.00  0.00     0.018 C 
HETATM   21  C25 UNL     1      -8.827  48.435 -31.159  1.00  0.00     0.023 C 
HETATM   22  C26 UNL     1      -6.415  48.564 -30.558  1.00  0.00     0.023 C 
HETATM   23  C27 UNL     1      -7.665  46.426 -29.902  1.00  0.00     0.016 C 
HETATM   24  C28 UNL     1      -7.782  46.844 -28.432  1.00  0.00     0.043 C 
HETATM   25  C29 UNL     1      -9.161  47.347 -28.024  1.00  0.00     0.149 C 
ENDROOT
BRANCH   1  26
HETATM   26  C6  UNL     1     -15.030  45.388 -26.875  1.00  0.00    -0.011 C 
HETATM   27  C7  UNL     1     -14.813  44.797 -25.476  1.00  0.00     0.010 C 
BRANCH  26  28
HETATM   28  C5  UNL     1     -15.447  44.297 -27.898  1.00  0.00     0.040 C 
BRANCH  28  29
HETATM   29  C4  UNL     1     -16.967  44.076 -28.004  1.00  0.00     0.142 C 
BRANCH  29  30
HETATM   30  C3  UNL     1     -17.702  45.010 -27.075  1.00  0.00     0.018 C 
HETATM   31  C2  UNL     1     -18.737  44.790 -26.234  1.00  0.00     0.010 C 
HETATM   32  C1  UNL     1     -19.416  43.465 -26.024  1.00  0.00     0.055 C 
BRANCH  31  33
HETATM   33  C30 UNL     1     -19.283  45.909 -25.418  1.00  0.00     0.171 C 
HETATM   34  O6  UNL     1     -20.426  45.990 -25.000  1.00  0.00    -0.646 OA
BRANCH  33  35
HETATM   35  O7  UNL     1     -18.394  46.884 -25.161  1.00  0.00    -0.773 OA
HETATM   36  H42 UNL     1     -18.918  47.531 -24.642  1.00  0.00     0.167 HD
ENDBRANCH  33  35
ENDBRANCH  31  33
ENDBRANCH  29  30
BRANCH  29  37
HETATM   37  O1  UNL     1     -17.377  44.243 -29.346  1.00  0.00    -0.392 OA
HETATM   38  H6  UNL     1     -18.229  43.778 -29.440  1.00  0.00     0.210 HD
ENDBRANCH  29  37
ENDBRANCH  28  29
ENDBRANCH  26  28
ENDBRANCH   1  26
BRANCH  25  39
HETATM   39  O5  UNL     1      -9.234  47.160 -26.612  1.00  0.00    -0.391 OA
HETATM   40  H41 UNL     1      -9.726  47.932 -26.260  1.00  0.00     0.210 HD
ENDBRANCH  25  39
TORSDOF 8
ENDMDL
MODEL 3
REMARK minimizedAffinity -7.43370295
REMARK CNNscore 0.553163469
REMARK CNNaffinity 6.28367472
REMARK  8 active torsions:
REMARK  status: ('A' for Active; 'I' for Inactive)
REMARK    1  A    between atoms: C2_2  and  C30_35 
REMARK    2  A    between atoms: C3_3  and  C4_4 
REMARK    3  A    between atoms: C4_4  and  O1_5 
REMARK    4  A    between atoms: C4_4  and  C5_6 
REMARK    5  A    between atoms: C5_6  and  C6_7 
REMARK    6  A    between atoms: C6_7  and  C8_9 
REMARK    7  A    between atoms: C29_33  and  O5_34 
REMARK    8  A    between atoms: C30_35  and  O7_37 
ROOT
HETATM    1  C8  UNL     1       1.891  52.997 -11.416  1.00  0.00     0.006 C 
HETATM    2  C9  UNL     1       0.522  53.626 -11.055  1.00  0.00     0.085 C 
HETATM    3  C10 UNL     1       0.864  54.578  -9.928  1.00  0.00     0.140 C 
HETATM    4  O2  UNL     1       0.043  55.320  -9.398  1.00  0.00    -0.297 OA
HETATM    5  C11 UNL     1       2.364  54.557  -9.605  1.00  0.00     0.051 C 
HETATM    6  C12 UNL     1       2.933  55.715 -10.480  1.00  0.00     0.029 C 
HETATM    7  C13 UNL     1       2.925  54.760  -8.210  1.00  0.00    -0.024 C 
HETATM    8  C14 UNL     1       4.209  54.392  -7.946  1.00  0.00     0.003 C 
HETATM    9  C15 UNL     1       4.954  53.570  -8.993  1.00  0.00     0.157 C 
HETATM   10  O3  UNL     1       6.166  53.370  -8.896  1.00  0.00    -0.293 OA
HETATM   11  C16 UNL     1       4.215  52.993 -10.201  1.00  0.00     0.094 C 
HETATM   12  C17 UNL     1       2.695  53.099 -10.080  1.00  0.00    -0.015 C 
HETATM   13  C18 UNL     1       2.217  52.019  -9.061  1.00  0.00     0.018 C 
HETATM   14  C19 UNL     1       4.947  54.750  -6.636  1.00  0.00    -0.008 C 
HETATM   15  C20 UNL     1       5.031  53.448  -5.796  1.00  0.00     0.021 C 
HETATM   16  C21 UNL     1       6.406  55.255  -6.889  1.00  0.00     0.022 C 
HETATM   17  C22 UNL     1       6.918  56.218  -5.831  1.00  0.00     0.080 C 
HETATM   18  C23 UNL     1       6.075  57.472  -5.806  1.00  0.00     0.135 C 
HETATM   19  O4  UNL     1       6.591  58.559  -5.537  1.00  0.00    -0.297 OA
HETATM   20  C24 UNL     1       4.573  57.328  -6.111  1.00  0.00     0.018 C 
HETATM   21  C25 UNL     1       4.362  57.802  -7.556  1.00  0.00     0.023 C 
HETATM   22  C26 UNL     1       3.821  58.303  -5.178  1.00  0.00     0.023 C 
HETATM   23  C27 UNL     1       4.168  55.842  -5.799  1.00  0.00     0.016 C 
HETATM   24  C28 UNL     1       2.666  55.542  -5.802  1.00  0.00     0.043 C 
HETATM   25  C29 UNL     1       2.044  55.433  -7.189  1.00  0.00     0.149 C 
ENDROOT
BRANCH   1  26
HETATM   26  C6  UNL     1       1.767  51.676 -12.231  1.00  0.00    -0.011 C 
HETATM   27  C7  UNL     1       0.698  50.681 -11.765  1.00  0.00     0.010 C 
BRANCH  26  28
HETATM   28  C5  UNL     1       3.148  50.990 -12.409  1.00  0.00     0.040 C 
BRANCH  28  29
HETATM   29  C4  UNL     1       3.293  50.186 -13.713  1.00  0.00     0.142 C 
BRANCH  29  30
HETATM   30  C3  UNL     1       2.449  50.795 -14.805  1.00  0.00     0.018 C 
HETATM   31  C2  UNL     1       2.717  51.786 -15.683  1.00  0.00     0.010 C 
HETATM   32  C1  UNL     1       4.015  52.540 -15.768  1.00  0.00     0.055 C 
BRANCH  31  33
HETATM   33  C30 UNL     1       1.687  52.201 -16.674  1.00  0.00     0.171 C 
HETATM   34  O6  UNL     1       0.593  51.682 -16.821  1.00  0.00    -0.646 OA
BRANCH  33  35
HETATM   35  O7  UNL     1       2.057  53.236 -17.448  1.00  0.00    -0.773 OA
HETATM   36  H42 UNL     1       1.285  53.360 -18.039  1.00  0.00     0.167 HD
ENDBRANCH  33  35
ENDBRANCH  31  33
ENDBRANCH  29  30
BRANCH  29  37
HETATM   37  O1  UNL     1       4.657  50.122 -14.081  1.00  0.00    -0.392 OA
HETATM   38  H6  UNL     1       4.752  49.357 -14.678  1.00  0.00     0.210 HD
ENDBRANCH  29  37
ENDBRANCH  28  29
ENDBRANCH  26  28
ENDBRANCH   1  26
BRANCH  25  39
HETATM   39  O5  UNL     1       0.866  54.646  -7.018  1.00  0.00    -0.391 OA
HETATM   40  H41 UNL     1       0.193  55.030  -7.620  1.00  0.00     0.210 HD
ENDBRANCH  25  39
TORSDOF 8
ENDMDL
MODEL 4
REMARK minimizedAffinity -7.43593311
REMARK CNNscore 0.533432305
REMARK CNNaffinity 6.41973686
REMARK  8 active torsions:
REMARK  status: ('A' for Active; 'I' for Inactive)
REMARK    1  A    between atoms: C2_2  and  C30_35 
REMARK    2  A    between atoms: C3_3  and  C4_4 
REMARK    3  A    between atoms: C4_4  and  O1_5 
REMARK    4  A    between atoms: C4_4  and  C5_6 
REMARK    5  A    between atoms: C5_6  and  C6_7 
REMARK    6  A    between atoms: C6_7  and  C8_9 
REMARK    7  A    between atoms: C29_33  and  O5_34 
REMARK    8  A    between atoms: C30_35  and  O7_37 
ROOT
HETATM    1  C8  UNL     1       1.122  52.434 -12.062  1.00  0.00     0.006 C 
HETATM    2  C9  UNL     1      -0.098  51.885 -11.280  1.00  0.00     0.085 C 
HETATM    3  C10 UNL     1      -0.029  52.629  -9.963  1.00  0.00     0.140 C 
HETATM    4  O2  UNL     1      -0.869  52.512  -9.076  1.00  0.00    -0.297 OA
HETATM    5  C11 UNL     1       1.160  53.599  -9.923  1.00  0.00     0.051 C 
HETATM    6  C12 UNL     1       0.541  54.943 -10.413  1.00  0.00     0.029 C 
HETATM    7  C13 UNL     1       1.937  53.922  -8.659  1.00  0.00    -0.024 C 
HETATM    8  C14 UNL     1       3.162  54.504  -8.759  1.00  0.00     0.003 C 
HETATM    9  C15 UNL     1       3.811  54.589 -10.138  1.00  0.00     0.157 C 
HETATM   10  O3  UNL     1       4.824  55.266 -10.320  1.00  0.00    -0.293 OA
HETATM   11  C16 UNL     1       3.204  53.850 -11.330  1.00  0.00     0.094 C 
HETATM   12  C17 UNL     1       2.109  52.861 -10.930  1.00  0.00    -0.015 C 
HETATM   13  C18 UNL     1       2.798  51.615 -10.294  1.00  0.00     0.018 C 
HETATM   14  C19 UNL     1       3.939  55.073  -7.550  1.00  0.00    -0.008 C 
HETATM   15  C20 UNL     1       5.095  54.081  -7.250  1.00  0.00     0.021 C 
HETATM   16  C21 UNL     1       4.570  56.472  -7.846  1.00  0.00     0.022 C 
HETATM   17  C22 UNL     1       4.728  57.352  -6.617  1.00  0.00     0.080 C 
HETATM   18  C23 UNL     1       3.378  57.658  -6.010  1.00  0.00     0.135 C 
HETATM   19  O4  UNL     1       3.178  58.745  -5.464  1.00  0.00    -0.297 OA
HETATM   20  C24 UNL     1       2.295  56.568  -6.093  1.00  0.00     0.018 C 
HETATM   21  C25 UNL     1       1.335  56.973  -7.220  1.00  0.00     0.023 C 
HETATM   22  C26 UNL     1       1.507  56.604  -4.764  1.00  0.00     0.023 C 
HETATM   23  C27 UNL     1       3.026  55.188  -6.264  1.00  0.00     0.016 C 
HETATM   24  C28 UNL     1       2.147  53.941  -6.123  1.00  0.00     0.043 C 
HETATM   25  C29 UNL     1       1.274  53.641  -7.335  1.00  0.00     0.149 C 
ENDROOT
BRANCH   1  26
HETATM   26  C6  UNL     1       1.544  51.532 -13.259  1.00  0.00    -0.011 C 
HETATM   27  C7  UNL     1       3.022  51.583 -13.666  1.00  0.00     0.010 C 
BRANCH  26  28
HETATM   28  C5  UNL     1       0.607  51.736 -14.479  1.00  0.00     0.040 C 
BRANCH  28  29
HETATM   29  C4  UNL     1       1.340  51.862 -15.827  1.00  0.00     0.142 C 
BRANCH  29  30
HETATM   30  C3  UNL     1       0.639  51.049 -16.887  1.00  0.00     0.018 C 
HETATM   31  C2  UNL     1       0.184  51.396 -18.111  1.00  0.00     0.010 C 
HETATM   32  C1  UNL     1       0.298  52.764 -18.723  1.00  0.00     0.055 C 
BRANCH  31  33
HETATM   33  C30 UNL     1      -0.485  50.380 -18.971  1.00  0.00     0.171 C 
HETATM   34  O6  UNL     1      -0.223  50.158 -20.142  1.00  0.00    -0.646 OA
BRANCH  33  35
HETATM   35  O7  UNL     1      -1.454  49.689 -18.348  1.00  0.00    -0.773 OA
HETATM   36  H42 UNL     1      -1.790  49.093 -19.052  1.00  0.00     0.167 HD
ENDBRANCH  33  35
ENDBRANCH  31  33
ENDBRANCH  29  30
BRANCH  29  37
HETATM   37  O1  UNL     1       1.432  53.225 -16.189  1.00  0.00    -0.392 OA
HETATM   38  H6  UNL     1       2.165  53.298 -16.828  1.00  0.00     0.210 HD
ENDBRANCH  29  37
ENDBRANCH  28  29
ENDBRANCH  26  28
ENDBRANCH   1  26
BRANCH  25  39
HETATM   39  O5  UNL     1       0.982  52.247  -7.261  1.00  0.00    -0.391 OA
HETATM   40  H41 UNL     1       0.056  52.146  -7.567  1.00  0.00     0.210 HD
ENDBRANCH  25  39
TORSDOF 8
ENDMDL
MODEL 5
REMARK minimizedAffinity -7.97483921
REMARK CNNscore 0.519517422
REMARK CNNaffinity 5.74267721
REMARK  8 active torsions:
REMARK  status: ('A' for Active; 'I' for Inactive)
REMARK    1  A    between atoms: C2_2  and  C30_35 
REMARK    2  A    between atoms: C3_3  and  C4_4 
REMARK    3  A    between atoms: C4_4  and  O1_5 
REMARK    4  A    between atoms: C4_4  and  C5_6 
REMARK    5  A    between atoms: C5_6  and  C6_7 
REMARK    6  A    between atoms: C6_7  and  C8_9 
REMARK    7  A    between atoms: C29_33  and  O5_34 
REMARK    8  A    between atoms: C30_35  and  O7_37 
ROOT
HETATM    1  C8  UNL     1     -15.509  44.425 -26.047  1.00  0.00     0.006 C 
HETATM    2  C9  UNL     1     -15.182  42.935 -26.313  1.00  0.00     0.085 C 
HETATM    3  C10 UNL     1     -13.739  42.973 -26.771  1.00  0.00     0.140 C 
HETATM    4  O2  UNL     1     -13.085  41.968 -27.030  1.00  0.00    -0.297 OA
HETATM    5  C11 UNL     1     -13.187  44.406 -26.784  1.00  0.00     0.051 C 
HETATM    6  C12 UNL     1     -12.527  44.545 -25.378  1.00  0.00     0.029 C 
HETATM    7  C13 UNL     1     -12.162  44.902 -27.788  1.00  0.00    -0.024 C 
HETATM    8  C14 UNL     1     -11.983  46.240 -27.953  1.00  0.00     0.003 C 
HETATM    9  C15 UNL     1     -12.985  47.189 -27.300  1.00  0.00     0.157 C 
HETATM   10  O3  UNL     1     -12.772  48.401 -27.256  1.00  0.00    -0.293 OA
HETATM   11  C16 UNL     1     -14.269  46.650 -26.668  1.00  0.00     0.094 C 
HETATM   12  C17 UNL     1     -14.532  45.182 -27.002  1.00  0.00    -0.015 C 
HETATM   13  C18 UNL     1     -15.029  45.107 -28.478  1.00  0.00     0.018 C 
HETATM   14  C19 UNL     1     -10.827  46.852 -28.776  1.00  0.00    -0.008 C 
HETATM   15  C20 UNL     1     -11.445  47.375 -30.100  1.00  0.00     0.021 C 
HETATM   16  C21 UNL     1     -10.147  48.060 -28.051  1.00  0.00     0.022 C 
HETATM   17  C22 UNL     1      -8.684  48.254 -28.414  1.00  0.00     0.080 C 
HETATM   18  C23 UNL     1      -7.873  47.048 -27.999  1.00  0.00     0.135 C 
HETATM   19  O4  UNL     1      -6.707  47.188 -27.623  1.00  0.00    -0.297 OA
HETATM   20  C24 UNL     1      -8.551  45.669 -28.081  1.00  0.00     0.018 C 
HETATM   21  C25 UNL     1      -8.952  45.281 -26.650  1.00  0.00     0.023 C 
HETATM   22  C26 UNL     1      -7.484  44.662 -28.563  1.00  0.00     0.023 C 
HETATM   23  C27 UNL     1      -9.720  45.779 -29.125  1.00  0.00     0.016 C 
HETATM   24  C28 UNL     1     -10.373  44.457 -29.542  1.00  0.00     0.043 C 
HETATM   25  C29 UNL     1     -11.333  43.873 -28.512  1.00  0.00     0.149 C 
ENDROOT
BRANCH   1  26
HETATM   26  C6  UNL     1     -17.037  44.721 -25.990  1.00  0.00    -0.011 C 
HETATM   27  C7  UNL     1     -17.796  44.661 -27.322  1.00  0.00     0.010 C 
BRANCH  26  28
HETATM   28  C5  UNL     1     -17.330  46.038 -25.224  1.00  0.00     0.040 C 
BRANCH  28  29
HETATM   29  C4  UNL     1     -18.826  46.316 -24.990  1.00  0.00     0.142 C 
BRANCH  29  30
HETATM   30  C3  UNL     1     -19.341  45.495 -23.834  1.00  0.00     0.018 C 
HETATM   31  C2  UNL     1     -18.961  45.454 -22.539  1.00  0.00     0.010 C 
HETATM   32  C1  UNL     1     -17.868  46.288 -21.929  1.00  0.00     0.055 C 
BRANCH  31  33
HETATM   33  C30 UNL     1     -19.648  44.535 -21.590  1.00  0.00     0.171 C 
HETATM   34  O6  UNL     1     -20.056  43.416 -21.855  1.00  0.00    -0.646 OA
BRANCH  33  35
HETATM   35  O7  UNL     1     -19.810  45.042 -20.356  1.00  0.00    -0.773 OA
HETATM   36  H42 UNL     1     -20.284  44.327 -19.881  1.00  0.00     0.167 HD
ENDBRANCH  33  35
ENDBRANCH  31  33
ENDBRANCH  29  30
BRANCH  29  37
HETATM   37  O1  UNL     1     -19.023  47.700 -24.777  1.00  0.00    -0.392 OA
HETATM   38  H6  UNL     1     -19.960  47.885 -24.973  1.00  0.00     0.210 HD
ENDBRANCH  29  37
ENDBRANCH  28  29
ENDBRANCH  26  28
ENDBRANCH   1  26
BRANCH  25  39
HETATM   39  O5  UNL     1     -12.209  43.020 -29.247  1.00  0.00    -0.391 OA
HETATM   40  H41 UNL     1     -12.381  42.245 -28.671  1.00  0.00     0.210 HD
ENDBRANCH  25  39
TORSDOF 8
ENDMDL
MODEL 6
REMARK minimizedAffinity -7.39860678
REMARK CNNscore 0.413468331
REMARK CNNaffinity 5.74957657
REMARK  8 active torsions:
REMARK  status: ('A' for Active; 'I' for Inactive)
REMARK    1  A    between atoms: C2_2  and  C30_35 
REMARK    2  A    between atoms: C3_3  and  C4_4 
REMARK    3  A    between atoms: C4_4  and  O1_5 
REMARK    4  A    between atoms: C4_4  and  C5_6 
REMARK    5  A    between atoms: C5_6  and  C6_7 
REMARK    6  A    between atoms: C6_7  and  C8_9 
REMARK    7  A    between atoms: C29_33  and  O5_34 
REMARK    8  A    between atoms: C30_35  and  O7_37 
ROOT
HETATM    1  C8  UNL     1       4.908  64.894 -35.610  1.00  0.00     0.006 C 
HETATM    2  C9  UNL     1       3.495  65.485 -35.381  1.00  0.00     0.085 C 
HETATM    3  C10 UNL     1       3.593  66.866 -35.997  1.00  0.00     0.140 C 
HETATM    4  O2  UNL     1       2.646  67.643 -36.069  1.00  0.00    -0.297 OA
HETATM    5  C11 UNL     1       4.986  67.124 -36.589  1.00  0.00     0.051 C 
HETATM    6  C12 UNL     1       4.824  66.697 -38.080  1.00  0.00     0.029 C 
HETATM    7  C13 UNL     1       5.651  68.488 -36.604  1.00  0.00    -0.024 C 
HETATM    8  C14 UNL     1       6.991  68.575 -36.824  1.00  0.00     0.003 C 
HETATM    9  C15 UNL     1       7.811  67.288 -36.804  1.00  0.00     0.157 C 
HETATM   10  O3  UNL     1       8.984  67.279 -37.178  1.00  0.00    -0.293 OA
HETATM   11  C16 UNL     1       7.185  65.973 -36.338  1.00  0.00     0.094 C 
HETATM   12  C17 UNL     1       5.820  66.161 -35.675  1.00  0.00    -0.015 C 
HETATM   13  C18 UNL     1       6.055  66.748 -34.250  1.00  0.00     0.018 C 
HETATM   14  C19 UNL     1       7.731  69.908 -37.077  1.00  0.00    -0.008 C 
HETATM   15  C20 UNL     1       8.524  70.237 -35.785  1.00  0.00     0.021 C 
HETATM   16  C21 UNL     1       8.752  69.812 -38.258  1.00  0.00     0.022 C 
HETATM   17  C22 UNL     1       8.983  71.128 -38.983  1.00  0.00     0.080 C 
HETATM   18  C23 UNL     1       7.701  71.612 -39.621  1.00  0.00     0.135 C 
HETATM   19  O4  UNL     1       7.736  72.232 -40.686  1.00  0.00    -0.297 OA
HETATM   20  C24 UNL     1       6.382  71.313 -38.886  1.00  0.00     0.018 C 
HETATM   21  C25 UNL     1       5.722  70.131 -39.611  1.00  0.00     0.023 C 
HETATM   22  C26 UNL     1       5.469  72.546 -39.064  1.00  0.00     0.023 C 
HETATM   23  C27 UNL     1       6.726  71.093 -37.368  1.00  0.00     0.016 C 
HETATM   24  C28 UNL     1       5.530  71.023 -36.413  1.00  0.00     0.043 C 
HETATM   25  C29 UNL     1       4.772  69.701 -36.444  1.00  0.00     0.149 C 
ENDROOT
BRANCH   1  26
HETATM   26  C6  UNL     1       5.220  63.671 -34.699  1.00  0.00    -0.011 C 
HETATM   27  C7  UNL     1       4.211  63.373 -33.583  1.00  0.00     0.010 C 
BRANCH  26  28
HETATM   28  C5  UNL     1       6.674  63.726 -34.157  1.00  0.00     0.040 C 
BRANCH  28  29
HETATM   29  C4  UNL     1       7.549  62.529 -34.570  1.00  0.00     0.142 C 
BRANCH  29  30
HETATM   30  C3  UNL     1       8.950  62.690 -34.034  1.00  0.00     0.018 C 
HETATM   31  C2  UNL     1      10.121  62.916 -34.669  1.00  0.00     0.010 C 
HETATM   32  C1  UNL     1      10.284  63.075 -36.156  1.00  0.00     0.055 C 
BRANCH  31  33
HETATM   33  C30 UNL     1      11.382  63.034 -33.886  1.00  0.00     0.171 C 
HETATM   34  O6  UNL     1      11.476  62.941 -32.674  1.00  0.00    -0.646 OA
BRANCH  33  35
HETATM   35  O7  UNL     1      12.472  63.270 -34.636  1.00  0.00    -0.773 OA
HETATM   36  H42 UNL     1      13.190  63.335 -33.971  1.00  0.00     0.167 HD
ENDBRANCH  33  35
ENDBRANCH  31  33
ENDBRANCH  29  30
BRANCH  29  37
HETATM   37  O1  UNL     1       6.953  61.329 -34.122  1.00  0.00    -0.392 OA
HETATM   38  H6  UNL     1       7.319  60.610 -34.669  1.00  0.00     0.210 HD
ENDBRANCH  29  37
ENDBRANCH  28  29
ENDBRANCH  26  28
ENDBRANCH   1  26
BRANCH  25  39
HETATM   39  O5  UNL     1       4.104  69.614 -35.186  1.00  0.00    -0.391 OA
HETATM   40  H41 UNL     1       3.233  69.202 -35.368  1.00  0.00     0.210 HD
ENDBRANCH  25  39
TORSDOF 8
ENDMDL
MODEL 7
REMARK minimizedAffinity -9.47773075
REMARK CNNscore 0.407897502
REMARK CNNaffinity 6.32676744
REMARK  8 active torsions:
REMARK  status: ('A' for Active; 'I' for Inactive)
REMARK    1  A    between atoms: C2_2  and  C30_35 
REMARK    2  A    between atoms: C3_3  and  C4_4 
REMARK    3  A    between atoms: C4_4  and  O1_5 
REMARK    4  A    between atoms: C4_4  and  C5_6 
REMARK    5  A    between atoms: C5_6  and  C6_7 
REMARK    6  A    between atoms: C6_7  and  C8_9 
REMARK    7  A    between atoms: C29_33  and  O5_34 
REMARK    8  A    between atoms: C30_35  and  O7_37 
ROOT
HETATM    1  C8  UNL     1      -2.292  48.165 -19.036  1.00  0.00     0.006 C 
HETATM    2  C9  UNL     1      -3.091  46.848 -19.199  1.00  0.00     0.085 C 
HETATM    3  C10 UNL     1      -3.525  46.883 -20.650  1.00  0.00     0.140 C 
HETATM    4  O2  UNL     1      -4.144  45.973 -21.192  1.00  0.00    -0.297 OA
HETATM    5  C11 UNL     1      -3.019  48.145 -21.362  1.00  0.00     0.051 C 
HETATM    6  C12 UNL     1      -1.671  47.683 -21.992  1.00  0.00     0.029 C 
HETATM    7  C13 UNL     1      -3.787  48.851 -22.465  1.00  0.00    -0.024 C 
HETATM    8  C14 UNL     1      -3.452  50.127 -22.800  1.00  0.00     0.003 C 
HETATM    9  C15 UNL     1      -2.482  50.880 -21.895  1.00  0.00     0.157 C 
HETATM   10  O3  UNL     1      -1.999  51.959 -22.244  1.00  0.00    -0.293 OA
HETATM   11  C16 UNL     1      -2.072  50.302 -20.541  1.00  0.00     0.094 C 
HETATM   12  C17 UNL     1      -2.917  49.100 -20.121  1.00  0.00    -0.015 C 
HETATM   13  C18 UNL     1      -4.310  49.629 -19.661  1.00  0.00     0.018 C 
HETATM   14  C19 UNL     1      -4.011  50.858 -24.042  1.00  0.00    -0.008 C 
HETATM   15  C20 UNL     1      -5.041  51.898 -23.527  1.00  0.00     0.021 C 
HETATM   16  C21 UNL     1      -2.904  51.628 -24.834  1.00  0.00     0.022 C 
HETATM   17  C22 UNL     1      -3.192  51.770 -26.319  1.00  0.00     0.080 C 
HETATM   18  C23 UNL     1      -3.261  50.410 -26.976  1.00  0.00     0.135 C 
HETATM   19  O4  UNL     1      -2.878  50.265 -28.138  1.00  0.00    -0.297 OA
HETATM   20  C24 UNL     1      -3.833  49.246 -26.147  1.00  0.00     0.018 C 
HETATM   21  C25 UNL     1      -2.639  48.410 -25.664  1.00  0.00     0.023 C 
HETATM   22  C26 UNL     1      -4.667  48.368 -27.106  1.00  0.00     0.023 C 
HETATM   23  C27 UNL     1      -4.747  49.866 -25.029  1.00  0.00     0.016 C 
HETATM   24  C28 UNL     1      -5.609  48.874 -24.241  1.00  0.00     0.043 C 
HETATM   25  C29 UNL     1      -4.851  48.070 -23.192  1.00  0.00     0.149 C 
ENDROOT
BRANCH   1  26
HETATM   26  C6  UNL     1      -2.107  48.596 -17.552  1.00  0.00    -0.011 C 
HETATM   27  C7  UNL     1      -3.339  49.182 -16.850  1.00  0.00     0.010 C 
BRANCH  26  28
HETATM   28  C5  UNL     1      -0.863  49.507 -17.377  1.00  0.00     0.040 C 
BRANCH  28  29
HETATM   29  C4  UNL     1      -1.191  51.001 -17.202  1.00  0.00     0.142 C 
BRANCH  29  30
HETATM   30  C3  UNL     1      -0.613  51.805 -18.340  1.00  0.00     0.018 C 
HETATM   31  C2  UNL     1       0.562  52.463 -18.452  1.00  0.00     0.010 C 
HETATM   32  C1  UNL     1       1.624  52.527 -17.390  1.00  0.00     0.055 C 
BRANCH  31  33
HETATM   33  C30 UNL     1       0.889  53.192 -19.709  1.00  0.00     0.171 C 
HETATM   34  O6  UNL     1       1.454  52.716 -20.679  1.00  0.00    -0.646 OA
BRANCH  33  35
HETATM   35  O7  UNL     1       0.512  54.482 -19.707  1.00  0.00    -0.773 OA
HETATM   36  H42 UNL     1       0.815  54.804 -20.582  1.00  0.00     0.167 HD
ENDBRANCH  33  35
ENDBRANCH  31  33
ENDBRANCH  29  30
BRANCH  29  37
HETATM   37  O1  UNL     1      -2.591  51.169 -17.101  1.00  0.00    -0.392 OA
HETATM   38  H6  UNL     1      -2.741  52.027 -16.663  1.00  0.00     0.210 HD
ENDBRANCH  29  37
ENDBRANCH  28  29
ENDBRANCH  26  28
ENDBRANCH   1  26
BRANCH  25  39
HETATM   39  O5  UNL     1      -5.834  47.654 -22.246  1.00  0.00    -0.391 OA
HETATM   40  H41 UNL     1      -5.580  46.748 -21.969  1.00  0.00     0.210 HD
ENDBRANCH  25  39
TORSDOF 8
ENDMDL
MODEL 8
REMARK minimizedAffinity -7.68786287
REMARK CNNscore 0.405987918
REMARK CNNaffinity 5.70897341
REMARK  8 active torsions:
REMARK  status: ('A' for Active; 'I' for Inactive)
REMARK    1  A    between atoms: C2_2  and  C30_35 
REMARK    2  A    between atoms: C3_3  and  C4_4 
REMARK    3  A    between atoms: C4_4  and  O1_5 
REMARK    4  A    between atoms: C4_4  and  C5_6 
REMARK    5  A    between atoms: C5_6  and  C6_7 
REMARK    6  A    between atoms: C6_7  and  C8_9 
REMARK    7  A    between atoms: C29_33  and  O5_34 
REMARK    8  A    between atoms: C30_35  and  O7_37 
ROOT
HETATM    1  C8  UNL     1     -13.081  45.579 -25.817  1.00  0.00     0.006 C 
HETATM    2  C9  UNL     1     -12.348  44.278 -25.404  1.00  0.00     0.085 C 
HETATM    3  C10 UNL     1     -11.096  44.301 -26.257  1.00  0.00     0.140 C 
HETATM    4  O2  UNL     1     -10.212  43.453 -26.181  1.00  0.00    -0.297 OA
HETATM    5  C11 UNL     1     -11.040  45.549 -27.147  1.00  0.00     0.051 C 
HETATM    6  C12 UNL     1     -10.224  46.563 -26.289  1.00  0.00     0.029 C 
HETATM    7  C13 UNL     1     -10.419  45.566 -28.532  1.00  0.00    -0.024 C 
HETATM    8  C14 UNL     1     -10.708  46.589 -29.381  1.00  0.00     0.003 C 
HETATM    9  C15 UNL     1     -11.828  47.551 -28.999  1.00  0.00     0.157 C 
HETATM   10  O3  UNL     1     -12.008  48.595 -29.627  1.00  0.00    -0.293 OA
HETATM   11  C16 UNL     1     -12.742  47.248 -27.811  1.00  0.00     0.094 C 
HETATM   12  C17 UNL     1     -12.579  45.826 -27.275  1.00  0.00    -0.015 C 
HETATM   13  C18 UNL     1     -13.276  44.853 -28.274  1.00  0.00     0.018 C 
HETATM   14  C19 UNL     1      -9.969  46.822 -30.720  1.00  0.00    -0.008 C 
HETATM   15  C20 UNL     1     -10.943  46.399 -31.851  1.00  0.00     0.021 C 
HETATM   16  C21 UNL     1      -9.594  48.324 -30.944  1.00  0.00     0.022 C 
HETATM   17  C22 UNL     1      -8.356  48.530 -31.801  1.00  0.00     0.080 C 
HETATM   18  C23 UNL     1      -7.143  47.924 -31.132  1.00  0.00     0.135 C 
HETATM   19  O4  UNL     1      -6.036  48.448 -31.270  1.00  0.00    -0.297 OA
HETATM   20  C24 UNL     1      -7.351  46.644 -30.303  1.00  0.00     0.018 C 
HETATM   21  C25 UNL     1      -7.350  47.062 -28.826  1.00  0.00     0.023 C 
HETATM   22  C26 UNL     1      -6.120  45.741 -30.541  1.00  0.00     0.023 C 
HETATM   23  C27 UNL     1      -8.657  45.947 -30.829  1.00  0.00     0.016 C 
HETATM   24  C28 UNL     1      -8.918  44.530 -30.307  1.00  0.00     0.043 C 
HETATM   25  C29 UNL     1      -9.446  44.468 -28.879  1.00  0.00     0.149 C 
ENDROOT
BRANCH   1  26
HETATM   26  C6  UNL     1     -14.589  45.588 -25.427  1.00  0.00    -0.011 C 
HETATM   27  C7  UNL     1     -15.579  45.156 -26.515  1.00  0.00     0.010 C 
BRANCH  26  28
HETATM   28  C5  UNL     1     -14.998  46.939 -24.783  1.00  0.00     0.040 C 
BRANCH  28  29
HETATM   29  C4  UNL     1     -15.950  46.805 -23.581  1.00  0.00     0.142 C 
BRANCH  29  30
HETATM   30  C3  UNL     1     -17.342  46.457 -24.047  1.00  0.00     0.018 C 
HETATM   31  C2  UNL     1     -18.483  46.254 -23.352  1.00  0.00     0.010 C 
HETATM   32  C1  UNL     1     -18.617  46.349 -21.857  1.00  0.00     0.055 C 
BRANCH  31  33
HETATM   33  C30 UNL     1     -19.742  45.914 -24.071  1.00  0.00     0.171 C 
HETATM   34  O6  UNL     1     -20.517  45.023 -23.764  1.00  0.00    -0.646 OA
BRANCH  33  35
HETATM   35  O7  UNL     1     -19.984  46.685 -25.145  1.00  0.00    -0.773 OA
HETATM   36  H42 UNL     1     -20.822  46.318 -25.498  1.00  0.00     0.167 HD
ENDBRANCH  33  35
ENDBRANCH  31  33
ENDBRANCH  29  30
BRANCH  29  37
HETATM   37  O1  UNL     1     -15.443  45.839 -22.681  1.00  0.00    -0.392 OA
HETATM   38  H6  UNL     1     -15.853  46.019 -21.815  1.00  0.00     0.210 HD
ENDBRANCH  29  37
ENDBRANCH  28  29
ENDBRANCH  26  28
ENDBRANCH   1  26
BRANCH  25  39
HETATM   39  O5  UNL     1     -10.119  43.215 -28.775  1.00  0.00    -0.391 OA
HETATM   40  H41 UNL     1      -9.932  42.880 -27.872  1.00  0.00     0.210 HD
ENDBRANCH  25  39
TORSDOF 8
ENDMDL
MODEL 9
REMARK minimizedAffinity -7.46475887
REMARK CNNscore 0.344889313
REMARK CNNaffinity 5.70584059
REMARK  8 active torsions:
REMARK  status: ('A' for Active; 'I' for Inactive)
REMARK    1  A    between atoms: C2_2  and  C30_35 
REMARK    2  A    between atoms: C3_3  and  C4_4 
REMARK    3  A    between atoms: C4_4  and  O1_5 
REMARK    4  A    between atoms: C4_4  and  C5_6 
REMARK    5  A    between atoms: C5_6  and  C6_7 
REMARK    6  A    between atoms: C6_7  and  C8_9 
REMARK    7  A    between atoms: C29_33  and  O5_34 
REMARK    8  A    between atoms: C30_35  and  O7_37 
ROOT
HETATM    1  C8  UNL     1      -1.218  53.047 -11.235  1.00  0.00     0.006 C 
HETATM    2  C9  UNL     1      -2.011  52.367 -10.090  1.00  0.00     0.085 C 
HETATM    3  C10 UNL     1      -1.427  52.996  -8.842  1.00  0.00     0.140 C 
HETATM    4  O2  UNL     1      -1.835  52.756  -7.711  1.00  0.00    -0.297 OA
HETATM    5  C11 UNL     1      -0.336  54.021  -9.183  1.00  0.00     0.051 C 
HETATM    6  C12 UNL     1      -1.119  55.367  -9.244  1.00  0.00     0.029 C 
HETATM    7  C13 UNL     1       0.880  54.273  -8.310  1.00  0.00    -0.024 C 
HETATM    8  C14 UNL     1       1.953  54.927  -8.833  1.00  0.00     0.003 C 
HETATM    9  C15 UNL     1       1.988  55.168 -10.339  1.00  0.00     0.157 C 
HETATM   10  O3  UNL     1       2.832  55.912 -10.841  1.00  0.00    -0.293 OA
HETATM   11  C16 UNL     1       0.962  54.504 -11.257  1.00  0.00     0.094 C 
HETATM   12  C17 UNL     1       0.137  53.426 -10.555  1.00  0.00    -0.015 C 
HETATM   13  C18 UNL     1       1.040  52.168 -10.379  1.00  0.00     0.018 C 
HETATM   14  C19 UNL     1       3.144  55.429  -7.984  1.00  0.00    -0.008 C 
HETATM   15  C20 UNL     1       4.336  54.478  -8.274  1.00  0.00     0.021 C 
HETATM   16  C21 UNL     1       3.582  56.881  -8.364  1.00  0.00     0.022 C 
HETATM   17  C22 UNL     1       4.210  57.657  -7.218  1.00  0.00     0.080 C 
HETATM   18  C23 UNL     1       3.215  57.836  -6.094  1.00  0.00     0.135 C 
HETATM   19  O4  UNL     1       3.238  58.858  -5.406  1.00  0.00    -0.297 OA
HETATM   20  C24 UNL     1       2.207  56.700  -5.847  1.00  0.00     0.018 C 
HETATM   21  C25 UNL     1       0.868  57.150  -6.448  1.00  0.00     0.023 C 
HETATM   22  C26 UNL     1       2.022  56.577  -4.318  1.00  0.00     0.023 C 
HETATM   23  C27 UNL     1       2.826  55.381  -6.436  1.00  0.00     0.016 C 
HETATM   24  C28 UNL     1       2.096  54.081  -6.082  1.00  0.00     0.043 C 
HETATM   25  C29 UNL     1       0.812  53.842  -6.867  1.00  0.00     0.149 C 
ENDROOT
BRANCH   1  26
HETATM   26  C6  UNL     1      -1.302  52.278 -12.586  1.00  0.00    -0.011 C 
HETATM   27  C7  UNL     1      -2.640  51.600 -12.906  1.00  0.00     0.010 C 
BRANCH  26  28
HETATM   28  C5  UNL     1      -0.109  51.298 -12.754  1.00  0.00     0.040 C 
BRANCH  28  29
HETATM   29  C4  UNL     1       0.772  51.579 -13.984  1.00  0.00     0.142 C 
BRANCH  29  30
HETATM   30  C3  UNL     1       0.278  50.799 -15.177  1.00  0.00     0.018 C 
HETATM   31  C2  UNL     1       0.503  50.966 -16.499  1.00  0.00     0.010 C 
HETATM   32  C1  UNL     1       1.367  52.039 -17.102  1.00  0.00     0.055 C 
BRANCH  31  33
HETATM   33  C30 UNL     1      -0.120  50.038 -17.482  1.00  0.00     0.171 C 
HETATM   34  O6  UNL     1      -0.530  48.915 -17.238  1.00  0.00    -0.646 OA
BRANCH  33  35
HETATM   35  O7  UNL     1      -0.202  50.536 -18.728  1.00  0.00    -0.773 OA
HETATM   36  H42 UNL     1      -0.610  49.802 -19.235  1.00  0.00     0.167 HD
ENDBRANCH  33  35
ENDBRANCH  31  33
ENDBRANCH  29  30
BRANCH  29  37
HETATM   37  O1  UNL     1       0.796  52.969 -14.241  1.00  0.00    -0.392 OA
HETATM   38  H6  UNL     1       1.594  53.144 -14.774  1.00  0.00     0.210 HD
ENDBRANCH  29  37
ENDBRANCH  28  29
ENDBRANCH  26  28
ENDBRANCH   1  26
BRANCH  25  39
HETATM   39  O5  UNL     1       0.595  52.433  -6.825  1.00  0.00    -0.391 OA
HETATM   40  H41 UNL     1      -0.375  52.310  -6.743  1.00  0.00     0.210 HD
ENDBRANCH  25  39
TORSDOF 8
ENDMDL
