MODEL 1
REMARK minimizedAffinity -8.02307415
REMARK CNNscore 0.685033798
REMARK CNNaffinity 7.13913202
REMARK  19 active torsions:
REMARK  status: ('A' for Active; 'I' for Inactive)
REMARK    1  A    between atoms: O1_2  and  C2_3 
REMARK    2  A    between atoms: C2_3  and  C3_4 
REMARK    3  A    between atoms: C2_3  and  C28_36 
REMARK    4  A    between atoms: C3_4  and  C4_5 
REMARK    5  A    between atoms: C4_5  and  C6_7 
REMARK    6  A    between atoms: C6_7  and  O2_8 
REMARK    7  A    between atoms: C6_7  and  C7_9 
REMARK    8  A    between atoms: C8_10  and  C9_11 
REMARK    9  A    between atoms: C10_12  and  C11_13 
REMARK   10  A    between atoms: C11_13  and  N1_14 
REMARK       I    between atoms: N1_14  and  C12_15 
REMARK   11  A    between atoms: C12_15  and  C13_17 
REMARK   12  A    between atoms: C13_17  and  C16_20 
REMARK   13  A    between atoms: C16_20  and  O4_21 
REMARK   14  A    between atoms: C16_20  and  C17_22 
REMARK   15  A    between atoms: C19_24  and  C20_25 
REMARK   16  A    between atoms: C21_26  and  C22_27 
REMARK   17  A    between atoms: C23_28  and  C24_29 
REMARK   18  A    between atoms: C26_31  and  N2_33 
REMARK   19  A    between atoms: C28_36  and  O7_37 
ROOT
HETATM    1  C9  UNL     1       1.836  51.877 -16.122  1.00  0.00    -0.003 C 
HETATM    2  C10 UNL     1       2.869  52.101 -15.293  1.00  0.00    -0.007 C 
ENDROOT
BRANCH   1   3
HETATM    3  C8  UNL     1       1.580  52.691 -17.285  1.00  0.00    -0.002 C 
HETATM    4  C7  UNL     1       0.559  52.465 -18.126  1.00  0.00     0.005 C 
BRANCH   4   5
HETATM    5  C6  UNL     1       0.277  53.304 -19.338  1.00  0.00     0.144 C 
BRANCH   5   6
HETATM    6  C4  UNL     1      -0.102  52.490 -20.601  1.00  0.00     0.016 C 
HETATM    7  C5  UNL     1       1.010  52.549 -21.660  1.00  0.00     0.013 C 
BRANCH   6   8
HETATM    8  C3  UNL     1      -0.405  51.018 -20.203  1.00  0.00     0.042 C 
BRANCH   8   9
HETATM    9  C2  UNL     1      -1.908  50.685 -20.013  1.00  0.00     0.159 C 
BRANCH   9  10
HETATM   10  O1  UNL     1      -2.498  51.703 -19.193  1.00  0.00    -0.388 OA
HETATM   11  C1  UNL     1      -2.786  51.271 -17.867  1.00  0.00     0.202 C 
ENDBRANCH   9  10
BRANCH   9  12
HETATM   12  C28 UNL     1      -2.707  50.611 -21.369  1.00  0.00     0.133 C 
HETATM   13  C29 UNL     1      -4.073  51.374 -21.301  1.00  0.00     0.114 C 
HETATM   14  C30 UNL     1      -4.587  51.895 -22.642  1.00  0.00     0.023 C 
HETATM   15  C31 UNL     1      -5.043  50.333 -20.788  1.00  0.00     0.227 C 
HETATM   16  O8  UNL     1      -6.099  50.571 -20.227  1.00  0.00    -0.273 OA
HETATM   17  N3  UNL     1      -4.542  49.087 -21.127  1.00  0.00    -0.332 N 
HETATM   18  C32 UNL     1      -5.106  47.891 -20.539  1.00  0.00     0.154 C 
HETATM   19  C33 UNL     1      -3.143  49.152 -21.676  1.00  0.00     0.183 A 
HETATM   20  C34 UNL     1      -2.185  47.980 -21.304  1.00  0.00     0.294 A 
HETATM   21  C35 UNL     1      -3.036  48.491 -23.098  1.00  0.00     0.169 A 
HETATM   22  O9  UNL     1      -1.620  47.550 -20.324  1.00  0.00    -0.262 OA
HETATM   23  O10 UNL     1      -2.212  47.423 -22.542  1.00  0.00    -0.311 OA
HETATM   24  C36 UNL     1      -2.324  49.094 -24.295  1.00  0.00     0.043 C 
BRANCH  12  25
HETATM   25  O7  UNL     1      -1.896  51.124 -22.429  1.00  0.00    -0.383 OA
HETATM   26  H42 UNL     1      -1.841  52.097 -22.338  1.00  0.00     0.210 HD
ENDBRANCH  12  25
ENDBRANCH   9  12
ENDBRANCH   8   9
ENDBRANCH   6   8
ENDBRANCH   5   6
BRANCH   5  27
HETATM   27  O2  UNL     1       1.486  54.020 -19.608  1.00  0.00    -0.391 OA
HETATM   28  H12 UNL     1       1.606  54.628 -18.853  1.00  0.00     0.210 HD
ENDBRANCH   5  27
ENDBRANCH   4   5
ENDBRANCH   1   3
BRANCH   2  29
HETATM   29  C11 UNL     1       3.140  51.305 -14.059  1.00  0.00     0.149 C 
BRANCH  29  30
HETATM   30  N1  UNL     1       2.686  52.069 -12.928  1.00  0.00    -0.357 N 
HETATM   31  C12 UNL     1       3.102  51.808 -11.642  1.00  0.00     0.228 C 
HETATM   32  O3  UNL     1       3.833  50.859 -11.375  1.00  0.00    -0.273 OA
HETATM   33  H19 UNL     1       2.200  52.947 -13.100  1.00  0.00     0.162 HD
BRANCH  31  34
HETATM   34  C13 UNL     1       2.561  52.781 -10.563  1.00  0.00     0.063 C 
HETATM   35  C14 UNL     1       3.014  52.245  -9.189  1.00  0.00     0.028 C 
HETATM   36  C15 UNL     1       1.024  52.732 -10.638  1.00  0.00     0.028 C 
BRANCH  34  37
HETATM   37  C16 UNL     1       3.183  54.184 -10.860  1.00  0.00     0.164 C 
BRANCH  37  38
HETATM   38  O4  UNL     1       2.152  55.091 -11.289  1.00  0.00    -0.390 OA
HETATM   39  H27 UNL     1       2.118  55.824 -10.646  1.00  0.00     0.210 HD
ENDBRANCH  37  38
BRANCH  37  40
HETATM   40  C17 UNL     1       4.043  54.930  -9.835  1.00  0.00    -0.054 C 
HETATM   41  C18 UNL     1       3.212  55.832  -8.948  1.00  0.00     0.046 C 
HETATM   42  C19 UNL     1       5.379  54.780  -9.718  1.00  0.00     0.005 C 
BRANCH  42  43
HETATM   43  C20 UNL     1       6.262  55.471  -8.798  1.00  0.00     0.000 C 
HETATM   44  C21 UNL     1       5.974  55.632  -7.498  1.00  0.00     0.000 C 
BRANCH  44  45
HETATM   45  C22 UNL     1       6.867  56.307  -6.576  1.00  0.00     0.001 C 
HETATM   46  C23 UNL     1       8.105  55.863  -6.303  1.00  0.00     0.009 C 
BRANCH  46  47
HETATM   47  C24 UNL     1       9.071  56.470  -5.370  1.00  0.00    -0.034 C 
HETATM   48  C25 UNL     1      10.322  55.654  -5.093  1.00  0.00     0.050 C 
HETATM   49  C26 UNL     1       8.838  57.693  -4.836  1.00  0.00     0.082 C 
HETATM   50  C27 UNL     1       7.699  58.647  -4.983  1.00  0.00     0.075 C 
BRANCH  49  51
HETATM   51  N2  UNL     1       9.816  58.210  -3.895  1.00  0.00    -0.120 N 
HETATM   52  O5  UNL     1      10.717  58.917  -4.361  1.00  0.00    -0.532 OA
HETATM   53  O6  UNL     1       9.652  57.932  -2.701  1.00  0.00    -0.532 OA
ENDBRANCH  49  51
ENDBRANCH  46  47
ENDBRANCH  44  45
ENDBRANCH  42  43
ENDBRANCH  37  40
ENDBRANCH  34  37
ENDBRANCH  31  34
ENDBRANCH  29  30
ENDBRANCH   2  29
TORSDOF 19
ENDMDL
MODEL 2
REMARK minimizedAffinity -8.54671097
REMARK CNNscore 0.331527829
REMARK CNNaffinity 6.94150972
REMARK  19 active torsions:
REMARK  status: ('A' for Active; 'I' for Inactive)
REMARK    1  A    between atoms: O1_2  and  C2_3 
REMARK    2  A    between atoms: C2_3  and  C3_4 
REMARK    3  A    between atoms: C2_3  and  C28_36 
REMARK    4  A    between atoms: C3_4  and  C4_5 
REMARK    5  A    between atoms: C4_5  and  C6_7 
REMARK    6  A    between atoms: C6_7  and  O2_8 
REMARK    7  A    between atoms: C6_7  and  C7_9 
REMARK    8  A    between atoms: C8_10  and  C9_11 
REMARK    9  A    between atoms: C10_12  and  C11_13 
REMARK   10  A    between atoms: C11_13  and  N1_14 
REMARK       I    between atoms: N1_14  and  C12_15 
REMARK   11  A    between atoms: C12_15  and  C13_17 
REMARK   12  A    between atoms: C13_17  and  C16_20 
REMARK   13  A    between atoms: C16_20  and  O4_21 
REMARK   14  A    between atoms: C16_20  and  C17_22 
REMARK   15  A    between atoms: C19_24  and  C20_25 
REMARK   16  A    between atoms: C21_26  and  C22_27 
REMARK   17  A    between atoms: C23_28  and  C24_29 
REMARK   18  A    between atoms: C26_31  and  N2_33 
REMARK   19  A    between atoms: C28_36  and  O7_37 
ROOT
HETATM    1  C9  UNL     1      -4.554  48.400 -27.147  1.00  0.00    -0.003 C 
HETATM    2  C10 UNL     1      -3.744  49.469 -27.072  1.00  0.00    -0.007 C 
ENDROOT
BRANCH   1   3
HETATM    3  C8  UNL     1      -5.103  47.924 -28.394  1.00  0.00    -0.002 C 
HETATM    4  C7  UNL     1      -5.075  48.642 -29.527  1.00  0.00     0.005 C 
BRANCH   4   5
HETATM    5  C6  UNL     1      -5.638  48.159 -30.832  1.00  0.00     0.144 C 
BRANCH   5   6
HETATM    6  C4  UNL     1      -7.108  47.674 -30.750  1.00  0.00     0.016 C 
HETATM    7  C5  UNL     1      -8.028  48.768 -30.189  1.00  0.00     0.013 C 
BRANCH   6   8
HETATM    8  C3  UNL     1      -7.587  47.220 -32.158  1.00  0.00     0.042 C 
BRANCH   8   9
HETATM    9  C2  UNL     1      -8.698  46.138 -32.156  1.00  0.00     0.159 C 
BRANCH   9  10
HETATM   10  O1  UNL     1      -9.869  46.691 -32.773  1.00  0.00    -0.388 OA
HETATM   11  C1  UNL     1     -10.945  46.905 -31.866  1.00  0.00     0.202 C 
ENDBRANCH   9  10
BRANCH   9  12
HETATM   12  C28 UNL     1      -8.296  44.828 -32.931  1.00  0.00     0.133 C 
HETATM   13  C29 UNL     1      -9.411  44.353 -33.923  1.00  0.00     0.114 C 
HETATM   14  C30 UNL     1      -8.909  43.543 -35.117  1.00  0.00     0.023 C 
HETATM   15  C31 UNL     1     -10.292  43.462 -33.077  1.00  0.00     0.227 C 
HETATM   16  O8  UNL     1     -11.458  43.194 -33.313  1.00  0.00    -0.273 OA
HETATM   17  N3  UNL     1      -9.519  42.969 -32.038  1.00  0.00    -0.332 N 
HETATM   18  C32 UNL     1     -10.146  42.308 -30.914  1.00  0.00     0.154 C 
HETATM   19  C33 UNL     1      -8.167  43.625 -31.956  1.00  0.00     0.183 A 
HETATM   20  C34 UNL     1      -7.584  43.863 -30.531  1.00  0.00     0.294 A 
HETATM   21  C35 UNL     1      -6.999  42.576 -32.016  1.00  0.00     0.169 A 
HETATM   22  O9  UNL     1      -7.811  44.555 -29.564  1.00  0.00    -0.262 OA
HETATM   23  O10 UNL     1      -6.653  42.880 -30.631  1.00  0.00    -0.311 OA
HETATM   24  C36 UNL     1      -5.752  42.697 -32.875  1.00  0.00     0.043 C 
BRANCH  12  25
HETATM   25  O7  UNL     1      -7.064  45.043 -33.625  1.00  0.00    -0.383 OA
HETATM   26  H42 UNL     1      -7.234  45.627 -34.391  1.00  0.00     0.210 HD
ENDBRANCH  12  25
ENDBRANCH   9  12
ENDBRANCH   8   9
ENDBRANCH   6   8
ENDBRANCH   5   6
BRANCH   5  27
HETATM   27  O2  UNL     1      -4.819  47.055 -31.227  1.00  0.00    -0.391 OA
HETATM   28  H12 UNL     1      -3.937  47.433 -31.411  1.00  0.00     0.210 HD
ENDBRANCH   5  27
ENDBRANCH   4   5
ENDBRANCH   1   3
BRANCH   2  29
HETATM   29  C11 UNL     1      -3.193  50.012 -25.795  1.00  0.00     0.149 C 
BRANCH  29  30
HETATM   30  N1  UNL     1      -1.887  50.551 -26.069  1.00  0.00    -0.357 N 
HETATM   31  C12 UNL     1      -1.619  51.901 -26.032  1.00  0.00     0.228 C 
HETATM   32  O3  UNL     1      -2.499  52.733 -25.831  1.00  0.00    -0.273 OA
HETATM   33  H19 UNL     1      -1.096  49.911 -26.098  1.00  0.00     0.162 HD
BRANCH  31  34
HETATM   34  C13 UNL     1      -0.139  52.288 -26.284  1.00  0.00     0.063 C 
HETATM   35  C14 UNL     1      -0.098  53.148 -27.565  1.00  0.00     0.028 C 
HETATM   36  C15 UNL     1       0.635  50.980 -26.533  1.00  0.00     0.028 C 
BRANCH  34  37
HETATM   37  C16 UNL     1       0.340  53.100 -25.037  1.00  0.00     0.164 C 
BRANCH  37  38
HETATM   38  O4  UNL     1      -0.291  54.392 -25.027  1.00  0.00    -0.390 OA
HETATM   39  H27 UNL     1      -0.821  54.456 -24.211  1.00  0.00     0.210 HD
ENDBRANCH  37  38
BRANCH  37  40
HETATM   40  C17 UNL     1       0.246  52.541 -23.613  1.00  0.00    -0.054 C 
HETATM   41  C18 UNL     1      -0.381  51.164 -23.586  1.00  0.00     0.046 C 
HETATM   42  C19 UNL     1       0.697  53.187 -22.518  1.00  0.00     0.005 C 
BRANCH  42  43
HETATM   43  C20 UNL     1       0.616  52.740 -21.141  1.00  0.00     0.000 C 
HETATM   44  C21 UNL     1       0.698  53.580 -20.098  1.00  0.00     0.000 C 
BRANCH  44  45
HETATM   45  C22 UNL     1       0.599  53.133 -18.722  1.00  0.00     0.001 C 
HETATM   46  C23 UNL     1       1.539  52.376 -18.132  1.00  0.00     0.009 C 
BRANCH  46  47
HETATM   47  C24 UNL     1       1.514  51.861 -16.752  1.00  0.00    -0.034 C 
HETATM   48  C25 UNL     1       0.255  51.110 -16.350  1.00  0.00     0.050 C 
HETATM   49  C26 UNL     1       2.576  52.038 -15.931  1.00  0.00     0.082 C 
HETATM   50  C27 UNL     1       3.888  52.724 -16.127  1.00  0.00     0.075 C 
BRANCH  49  51
HETATM   51  N2  UNL     1       2.464  51.537 -14.572  1.00  0.00    -0.120 N 
HETATM   52  O5  UNL     1       2.711  52.337 -13.662  1.00  0.00    -0.532 OA
HETATM   53  O6  UNL     1       2.097  50.365 -14.431  1.00  0.00    -0.532 OA
ENDBRANCH  49  51
ENDBRANCH  46  47
ENDBRANCH  44  45
ENDBRANCH  42  43
ENDBRANCH  37  40
ENDBRANCH  34  37
ENDBRANCH  31  34
ENDBRANCH  29  30
ENDBRANCH   2  29
TORSDOF 19
ENDMDL
MODEL 3
REMARK minimizedAffinity -8.16762543
REMARK CNNscore 0.286832213
REMARK CNNaffinity 6.12168169
REMARK  19 active torsions:
REMARK  status: ('A' for Active; 'I' for Inactive)
REMARK    1  A    between atoms: O1_2  and  C2_3 
REMARK    2  A    between atoms: C2_3  and  C3_4 
REMARK    3  A    between atoms: C2_3  and  C28_36 
REMARK    4  A    between atoms: C3_4  and  C4_5 
REMARK    5  A    between atoms: C4_5  and  C6_7 
REMARK    6  A    between atoms: C6_7  and  O2_8 
REMARK    7  A    between atoms: C6_7  and  C7_9 
REMARK    8  A    between atoms: C8_10  and  C9_11 
REMARK    9  A    between atoms: C10_12  and  C11_13 
REMARK   10  A    between atoms: C11_13  and  N1_14 
REMARK       I    between atoms: N1_14  and  C12_15 
REMARK   11  A    between atoms: C12_15  and  C13_17 
REMARK   12  A    between atoms: C13_17  and  C16_20 
REMARK   13  A    between atoms: C16_20  and  O4_21 
REMARK   14  A    between atoms: C16_20  and  C17_22 
REMARK   15  A    between atoms: C19_24  and  C20_25 
REMARK   16  A    between atoms: C21_26  and  C22_27 
REMARK   17  A    between atoms: C23_28  and  C24_29 
REMARK   18  A    between atoms: C26_31  and  N2_33 
REMARK   19  A    between atoms: C28_36  and  O7_37 
ROOT
HETATM    1  C9  UNL     1      -3.121  48.498 -26.883  1.00  0.00    -0.003 C 
HETATM    2  C10 UNL     1      -4.390  48.655 -27.294  1.00  0.00    -0.007 C 
ENDROOT
BRANCH   1   3
HETATM    3  C8  UNL     1      -2.638  49.023 -25.629  1.00  0.00    -0.002 C 
HETATM    4  C7  UNL     1      -2.032  50.216 -25.520  1.00  0.00     0.005 C 
BRANCH   4   5
HETATM    5  C6  UNL     1      -1.527  50.777 -24.223  1.00  0.00     0.144 C 
BRANCH   5   6
HETATM    6  C4  UNL     1      -2.480  51.804 -23.560  1.00  0.00     0.016 C 
HETATM    7  C5  UNL     1      -3.861  51.801 -24.233  1.00  0.00     0.013 C 
BRANCH   6   8
HETATM    8  C3  UNL     1      -2.607  51.495 -22.042  1.00  0.00     0.042 C 
BRANCH   8   9
HETATM    9  C2  UNL     1      -1.509  50.562 -21.467  1.00  0.00     0.159 C 
BRANCH   9  10
HETATM   10  O1  UNL     1      -0.802  51.273 -20.442  1.00  0.00    -0.388 OA
HETATM   11  C1  UNL     1       0.278  52.060 -20.933  1.00  0.00     0.202 C 
ENDBRANCH   9  10
BRANCH   9  12
HETATM   12  C28 UNL     1      -2.081  49.231 -20.850  1.00  0.00     0.133 C 
HETATM   13  C29 UNL     1      -2.760  48.316 -21.924  1.00  0.00     0.114 C 
HETATM   14  C30 UNL     1      -2.761  46.825 -21.593  1.00  0.00     0.023 C 
HETATM   15  C31 UNL     1      -4.193  48.800 -21.956  1.00  0.00     0.227 C 
HETATM   16  O8  UNL     1      -4.966  48.651 -22.887  1.00  0.00    -0.273 OA
HETATM   17  N3  UNL     1      -4.471  49.376 -20.727  1.00  0.00    -0.332 N 
HETATM   18  C32 UNL     1      -5.669  50.168 -20.548  1.00  0.00     0.154 C 
HETATM   19  C33 UNL     1      -3.246  49.533 -19.867  1.00  0.00     0.183 A 
HETATM   20  C34 UNL     1      -3.172  50.806 -18.971  1.00  0.00     0.294 A 
HETATM   21  C35 UNL     1      -3.412  48.832 -18.471  1.00  0.00     0.169 A 
HETATM   22  O9  UNL     1      -3.046  52.002 -19.107  1.00  0.00    -0.262 OA
HETATM   23  O10 UNL     1      -3.404  50.135 -17.814  1.00  0.00    -0.311 OA
HETATM   24  C36 UNL     1      -2.380  47.938 -17.808  1.00  0.00     0.043 C 
BRANCH  12  25
HETATM   25  O7  UNL     1      -1.032  48.527 -20.180  1.00  0.00    -0.383 OA
HETATM   26  H42 UNL     1      -0.437  48.138 -20.852  1.00  0.00     0.210 HD
ENDBRANCH  12  25
ENDBRANCH   9  12
ENDBRANCH   8   9
ENDBRANCH   6   8
ENDBRANCH   5   6
BRANCH   5  27
HETATM   27  O2  UNL     1      -0.297  51.438 -24.535  1.00  0.00    -0.391 OA
HETATM   28  H12 UNL     1       0.320  50.731 -24.808  1.00  0.00     0.210 HD
ENDBRANCH   5  27
ENDBRANCH   4   5
ENDBRANCH   1   3
BRANCH   2  29
HETATM   29  C11 UNL     1      -4.912  48.161 -28.603  1.00  0.00     0.149 C 
BRANCH  29  30
HETATM   30  N1  UNL     1      -6.347  48.260 -28.575  1.00  0.00    -0.357 N 
HETATM   31  C12 UNL     1      -7.161  47.468 -29.353  1.00  0.00     0.228 C 
HETATM   32  O3  UNL     1      -6.705  46.675 -30.173  1.00  0.00    -0.273 OA
HETATM   33  H19 UNL     1      -6.781  48.790 -27.822  1.00  0.00     0.162 HD
BRANCH  31  34
HETATM   34  C13 UNL     1      -8.682  47.669 -29.136  1.00  0.00     0.063 C 
HETATM   35  C14 UNL     1      -9.388  46.371 -29.582  1.00  0.00     0.028 C 
HETATM   36  C15 UNL     1      -9.124  48.821 -30.057  1.00  0.00     0.028 C 
BRANCH  34  37
HETATM   37  C16 UNL     1      -8.894  47.938 -27.611  1.00  0.00     0.164 C 
BRANCH  37  38
HETATM   38  O4  UNL     1      -9.073  49.347 -27.387  1.00  0.00    -0.390 OA
HETATM   39  H27 UNL     1      -9.958  49.475 -26.997  1.00  0.00     0.210 HD
ENDBRANCH  37  38
BRANCH  37  40
HETATM   40  C17 UNL     1      -9.969  47.212 -26.795  1.00  0.00    -0.054 C 
HETATM   41  C18 UNL     1      -9.367  46.210 -25.833  1.00  0.00     0.046 C 
HETATM   42  C19 UNL     1     -11.291  47.457 -26.900  1.00  0.00     0.005 C 
BRANCH  42  43
HETATM   43  C20 UNL     1     -12.366  46.792 -26.189  1.00  0.00     0.000 C 
HETATM   44  C21 UNL     1     -13.588  47.330 -26.052  1.00  0.00     0.000 C 
BRANCH  44  45
HETATM   45  C22 UNL     1     -14.666  46.655 -25.356  1.00  0.00     0.001 C 
HETATM   46  C23 UNL     1     -15.600  47.311 -24.647  1.00  0.00     0.009 C 
BRANCH  46  47
HETATM   47  C24 UNL     1     -16.716  46.711 -23.895  1.00  0.00    -0.034 C 
HETATM   48  C25 UNL     1     -18.013  46.535 -24.666  1.00  0.00     0.050 C 
HETATM   49  C26 UNL     1     -16.550  46.326 -22.607  1.00  0.00     0.082 C 
HETATM   50  C27 UNL     1     -15.378  46.400 -21.685  1.00  0.00     0.075 C 
BRANCH  49  51
HETATM   51  N2  UNL     1     -17.705  45.779 -21.917  1.00  0.00    -0.120 N 
HETATM   52  O5  UNL     1     -18.436  46.586 -21.332  1.00  0.00    -0.532 OA
HETATM   53  O6  UNL     1     -17.886  44.559 -21.998  1.00  0.00    -0.532 OA
ENDBRANCH  49  51
ENDBRANCH  46  47
ENDBRANCH  44  45
ENDBRANCH  42  43
ENDBRANCH  37  40
ENDBRANCH  34  37
ENDBRANCH  31  34
ENDBRANCH  29  30
ENDBRANCH   2  29
TORSDOF 19
ENDMDL
MODEL 4
REMARK minimizedAffinity -8.36421585
REMARK CNNscore 0.261814654
REMARK CNNaffinity 6.68001318
REMARK  19 active torsions:
REMARK  status: ('A' for Active; 'I' for Inactive)
REMARK    1  A    between atoms: O1_2  and  C2_3 
REMARK    2  A    between atoms: C2_3  and  C3_4 
REMARK    3  A    between atoms: C2_3  and  C28_36 
REMARK    4  A    between atoms: C3_4  and  C4_5 
REMARK    5  A    between atoms: C4_5  and  C6_7 
REMARK    6  A    between atoms: C6_7  and  O2_8 
REMARK    7  A    between atoms: C6_7  and  C7_9 
REMARK    8  A    between atoms: C8_10  and  C9_11 
REMARK    9  A    between atoms: C10_12  and  C11_13 
REMARK   10  A    between atoms: C11_13  and  N1_14 
REMARK       I    between atoms: N1_14  and  C12_15 
REMARK   11  A    between atoms: C12_15  and  C13_17 
REMARK   12  A    between atoms: C13_17  and  C16_20 
REMARK   13  A    between atoms: C16_20  and  O4_21 
REMARK   14  A    between atoms: C16_20  and  C17_22 
REMARK   15  A    between atoms: C19_24  and  C20_25 
REMARK   16  A    between atoms: C21_26  and  C22_27 
REMARK   17  A    between atoms: C23_28  and  C24_29 
REMARK   18  A    between atoms: C26_31  and  N2_33 
REMARK   19  A    between atoms: C28_36  and  O7_37 
ROOT
HETATM    1  C9  UNL     1       0.318  51.905 -18.630  1.00  0.00    -0.003 C 
HETATM    2  C10 UNL     1       0.725  53.103 -19.079  1.00  0.00    -0.007 C 
ENDROOT
BRANCH   1   3
HETATM    3  C8  UNL     1       0.519  51.475 -17.267  1.00  0.00    -0.002 C 
HETATM    4  C7  UNL     1       1.524  51.923 -16.499  1.00  0.00     0.005 C 
BRANCH   4   5
HETATM    5  C6  UNL     1       1.744  51.488 -15.080  1.00  0.00     0.144 C 
BRANCH   5   6
HETATM    6  C4  UNL     1       0.496  51.625 -14.171  1.00  0.00     0.016 C 
HETATM    7  C5  UNL     1      -0.075  50.250 -13.794  1.00  0.00     0.013 C 
BRANCH   6   8
HETATM    8  C3  UNL     1       0.863  52.437 -12.897  1.00  0.00     0.042 C 
BRANCH   8   9
HETATM    9  C2  UNL     1       0.219  51.924 -11.583  1.00  0.00     0.159 C 
BRANCH   9  10
HETATM   10  O1  UNL     1       1.235  51.871 -10.571  1.00  0.00    -0.388 OA
HETATM   11  C1  UNL     1       2.539  52.175 -11.055  1.00  0.00     0.202 C 
ENDBRANCH   9  10
BRANCH   9  12
HETATM   12  C28 UNL     1      -0.955  52.837 -11.065  1.00  0.00     0.133 C 
HETATM   13  C29 UNL     1      -0.437  54.125 -10.340  1.00  0.00     0.114 C 
HETATM   14  C30 UNL     1      -1.393  55.316 -10.379  1.00  0.00     0.023 C 
HETATM   15  C31 UNL     1      -0.274  53.689  -8.901  1.00  0.00     0.227 C 
HETATM   16  O8  UNL     1       0.450  54.226  -8.080  1.00  0.00    -0.273 OA
HETATM   17  N3  UNL     1      -1.133  52.625  -8.683  1.00  0.00    -0.332 N 
HETATM   18  C32 UNL     1      -1.010  51.822  -7.486  1.00  0.00     0.154 C 
HETATM   19  C33 UNL     1      -1.766  52.118  -9.951  1.00  0.00     0.183 A 
HETATM   20  C34 UNL     1      -2.000  50.580 -10.056  1.00  0.00     0.294 A 
HETATM   21  C35 UNL     1      -3.335  52.126  -9.872  1.00  0.00     0.169 A 
HETATM   22  O9  UNL     1      -1.342  49.570 -10.157  1.00  0.00    -0.262 OA
HETATM   23  O10 UNL     1      -3.346  50.667  -9.898  1.00  0.00    -0.311 OA
HETATM   24  C36 UNL     1      -4.266  52.646 -10.952  1.00  0.00     0.043 C 
BRANCH  12  25
HETATM   25  O7  UNL     1      -1.808  53.184 -12.159  1.00  0.00    -0.383 OA
HETATM   26  H42 UNL     1      -1.345  53.837 -12.722  1.00  0.00     0.210 HD
ENDBRANCH  12  25
ENDBRANCH   9  12
ENDBRANCH   8   9
ENDBRANCH   6   8
ENDBRANCH   5   6
BRANCH   5  27
HETATM   27  O2  UNL     1       2.773  52.339 -14.565  1.00  0.00    -0.391 OA
HETATM   28  H12 UNL     1       3.579  52.113 -15.069  1.00  0.00     0.210 HD
ENDBRANCH   5  27
ENDBRANCH   4   5
ENDBRANCH   1   3
BRANCH   2  29
HETATM   29  C11 UNL     1       0.570  53.562 -20.492  1.00  0.00     0.149 C 
BRANCH  29  30
HETATM   30  N1  UNL     1      -0.395  52.709 -21.134  1.00  0.00    -0.357 N 
HETATM   31  C12 UNL     1      -0.354  52.427 -22.480  1.00  0.00     0.228 C 
HETATM   32  O3  UNL     1       0.469  52.945 -23.229  1.00  0.00    -0.273 OA
HETATM   33  H19 UNL     1      -1.006  52.143 -20.548  1.00  0.00     0.162 HD
BRANCH  31  34
HETATM   34  C13 UNL     1      -1.434  51.432 -22.979  1.00  0.00     0.063 C 
HETATM   35  C14 UNL     1      -2.795  51.919 -22.440  1.00  0.00     0.028 C 
HETATM   36  C15 UNL     1      -1.110  50.062 -22.356  1.00  0.00     0.028 C 
BRANCH  34  37
HETATM   37  C16 UNL     1      -1.396  51.462 -24.541  1.00  0.00     0.164 C 
BRANCH  37  38
HETATM   38  O4  UNL     1      -0.136  50.948 -25.007  1.00  0.00    -0.390 OA
HETATM   39  H27 UNL     1      -0.321  50.158 -25.548  1.00  0.00     0.210 HD
ENDBRANCH  37  38
BRANCH  37  40
HETATM   40  C17 UNL     1      -2.490  50.816 -25.398  1.00  0.00    -0.054 C 
HETATM   41  C18 UNL     1      -3.178  51.826 -26.292  1.00  0.00     0.046 C 
HETATM   42  C19 UNL     1      -2.786  49.500 -25.378  1.00  0.00     0.005 C 
BRANCH  42  43
HETATM   43  C20 UNL     1      -3.823  48.824 -26.132  1.00  0.00     0.000 C 
HETATM   44  C21 UNL     1      -3.738  48.608 -27.454  1.00  0.00     0.000 C 
BRANCH  44  45
HETATM   45  C22 UNL     1      -4.768  47.915 -28.203  1.00  0.00     0.001 C 
HETATM   46  C23 UNL     1      -5.274  48.386 -29.355  1.00  0.00     0.009 C 
BRANCH  46  47
HETATM   47  C24 UNL     1      -6.332  47.764 -30.170  1.00  0.00    -0.034 C 
HETATM   48  C25 UNL     1      -7.754  48.183 -29.839  1.00  0.00     0.050 C 
HETATM   49  C26 UNL     1      -6.016  46.899 -31.164  1.00  0.00     0.082 C 
HETATM   50  C27 UNL     1      -4.707  46.370 -31.651  1.00  0.00     0.075 C 
BRANCH  49  51
HETATM   51  N2  UNL     1      -7.113  46.295 -31.899  1.00  0.00    -0.120 N 
HETATM   52  O5  UNL     1      -7.458  46.857 -32.946  1.00  0.00    -0.532 OA
HETATM   53  O6  UNL     1      -7.592  45.251 -31.443  1.00  0.00    -0.532 OA
ENDBRANCH  49  51
ENDBRANCH  46  47
ENDBRANCH  44  45
ENDBRANCH  42  43
ENDBRANCH  37  40
ENDBRANCH  34  37
ENDBRANCH  31  34
ENDBRANCH  29  30
ENDBRANCH   2  29
TORSDOF 19
ENDMDL
MODEL 5
REMARK minimizedAffinity -8.3821888
REMARK CNNscore 0.229288533
REMARK CNNaffinity 6.56206083
REMARK  19 active torsions:
REMARK  status: ('A' for Active; 'I' for Inactive)
REMARK    1  A    between atoms: O1_2  and  C2_3 
REMARK    2  A    between atoms: C2_3  and  C3_4 
REMARK    3  A    between atoms: C2_3  and  C28_36 
REMARK    4  A    between atoms: C3_4  and  C4_5 
REMARK    5  A    between atoms: C4_5  and  C6_7 
REMARK    6  A    between atoms: C6_7  and  O2_8 
REMARK    7  A    between atoms: C6_7  and  C7_9 
REMARK    8  A    between atoms: C8_10  and  C9_11 
REMARK    9  A    between atoms: C10_12  and  C11_13 
REMARK   10  A    between atoms: C11_13  and  N1_14 
REMARK       I    between atoms: N1_14  and  C12_15 
REMARK   11  A    between atoms: C12_15  and  C13_17 
REMARK   12  A    between atoms: C13_17  and  C16_20 
REMARK   13  A    between atoms: C16_20  and  O4_21 
REMARK   14  A    between atoms: C16_20  and  C17_22 
REMARK   15  A    between atoms: C19_24  and  C20_25 
REMARK   16  A    between atoms: C21_26  and  C22_27 
REMARK   17  A    between atoms: C23_28  and  C24_29 
REMARK   18  A    between atoms: C26_31  and  N2_33 
REMARK   19  A    between atoms: C28_36  and  O7_37 
ROOT
HETATM    1  C9  UNL     1      -3.913  48.547 -26.820  1.00  0.00    -0.003 C 
HETATM    2  C10 UNL     1      -4.715  48.498 -27.896  1.00  0.00    -0.007 C 
ENDROOT
BRANCH   1   3
HETATM    3  C8  UNL     1      -2.730  49.372 -26.767  1.00  0.00    -0.002 C 
HETATM    4  C7  UNL     1      -2.657  50.501 -26.045  1.00  0.00     0.005 C 
BRANCH   4   5
HETATM    5  C6  UNL     1      -1.433  51.367 -25.977  1.00  0.00     0.144 C 
BRANCH   5   6
HETATM    6  C4  UNL     1      -0.590  51.178 -24.690  1.00  0.00     0.016 C 
HETATM    7  C5  UNL     1       0.675  52.049 -24.717  1.00  0.00     0.013 C 
BRANCH   6   8
HETATM    8  C3  UNL     1      -1.459  51.508 -23.444  1.00  0.00     0.042 C 
BRANCH   8   9
HETATM    9  C2  UNL     1      -1.442  50.432 -22.327  1.00  0.00     0.159 C 
BRANCH   9  10
HETATM   10  O1  UNL     1      -0.696  50.944 -21.215  1.00  0.00    -0.388 OA
HETATM   11  C1  UNL     1      -0.313  52.307 -21.364  1.00  0.00     0.202 C 
ENDBRANCH   9  10
BRANCH   9  12
HETATM   12  C28 UNL     1      -2.880  50.032 -21.823  1.00  0.00     0.133 C 
HETATM   13  C29 UNL     1      -3.551  51.162 -20.971  1.00  0.00     0.114 C 
HETATM   14  C30 UNL     1      -5.079  51.159 -20.985  1.00  0.00     0.023 C 
HETATM   15  C31 UNL     1      -3.085  50.876 -19.560  1.00  0.00     0.227 C 
HETATM   16  O8  UNL     1      -3.039  51.691 -18.655  1.00  0.00    -0.273 OA
HETATM   17  N3  UNL     1      -2.787  49.525 -19.481  1.00  0.00    -0.332 N 
HETATM   18  C32 UNL     1      -2.063  49.005 -18.342  1.00  0.00     0.154 C 
HETATM   19  C33 UNL     1      -2.805  48.845 -20.823  1.00  0.00     0.183 A 
HETATM   20  C34 UNL     1      -1.752  47.720 -21.058  1.00  0.00     0.294 A 
HETATM   21  C35 UNL     1      -3.790  47.620 -20.850  1.00  0.00     0.169 A 
HETATM   22  O9  UNL     1      -0.554  47.616 -21.190  1.00  0.00    -0.262 OA
HETATM   23  O10 UNL     1      -2.657  46.710 -20.985  1.00  0.00    -0.311 OA
HETATM   24  C36 UNL     1      -4.795  47.325 -21.948  1.00  0.00     0.043 C 
BRANCH  12  25
HETATM   25  O7  UNL     1      -3.701  49.692 -22.943  1.00  0.00    -0.383 OA
HETATM   26  H42 UNL     1      -3.931  50.513 -23.423  1.00  0.00     0.210 HD
ENDBRANCH  12  25
ENDBRANCH   9  12
ENDBRANCH   8   9
ENDBRANCH   6   8
ENDBRANCH   5   6
BRANCH   5  27
HETATM   27  O2  UNL     1      -1.907  52.716 -26.013  1.00  0.00    -0.391 OA
HETATM   28  H12 UNL     1      -2.300  52.835 -26.899  1.00  0.00     0.210 HD
ENDBRANCH   5  27
ENDBRANCH   4   5
ENDBRANCH   1   3
BRANCH   2  29
HETATM   29  C11 UNL     1      -5.923  47.626 -28.000  1.00  0.00     0.149 C 
BRANCH  29  30
HETATM   30  N1  UNL     1      -6.586  47.930 -29.240  1.00  0.00    -0.357 N 
HETATM   31  C12 UNL     1      -7.731  47.283 -29.647  1.00  0.00     0.228 C 
HETATM   32  O3  UNL     1      -8.216  46.355 -29.006  1.00  0.00    -0.273 OA
HETATM   33  H19 UNL     1      -6.318  48.777 -29.737  1.00  0.00     0.162 HD
BRANCH  31  34
HETATM   34  C13 UNL     1      -8.342  47.795 -30.976  1.00  0.00     0.063 C 
HETATM   35  C14 UNL     1      -8.419  49.334 -30.886  1.00  0.00     0.028 C 
HETATM   36  C15 UNL     1      -9.770  47.227 -31.066  1.00  0.00     0.028 C 
BRANCH  34  37
HETATM   37  C16 UNL     1      -7.386  47.339 -32.125  1.00  0.00     0.164 C 
BRANCH  37  38
HETATM   38  O4  UNL     1      -6.302  48.275 -32.255  1.00  0.00    -0.390 OA
HETATM   39  H27 UNL     1      -5.472  47.793 -32.083  1.00  0.00     0.210 HD
ENDBRANCH  37  38
BRANCH  37  40
HETATM   40  C17 UNL     1      -6.776  45.934 -32.170  1.00  0.00    -0.054 C 
HETATM   41  C18 UNL     1      -7.790  44.890 -32.588  1.00  0.00     0.046 C 
HETATM   42  C19 UNL     1      -5.482  45.663 -31.898  1.00  0.00     0.005 C 
BRANCH  42  43
HETATM   43  C20 UNL     1      -4.842  44.362 -31.889  1.00  0.00     0.000 C 
HETATM   44  C21 UNL     1      -4.541  43.693 -33.013  1.00  0.00     0.000 C 
BRANCH  44  45
HETATM   45  C22 UNL     1      -3.884  42.400 -33.001  1.00  0.00     0.001 C 
HETATM   46  C23 UNL     1      -3.754  41.639 -34.101  1.00  0.00     0.009 C 
BRANCH  46  47
HETATM   47  C24 UNL     1      -3.122  40.310 -34.181  1.00  0.00    -0.034 C 
HETATM   48  C25 UNL     1      -1.924  40.093 -33.271  1.00  0.00     0.050 C 
HETATM   49  C26 UNL     1      -3.623  39.357 -35.002  1.00  0.00     0.082 C 
HETATM   50  C27 UNL     1      -4.775  39.362 -35.952  1.00  0.00     0.075 C 
BRANCH  49  51
HETATM   51  N2  UNL     1      -2.924  38.085 -35.057  1.00  0.00    -0.120 N 
HETATM   52  O5  UNL     1      -1.865  38.005 -34.424  1.00  0.00    -0.532 OA
HETATM   53  O6  UNL     1      -3.458  37.175 -35.701  1.00  0.00    -0.532 OA
ENDBRANCH  49  51
ENDBRANCH  46  47
ENDBRANCH  44  45
ENDBRANCH  42  43
ENDBRANCH  37  40
ENDBRANCH  34  37
ENDBRANCH  31  34
ENDBRANCH  29  30
ENDBRANCH   2  29
TORSDOF 19
ENDMDL
MODEL 6
REMARK minimizedAffinity -8.79778671
REMARK CNNscore 0.222007632
REMARK CNNaffinity 6.46676874
REMARK  19 active torsions:
REMARK  status: ('A' for Active; 'I' for Inactive)
REMARK    1  A    between atoms: O1_2  and  C2_3 
REMARK    2  A    between atoms: C2_3  and  C3_4 
REMARK    3  A    between atoms: C2_3  and  C28_36 
REMARK    4  A    between atoms: C3_4  and  C4_5 
REMARK    5  A    between atoms: C4_5  and  C6_7 
REMARK    6  A    between atoms: C6_7  and  O2_8 
REMARK    7  A    between atoms: C6_7  and  C7_9 
REMARK    8  A    between atoms: C8_10  and  C9_11 
REMARK    9  A    between atoms: C10_12  and  C11_13 
REMARK   10  A    between atoms: C11_13  and  N1_14 
REMARK       I    between atoms: N1_14  and  C12_15 
REMARK   11  A    between atoms: C12_15  and  C13_17 
REMARK   12  A    between atoms: C13_17  and  C16_20 
REMARK   13  A    between atoms: C16_20  and  O4_21 
REMARK   14  A    between atoms: C16_20  and  C17_22 
REMARK   15  A    between atoms: C19_24  and  C20_25 
REMARK   16  A    between atoms: C21_26  and  C22_27 
REMARK   17  A    between atoms: C23_28  and  C24_29 
REMARK   18  A    between atoms: C26_31  and  N2_33 
REMARK   19  A    between atoms: C28_36  and  O7_37 
ROOT
HETATM    1  C9  UNL     1      -3.403  49.104 -25.795  1.00  0.00    -0.003 C 
HETATM    2  C10 UNL     1      -3.690  49.572 -27.021  1.00  0.00    -0.007 C 
ENDROOT
BRANCH   1   3
HETATM    3  C8  UNL     1      -4.316  48.276 -25.044  1.00  0.00    -0.002 C 
HETATM    4  C7  UNL     1      -5.649  48.395 -25.129  1.00  0.00     0.005 C 
BRANCH   4   5
HETATM    5  C6  UNL     1      -6.612  47.540 -24.357  1.00  0.00     0.144 C 
BRANCH   5   6
HETATM    6  C4  UNL     1      -8.071  47.596 -24.877  1.00  0.00     0.016 C 
HETATM    7  C5  UNL     1      -8.622  49.029 -24.845  1.00  0.00     0.013 C 
BRANCH   6   8
HETATM    8  C3  UNL     1      -8.134  47.014 -26.317  1.00  0.00     0.042 C 
BRANCH   8   9
HETATM    9  C2  UNL     1      -8.751  47.959 -27.381  1.00  0.00     0.159 C 
BRANCH   9  10
HETATM   10  O1  UNL     1      -7.907  47.949 -28.540  1.00  0.00    -0.388 OA
HETATM   11  C1  UNL     1      -6.540  47.676 -28.249  1.00  0.00     0.202 C 
ENDBRANCH   9  10
BRANCH   9  12
HETATM   12  C28 UNL     1     -10.205  47.541 -27.819  1.00  0.00     0.133 C 
HETATM   13  C29 UNL     1     -11.304  48.087 -26.846  1.00  0.00     0.114 C 
HETATM   14  C30 UNL     1     -12.680  48.295 -27.478  1.00  0.00     0.023 C 
HETATM   15  C31 UNL     1     -11.420  47.009 -25.791  1.00  0.00     0.227 C 
HETATM   16  O8  UNL     1     -11.851  47.172 -24.662  1.00  0.00    -0.273 OA
HETATM   17  N3  UNL     1     -11.009  45.816 -26.361  1.00  0.00    -0.332 N 
HETATM   18  C32 UNL     1     -10.751  44.661 -25.528  1.00  0.00     0.154 C 
HETATM   19  C33 UNL     1     -10.392  46.002 -27.721  1.00  0.00     0.183 A 
HETATM   20  C34 UNL     1      -9.200  45.068 -28.089  1.00  0.00     0.294 A 
HETATM   21  C35 UNL     1     -11.114  45.140 -28.819  1.00  0.00     0.169 A 
HETATM   22  O9  UNL     1      -8.049  44.897 -27.756  1.00  0.00    -0.262 OA
HETATM   23  O10 UNL     1      -9.918  44.317 -28.963  1.00  0.00    -0.311 OA
HETATM   24  C36 UNL     1     -11.539  45.639 -30.189  1.00  0.00     0.043 C 
BRANCH  12  25
HETATM   25  O7  UNL     1     -10.449  47.991 -29.155  1.00  0.00    -0.383 OA
HETATM   26  H42 UNL     1     -10.567  48.962 -29.142  1.00  0.00     0.210 HD
ENDBRANCH  12  25
ENDBRANCH   9  12
ENDBRANCH   8   9
ENDBRANCH   6   8
ENDBRANCH   5   6
BRANCH   5  27
HETATM   27  O2  UNL     1      -6.591  48.040 -23.017  1.00  0.00    -0.391 OA
HETATM   28  H12 UNL     1      -5.695  47.850 -22.678  1.00  0.00     0.210 HD
ENDBRANCH   5  27
ENDBRANCH   4   5
ENDBRANCH   1   3
BRANCH   2  29
HETATM   29  C11 UNL     1      -2.786  50.463 -27.808  1.00  0.00     0.149 C 
BRANCH  29  30
HETATM   30  N1  UNL     1      -1.775  50.970 -26.918  1.00  0.00    -0.357 N 
HETATM   31  C12 UNL     1      -1.522  52.315 -26.773  1.00  0.00     0.228 C 
HETATM   32  O3  UNL     1      -2.097  53.162 -27.451  1.00  0.00    -0.273 OA
HETATM   33  H19 UNL     1      -1.371  50.335 -26.233  1.00  0.00     0.162 HD
BRANCH  31  34
HETATM   34  C13 UNL     1      -0.446  52.675 -25.717  1.00  0.00     0.063 C 
HETATM   35  C14 UNL     1       0.303  53.924 -26.226  1.00  0.00     0.028 C 
HETATM   36  C15 UNL     1       0.539  51.493 -25.653  1.00  0.00     0.028 C 
BRANCH  34  37
HETATM   37  C16 UNL     1      -1.199  52.967 -24.379  1.00  0.00     0.164 C 
BRANCH  37  38
HETATM   38  O4  UNL     1      -2.619  52.876 -24.591  1.00  0.00    -0.390 OA
HETATM   39  H27 UNL     1      -2.959  52.164 -24.017  1.00  0.00     0.210 HD
ENDBRANCH  37  38
BRANCH  37  40
HETATM   40  C17 UNL     1      -0.887  52.210 -23.083  1.00  0.00    -0.054 C 
HETATM   41  C18 UNL     1      -1.683  50.928 -22.972  1.00  0.00     0.046 C 
HETATM   42  C19 UNL     1       0.011  52.624 -22.166  1.00  0.00     0.005 C 
BRANCH  42  43
HETATM   43  C20 UNL     1       0.337  51.982 -20.907  1.00  0.00     0.000 C 
HETATM   44  C21 UNL     1      -0.301  52.266 -19.761  1.00  0.00     0.000 C 
BRANCH  44  45
HETATM   45  C22 UNL     1       0.014  51.610 -18.506  1.00  0.00     0.001 C 
HETATM   46  C23 UNL     1       0.877  52.121 -17.612  1.00  0.00     0.009 C 
BRANCH  46  47
HETATM   47  C24 UNL     1       1.271  51.519 -16.327  1.00  0.00    -0.034 C 
HETATM   48  C25 UNL     1       0.301  50.501 -15.749  1.00  0.00     0.050 C 
HETATM   49  C26 UNL     1       2.446  51.853 -15.741  1.00  0.00     0.082 C 
HETATM   50  C27 UNL     1       3.526  52.804 -16.138  1.00  0.00     0.075 C 
BRANCH  49  51
HETATM   51  N2  UNL     1       2.749  51.248 -14.456  1.00  0.00    -0.120 N 
HETATM   52  O5  UNL     1       3.160  52.005 -13.568  1.00  0.00    -0.532 OA
HETATM   53  O6  UNL     1       2.540  50.035 -14.338  1.00  0.00    -0.532 OA
ENDBRANCH  49  51
ENDBRANCH  46  47
ENDBRANCH  44  45
ENDBRANCH  42  43
ENDBRANCH  37  40
ENDBRANCH  34  37
ENDBRANCH  31  34
ENDBRANCH  29  30
ENDBRANCH   2  29
TORSDOF 19
ENDMDL
MODEL 7
REMARK minimizedAffinity -7.83175898
REMARK CNNscore 0.220485687
REMARK CNNaffinity 6.26392412
REMARK  19 active torsions:
REMARK  status: ('A' for Active; 'I' for Inactive)
REMARK    1  A    between atoms: O1_2  and  C2_3 
REMARK    2  A    between atoms: C2_3  and  C3_4 
REMARK    3  A    between atoms: C2_3  and  C28_36 
REMARK    4  A    between atoms: C3_4  and  C4_5 
REMARK    5  A    between atoms: C4_5  and  C6_7 
REMARK    6  A    between atoms: C6_7  and  O2_8 
REMARK    7  A    between atoms: C6_7  and  C7_9 
REMARK    8  A    between atoms: C8_10  and  C9_11 
REMARK    9  A    between atoms: C10_12  and  C11_13 
REMARK   10  A    between atoms: C11_13  and  N1_14 
REMARK       I    between atoms: N1_14  and  C12_15 
REMARK   11  A    between atoms: C12_15  and  C13_17 
REMARK   12  A    between atoms: C13_17  and  C16_20 
REMARK   13  A    between atoms: C16_20  and  O4_21 
REMARK   14  A    between atoms: C16_20  and  C17_22 
REMARK   15  A    between atoms: C19_24  and  C20_25 
REMARK   16  A    between atoms: C21_26  and  C22_27 
REMARK   17  A    between atoms: C23_28  and  C24_29 
REMARK   18  A    between atoms: C26_31  and  N2_33 
REMARK   19  A    between atoms: C28_36  and  O7_37 
ROOT
HETATM    1  C9  UNL     1      -5.400  48.090 -25.471  1.00  0.00    -0.003 C 
HETATM    2  C10 UNL     1      -6.343  47.722 -26.354  1.00  0.00    -0.007 C 
ENDROOT
BRANCH   1   3
HETATM    3  C8  UNL     1      -4.098  48.564 -25.875  1.00  0.00    -0.002 C 
HETATM    4  C7  UNL     1      -3.705  49.839 -25.728  1.00  0.00     0.005 C 
BRANCH   4   5
HETATM    5  C6  UNL     1      -2.354  50.346 -26.140  1.00  0.00     0.144 C 
BRANCH   5   6
HETATM    6  C4  UNL     1      -1.327  50.432 -24.982  1.00  0.00     0.016 C 
HETATM    7  C5  UNL     1      -0.109  51.282 -25.376  1.00  0.00     0.013 C 
BRANCH   6   8
HETATM    8  C3  UNL     1      -2.016  51.011 -23.714  1.00  0.00     0.042 C 
BRANCH   8   9
HETATM    9  C2  UNL     1      -1.759  50.216 -22.407  1.00  0.00     0.159 C 
BRANCH   9  10
HETATM   10  O1  UNL     1      -0.951  51.023 -21.538  1.00  0.00    -0.388 OA
HETATM   11  C1  UNL     1      -0.720  52.338 -22.032  1.00  0.00     0.202 C 
ENDBRANCH   9  10
BRANCH   9  12
HETATM   12  C28 UNL     1      -3.080  49.828 -21.642  1.00  0.00     0.133 C 
HETATM   13  C29 UNL     1      -3.684  51.031 -20.841  1.00  0.00     0.114 C 
HETATM   14  C30 UNL     1      -5.194  50.965 -20.620  1.00  0.00     0.023 C 
HETATM   15  C31 UNL     1      -2.999  50.948 -19.495  1.00  0.00     0.227 C 
HETATM   16  O8  UNL     1      -2.868  51.874 -18.713  1.00  0.00    -0.273 OA
HETATM   17  N3  UNL     1      -2.613  49.632 -19.298  1.00  0.00    -0.332 N 
HETATM   18  C32 UNL     1      -1.699  49.293 -18.229  1.00  0.00     0.154 C 
HETATM   19  C33 UNL     1      -2.789  48.784 -20.529  1.00  0.00     0.183 A 
HETATM   20  C34 UNL     1      -1.718  47.681 -20.784  1.00  0.00     0.294 A 
HETATM   21  C35 UNL     1      -3.692  47.528 -20.255  1.00  0.00     0.169 A 
HETATM   22  O9  UNL     1      -0.548  47.609 -21.085  1.00  0.00    -0.262 OA
HETATM   23  O10 UNL     1      -2.541  46.654 -20.451  1.00  0.00    -0.311 OA
HETATM   24  C36 UNL     1      -4.830  47.053 -21.141  1.00  0.00     0.043 C 
BRANCH  12  25
HETATM   25  O7  UNL     1      -4.036  49.313 -22.573  1.00  0.00    -0.383 OA
HETATM   26  H42 UNL     1      -4.383  50.055 -23.108  1.00  0.00     0.210 HD
ENDBRANCH  12  25
ENDBRANCH   9  12
ENDBRANCH   8   9
ENDBRANCH   6   8
ENDBRANCH   5   6
BRANCH   5  27
HETATM   27  O2  UNL     1      -2.570  51.665 -26.650  1.00  0.00    -0.391 OA
HETATM   28  H12 UNL     1      -3.099  51.550 -27.463  1.00  0.00     0.210 HD
ENDBRANCH   5  27
ENDBRANCH   4   5
ENDBRANCH   1   3
BRANCH   2  29
HETATM   29  C11 UNL     1      -7.684  47.189 -25.971  1.00  0.00     0.149 C 
BRANCH  29  30
HETATM   30  N1  UNL     1      -8.520  47.205 -27.142  1.00  0.00    -0.357 N 
HETATM   31  C12 UNL     1      -9.575  46.336 -27.312  1.00  0.00     0.228 C 
HETATM   32  O3  UNL     1      -9.821  45.447 -26.502  1.00  0.00    -0.273 OA
HETATM   33  H19 UNL     1      -8.456  48.002 -27.771  1.00  0.00     0.162 HD
BRANCH  31  34
HETATM   34  C13 UNL     1     -10.405  46.550 -28.603  1.00  0.00     0.063 C 
HETATM   35  C14 UNL     1     -10.977  45.178 -29.017  1.00  0.00     0.028 C 
HETATM   36  C15 UNL     1      -9.431  47.036 -29.693  1.00  0.00     0.028 C 
BRANCH  34  37
HETATM   37  C16 UNL     1     -11.544  47.561 -28.252  1.00  0.00     0.164 C 
BRANCH  37  38
HETATM   38  O4  UNL     1     -11.949  48.268 -29.438  1.00  0.00    -0.390 OA
HETATM   39  H27 UNL     1     -12.890  48.067 -29.594  1.00  0.00     0.210 HD
ENDBRANCH  37  38
BRANCH  37  40
HETATM   40  C17 UNL     1     -12.822  47.130 -27.525  1.00  0.00    -0.054 C 
HETATM   41  C18 UNL     1     -13.840  46.536 -28.475  1.00  0.00     0.046 C 
HETATM   42  C19 UNL     1     -13.007  47.241 -26.193  1.00  0.00     0.005 C 
BRANCH  42  43
HETATM   43  C20 UNL     1     -14.194  46.886 -25.441  1.00  0.00     0.000 C 
HETATM   44  C21 UNL     1     -14.215  46.832 -24.100  1.00  0.00     0.000 C 
BRANCH  44  45
HETATM   45  C22 UNL     1     -15.409  46.495 -23.348  1.00  0.00     0.001 C 
HETATM   46  C23 UNL     1     -16.644  46.570 -23.871  1.00  0.00     0.009 C 
BRANCH  46  47
HETATM   47  C24 UNL     1     -17.911  46.268 -23.180  1.00  0.00    -0.034 C 
HETATM   48  C25 UNL     1     -19.177  46.677 -23.915  1.00  0.00     0.050 C 
HETATM   49  C26 UNL     1     -17.909  45.638 -21.981  1.00  0.00     0.082 C 
HETATM   50  C27 UNL     1     -16.798  45.152 -21.110  1.00  0.00     0.075 C 
BRANCH  49  51
HETATM   51  N2  UNL     1     -19.193  45.410 -21.343  1.00  0.00    -0.120 N 
HETATM   52  O5  UNL     1     -19.475  46.139 -20.385  1.00  0.00    -0.532 OA
HETATM   53  O6  UNL     1     -19.916  44.531 -21.826  1.00  0.00    -0.532 OA
ENDBRANCH  49  51
ENDBRANCH  46  47
ENDBRANCH  44  45
ENDBRANCH  42  43
ENDBRANCH  37  40
ENDBRANCH  34  37
ENDBRANCH  31  34
ENDBRANCH  29  30
ENDBRANCH   2  29
TORSDOF 19
ENDMDL
MODEL 8
REMARK minimizedAffinity -7.85265064
REMARK CNNscore 0.213030532
REMARK CNNaffinity 6.02150106
REMARK  19 active torsions:
REMARK  status: ('A' for Active; 'I' for Inactive)
REMARK    1  A    between atoms: O1_2  and  C2_3 
REMARK    2  A    between atoms: C2_3  and  C3_4 
REMARK    3  A    between atoms: C2_3  and  C28_36 
REMARK    4  A    between atoms: C3_4  and  C4_5 
REMARK    5  A    between atoms: C4_5  and  C6_7 
REMARK    6  A    between atoms: C6_7  and  O2_8 
REMARK    7  A    between atoms: C6_7  and  C7_9 
REMARK    8  A    between atoms: C8_10  and  C9_11 
REMARK    9  A    between atoms: C10_12  and  C11_13 
REMARK   10  A    between atoms: C11_13  and  N1_14 
REMARK       I    between atoms: N1_14  and  C12_15 
REMARK   11  A    between atoms: C12_15  and  C13_17 
REMARK   12  A    between atoms: C13_17  and  C16_20 
REMARK   13  A    between atoms: C16_20  and  O4_21 
REMARK   14  A    between atoms: C16_20  and  C17_22 
REMARK   15  A    between atoms: C19_24  and  C20_25 
REMARK   16  A    between atoms: C21_26  and  C22_27 
REMARK   17  A    between atoms: C23_28  and  C24_29 
REMARK   18  A    between atoms: C26_31  and  N2_33 
REMARK   19  A    between atoms: C28_36  and  O7_37 
ROOT
HETATM    1  C9  UNL     1      -3.513  48.336 -27.103  1.00  0.00    -0.003 C 
HETATM    2  C10 UNL     1      -3.826  48.986 -25.970  1.00  0.00    -0.007 C 
ENDROOT
BRANCH   1   3
HETATM    3  C8  UNL     1      -4.069  48.695 -28.386  1.00  0.00    -0.002 C 
HETATM    4  C7  UNL     1      -5.128  48.072 -28.925  1.00  0.00     0.005 C 
BRANCH   4   5
HETATM    5  C6  UNL     1      -5.720  48.435 -30.255  1.00  0.00     0.144 C 
BRANCH   5   6
HETATM    6  C4  UNL     1      -5.855  47.244 -31.238  1.00  0.00     0.016 C 
HETATM    7  C5  UNL     1      -4.484  46.641 -31.579  1.00  0.00     0.013 C 
BRANCH   6   8
HETATM    8  C3  UNL     1      -6.793  46.166 -30.626  1.00  0.00     0.042 C 
BRANCH   8   9
HETATM    9  C2  UNL     1      -8.116  45.929 -31.402  1.00  0.00     0.159 C 
BRANCH   9  10
HETATM   10  O1  UNL     1      -8.084  44.608 -31.958  1.00  0.00    -0.388 OA
HETATM   11  C1  UNL     1      -6.903  44.329 -32.701  1.00  0.00     0.202 C 
ENDBRANCH   9  10
BRANCH   9  12
HETATM   12  C28 UNL     1      -9.400  46.062 -30.500  1.00  0.00     0.133 C 
HETATM   13  C29 UNL     1      -9.733  47.551 -30.146  1.00  0.00     0.114 C 
HETATM   14  C30 UNL     1     -11.207  47.832 -29.858  1.00  0.00     0.023 C 
HETATM   15  C31 UNL     1      -8.941  47.806 -28.882  1.00  0.00     0.227 C 
HETATM   16  O8  UNL     1      -8.595  48.903 -28.478  1.00  0.00    -0.273 OA
HETATM   17  N3  UNL     1      -8.744  46.587 -28.255  1.00  0.00    -0.332 N 
HETATM   18  C32 UNL     1      -7.794  46.472 -27.170  1.00  0.00     0.154 C 
HETATM   19  C33 UNL     1      -9.166  45.420 -29.105  1.00  0.00     0.183 A 
HETATM   20  C34 UNL     1      -8.306  44.124 -29.001  1.00  0.00     0.294 A 
HETATM   21  C35 UNL     1     -10.220  44.510 -28.376  1.00  0.00     0.169 A 
HETATM   22  O9  UNL     1      -7.196  43.749 -29.302  1.00  0.00    -0.262 OA
HETATM   23  O10 UNL     1      -9.240  43.432 -28.299  1.00  0.00    -0.311 OA
HETATM   24  C36 UNL     1     -11.497  43.974 -28.998  1.00  0.00     0.043 C 
BRANCH  12  25
HETATM   25  O7  UNL     1     -10.510  45.442 -31.156  1.00  0.00    -0.383 OA
HETATM   26  H42 UNL     1     -10.789  46.009 -31.903  1.00  0.00     0.210 HD
ENDBRANCH  12  25
ENDBRANCH   9  12
ENDBRANCH   8   9
ENDBRANCH   6   8
ENDBRANCH   5   6
BRANCH   5  27
HETATM   27  O2  UNL     1      -4.829  49.396 -30.830  1.00  0.00    -0.391 OA
HETATM   28  H12 UNL     1      -4.889  50.185 -30.258  1.00  0.00     0.210 HD
ENDBRANCH   5  27
ENDBRANCH   4   5
ENDBRANCH   1   3
BRANCH   2  29
HETATM   29  C11 UNL     1      -3.301  48.615 -24.622  1.00  0.00     0.149 C 
BRANCH  29  30
HETATM   30  N1  UNL     1      -3.007  49.831 -23.910  1.00  0.00    -0.357 N 
HETATM   31  C12 UNL     1      -2.252  49.851 -22.759  1.00  0.00     0.228 C 
HETATM   32  O3  UNL     1      -1.842  48.821 -22.231  1.00  0.00    -0.273 OA
HETATM   33  H19 UNL     1      -3.194  50.719 -24.371  1.00  0.00     0.162 HD
BRANCH  31  34
HETATM   34  C13 UNL     1      -1.982  51.260 -22.172  1.00  0.00     0.063 C 
HETATM   35  C14 UNL     1      -2.559  52.293 -23.163  1.00  0.00     0.028 C 
HETATM   36  C15 UNL     1      -0.454  51.435 -22.100  1.00  0.00     0.028 C 
BRANCH  34  37
HETATM   37  C16 UNL     1      -2.710  51.328 -20.791  1.00  0.00     0.164 C 
BRANCH  37  38
HETATM   38  O4  UNL     1      -4.031  50.770 -20.910  1.00  0.00    -0.390 OA
HETATM   39  H27 UNL     1      -4.083  50.003 -20.310  1.00  0.00     0.210 HD
ENDBRANCH  37  38
BRANCH  37  40
HETATM   40  C17 UNL     1      -2.092  50.753 -19.512  1.00  0.00    -0.054 C 
HETATM   41  C18 UNL     1      -2.923  49.625 -18.939  1.00  0.00     0.046 C 
HETATM   42  C19 UNL     1      -0.929  51.180 -18.977  1.00  0.00     0.005 C 
BRANCH  42  43
HETATM   43  C20 UNL     1      -0.299  50.710 -17.759  1.00  0.00     0.000 C 
HETATM   44  C21 UNL     1       0.663  51.399 -17.127  1.00  0.00     0.000 C 
BRANCH  44  45
HETATM   45  C22 UNL     1       1.279  50.935 -15.898  1.00  0.00     0.001 C 
HETATM   46  C23 UNL     1       1.832  51.768 -15.000  1.00  0.00     0.009 C 
BRANCH  46  47
HETATM   47  C24 UNL     1       2.495  51.388 -13.740  1.00  0.00    -0.034 C 
HETATM   48  C25 UNL     1       3.770  50.575 -13.884  1.00  0.00     0.050 C 
HETATM   49  C26 UNL     1       1.986  51.782 -12.549  1.00  0.00     0.082 C 
HETATM   50  C27 UNL     1       0.773  52.577 -12.193  1.00  0.00     0.075 C 
BRANCH  49  51
HETATM   51  N2  UNL     1       2.671  51.336 -11.348  1.00  0.00    -0.120 N 
HETATM   52  O5  UNL     1       3.516  52.104 -10.872  1.00  0.00    -0.532 OA
HETATM   53  O6  UNL     1       2.333  50.244 -10.877  1.00  0.00    -0.532 OA
ENDBRANCH  49  51
ENDBRANCH  46  47
ENDBRANCH  44  45
ENDBRANCH  42  43
ENDBRANCH  37  40
ENDBRANCH  34  37
ENDBRANCH  31  34
ENDBRANCH  29  30
ENDBRANCH   2  29
TORSDOF 19
ENDMDL
MODEL 9
REMARK minimizedAffinity -8.36812592
REMARK CNNscore 0.207981378
REMARK CNNaffinity 6.50128317
REMARK  19 active torsions:
REMARK  status: ('A' for Active; 'I' for Inactive)
REMARK    1  A    between atoms: O1_2  and  C2_3 
REMARK    2  A    between atoms: C2_3  and  C3_4 
REMARK    3  A    between atoms: C2_3  and  C28_36 
REMARK    4  A    between atoms: C3_4  and  C4_5 
REMARK    5  A    between atoms: C4_5  and  C6_7 
REMARK    6  A    between atoms: C6_7  and  O2_8 
REMARK    7  A    between atoms: C6_7  and  C7_9 
REMARK    8  A    between atoms: C8_10  and  C9_11 
REMARK    9  A    between atoms: C10_12  and  C11_13 
REMARK   10  A    between atoms: C11_13  and  N1_14 
REMARK       I    between atoms: N1_14  and  C12_15 
REMARK   11  A    between atoms: C12_15  and  C13_17 
REMARK   12  A    between atoms: C13_17  and  C16_20 
REMARK   13  A    between atoms: C16_20  and  O4_21 
REMARK   14  A    between atoms: C16_20  and  C17_22 
REMARK   15  A    between atoms: C19_24  and  C20_25 
REMARK   16  A    between atoms: C21_26  and  C22_27 
REMARK   17  A    between atoms: C23_28  and  C24_29 
REMARK   18  A    between atoms: C26_31  and  N2_33 
REMARK   19  A    between atoms: C28_36  and  O7_37 
ROOT
HETATM    1  C9  UNL     1      -4.083  48.300 -27.445  1.00  0.00    -0.003 C 
HETATM    2  C10 UNL     1      -3.387  49.447 -27.380  1.00  0.00    -0.007 C 
ENDROOT
BRANCH   1   3
HETATM    3  C8  UNL     1      -5.246  48.140 -28.285  1.00  0.00    -0.002 C 
HETATM    4  C7  UNL     1      -6.432  47.719 -27.820  1.00  0.00     0.005 C 
BRANCH   4   5
HETATM    5  C6  UNL     1      -7.650  47.551 -28.679  1.00  0.00     0.144 C 
BRANCH   5   6
HETATM    6  C4  UNL     1      -7.384  46.833 -30.027  1.00  0.00     0.016 C 
HETATM    7  C5  UNL     1      -6.258  47.521 -30.815  1.00  0.00     0.013 C 
BRANCH   6   8
HETATM    8  C3  UNL     1      -7.040  45.340 -29.765  1.00  0.00     0.042 C 
BRANCH   8   9
HETATM    9  C2  UNL     1      -7.503  44.355 -30.870  1.00  0.00     0.159 C 
BRANCH   9  10
HETATM   10  O1  UNL     1      -6.590  43.250 -30.903  1.00  0.00    -0.388 OA
HETATM   11  C1  UNL     1      -5.700  43.278 -32.014  1.00  0.00     0.202 C 
ENDBRANCH   9  10
BRANCH   9  12
HETATM   12  C28 UNL     1      -8.957  43.796 -30.638  1.00  0.00     0.133 C 
HETATM   13  C29 UNL     1      -9.026  42.237 -30.767  1.00  0.00     0.114 C 
HETATM   14  C30 UNL     1     -10.151  41.573 -29.973  1.00  0.00     0.023 C 
HETATM   15  C31 UNL     1      -9.280  42.007 -32.240  1.00  0.00     0.227 C 
HETATM   16  O8  UNL     1      -9.027  40.980 -32.847  1.00  0.00    -0.273 OA
HETATM   17  N3  UNL     1      -9.900  43.139 -32.743  1.00  0.00    -0.332 N 
HETATM   18  C32 UNL     1     -10.023  43.329 -34.172  1.00  0.00     0.154 C 
HETATM   19  C33 UNL     1      -9.921  44.277 -31.758  1.00  0.00     0.183 A 
HETATM   20  C34 UNL     1      -9.753  45.714 -32.338  1.00  0.00     0.294 A 
HETATM   21  C35 UNL     1     -11.379  44.797 -31.489  1.00  0.00     0.169 A 
HETATM   22  O9  UNL     1      -8.892  46.382 -32.863  1.00  0.00    -0.262 OA
HETATM   23  O10 UNL     1     -11.052  46.058 -32.147  1.00  0.00    -0.311 OA
HETATM   24  C36 UNL     1     -11.968  45.092 -30.121  1.00  0.00     0.043 C 
BRANCH  12  25
HETATM   25  O7  UNL     1      -9.431  44.216 -29.356  1.00  0.00    -0.383 OA
HETATM   26  H42 UNL     1      -8.961  43.706 -28.666  1.00  0.00     0.210 HD
ENDBRANCH  12  25
ENDBRANCH   9  12
ENDBRANCH   8   9
ENDBRANCH   6   8
ENDBRANCH   5   6
BRANCH   5  27
HETATM   27  O2  UNL     1      -8.118  48.874 -28.957  1.00  0.00    -0.391 OA
HETATM   28  H12 UNL     1      -8.414  49.235 -28.099  1.00  0.00     0.210 HD
ENDBRANCH   5  27
ENDBRANCH   4   5
ENDBRANCH   1   3
BRANCH   2  29
HETATM   29  C11 UNL     1      -2.205  49.659 -26.492  1.00  0.00     0.149 C 
BRANCH  29  30
HETATM   30  N1  UNL     1      -1.628  50.936 -26.819  1.00  0.00    -0.357 N 
HETATM   31  C12 UNL     1      -0.277  51.183 -26.728  1.00  0.00     0.228 C 
HETATM   32  O3  UNL     1       0.510  50.346 -26.295  1.00  0.00    -0.273 OA
HETATM   33  H19 UNL     1      -2.202  51.615 -27.315  1.00  0.00     0.162 HD
BRANCH  31  34
HETATM   34  C13 UNL     1       0.169  52.595 -27.189  1.00  0.00     0.063 C 
HETATM   35  C14 UNL     1      -1.024  53.238 -27.927  1.00  0.00     0.028 C 
HETATM   36  C15 UNL     1       1.328  52.401 -28.184  1.00  0.00     0.028 C 
BRANCH  34  37
HETATM   37  C16 UNL     1       0.543  53.399 -25.902  1.00  0.00     0.164 C 
BRANCH  37  38
HETATM   38  O4  UNL     1       0.195  54.784 -26.076  1.00  0.00    -0.390 OA
HETATM   39  H27 UNL     1      -0.463  55.011 -25.393  1.00  0.00     0.210 HD
ENDBRANCH  37  38
BRANCH  37  40
HETATM   40  C17 UNL     1       0.059  52.983 -24.510  1.00  0.00    -0.054 C 
HETATM   41  C18 UNL     1      -1.444  53.102 -24.375  1.00  0.00     0.046 C 
HETATM   42  C19 UNL     1       0.871  52.537 -23.530  1.00  0.00     0.005 C 
BRANCH  42  43
HETATM   43  C20 UNL     1       0.494  52.157 -22.182  1.00  0.00     0.000 C 
HETATM   44  C21 UNL     1       0.865  52.857 -21.099  1.00  0.00     0.000 C 
BRANCH  44  45
HETATM   45  C22 UNL     1       0.470  52.485 -19.754  1.00  0.00     0.001 C 
HETATM   46  C23 UNL     1      -0.428  51.519 -19.498  1.00  0.00     0.009 C 
BRANCH  46  47
HETATM   47  C24 UNL     1      -0.903  51.089 -18.172  1.00  0.00    -0.034 C 
HETATM   48  C25 UNL     1       0.167  50.951 -17.101  1.00  0.00     0.050 C 
HETATM   49  C26 UNL     1      -2.220  50.867 -17.949  1.00  0.00     0.082 C 
HETATM   50  C27 UNL     1      -3.413  50.952 -18.844  1.00  0.00     0.075 C 
BRANCH  49  51
HETATM   51  N2  UNL     1      -2.608  50.407 -16.628  1.00  0.00    -0.120 N 
HETATM   52  O5  UNL     1      -2.296  49.249 -16.329  1.00  0.00    -0.532 OA
HETATM   53  O6  UNL     1      -3.188  51.217 -15.895  1.00  0.00    -0.532 OA
ENDBRANCH  49  51
ENDBRANCH  46  47
ENDBRANCH  44  45
ENDBRANCH  42  43
ENDBRANCH  37  40
ENDBRANCH  34  37
ENDBRANCH  31  34
ENDBRANCH  29  30
ENDBRANCH   2  29
TORSDOF 19
ENDMDL
