MODEL 1
REMARK minimizedAffinity -9.55630875
REMARK  8 active torsions:
REMARK  status: ('A' for Active; 'I' for Inactive)
REMARK    1  A    between atoms: C2_2  and  C4_4 
REMARK    2  A    between atoms: C4_4  and  O1_5 
REMARK    3  A    between atoms: C4_4  and  C5_6 
REMARK    4  A    between atoms: C5_6  and  C6_7 
REMARK    5  A    between atoms: C6_7  and  C7_8 
REMARK    6  A    between atoms: C7_8  and  C9_10 
REMARK    7  A    between atoms: C12_13  and  C13_14 
REMARK    8  A    between atoms: C13_14  and  O3_16 
ROOT
HETATM    1  C9  UNL     1       1.403   7.063  12.694  1.00  0.00    -0.001 C 
HETATM    2  C10 UNL     1       0.566   8.297  13.151  1.00  0.00     0.007 C 
HETATM    3  C11 UNL     1      -0.915   7.886  13.151  1.00  0.00     0.022 C 
HETATM    4  C12 UNL     1      -0.894   6.348  13.021  1.00  0.00     0.057 C 
HETATM    5  C14 UNL     1      -2.173   5.729  12.404  1.00  0.00     0.014 C 
HETATM    6  C15 UNL     1      -3.419   5.784  13.297  1.00  0.00     0.007 C 
HETATM    7  C16 UNL     1      -4.634   5.251  12.535  1.00  0.00     0.007 C 
HETATM    8  C17 UNL     1      -4.490   3.739  12.317  1.00  0.00     0.010 C 
HETATM    9  C18 UNL     1      -5.669   3.066  11.544  1.00  0.00     0.018 C 
HETATM   10  C19 UNL     1      -6.980   3.198  12.340  1.00  0.00     0.023 C 
HETATM   11  C20 UNL     1      -5.887   3.633  10.133  1.00  0.00     0.023 C 
HETATM   12  C21 UNL     1      -5.371   1.564  11.394  1.00  0.00     0.135 C 
HETATM   13  O4  UNL     1      -6.123   0.814  10.769  1.00  0.00    -0.297 OA
HETATM   14  C22 UNL     1      -4.158   1.016  12.105  1.00  0.00     0.080 C 
HETATM   15  C23 UNL     1      -2.906   1.819  11.776  1.00  0.00     0.018 C 
HETATM   16  C24 UNL     1      -3.140   3.330  11.720  1.00  0.00    -0.026 A 
HETATM   17  C25 UNL     1      -2.585   4.034  10.502  1.00  0.00     0.021 A 
HETATM   18  C26 UNL     1      -1.935   4.308  11.841  1.00  0.00    -0.027 A 
HETATM   19  C27 UNL     1      -0.556   3.707  12.092  1.00  0.00     0.011 C 
HETATM   20  C28 UNL     1       0.643   4.652  11.893  1.00  0.00     0.012 C 
HETATM   21  C29 UNL     1       0.317   6.153  12.029  1.00  0.00    -0.022 C 
HETATM   22  C30 UNL     1       0.033   6.683  10.586  1.00  0.00     0.017 C 
ENDROOT
BRANCH   1  23
HETATM   23  C7  UNL     1       2.675   7.484  11.894  1.00  0.00    -0.014 C 
HETATM   24  C8  UNL     1       2.429   8.716  11.020  1.00  0.00     0.010 C 
BRANCH  23  25
HETATM   25  C6  UNL     1       3.180   6.298  11.023  1.00  0.00     0.007 C 
BRANCH  25  26
HETATM   26  C5  UNL     1       3.630   6.689   9.603  1.00  0.00     0.036 C 
BRANCH  26  27
HETATM   27  C4  UNL     1       2.706   6.174   8.482  1.00  0.00     0.146 C 
BRANCH  27  28
HETATM   28  C2  UNL     1       2.385   7.241   7.441  1.00  0.00    -0.065 C 
HETATM   29  C1  UNL     1       1.644   7.030   6.338  1.00  0.00     0.016 C 
HETATM   30  C3  UNL     1       2.904   8.626   7.737  1.00  0.00     0.045 C 
ENDBRANCH  27  28
BRANCH  27  31
HETATM   31  O1  UNL     1       3.324   5.049   7.859  1.00  0.00    -0.391 OA
HETATM   32  H7  UNL     1       4.180   5.354   7.511  1.00  0.00     0.210 HD
ENDBRANCH  27  31
ENDBRANCH  26  27
ENDBRANCH  25  26
ENDBRANCH  23  25
ENDBRANCH   1  23
BRANCH   4  33
HETATM   33  C13 UNL     1      -0.630   5.777  14.440  1.00  0.00     0.149 C 
HETATM   34  O2  UNL     1      -1.382   5.115  15.135  1.00  0.00    -0.649 OA
BRANCH  33  35
HETATM   35  O3  UNL     1       0.595   6.070  14.926  1.00  0.00    -0.776 OA
HETATM   36  H21 UNL     1       0.609   5.632  15.804  1.00  0.00     0.167 HD
ENDBRANCH  33  35
ENDBRANCH   4  33
TORSDOF 8
ENDMDL
MODEL 2
REMARK minimizedAffinity -9.09398079
REMARK  8 active torsions:
REMARK  status: ('A' for Active; 'I' for Inactive)
REMARK    1  A    between atoms: C2_2  and  C4_4 
REMARK    2  A    between atoms: C4_4  and  O1_5 
REMARK    3  A    between atoms: C4_4  and  C5_6 
REMARK    4  A    between atoms: C5_6  and  C6_7 
REMARK    5  A    between atoms: C6_7  and  C7_8 
REMARK    6  A    between atoms: C7_8  and  C9_10 
REMARK    7  A    between atoms: C12_13  and  C13_14 
REMARK    8  A    between atoms: C13_14  and  O3_16 
ROOT
HETATM    1  C9  UNL     1      -4.104   7.394  14.348  1.00  0.00    -0.001 C 
HETATM    2  C10 UNL     1      -4.619   6.248  13.424  1.00  0.00     0.007 C 
HETATM    3  C11 UNL     1      -3.439   5.779  12.556  1.00  0.00     0.022 C 
HETATM    4  C12 UNL     1      -2.195   6.416  13.212  1.00  0.00     0.057 C 
HETATM    5  C14 UNL     1      -0.991   6.622  12.259  1.00  0.00     0.014 C 
HETATM    6  C15 UNL     1      -0.282   5.336  11.816  1.00  0.00     0.007 C 
HETATM    7  C16 UNL     1       0.807   5.664  10.793  1.00  0.00     0.007 C 
HETATM    8  C17 UNL     1       1.956   6.416  11.477  1.00  0.00     0.010 C 
HETATM    9  C18 UNL     1       3.139   6.815  10.538  1.00  0.00     0.018 C 
HETATM   10  C19 UNL     1       3.817   5.558   9.963  1.00  0.00     0.023 C 
HETATM   11  C20 UNL     1       2.725   7.731   9.376  1.00  0.00     0.023 C 
HETATM   12  C21 UNL     1       4.196   7.570  11.364  1.00  0.00     0.135 C 
HETATM   13  O4  UNL     1       5.207   8.044  10.843  1.00  0.00    -0.297 OA
HETATM   14  C22 UNL     1       3.992   7.649  12.857  1.00  0.00     0.080 C 
HETATM   15  C23 UNL     1       2.605   8.171  13.206  1.00  0.00     0.018 C 
HETATM   16  C24 UNL     1       1.494   7.614  12.314  1.00  0.00    -0.026 A 
HETATM   17  C25 UNL     1       0.538   8.636  11.741  1.00  0.00     0.021 A 
HETATM   18  C26 UNL     1       0.012   7.676  12.786  1.00  0.00    -0.027 A 
HETATM   19  C27 UNL     1      -0.265   8.231  14.180  1.00  0.00     0.011 C 
HETATM   20  C28 UNL     1      -1.733   8.573  14.494  1.00  0.00     0.012 C 
HETATM   21  C29 UNL     1      -2.773   7.819  13.642  1.00  0.00    -0.022 C 
HETATM   22  C30 UNL     1      -3.121   8.748  12.433  1.00  0.00     0.017 C 
ENDROOT
BRANCH   1  23
HETATM   23  C7  UNL     1      -5.213   8.452  14.640  1.00  0.00    -0.014 C 
HETATM   24  C8  UNL     1      -4.691   9.623  15.477  1.00  0.00     0.010 C 
BRANCH  23  25
HETATM   25  C6  UNL     1      -6.425   7.782  15.348  1.00  0.00     0.007 C 
BRANCH  25  26
HETATM   26  C5  UNL     1      -6.414   6.242  15.322  1.00  0.00     0.036 C 
BRANCH  26  27
HETATM   27  C4  UNL     1      -7.782   5.605  15.008  1.00  0.00     0.146 C 
BRANCH  27  28
HETATM   28  C2  UNL     1      -7.758   4.735  13.756  1.00  0.00    -0.065 C 
HETATM   29  C1  UNL     1      -7.357   3.451  13.729  1.00  0.00     0.016 C 
HETATM   30  C3  UNL     1      -8.283   5.380  12.497  1.00  0.00     0.045 C 
ENDBRANCH  27  28
BRANCH  27  31
HETATM   31  O1  UNL     1      -8.198   4.833  16.135  1.00  0.00    -0.391 OA
HETATM   32  H7  UNL     1      -7.510   4.161  16.286  1.00  0.00     0.210 HD
ENDBRANCH  27  31
ENDBRANCH  26  27
ENDBRANCH  25  26
ENDBRANCH  23  25
ENDBRANCH   1  23
BRANCH   4  33
HETATM   33  C13 UNL     1      -1.804   5.513  14.413  1.00  0.00     0.149 C 
HETATM   34  O2  UNL     1      -2.538   5.020  15.252  1.00  0.00    -0.649 OA
BRANCH  33  35
HETATM   35  O3  UNL     1      -0.480   5.266  14.500  1.00  0.00    -0.776 OA
HETATM   36  H21 UNL     1      -0.402   4.680  15.283  1.00  0.00     0.167 HD
ENDBRANCH  33  35
ENDBRANCH   4  33
TORSDOF 8
ENDMDL
MODEL 3
REMARK minimizedAffinity -8.9903717
REMARK  8 active torsions:
REMARK  status: ('A' for Active; 'I' for Inactive)
REMARK    1  A    between atoms: C2_2  and  C4_4 
REMARK    2  A    between atoms: C4_4  and  O1_5 
REMARK    3  A    between atoms: C4_4  and  C5_6 
REMARK    4  A    between atoms: C5_6  and  C6_7 
REMARK    5  A    between atoms: C6_7  and  C7_8 
REMARK    6  A    between atoms: C7_8  and  C9_10 
REMARK    7  A    between atoms: C12_13  and  C13_14 
REMARK    8  A    between atoms: C13_14  and  O3_16 
ROOT
HETATM    1  C9  UNL     1       0.808   7.792  12.461  1.00  0.00    -0.001 C 
HETATM    2  C10 UNL     1       1.151   8.673  13.701  1.00  0.00     0.007 C 
HETATM    3  C11 UNL     1      -0.093   8.714  14.605  1.00  0.00     0.022 C 
HETATM    4  C12 UNL     1      -1.012   7.602  14.056  1.00  0.00     0.057 C 
HETATM    5  C14 UNL     1      -2.520   7.799  14.352  1.00  0.00     0.014 C 
HETATM    6  C15 UNL     1      -2.925   7.614  15.820  1.00  0.00     0.007 C 
HETATM    7  C16 UNL     1      -4.408   7.948  15.999  1.00  0.00     0.007 C 
HETATM    8  C17 UNL     1      -5.270   6.878  15.316  1.00  0.00     0.010 C 
HETATM    9  C18 UNL     1      -6.812   7.102  15.422  1.00  0.00     0.018 C 
HETATM   10  C19 UNL     1      -7.263   7.048  16.894  1.00  0.00     0.023 C 
HETATM   11  C20 UNL     1      -7.290   8.426  14.806  1.00  0.00     0.023 C 
HETATM   12  C21 UNL     1      -7.532   5.963  14.680  1.00  0.00     0.135 C 
HETATM   13  O4  UNL     1      -8.759   5.937  14.567  1.00  0.00    -0.297 OA
HETATM   14  C22 UNL     1      -6.689   4.828  14.151  1.00  0.00     0.080 C 
HETATM   15  C23 UNL     1      -5.531   5.339  13.303  1.00  0.00     0.018 C 
HETATM   16  C24 UNL     1      -4.857   6.591  13.868  1.00  0.00    -0.026 A 
HETATM   17  C25 UNL     1      -4.642   7.720  12.885  1.00  0.00     0.021 A 
HETATM   18  C26 UNL     1      -3.425   6.982  13.400  1.00  0.00    -0.027 A 
HETATM   19  C27 UNL     1      -2.711   6.038  12.438  1.00  0.00     0.011 C 
HETATM   20  C28 UNL     1      -1.450   6.593  11.754  1.00  0.00     0.012 C 
HETATM   21  C29 UNL     1      -0.756   7.747  12.506  1.00  0.00    -0.022 C 
HETATM   22  C30 UNL     1      -1.314   9.076  11.902  1.00  0.00     0.017 C 
ENDROOT
BRANCH   1  23
HETATM   23  C7  UNL     1       1.545   8.282  11.175  1.00  0.00    -0.014 C 
HETATM   24  C8  UNL     1       0.650   8.215   9.934  1.00  0.00     0.010 C 
BRANCH  23  25
HETATM   25  C6  UNL     1       2.842   7.454  10.949  1.00  0.00     0.007 C 
BRANCH  25  26
HETATM   26  C5  UNL     1       3.244   7.277   9.472  1.00  0.00     0.036 C 
BRANCH  26  27
HETATM   27  C4  UNL     1       2.926   5.885   8.892  1.00  0.00     0.146 C 
BRANCH  27  28
HETATM   28  C2  UNL     1       2.724   5.905   7.381  1.00  0.00    -0.065 C 
HETATM   29  C1  UNL     1       3.077   4.904   6.553  1.00  0.00     0.016 C 
HETATM   30  C3  UNL     1       2.024   7.120   6.827  1.00  0.00     0.045 C 
ENDBRANCH  27  28
BRANCH  27  31
HETATM   31  O1  UNL     1       3.986   4.993   9.236  1.00  0.00    -0.391 OA
HETATM   32  H7  UNL     1       4.802   5.366   8.858  1.00  0.00     0.210 HD
ENDBRANCH  27  31
ENDBRANCH  26  27
ENDBRANCH  25  26
ENDBRANCH  23  25
ENDBRANCH   1  23
BRANCH   4  33
HETATM   33  C13 UNL     1      -0.501   6.260  14.645  1.00  0.00     0.149 C 
HETATM   34  O2  UNL     1      -0.437   5.174  14.094  1.00  0.00    -0.649 OA
BRANCH  33  35
HETATM   35  O3  UNL     1      -0.083   6.352  15.925  1.00  0.00    -0.776 OA
HETATM   36  H21 UNL     1       0.218   5.442  16.139  1.00  0.00     0.167 HD
ENDBRANCH  33  35
ENDBRANCH   4  33
TORSDOF 8
ENDMDL
MODEL 4
REMARK minimizedAffinity -8.93387508
REMARK  8 active torsions:
REMARK  status: ('A' for Active; 'I' for Inactive)
REMARK    1  A    between atoms: C2_2  and  C4_4 
REMARK    2  A    between atoms: C4_4  and  O1_5 
REMARK    3  A    between atoms: C4_4  and  C5_6 
REMARK    4  A    between atoms: C5_6  and  C6_7 
REMARK    5  A    between atoms: C6_7  and  C7_8 
REMARK    6  A    between atoms: C7_8  and  C9_10 
REMARK    7  A    between atoms: C12_13  and  C13_14 
REMARK    8  A    between atoms: C13_14  and  O3_16 
ROOT
HETATM    1  C9  UNL     1      -2.987   6.988  13.427  1.00  0.00    -0.001 C 
HETATM    2  C10 UNL     1      -2.869   7.812  14.746  1.00  0.00     0.007 C 
HETATM    3  C11 UNL     1      -1.436   8.363  14.827  1.00  0.00     0.022 C 
HETATM    4  C12 UNL     1      -0.850   8.138  13.417  1.00  0.00     0.057 C 
HETATM    5  C14 UNL     1       0.695   8.032  13.363  1.00  0.00     0.014 C 
HETATM    6  C15 UNL     1       1.448   9.341  13.629  1.00  0.00     0.007 C 
HETATM    7  C16 UNL     1       2.955   9.081  13.663  1.00  0.00     0.007 C 
HETATM    8  C17 UNL     1       3.456   8.729  12.256  1.00  0.00     0.010 C 
HETATM    9  C18 UNL     1       4.987   8.436  12.151  1.00  0.00     0.018 C 
HETATM   10  C19 UNL     1       5.802   9.688  12.527  1.00  0.00     0.023 C 
HETATM   11  C20 UNL     1       5.453   7.261  13.024  1.00  0.00     0.023 C 
HETATM   12  C21 UNL     1       5.327   8.088  10.692  1.00  0.00     0.135 C 
HETATM   13  O4  UNL     1       6.466   7.759  10.352  1.00  0.00    -0.297 OA
HETATM   14  C22 UNL     1       4.232   8.233   9.663  1.00  0.00     0.080 C 
HETATM   15  C23 UNL     1       2.969   7.494  10.082  1.00  0.00     0.018 C 
HETATM   16  C24 UNL     1       2.640   7.629  11.570  1.00  0.00    -0.026 A 
HETATM   17  C25 UNL     1       2.321   6.338  12.291  1.00  0.00     0.021 A 
HETATM   18  C26 UNL     1       1.199   7.331  12.079  1.00  0.00    -0.027 A 
HETATM   19  C27 UNL     1       0.137   6.987  11.039  1.00  0.00     0.011 C 
HETATM   20  C28 UNL     1      -1.177   6.396  11.581  1.00  0.00     0.012 C 
HETATM   21  C29 UNL     1      -1.487   6.742  13.051  1.00  0.00    -0.022 C 
HETATM   22  C30 UNL     1      -0.940   5.561  13.917  1.00  0.00     0.017 C 
ENDROOT
BRANCH   1  23
HETATM   23  C7  UNL     1      -3.968   5.783  13.577  1.00  0.00    -0.014 C 
HETATM   24  C8  UNL     1      -3.897   4.826  12.384  1.00  0.00     0.010 C 
BRANCH  23  25
HETATM   25  C6  UNL     1      -5.424   6.295  13.770  1.00  0.00     0.007 C 
BRANCH  25  26
HETATM   26  C5  UNL     1      -6.111   5.809  15.061  1.00  0.00     0.036 C 
BRANCH  26  27
HETATM   27  C4  UNL     1      -7.546   5.285  14.855  1.00  0.00     0.146 C 
BRANCH  27  28
HETATM   28  C2  UNL     1      -7.699   4.459  13.583  1.00  0.00    -0.065 C 
HETATM   29  C1  UNL     1      -7.274   3.190  13.445  1.00  0.00     0.016 C 
HETATM   30  C3  UNL     1      -8.434   5.128  12.449  1.00  0.00     0.045 C 
ENDBRANCH  27  28
BRANCH  27  31
HETATM   31  O1  UNL     1      -7.917   4.509  15.994  1.00  0.00    -0.391 OA
HETATM   32  H7  UNL     1      -7.273   3.784  16.064  1.00  0.00     0.210 HD
ENDBRANCH  27  31
ENDBRANCH  26  27
ENDBRANCH  25  26
ENDBRANCH  23  25
ENDBRANCH   1  23
BRANCH   4  33
HETATM   33  C13 UNL     1      -1.357   9.303  12.525  1.00  0.00     0.149 C 
HETATM   34  O2  UNL     1      -1.621   9.278  11.334  1.00  0.00    -0.649 OA
BRANCH  33  35
HETATM   35  O3  UNL     1      -1.514  10.468  13.188  1.00  0.00    -0.776 OA
HETATM   36  H21 UNL     1      -1.849  11.085  12.501  1.00  0.00     0.167 HD
ENDBRANCH  33  35
ENDBRANCH   4  33
TORSDOF 8
ENDMDL
MODEL 5
REMARK minimizedAffinity -8.93287182
REMARK  8 active torsions:
REMARK  status: ('A' for Active; 'I' for Inactive)
REMARK    1  A    between atoms: C2_2  and  C4_4 
REMARK    2  A    between atoms: C4_4  and  O1_5 
REMARK    3  A    between atoms: C4_4  and  C5_6 
REMARK    4  A    between atoms: C5_6  and  C6_7 
REMARK    5  A    between atoms: C6_7  and  C7_8 
REMARK    6  A    between atoms: C7_8  and  C9_10 
REMARK    7  A    between atoms: C12_13  and  C13_14 
REMARK    8  A    between atoms: C13_14  and  O3_16 
ROOT
HETATM    1  C9  UNL     1      -2.626   4.904  13.304  1.00  0.00    -0.001 C 
HETATM    2  C10 UNL     1      -1.741   5.376  12.111  1.00  0.00     0.007 C 
HETATM    3  C11 UNL     1      -1.352   6.841  12.365  1.00  0.00     0.022 C 
HETATM    4  C12 UNL     1      -1.730   7.095  13.841  1.00  0.00     0.057 C 
HETATM    5  C14 UNL     1      -2.014   8.576  14.194  1.00  0.00     0.014 C 
HETATM    6  C15 UNL     1      -0.785   9.494  14.197  1.00  0.00     0.007 C 
HETATM    7  C16 UNL     1      -1.213  10.941  14.444  1.00  0.00     0.007 C 
HETATM    8  C17 UNL     1      -1.706  11.101  15.888  1.00  0.00     0.010 C 
HETATM    9  C18 UNL     1      -2.177  12.539  16.273  1.00  0.00     0.018 C 
HETATM   10  C19 UNL     1      -1.006  13.534  16.175  1.00  0.00     0.023 C 
HETATM   11  C20 UNL     1      -3.342  13.059  15.415  1.00  0.00     0.023 C 
HETATM   12  C21 UNL     1      -2.653  12.532  17.736  1.00  0.00     0.135 C 
HETATM   13  O4  UNL     1      -3.129  13.536  18.268  1.00  0.00    -0.297 OA
HETATM   14  C22 UNL     1      -2.448  11.266  18.532  1.00  0.00     0.080 C 
HETATM   15  C23 UNL     1      -3.011  10.051  17.807  1.00  0.00     0.018 C 
HETATM   16  C24 UNL     1      -2.747  10.055  16.300  1.00  0.00    -0.026 A 
HETATM   17  C25 UNL     1      -3.946   9.767  15.423  1.00  0.00     0.021 A 
HETATM   18  C26 UNL     1      -2.846   8.730  15.489  1.00  0.00    -0.027 A 
HETATM   19  C27 UNL     1      -3.132   7.446  16.262  1.00  0.00     0.011 C 
HETATM   20  C28 UNL     1      -3.534   6.222  15.419  1.00  0.00     0.012 C 
HETATM   21  C29 UNL     1      -3.064   6.261  13.951  1.00  0.00    -0.022 C 
HETATM   22  C30 UNL     1      -4.244   6.857  13.117  1.00  0.00     0.017 C 
ENDROOT
BRANCH   1  23
HETATM   23  C7  UNL     1      -3.700   3.862  12.859  1.00  0.00    -0.014 C 
HETATM   24  C8  UNL     1      -3.410   3.290  11.469  1.00  0.00     0.010 C 
BRANCH  23  25
HETATM   25  C6  UNL     1      -5.118   4.501  12.894  1.00  0.00     0.007 C 
BRANCH  25  26
HETATM   26  C5  UNL     1      -6.276   3.510  12.673  1.00  0.00     0.036 C 
BRANCH  26  27
HETATM   27  C4  UNL     1      -7.418   3.632  13.701  1.00  0.00     0.146 C 
BRANCH  27  28
HETATM   28  C2  UNL     1      -7.651   5.067  14.161  1.00  0.00    -0.065 C 
HETATM   29  C1  UNL     1      -8.204   6.029  13.400  1.00  0.00     0.016 C 
HETATM   30  C3  UNL     1      -7.276   5.368  15.591  1.00  0.00     0.045 C 
ENDBRANCH  27  28
BRANCH  27  31
HETATM   31  O1  UNL     1      -8.611   3.099  13.126  1.00  0.00    -0.391 OA
HETATM   32  H7  UNL     1      -8.790   3.616  12.321  1.00  0.00     0.210 HD
ENDBRANCH  27  31
ENDBRANCH  26  27
ENDBRANCH  25  26
ENDBRANCH  23  25
ENDBRANCH   1  23
BRANCH   4  33
HETATM   33  C13 UNL     1      -0.572   6.530  14.708  1.00  0.00     0.149 C 
HETATM   34  O2  UNL     1       0.563   6.962  14.818  1.00  0.00    -0.649 OA
BRANCH  33  35
HETATM   35  O3  UNL     1      -0.907   5.428  15.411  1.00  0.00    -0.776 OA
HETATM   36  H21 UNL     1      -0.089   5.212  15.910  1.00  0.00     0.167 HD
ENDBRANCH  33  35
ENDBRANCH   4  33
TORSDOF 8
ENDMDL
MODEL 6
REMARK minimizedAffinity -8.7787714
REMARK  8 active torsions:
REMARK  status: ('A' for Active; 'I' for Inactive)
REMARK    1  A    between atoms: C2_2  and  C4_4 
REMARK    2  A    between atoms: C4_4  and  O1_5 
REMARK    3  A    between atoms: C4_4  and  C5_6 
REMARK    4  A    between atoms: C5_6  and  C6_7 
REMARK    5  A    between atoms: C6_7  and  C7_8 
REMARK    6  A    between atoms: C7_8  and  C9_10 
REMARK    7  A    between atoms: C12_13  and  C13_14 
REMARK    8  A    between atoms: C13_14  and  O3_16 
ROOT
HETATM    1  C9  UNL     1      -2.674   5.925  12.721  1.00  0.00    -0.001 C 
HETATM    2  C10 UNL     1      -2.791   6.619  14.112  1.00  0.00     0.007 C 
HETATM    3  C11 UNL     1      -1.485   7.390  14.363  1.00  0.00     0.022 C 
HETATM    4  C12 UNL     1      -0.773   7.410  12.992  1.00  0.00     0.057 C 
HETATM    5  C14 UNL     1       0.766   7.568  13.061  1.00  0.00     0.014 C 
HETATM    6  C15 UNL     1       1.261   8.951  13.503  1.00  0.00     0.007 C 
HETATM    7  C16 UNL     1       2.784   8.943  13.642  1.00  0.00     0.007 C 
HETATM    8  C17 UNL     1       3.434   8.824  12.257  1.00  0.00     0.010 C 
HETATM    9  C18 UNL     1       4.995   8.801  12.257  1.00  0.00     0.018 C 
HETATM   10  C19 UNL     1       5.553  10.127  12.809  1.00  0.00     0.023 C 
HETATM   11  C20 UNL     1       5.598   7.638  13.059  1.00  0.00     0.023 C 
HETATM   12  C21 UNL     1       5.490   8.664  10.807  1.00  0.00     0.135 C 
HETATM   13  O4  UNL     1       6.689   8.565  10.538  1.00  0.00    -0.297 OA
HETATM   14  C22 UNL     1       4.460   8.728   9.706  1.00  0.00     0.080 C 
HETATM   15  C23 UNL     1       3.318   7.750   9.950  1.00  0.00     0.018 C 
HETATM   16  C24 UNL     1       2.870   7.677  11.411  1.00  0.00    -0.026 A 
HETATM   17  C25 UNL     1       2.731   6.286  11.986  1.00  0.00     0.021 A 
HETATM   18  C26 UNL     1       1.471   7.095  11.767  1.00  0.00    -0.027 A 
HETATM   19  C27 UNL     1       0.559   6.685  10.615  1.00  0.00     0.011 C 
HETATM   20  C28 UNL     1      -0.666   5.832  10.990  1.00  0.00     0.012 C 
HETATM   21  C29 UNL     1      -1.132   5.971  12.453  1.00  0.00    -0.022 C 
HETATM   22  C30 UNL     1      -0.449   4.816  13.254  1.00  0.00     0.017 C 
ENDROOT
BRANCH   1  23
HETATM   23  C7  UNL     1      -3.439   4.565  12.680  1.00  0.00    -0.014 C 
HETATM   24  C8  UNL     1      -3.512   3.983  11.266  1.00  0.00     0.010 C 
BRANCH  23  25
HETATM   25  C6  UNL     1      -4.869   4.733  13.267  1.00  0.00     0.007 C 
BRANCH  25  26
HETATM   26  C5  UNL     1      -5.896   3.700  12.767  1.00  0.00     0.036 C 
BRANCH  26  27
HETATM   27  C4  UNL     1      -7.272   3.791  13.455  1.00  0.00     0.146 C 
BRANCH  27  28
HETATM   28  C2  UNL     1      -7.960   5.133  13.230  1.00  0.00    -0.065 C 
HETATM   29  C1  UNL     1      -8.493   5.528  12.059  1.00  0.00     0.016 C 
HETATM   30  C3  UNL     1      -8.081   6.022  14.443  1.00  0.00     0.045 C 
ENDBRANCH  27  28
BRANCH  27  31
HETATM   31  O1  UNL     1      -8.096   2.729  12.974  1.00  0.00    -0.391 OA
HETATM   32  H7  UNL     1      -8.165   2.840  12.010  1.00  0.00     0.210 HD
ENDBRANCH  27  31
ENDBRANCH  26  27
ENDBRANCH  25  26
ENDBRANCH  23  25
ENDBRANCH   1  23
BRANCH   4  33
HETATM   33  C13 UNL     1      -1.413   8.558  12.167  1.00  0.00     0.149 C 
HETATM   34  O2  UNL     1      -2.584   8.897  12.133  1.00  0.00    -0.649 OA
BRANCH  33  35
HETATM   35  O3  UNL     1      -0.530   9.243  11.410  1.00  0.00    -0.776 OA
HETATM   36  H21 UNL     1      -1.078   9.930  10.974  1.00  0.00     0.167 HD
ENDBRANCH  33  35
ENDBRANCH   4  33
TORSDOF 8
ENDMDL
MODEL 7
REMARK minimizedAffinity -8.56969833
REMARK  8 active torsions:
REMARK  status: ('A' for Active; 'I' for Inactive)
REMARK    1  A    between atoms: C2_2  and  C4_4 
REMARK    2  A    between atoms: C4_4  and  O1_5 
REMARK    3  A    between atoms: C4_4  and  C5_6 
REMARK    4  A    between atoms: C5_6  and  C6_7 
REMARK    5  A    between atoms: C6_7  and  C7_8 
REMARK    6  A    between atoms: C7_8  and  C9_10 
REMARK    7  A    between atoms: C12_13  and  C13_14 
REMARK    8  A    between atoms: C13_14  and  O3_16 
ROOT
HETATM    1  C9  UNL     1       3.924   7.999  11.038  1.00  0.00    -0.001 C 
HETATM    2  C10 UNL     1       4.183   6.520  10.616  1.00  0.00     0.007 C 
HETATM    3  C11 UNL     1       2.889   5.728  10.862  1.00  0.00     0.022 C 
HETATM    4  C12 UNL     1       1.811   6.807  11.103  1.00  0.00     0.057 C 
HETATM    5  C14 UNL     1       0.597   6.337  11.943  1.00  0.00     0.014 C 
HETATM    6  C15 UNL     1      -0.340   5.348  11.239  1.00  0.00     0.007 C 
HETATM    7  C16 UNL     1      -1.426   4.874  12.208  1.00  0.00     0.007 C 
HETATM    8  C17 UNL     1      -2.389   6.028  12.516  1.00  0.00     0.010 C 
HETATM    9  C18 UNL     1      -3.550   5.678  13.500  1.00  0.00     0.018 C 
HETATM   10  C19 UNL     1      -4.460   4.593  12.894  1.00  0.00     0.023 C 
HETATM   11  C20 UNL     1      -3.069   5.207  14.881  1.00  0.00     0.023 C 
HETATM   12  C21 UNL     1      -4.413   6.933  13.718  1.00  0.00     0.135 C 
HETATM   13  O4  UNL     1      -5.365   6.937  14.500  1.00  0.00    -0.297 OA
HETATM   14  C22 UNL     1      -4.102   8.150  12.882  1.00  0.00     0.080 C 
HETATM   15  C23 UNL     1      -2.628   8.524  12.964  1.00  0.00     0.018 C 
HETATM   16  C24 UNL     1      -1.684   7.321  12.939  1.00  0.00    -0.026 A 
HETATM   17  C25 UNL     1      -0.613   7.305  14.007  1.00  0.00     0.021 A 
HETATM   18  C26 UNL     1      -0.184   7.516  12.572  1.00  0.00    -0.027 A 
HETATM   19  C27 UNL     1       0.271   8.915  12.169  1.00  0.00     0.011 C 
HETATM   20  C28 UNL     1       1.792   9.147  12.120  1.00  0.00     0.012 C 
HETATM   21  C29 UNL     1       2.637   7.873  11.921  1.00  0.00    -0.022 C 
HETATM   22  C30 UNL     1       3.052   7.381  13.346  1.00  0.00     0.017 C 
ENDROOT
BRANCH   1  23
HETATM   23  C7  UNL     1       5.208   8.676  11.611  1.00  0.00    -0.014 C 
HETATM   24  C8  UNL     1       5.892   9.583  10.584  1.00  0.00     0.010 C 
BRANCH  23  25
HETATM   25  C6  UNL     1       6.204   7.597  12.124  1.00  0.00     0.007 C 
BRANCH  25  26
HETATM   26  C5  UNL     1       7.378   8.147  12.956  1.00  0.00     0.036 C 
BRANCH  26  27
HETATM   27  C4  UNL     1       7.650   7.369  14.258  1.00  0.00     0.146 C 
BRANCH  27  28
HETATM   28  C2  UNL     1       8.974   7.750  14.911  1.00  0.00    -0.065 C 
HETATM   29  C1  UNL     1       9.169   7.842  16.239  1.00  0.00     0.016 C 
HETATM   30  C3  UNL     1      10.131   7.973  13.969  1.00  0.00     0.045 C 
ENDBRANCH  27  28
BRANCH  27  31
HETATM   31  O1  UNL     1       6.571   7.599  15.163  1.00  0.00    -0.391 OA
HETATM   32  H7  UNL     1       6.530   8.559  15.316  1.00  0.00     0.210 HD
ENDBRANCH  27  31
ENDBRANCH  26  27
ENDBRANCH  25  26
ENDBRANCH  23  25
ENDBRANCH   1  23
BRANCH   4  33
HETATM   33  C13 UNL     1       1.357   7.313   9.707  1.00  0.00     0.149 C 
HETATM   34  O2  UNL     1       0.705   8.310   9.446  1.00  0.00    -0.649 OA
BRANCH  33  35
HETATM   35  O3  UNL     1       1.756   6.526   8.686  1.00  0.00    -0.776 OA
HETATM   36  H21 UNL     1       1.411   6.984   7.889  1.00  0.00     0.167 HD
ENDBRANCH  33  35
ENDBRANCH   4  33
TORSDOF 8
ENDMDL
MODEL 8
REMARK minimizedAffinity -8.53981876
REMARK  8 active torsions:
REMARK  status: ('A' for Active; 'I' for Inactive)
REMARK    1  A    between atoms: C2_2  and  C4_4 
REMARK    2  A    between atoms: C4_4  and  O1_5 
REMARK    3  A    between atoms: C4_4  and  C5_6 
REMARK    4  A    between atoms: C5_6  and  C6_7 
REMARK    5  A    between atoms: C6_7  and  C7_8 
REMARK    6  A    between atoms: C7_8  and  C9_10 
REMARK    7  A    between atoms: C12_13  and  C13_14 
REMARK    8  A    between atoms: C13_14  and  O3_16 
ROOT
HETATM    1  C9  UNL     1      -2.486   6.690  12.897  1.00  0.00    -0.001 C 
HETATM    2  C10 UNL     1      -2.541   7.390  14.288  1.00  0.00     0.007 C 
HETATM    3  C11 UNL     1      -1.178   8.059  14.532  1.00  0.00     0.022 C 
HETATM    4  C12 UNL     1      -0.475   8.024  13.157  1.00  0.00     0.057 C 
HETATM    5  C14 UNL     1       1.072   8.063  13.217  1.00  0.00     0.014 C 
HETATM    6  C15 UNL     1       1.674   9.404  13.657  1.00  0.00     0.007 C 
HETATM    7  C16 UNL     1       3.193   9.279  13.787  1.00  0.00     0.007 C 
HETATM    8  C17 UNL     1       3.824   9.110  12.398  1.00  0.00     0.010 C 
HETATM    9  C18 UNL     1       5.379   8.968  12.389  1.00  0.00     0.018 C 
HETATM   10  C19 UNL     1       6.040  10.247  12.938  1.00  0.00     0.023 C 
HETATM   11  C20 UNL     1       5.895   7.761  13.188  1.00  0.00     0.023 C 
HETATM   12  C21 UNL     1       5.854   8.793  10.936  1.00  0.00     0.135 C 
HETATM   13  O4  UNL     1       7.040   8.603  10.660  1.00  0.00    -0.297 OA
HETATM   14  C22 UNL     1       4.825   8.937   9.841  1.00  0.00     0.080 C 
HETATM   15  C23 UNL     1       3.613   8.050  10.092  1.00  0.00     0.018 C 
HETATM   16  C24 UNL     1       3.168   8.011  11.555  1.00  0.00    -0.026 A 
HETATM   17  C25 UNL     1       2.926   6.634  12.131  1.00  0.00     0.021 A 
HETATM   18  C26 UNL     1       1.731   7.538  11.920  1.00  0.00    -0.027 A 
HETATM   19  C27 UNL     1       0.784   7.200  10.773  1.00  0.00     0.011 C 
HETATM   20  C28 UNL     1      -0.501   6.443  11.155  1.00  0.00     0.012 C 
HETATM   21  C29 UNL     1      -0.947   6.617  12.620  1.00  0.00    -0.022 C 
HETATM   22  C30 UNL     1      -0.350   5.413  13.418  1.00  0.00     0.017 C 
ENDROOT
BRANCH   1  23
HETATM   23  C7  UNL     1      -3.353   5.392  12.861  1.00  0.00    -0.014 C 
HETATM   24  C8  UNL     1      -3.645   4.852  14.263  1.00  0.00     0.010 C 
BRANCH  23  25
HETATM   25  C6  UNL     1      -2.656   4.302  11.998  1.00  0.00     0.007 C 
BRANCH  25  26
HETATM   26  C5  UNL     1      -3.261   2.891  12.132  1.00  0.00     0.036 C 
BRANCH  26  27
HETATM   27  C4  UNL     1      -4.187   2.487  10.968  1.00  0.00     0.146 C 
BRANCH  27  28
HETATM   28  C2  UNL     1      -5.634   2.288  11.404  1.00  0.00    -0.065 C 
HETATM   29  C1  UNL     1      -6.291   1.115  11.350  1.00  0.00     0.016 C 
HETATM   30  C3  UNL     1      -6.319   3.500  11.985  1.00  0.00     0.045 C 
ENDBRANCH  27  28
BRANCH  27  31
HETATM   31  O1  UNL     1      -4.112   3.488   9.954  1.00  0.00    -0.391 OA
HETATM   32  H7  UNL     1      -4.389   4.326  10.363  1.00  0.00     0.210 HD
ENDBRANCH  27  31
ENDBRANCH  26  27
ENDBRANCH  25  26
ENDBRANCH  23  25
ENDBRANCH   1  23
BRANCH   4  33
HETATM   33  C13 UNL     1      -1.030   9.218  12.335  1.00  0.00     0.149 C 
HETATM   34  O2  UNL     1      -1.265   9.262  11.139  1.00  0.00    -0.649 OA
BRANCH  33  35
HETATM   35  O3  UNL     1      -1.269  10.323  13.073  1.00  0.00    -0.776 OA
HETATM   36  H21 UNL     1      -1.624  10.966  12.422  1.00  0.00     0.167 HD
ENDBRANCH  33  35
ENDBRANCH   4  33
TORSDOF 8
ENDMDL
MODEL 9
REMARK minimizedAffinity -8.47516155
REMARK  8 active torsions:
REMARK  status: ('A' for Active; 'I' for Inactive)
REMARK    1  A    between atoms: C2_2  and  C4_4 
REMARK    2  A    between atoms: C4_4  and  O1_5 
REMARK    3  A    between atoms: C4_4  and  C5_6 
REMARK    4  A    between atoms: C5_6  and  C6_7 
REMARK    5  A    between atoms: C6_7  and  C7_8 
REMARK    6  A    between atoms: C7_8  and  C9_10 
REMARK    7  A    between atoms: C12_13  and  C13_14 
REMARK    8  A    between atoms: C13_14  and  O3_16 
ROOT
HETATM    1  C9  UNL     1       3.348   7.876  13.373  1.00  0.00    -0.001 C 
HETATM    2  C10 UNL     1       3.336   9.276  14.058  1.00  0.00     0.007 C 
HETATM    3  C11 UNL     1       1.893   9.571  14.500  1.00  0.00     0.022 C 
HETATM    4  C12 UNL     1       1.161   8.217  14.369  1.00  0.00     0.057 C 
HETATM    5  C14 UNL     1      -0.370   8.323  14.163  1.00  0.00     0.014 C 
HETATM    6  C15 UNL     1      -1.162   8.802  15.387  1.00  0.00     0.007 C 
HETATM    7  C16 UNL     1      -2.637   8.975  15.021  1.00  0.00     0.007 C 
HETATM    8  C17 UNL     1      -3.277   7.603  14.771  1.00  0.00     0.010 C 
HETATM    9  C18 UNL     1      -4.790   7.638  14.385  1.00  0.00     0.018 C 
HETATM   10  C19 UNL     1      -5.626   8.227  15.536  1.00  0.00     0.023 C 
HETATM   11  C20 UNL     1      -5.084   8.432  13.103  1.00  0.00     0.023 C 
HETATM   12  C21 UNL     1      -5.277   6.197  14.154  1.00  0.00     0.135 C 
HETATM   13  O4  UNL     1      -6.426   5.953  13.781  1.00  0.00    -0.297 OA
HETATM   14  C22 UNL     1      -4.319   5.074  14.470  1.00  0.00     0.080 C 
HETATM   15  C23 UNL     1      -2.975   5.275  13.783  1.00  0.00     0.018 C 
HETATM   16  C24 UNL     1      -2.484   6.724  13.799  1.00  0.00    -0.026 A 
HETATM   17  C25 UNL     1      -2.010   7.270  12.471  1.00  0.00     0.021 A 
HETATM   18  C26 UNL     1      -0.979   7.038  13.554  1.00  0.00    -0.027 A 
HETATM   19  C27 UNL     1      -0.027   5.858  13.383  1.00  0.00     0.011 C 
HETATM   20  C28 UNL     1       1.372   6.190  12.836  1.00  0.00     0.012 C 
HETATM   21  C29 UNL     1       1.831   7.644  13.061  1.00  0.00    -0.022 C 
HETATM   22  C30 UNL     1       1.457   8.439  11.769  1.00  0.00     0.017 C 
ENDROOT
BRANCH   1  23
HETATM   23  C7  UNL     1       4.407   7.793  12.229  1.00  0.00    -0.014 C 
HETATM   24  C8  UNL     1       4.498   9.095  11.429  1.00  0.00     0.010 C 
BRANCH  23  25
HETATM   25  C6  UNL     1       4.087   6.601  11.283  1.00  0.00     0.007 C 
BRANCH  25  26
HETATM   26  C5  UNL     1       3.990   6.971   9.791  1.00  0.00     0.036 C 
BRANCH  26  27
HETATM   27  C4  UNL     1       2.899   6.204   9.018  1.00  0.00     0.146 C 
BRANCH  27  28
HETATM   28  C2  UNL     1       2.319   7.007   7.859  1.00  0.00    -0.065 C 
HETATM   29  C1  UNL     1       2.112   6.517   6.623  1.00  0.00     0.016 C 
HETATM   30  C3  UNL     1       1.906   8.422   8.181  1.00  0.00     0.045 C 
ENDBRANCH  27  28
BRANCH  27  31
HETATM   31  O1  UNL     1       3.453   4.979   8.540  1.00  0.00    -0.391 OA
HETATM   32  H7  UNL     1       4.206   5.213   7.969  1.00  0.00     0.210 HD
ENDBRANCH  27  31
ENDBRANCH  26  27
ENDBRANCH  25  26
ENDBRANCH  23  25
ENDBRANCH   1  23
BRANCH   4  33
HETATM   33  C13 UNL     1       1.494   7.398  15.646  1.00  0.00     0.149 C 
HETATM   34  O2  UNL     1       2.592   7.160  16.120  1.00  0.00    -0.649 OA
BRANCH  33  35
HETATM   35  O3  UNL     1       0.406   6.912  16.279  1.00  0.00    -0.776 OA
HETATM   36  H21 UNL     1       0.779   6.445  17.058  1.00  0.00     0.167 HD
ENDBRANCH  33  35
ENDBRANCH   4  33
TORSDOF 8
ENDMDL
