MODEL 1
REMARK minimizedAffinity -6.38688707
REMARK CNNscore 0.508321762
REMARK CNNaffinity 6.46964788
REMARK  5 active torsions:
REMARK  status: ('A' for Active; 'I' for Inactive)
REMARK    1  A    between atoms: C2_2  and  C25_28 
REMARK    2  A    between atoms: C3_3  and  C4_4 
REMARK    3  A    between atoms: C4_4  and  C6_6 
REMARK    4  A    between atoms: C20_20  and  O1_21 
REMARK    5  A    between atoms: C25_28  and  C27_30 
ROOT
HETATM    1  C6  UNL     1     -13.681 -12.102  29.276  1.00  0.00     0.001 C 
HETATM    2  C7  UNL     1     -13.130 -12.148  30.733  1.00  0.00     0.006 C 
HETATM    3  C8  UNL     1     -13.254 -10.728  31.310  1.00  0.00     0.009 C 
HETATM    4  C9  UNL     1     -13.986  -9.954  30.218  1.00  0.00     0.036 C 
HETATM    5  C10 UNL     1     -13.503 -10.592  28.891  1.00  0.00    -0.033 C 
HETATM    6  C11 UNL     1     -12.034 -10.282  28.529  1.00  0.00     0.016 C 
HETATM    7  C12 UNL     1     -14.441 -10.074  27.782  1.00  0.00     0.010 C 
HETATM    8  C13 UNL     1     -14.466  -8.537  27.705  1.00  0.00     0.010 C 
HETATM    9  C14 UNL     1     -14.828  -7.873  29.048  1.00  0.00     0.039 C 
HETATM   10  C15 UNL     1     -14.015  -8.424  30.271  1.00  0.00     0.123 C 
HETATM   11  C16 UNL     1     -12.706  -7.709  30.476  1.00  0.00     0.014 C 
HETATM   12  C17 UNL     1     -12.846  -6.386  30.654  1.00  0.00     0.014 C 
HETATM   13  C18 UNL     1     -14.271  -5.889  30.489  1.00  0.00     0.124 C 
HETATM   14  C19 UNL     1     -14.400  -4.392  30.801  1.00  0.00     0.078 C 
HETATM   15  C20 UNL     1     -15.734  -3.779  30.357  1.00  0.00     0.121 C 
HETATM   16  C21 UNL     1     -16.770  -4.797  29.890  1.00  0.00     0.033 C 
HETATM   17  C22 UNL     1     -16.232  -5.722  28.795  1.00  0.00     0.015 C 
HETATM   18  C23 UNL     1     -14.799  -6.286  29.060  1.00  0.00     0.001 C 
HETATM   19  C24 UNL     1     -13.868  -5.702  27.963  1.00  0.00     0.019 C 
HETATM   20  O2  UNL     1     -15.087  -6.604  31.458  1.00  0.00    -0.223 OA
HETATM   21  O3  UNL     1     -14.784  -8.063  31.454  1.00  0.00    -0.224 OA
ENDROOT
BRANCH   1  22
HETATM   22  C4  UNL     1     -13.061 -13.205  28.377  1.00  0.00     0.009 C 
HETATM   23  C5  UNL     1     -13.201 -14.623  28.943  1.00  0.00     0.014 C 
BRANCH  22  24
HETATM   24  C3  UNL     1     -11.610 -13.009  27.951  1.00  0.00    -0.019 C 
HETATM   25  C2  UNL     1     -10.942 -13.364  26.831  1.00  0.00    -0.083 C 
HETATM   26  C1  UNL     1     -11.584 -14.056  25.657  1.00  0.00     0.043 C 
BRANCH  25  27
HETATM   27  C25 UNL     1      -9.440 -13.070  26.656  1.00  0.00     0.013 C 
HETATM   28  C26 UNL     1      -9.118 -12.574  25.230  1.00  0.00     0.015 C 
BRANCH  27  29
HETATM   29  C27 UNL     1      -8.538 -14.279  27.067  1.00  0.00    -0.015 C 
HETATM   30  C28 UNL     1      -9.277 -15.283  27.961  1.00  0.00     0.010 C 
HETATM   31  C29 UNL     1      -7.973 -15.031  25.855  1.00  0.00     0.010 C 
ENDBRANCH  27  29
ENDBRANCH  25  27
ENDBRANCH  22  24
ENDBRANCH   1  22
BRANCH  15  32
HETATM   32  O1  UNL     1     -15.462  -2.854  29.298  1.00  0.00    -0.395 OA
HETATM   33  H28 UNL     1     -16.315  -2.536  28.949  1.00  0.00     0.210 HD
ENDBRANCH  15  32
TORSDOF 5
ENDMDL
MODEL 2
REMARK minimizedAffinity -6.52134323
REMARK CNNscore 0.470317125
REMARK CNNaffinity 6.24210167
REMARK  5 active torsions:
REMARK  status: ('A' for Active; 'I' for Inactive)
REMARK    1  A    between atoms: C2_2  and  C25_28 
REMARK    2  A    between atoms: C3_3  and  C4_4 
REMARK    3  A    between atoms: C4_4  and  C6_6 
REMARK    4  A    between atoms: C20_20  and  O1_21 
REMARK    5  A    between atoms: C25_28  and  C27_30 
ROOT
HETATM    1  C6  UNL     1      -8.791 -11.059   3.554  1.00  0.00     0.001 C 
HETATM    2  C7  UNL     1      -7.453 -11.557   2.931  1.00  0.00     0.006 C 
HETATM    3  C8  UNL     1      -6.388 -11.502   4.040  1.00  0.00     0.009 C 
HETATM    4  C9  UNL     1      -7.177 -11.102   5.283  1.00  0.00     0.036 C 
HETATM    5  C10 UNL     1      -8.302 -10.175   4.754  1.00  0.00    -0.033 C 
HETATM    6  C11 UNL     1      -7.816  -8.794   4.263  1.00  0.00     0.016 C 
HETATM    7  C12 UNL     1      -9.312 -10.003   5.906  1.00  0.00     0.010 C 
HETATM    8  C13 UNL     1      -8.657  -9.441   7.181  1.00  0.00     0.010 C 
HETATM    9  C14 UNL     1      -7.456 -10.281   7.660  1.00  0.00     0.039 C 
HETATM   10  C15 UNL     1      -6.426 -10.624   6.529  1.00  0.00     0.123 C 
HETATM   11  C16 UNL     1      -5.378  -9.559   6.345  1.00  0.00     0.014 C 
HETATM   12  C17 UNL     1      -4.675  -9.308   7.462  1.00  0.00     0.014 C 
HETATM   13  C18 UNL     1      -5.170 -10.061   8.684  1.00  0.00     0.124 C 
HETATM   14  C19 UNL     1      -4.277  -9.823   9.908  1.00  0.00     0.078 C 
HETATM   15  C20 UNL     1      -4.893 -10.303  11.228  1.00  0.00     0.121 C 
HETATM   16  C21 UNL     1      -6.172 -11.118  11.065  1.00  0.00     0.033 C 
HETATM   17  C22 UNL     1      -7.229 -10.392  10.229  1.00  0.00     0.015 C 
HETATM   18  C23 UNL     1      -6.686  -9.718   8.929  1.00  0.00     0.001 C 
HETATM   19  C24 UNL     1      -6.867  -8.185   9.100  1.00  0.00     0.019 C 
HETATM   20  O2  UNL     1      -5.100 -11.480   8.368  1.00  0.00    -0.223 OA
HETATM   21  O3  UNL     1      -5.664 -11.765   7.018  1.00  0.00    -0.224 OA
ENDROOT
BRANCH   1  22
HETATM   22  C4  UNL     1      -9.746 -10.454   2.490  1.00  0.00     0.009 C 
HETATM   23  C5  UNL     1      -9.270 -10.643   1.046  1.00  0.00     0.014 C 
BRANCH  22  24
HETATM   24  C3  UNL     1     -10.136  -8.991   2.671  1.00  0.00    -0.019 C 
HETATM   25  C2  UNL     1     -11.251  -8.409   3.168  1.00  0.00    -0.083 C 
HETATM   26  C1  UNL     1     -12.418  -9.177   3.731  1.00  0.00     0.043 C 
BRANCH  25  27
HETATM   27  C25 UNL     1     -11.414  -6.878   3.212  1.00  0.00     0.013 C 
HETATM   28  C26 UNL     1     -12.242  -6.427   4.435  1.00  0.00     0.015 C 
BRANCH  27  29
HETATM   29  C27 UNL     1     -11.984  -6.294   1.879  1.00  0.00    -0.015 C 
HETATM   30  C28 UNL     1     -11.214  -5.053   1.407  1.00  0.00     0.010 C 
HETATM   31  C29 UNL     1     -11.992  -7.322   0.740  1.00  0.00     0.010 C 
ENDBRANCH  27  29
ENDBRANCH  25  27
ENDBRANCH  22  24
ENDBRANCH   1  22
BRANCH  15  32
HETATM   32  O1  UNL     1      -5.162  -9.148  12.032  1.00  0.00    -0.395 OA
HETATM   33  H28 UNL     1      -5.642  -9.441  12.828  1.00  0.00     0.210 HD
ENDBRANCH  15  32
TORSDOF 5
ENDMDL
MODEL 3
REMARK minimizedAffinity -8.00092888
REMARK CNNscore 0.460113794
REMARK CNNaffinity 6.3778491
REMARK  5 active torsions:
REMARK  status: ('A' for Active; 'I' for Inactive)
REMARK    1  A    between atoms: C2_2  and  C25_28 
REMARK    2  A    between atoms: C3_3  and  C4_4 
REMARK    3  A    between atoms: C4_4  and  C6_6 
REMARK    4  A    between atoms: C20_20  and  O1_21 
REMARK    5  A    between atoms: C25_28  and  C27_30 
ROOT
HETATM    1  C6  UNL     1      13.418  -5.007   5.701  1.00  0.00     0.001 C 
HETATM    2  C7  UNL     1      12.684  -6.176   6.423  1.00  0.00     0.006 C 
HETATM    3  C8  UNL     1      13.554  -6.583   7.625  1.00  0.00     0.009 C 
HETATM    4  C9  UNL     1      14.680  -5.554   7.625  1.00  0.00     0.036 C 
HETATM    5  C10 UNL     1      14.911  -5.224   6.128  1.00  0.00    -0.033 C 
HETATM    6  C11 UNL     1      15.561  -6.364   5.314  1.00  0.00     0.016 C 
HETATM    7  C12 UNL     1      15.804  -3.967   6.084  1.00  0.00     0.010 C 
HETATM    8  C13 UNL     1      17.130  -4.163   6.841  1.00  0.00     0.010 C 
HETATM    9  C14 UNL     1      16.928  -4.610   8.303  1.00  0.00     0.039 C 
HETATM   10  C15 UNL     1      15.931  -5.808   8.471  1.00  0.00     0.123 C 
HETATM   11  C16 UNL     1      16.599  -7.151   8.341  1.00  0.00     0.014 C 
HETATM   12  C17 UNL     1      17.595  -7.335   9.222  1.00  0.00     0.014 C 
HETATM   13  C18 UNL     1      17.906  -6.112  10.066  1.00  0.00     0.124 C 
HETATM   14  C19 UNL     1      18.979  -6.399  11.125  1.00  0.00     0.078 C 
HETATM   15  C20 UNL     1      19.546  -5.139  11.790  1.00  0.00     0.121 C 
HETATM   16  C21 UNL     1      18.800  -3.854  11.444  1.00  0.00     0.033 C 
HETATM   17  C22 UNL     1      18.675  -3.636   9.934  1.00  0.00     0.015 C 
HETATM   18  C23 UNL     1      18.256  -4.902   9.122  1.00  0.00     0.001 C 
HETATM   19  C24 UNL     1      19.451  -5.270   8.200  1.00  0.00     0.019 C 
HETATM   20  O2  UNL     1      16.684  -5.760  10.774  1.00  0.00    -0.223 OA
HETATM   21  O3  UNL     1      15.504  -5.777   9.863  1.00  0.00    -0.224 OA
ENDROOT
BRANCH   1  22
HETATM   22  C4  UNL     1      13.052  -4.924   4.195  1.00  0.00     0.009 C 
HETATM   23  C5  UNL     1      13.142  -6.264   3.456  1.00  0.00     0.014 C 
BRANCH  22  24
HETATM   24  C3  UNL     1      13.789  -3.877   3.365  1.00  0.00    -0.019 C 
HETATM   25  C2  UNL     1      13.540  -2.569   3.135  1.00  0.00    -0.083 C 
HETATM   26  C1  UNL     1      12.391  -1.814   3.750  1.00  0.00     0.043 C 
BRANCH  25  27
HETATM   27  C25 UNL     1      14.439  -1.724   2.213  1.00  0.00     0.013 C 
HETATM   28  C26 UNL     1      14.688  -2.424   0.860  1.00  0.00     0.015 C 
BRANCH  27  29
HETATM   29  C27 UNL     1      15.776  -1.299   2.901  1.00  0.00    -0.015 C 
HETATM   30  C28 UNL     1      16.539  -0.241   2.094  1.00  0.00     0.010 C 
HETATM   31  C29 UNL     1      15.564  -0.765   4.324  1.00  0.00     0.010 C 
ENDBRANCH  27  29
ENDBRANCH  25  27
ENDBRANCH  22  24
ENDBRANCH   1  22
BRANCH  15  32
HETATM   32  O1  UNL     1      20.918  -5.014  11.397  1.00  0.00    -0.395 OA
HETATM   33  H28 UNL     1      21.253  -4.165  11.738  1.00  0.00     0.210 HD
ENDBRANCH  15  32
TORSDOF 5
ENDMDL
MODEL 4
REMARK minimizedAffinity -6.71547127
REMARK CNNscore 0.404095829
REMARK CNNaffinity 6.08286715
REMARK  5 active torsions:
REMARK  status: ('A' for Active; 'I' for Inactive)
REMARK    1  A    between atoms: C2_2  and  C25_28 
REMARK    2  A    between atoms: C3_3  and  C4_4 
REMARK    3  A    between atoms: C4_4  and  C6_6 
REMARK    4  A    between atoms: C20_20  and  O1_21 
REMARK    5  A    between atoms: C25_28  and  C27_30 
ROOT
HETATM    1  C6  UNL     1     -15.355   6.386  24.394  1.00  0.00     0.001 C 
HETATM    2  C7  UNL     1     -14.786   6.230  25.836  1.00  0.00     0.006 C 
HETATM    3  C8  UNL     1     -13.868   7.438  26.094  1.00  0.00     0.009 C 
HETATM    4  C9  UNL     1     -14.046   8.303  24.850  1.00  0.00     0.036 C 
HETATM    5  C10 UNL     1     -14.281   7.292  23.698  1.00  0.00    -0.033 C 
HETATM    6  C11 UNL     1     -13.035   6.470  23.303  1.00  0.00     0.016 C 
HETATM    7  C12 UNL     1     -14.783   8.107  22.489  1.00  0.00     0.010 C 
HETATM    8  C13 UNL     1     -13.801   9.221  22.084  1.00  0.00     0.010 C 
HETATM    9  C14 UNL     1     -13.457  10.171  23.248  1.00  0.00     0.039 C 
HETATM   10  C15 UNL     1     -13.055   9.436  24.574  1.00  0.00     0.123 C 
HETATM   11  C16 UNL     1     -11.587   9.110  24.643  1.00  0.00     0.014 C 
HETATM   12  C17 UNL     1     -10.798  10.191  24.531  1.00  0.00     0.014 C 
HETATM   13  C18 UNL     1     -11.551  11.477  24.240  1.00  0.00     0.124 C 
HETATM   14  C19 UNL     1     -10.622  12.698  24.222  1.00  0.00     0.078 C 
HETATM   15  C20 UNL     1     -11.267  13.960  23.636  1.00  0.00     0.121 C 
HETATM   16  C21 UNL     1     -12.766  13.838  23.379  1.00  0.00     0.033 C 
HETATM   17  C22 UNL     1     -13.118  12.624  22.517  1.00  0.00     0.015 C 
HETATM   18  C23 UNL     1     -12.391  11.301  22.921  1.00  0.00     0.001 C 
HETATM   19  C24 UNL     1     -11.460  10.913  21.740  1.00  0.00     0.019 C 
HETATM   20  O2  UNL     1     -12.499  11.672  25.326  1.00  0.00    -0.223 OA
HETATM   21  O3  UNL     1     -13.234  10.413  25.639  1.00  0.00    -0.224 OA
ENDROOT
BRANCH   1  22
HETATM   22  C4  UNL     1     -15.738   5.020  23.763  1.00  0.00     0.009 C 
HETATM   23  C5  UNL     1     -17.249   4.790  23.645  1.00  0.00     0.014 C 
BRANCH  22  24
HETATM   24  C3  UNL     1     -15.118   3.776  24.390  1.00  0.00    -0.019 C 
HETATM   25  C2  UNL     1     -14.192   2.903  23.936  1.00  0.00    -0.083 C 
HETATM   26  C1  UNL     1     -13.497   3.034  22.606  1.00  0.00     0.043 C 
BRANCH  25  27
HETATM   27  C25 UNL     1     -13.751   1.684  24.768  1.00  0.00     0.013 C 
HETATM   28  C26 UNL     1     -14.798   1.318  25.842  1.00  0.00     0.015 C 
BRANCH  27  29
HETATM   29  C27 UNL     1     -12.325   1.859  25.385  1.00  0.00    -0.015 C 
HETATM   30  C28 UNL     1     -12.318   1.665  26.906  1.00  0.00     0.010 C 
HETATM   31  C29 UNL     1     -11.295   0.904  24.768  1.00  0.00     0.010 C 
ENDBRANCH  27  29
ENDBRANCH  25  27
ENDBRANCH  22  24
ENDBRANCH   1  22
BRANCH  15  32
HETATM   32  O1  UNL     1     -10.596  14.266  22.408  1.00  0.00    -0.395 OA
HETATM   33  H28 UNL     1     -11.066  15.008  21.985  1.00  0.00     0.210 HD
ENDBRANCH  15  32
TORSDOF 5
ENDMDL
MODEL 5
REMARK minimizedAffinity -8.99562836
REMARK CNNscore 0.388796717
REMARK CNNaffinity 6.85748482
REMARK  5 active torsions:
REMARK  status: ('A' for Active; 'I' for Inactive)
REMARK    1  A    between atoms: C2_2  and  C25_28 
REMARK    2  A    between atoms: C3_3  and  C4_4 
REMARK    3  A    between atoms: C4_4  and  C6_6 
REMARK    4  A    between atoms: C20_20  and  O1_21 
REMARK    5  A    between atoms: C25_28  and  C27_30 
ROOT
HETATM    1  C6  UNL     1       0.161   7.411  14.440  1.00  0.00     0.001 C 
HETATM    2  C7  UNL     1       0.071   8.921  14.069  1.00  0.00     0.006 C 
HETATM    3  C8  UNL     1      -1.418   9.309  14.106  1.00  0.00     0.009 C 
HETATM    4  C9  UNL     1      -2.109   8.050  14.621  1.00  0.00     0.036 C 
HETATM    5  C10 UNL     1      -1.263   6.878  14.058  1.00  0.00    -0.033 C 
HETATM    6  C11 UNL     1      -1.388   6.674  12.533  1.00  0.00     0.016 C 
HETATM    7  C12 UNL     1      -1.719   5.606  14.802  1.00  0.00     0.010 C 
HETATM    8  C13 UNL     1      -3.229   5.348  14.653  1.00  0.00     0.010 C 
HETATM    9  C14 UNL     1      -4.090   6.548  15.095  1.00  0.00     0.039 C 
HETATM   10  C15 UNL     1      -3.629   7.920  14.492  1.00  0.00     0.123 C 
HETATM   11  C16 UNL     1      -4.241   8.206  13.146  1.00  0.00     0.014 C 
HETATM   12  C17 UNL     1      -5.584   8.210  13.165  1.00  0.00     0.014 C 
HETATM   13  C18 UNL     1      -6.184   7.807  14.500  1.00  0.00     0.124 C 
HETATM   14  C19 UNL     1      -7.713   7.924  14.504  1.00  0.00     0.078 C 
HETATM   15  C20 UNL     1      -8.384   7.246  15.705  1.00  0.00     0.121 C 
HETATM   16  C21 UNL     1      -7.414   6.772  16.782  1.00  0.00     0.033 C 
HETATM   17  C22 UNL     1      -6.311   5.870  16.223  1.00  0.00     0.015 C 
HETATM   18  C23 UNL     1      -5.657   6.379  14.899  1.00  0.00     0.001 C 
HETATM   19  C24 UNL     1      -6.007   5.350  13.790  1.00  0.00     0.019 C 
HETATM   20  O2  UNL     1      -5.677   8.741  15.494  1.00  0.00    -0.223 OA
HETATM   21  O3  UNL     1      -4.208   8.945  15.350  1.00  0.00    -0.224 OA
ENDROOT
BRANCH   1  22
HETATM   22  C4  UNL     1       1.423   6.733  13.841  1.00  0.00     0.009 C 
HETATM   23  C5  UNL     1       2.738   7.430  14.207  1.00  0.00     0.014 C 
BRANCH  22  24
HETATM   24  C3  UNL     1       1.422   6.487  12.336  1.00  0.00    -0.019 C 
HETATM   25  C2  UNL     1       1.856   7.236  11.299  1.00  0.00    -0.083 C 
HETATM   26  C1  UNL     1       2.529   8.575  11.456  1.00  0.00     0.043 C 
BRANCH  25  27
HETATM   27  C25 UNL     1       1.707   6.765   9.840  1.00  0.00     0.013 C 
HETATM   28  C26 UNL     1       2.871   5.841   9.417  1.00  0.00     0.015 C 
BRANCH  27  29
HETATM   29  C27 UNL     1       1.515   7.950   8.840  1.00  0.00    -0.015 C 
HETATM   30  C28 UNL     1       2.089   7.643   7.451  1.00  0.00     0.010 C 
HETATM   31  C29 UNL     1       0.044   8.353   8.679  1.00  0.00     0.010 C 
ENDBRANCH  27  29
ENDBRANCH  25  27
ENDBRANCH  22  24
ENDBRANCH   1  22
BRANCH  15  32
HETATM   32  O1  UNL     1      -9.136   6.130  15.215  1.00  0.00    -0.395 OA
HETATM   33  H28 UNL     1      -9.484   5.641  15.983  1.00  0.00     0.210 HD
ENDBRANCH  15  32
TORSDOF 5
ENDMDL
MODEL 6
REMARK minimizedAffinity -7.06751251
REMARK CNNscore 0.386882931
REMARK CNNaffinity 6.58555031
REMARK  5 active torsions:
REMARK  status: ('A' for Active; 'I' for Inactive)
REMARK    1  A    between atoms: C2_2  and  C25_28 
REMARK    2  A    between atoms: C3_3  and  C4_4 
REMARK    3  A    between atoms: C4_4  and  C6_6 
REMARK    4  A    between atoms: C20_20  and  O1_21 
REMARK    5  A    between atoms: C25_28  and  C27_30 
ROOT
HETATM    1  C6  UNL     1     -11.155   8.330  13.835  1.00  0.00     0.001 C 
HETATM    2  C7  UNL     1     -11.864   7.016  13.391  1.00  0.00     0.006 C 
HETATM    3  C8  UNL     1     -13.301   7.390  12.989  1.00  0.00     0.009 C 
HETATM    4  C9  UNL     1     -13.323   8.912  13.091  1.00  0.00     0.036 C 
HETATM    5  C10 UNL     1     -12.358   9.242  14.259  1.00  0.00    -0.033 C 
HETATM    6  C11 UNL     1     -12.885   8.850  15.656  1.00  0.00     0.016 C 
HETATM    7  C12 UNL     1     -12.093  10.760  14.199  1.00  0.00     0.010 C 
HETATM    8  C13 UNL     1     -13.391  11.585  14.276  1.00  0.00     0.010 C 
HETATM    9  C14 UNL     1     -14.419  11.191  13.196  1.00  0.00     0.039 C 
HETATM   10  C15 UNL     1     -14.667   9.647  13.086  1.00  0.00     0.123 C 
HETATM   11  C16 UNL     1     -15.734   9.154  14.027  1.00  0.00     0.014 C 
HETATM   12  C17 UNL     1     -16.918   9.762  13.850  1.00  0.00     0.014 C 
HETATM   13  C18 UNL     1     -16.888  10.888  12.832  1.00  0.00     0.124 C 
HETATM   14  C19 UNL     1     -18.281  11.484  12.588  1.00  0.00     0.078 C 
HETATM   15  C20 UNL     1     -18.263  12.808  11.815  1.00  0.00     0.121 C 
HETATM   16  C21 UNL     1     -16.899  13.182  11.241  1.00  0.00     0.033 C 
HETATM   17  C22 UNL     1     -15.796  13.183  12.301  1.00  0.00     0.015 C 
HETATM   18  C23 UNL     1     -15.811  11.951  13.263  1.00  0.00     0.001 C 
HETATM   19  C24 UNL     1     -16.126  12.486  14.686  1.00  0.00     0.019 C 
HETATM   20  O2  UNL     1     -16.439  10.313  11.573  1.00  0.00    -0.223 OA
HETATM   21  O3  UNL     1     -15.253   9.432  11.770  1.00  0.00    -0.224 OA
ENDROOT
BRANCH   1  22
HETATM   22  C4  UNL     1      -9.999   8.064  14.836  1.00  0.00     0.009 C 
HETATM   23  C5  UNL     1      -9.138   9.296  15.136  1.00  0.00     0.014 C 
BRANCH  22  24
HETATM   24  C3  UNL     1      -9.064   6.903  14.514  1.00  0.00    -0.019 C 
HETATM   25  C2  UNL     1      -8.014   6.377  15.183  1.00  0.00    -0.083 C 
HETATM   26  C1  UNL     1      -7.548   6.866  16.530  1.00  0.00     0.043 C 
BRANCH  25  27
HETATM   27  C25 UNL     1      -7.198   5.201  14.614  1.00  0.00     0.013 C 
HETATM   28  C26 UNL     1      -5.808   5.656  14.120  1.00  0.00     0.015 C 
BRANCH  27  29
HETATM   29  C27 UNL     1      -7.973   4.406  13.514  1.00  0.00    -0.015 C 
HETATM   30  C28 UNL     1      -7.902   5.088  12.141  1.00  0.00     0.010 C 
HETATM   31  C29 UNL     1      -7.474   2.963  13.366  1.00  0.00     0.010 C 
ENDBRANCH  27  29
ENDBRANCH  25  27
ENDBRANCH  22  24
ENDBRANCH   1  22
BRANCH  15  32
HETATM   32  O1  UNL     1     -18.707  13.841  12.702  1.00  0.00    -0.395 OA
HETATM   33  H28 UNL     1     -18.604  14.695  12.244  1.00  0.00     0.210 HD
ENDBRANCH  15  32
TORSDOF 5
ENDMDL
MODEL 7
REMARK minimizedAffinity -9.42482567
REMARK CNNscore 0.377266318
REMARK CNNaffinity 6.8120923
REMARK  5 active torsions:
REMARK  status: ('A' for Active; 'I' for Inactive)
REMARK    1  A    between atoms: C2_2  and  C25_28 
REMARK    2  A    between atoms: C3_3  and  C4_4 
REMARK    3  A    between atoms: C4_4  and  C6_6 
REMARK    4  A    between atoms: C20_20  and  O1_21 
REMARK    5  A    between atoms: C25_28  and  C27_30 
ROOT
HETATM    1  C6  UNL     1      -5.651   6.317  13.511  1.00  0.00     0.001 C 
HETATM    2  C7  UNL     1      -5.876   7.817  13.866  1.00  0.00     0.006 C 
HETATM    3  C8  UNL     1      -4.547   8.548  13.605  1.00  0.00     0.009 C 
HETATM    4  C9  UNL     1      -3.655   7.474  12.991  1.00  0.00     0.036 C 
HETATM    5  C10 UNL     1      -4.100   6.155  13.674  1.00  0.00    -0.033 C 
HETATM    6  C11 UNL     1      -3.708   6.040  15.163  1.00  0.00     0.016 C 
HETATM    7  C12 UNL     1      -3.464   5.003  12.869  1.00  0.00     0.010 C 
HETATM    8  C13 UNL     1      -1.931   5.120  12.789  1.00  0.00     0.010 C 
HETATM    9  C14 UNL     1      -1.460   6.475  12.224  1.00  0.00     0.039 C 
HETATM   10  C15 UNL     1      -2.146   7.717  12.890  1.00  0.00     0.123 C 
HETATM   11  C16 UNL     1      -1.432   8.189  14.129  1.00  0.00     0.014 C 
HETATM   12  C17 UNL     1      -0.148   8.513  13.909  1.00  0.00     0.014 C 
HETATM   13  C18 UNL     1       0.330   8.219  12.498  1.00  0.00     0.124 C 
HETATM   14  C19 UNL     1       1.768   8.698  12.264  1.00  0.00     0.078 C 
HETATM   15  C20 UNL     1       2.401   8.158  10.976  1.00  0.00     0.121 C 
HETATM   16  C21 UNL     1       1.427   7.427  10.056  1.00  0.00     0.033 C 
HETATM   17  C22 UNL     1       0.669   6.308  10.774  1.00  0.00     0.015 C 
HETATM   18  C23 UNL     1       0.112   6.693  12.182  1.00  0.00     0.001 C 
HETATM   19  C24 UNL     1       0.859   5.817  13.224  1.00  0.00     0.019 C 
HETATM   20  O2  UNL     1      -0.527   8.968  11.592  1.00  0.00    -0.223 OA
HETATM   21  O3  UNL     1      -1.965   8.820  11.956  1.00  0.00    -0.224 OA
ENDROOT
BRANCH   1  22
HETATM   22  C4  UNL     1      -6.610   5.378  14.292  1.00  0.00     0.009 C 
HETATM   23  C5  UNL     1      -6.808   4.005  13.639  1.00  0.00     0.014 C 
BRANCH  22  24
HETATM   24  C3  UNL     1      -7.986   5.937  14.641  1.00  0.00    -0.019 C 
HETATM   25  C2  UNL     1      -9.031   6.310  13.869  1.00  0.00    -0.083 C 
HETATM   26  C1  UNL     1      -9.047   6.191  12.367  1.00  0.00     0.043 C 
BRANCH  25  27
HETATM   27  C25 UNL     1     -10.323   6.886  14.478  1.00  0.00     0.013 C 
HETATM   28  C26 UNL     1     -11.372   7.206  13.391  1.00  0.00     0.015 C 
BRANCH  27  29
HETATM   29  C27 UNL     1     -10.056   8.114  15.406  1.00  0.00    -0.015 C 
HETATM   30  C28 UNL     1      -8.701   8.024  16.120  1.00  0.00     0.010 C 
HETATM   31  C29 UNL     1     -10.121   9.448  14.652  1.00  0.00     0.010 C 
ENDBRANCH  27  29
ENDBRANCH  25  27
ENDBRANCH  22  24
ENDBRANCH   1  22
BRANCH  15  32
HETATM   32  O1  UNL     1       3.464   7.273  11.346  1.00  0.00    -0.395 OA
HETATM   33  H28 UNL     1       3.803   6.854  10.534  1.00  0.00     0.210 HD
ENDBRANCH  15  32
TORSDOF 5
ENDMDL
MODEL 8
REMARK minimizedAffinity -7.23392916
REMARK CNNscore 0.354497492
REMARK CNNaffinity 6.24546957
REMARK  5 active torsions:
REMARK  status: ('A' for Active; 'I' for Inactive)
REMARK    1  A    between atoms: C2_2  and  C25_28 
REMARK    2  A    between atoms: C3_3  and  C4_4 
REMARK    3  A    between atoms: C4_4  and  C6_6 
REMARK    4  A    between atoms: C20_20  and  O1_21 
REMARK    5  A    between atoms: C25_28  and  C27_30 
ROOT
HETATM    1  C6  UNL     1     -13.089 -10.926  25.806  1.00  0.00     0.001 C 
HETATM    2  C7  UNL     1     -14.090 -10.202  24.857  1.00  0.00     0.006 C 
HETATM    3  C8  UNL     1     -14.532  -8.909  25.563  1.00  0.00     0.009 C 
HETATM    4  C9  UNL     1     -13.674  -8.872  26.824  1.00  0.00     0.036 C 
HETATM    5  C10 UNL     1     -13.484 -10.361  27.215  1.00  0.00    -0.033 C 
HETATM    6  C11 UNL     1     -14.757 -11.050  27.751  1.00  0.00     0.016 C 
HETATM    7  C12 UNL     1     -12.371 -10.400  28.282  1.00  0.00     0.010 C 
HETATM    8  C13 UNL     1     -12.699  -9.523  29.504  1.00  0.00     0.010 C 
HETATM    9  C14 UNL     1     -13.011  -8.061  29.128  1.00  0.00     0.039 C 
HETATM   10  C15 UNL     1     -14.042  -7.910  27.957  1.00  0.00     0.123 C 
HETATM   11  C16 UNL     1     -15.472  -7.905  28.429  1.00  0.00     0.014 C 
HETATM   12  C17 UNL     1     -15.733  -6.933  29.318  1.00  0.00     0.014 C 
HETATM   13  C18 UNL     1     -14.511  -6.137  29.739  1.00  0.00     0.124 C 
HETATM   14  C19 UNL     1     -14.872  -4.976  30.674  1.00  0.00     0.078 C 
HETATM   15  C20 UNL     1     -13.662  -4.338  31.368  1.00  0.00     0.121 C 
HETATM   16  C21 UNL     1     -12.312  -4.820  30.845  1.00  0.00     0.033 C 
HETATM   17  C22 UNL     1     -12.183  -6.345  30.869  1.00  0.00     0.015 C 
HETATM   18  C23 UNL     1     -13.431  -7.116  30.333  1.00  0.00     0.001 C 
HETATM   19  C24 UNL     1     -14.026  -7.910  31.528  1.00  0.00     0.019 C 
HETATM   20  O2  UNL     1     -13.942  -5.558  28.532  1.00  0.00    -0.223 OA
HETATM   21  O3  UNL     1     -13.856  -6.563  27.434  1.00  0.00    -0.224 OA
ENDROOT
BRANCH   1  22
HETATM   22  C4  UNL     1     -13.059 -12.460  25.571  1.00  0.00     0.009 C 
HETATM   23  C5  UNL     1     -13.336 -13.288  26.831  1.00  0.00     0.014 C 
BRANCH  22  24
HETATM   24  C3  UNL     1     -11.814 -13.027  24.897  1.00  0.00    -0.019 C 
HETATM   25  C2  UNL     1     -10.528 -13.113  25.302  1.00  0.00    -0.083 C 
HETATM   26  C1  UNL     1     -10.042 -12.652  26.651  1.00  0.00     0.043 C 
BRANCH  25  27
HETATM   27  C25 UNL     1      -9.433 -13.714  24.401  1.00  0.00     0.013 C 
HETATM   28  C26 UNL     1      -8.386 -14.499  25.221  1.00  0.00     0.015 C 
BRANCH  27  29
HETATM   29  C27 UNL     1      -8.763 -12.650  23.473  1.00  0.00    -0.015 C 
HETATM   30  C28 UNL     1      -9.790 -11.865  22.647  1.00  0.00     0.010 C 
HETATM   31  C29 UNL     1      -7.899 -11.649  24.252  1.00  0.00     0.010 C 
ENDBRANCH  27  29
ENDBRANCH  25  27
ENDBRANCH  22  24
ENDBRANCH   1  22
BRANCH  15  32
HETATM   32  O1  UNL     1     -13.759  -4.620  32.769  1.00  0.00    -0.395 OA
HETATM   33  H28 UNL     1     -12.944  -4.301  33.197  1.00  0.00     0.210 HD
ENDBRANCH  15  32
TORSDOF 5
ENDMDL
MODEL 9
REMARK minimizedAffinity -7.04209328
REMARK CNNscore 0.353731304
REMARK CNNaffinity 6.16108322
REMARK  5 active torsions:
REMARK  status: ('A' for Active; 'I' for Inactive)
REMARK    1  A    between atoms: C2_2  and  C25_28 
REMARK    2  A    between atoms: C3_3  and  C4_4 
REMARK    3  A    between atoms: C4_4  and  C6_6 
REMARK    4  A    between atoms: C20_20  and  O1_21 
REMARK    5  A    between atoms: C25_28  and  C27_30 
ROOT
HETATM    1  C6  UNL     1     -13.199   6.669  23.429  1.00  0.00     0.001 C 
HETATM    2  C7  UNL     1     -13.704   6.580  21.958  1.00  0.00     0.006 C 
HETATM    3  C8  UNL     1     -13.225   7.852  21.236  1.00  0.00     0.009 C 
HETATM    4  C9  UNL     1     -12.358   8.556  22.275  1.00  0.00     0.036 C 
HETATM    5  C10 UNL     1     -13.018   8.213  23.636  1.00  0.00    -0.033 C 
HETATM    6  C11 UNL     1     -14.378   8.903  23.879  1.00  0.00     0.016 C 
HETATM    7  C12 UNL     1     -12.013   8.624  24.731  1.00  0.00     0.010 C 
HETATM    8  C13 UNL     1     -11.621  10.109  24.641  1.00  0.00     0.010 C 
HETATM    9  C14 UNL     1     -11.072  10.503  23.255  1.00  0.00     0.039 C 
HETATM   10  C15 UNL     1     -11.960  10.018  22.057  1.00  0.00     0.123 C 
HETATM   11  C16 UNL     1     -13.052  10.992  21.702  1.00  0.00     0.014 C 
HETATM   12  C17 UNL     1     -12.591  12.214  21.388  1.00  0.00     0.014 C 
HETATM   13  C18 UNL     1     -11.094  12.375  21.577  1.00  0.00     0.124 C 
HETATM   14  C19 UNL     1     -10.599  13.751  21.110  1.00  0.00     0.078 C 
HETATM   15  C20 UNL     1      -9.169  14.080  21.557  1.00  0.00     0.121 C 
HETATM   16  C21 UNL     1      -8.423  12.909  22.190  1.00  0.00     0.033 C 
HETATM   17  C22 UNL     1      -9.198  12.276  23.348  1.00  0.00     0.015 C 
HETATM   18  C23 UNL     1     -10.717  12.039  23.067  1.00  0.00     0.001 C 
HETATM   19  C24 UNL     1     -11.510  12.953  24.040  1.00  0.00     0.019 C 
HETATM   20  O2  UNL     1     -10.448  11.377  20.738  1.00  0.00    -0.223 OA
HETATM   21  O3  UNL     1     -11.094  10.042  20.886  1.00  0.00    -0.224 OA
ENDROOT
BRANCH   1  22
HETATM   22  C4  UNL     1     -14.091   5.860  24.407  1.00  0.00     0.009 C 
HETATM   23  C5  UNL     1     -14.287   6.529  25.772  1.00  0.00     0.014 C 
BRANCH  22  24
HETATM   24  C3  UNL     1     -13.702   4.404  24.647  1.00  0.00    -0.019 C 
HETATM   25  C2  UNL     1     -14.426   3.263  24.638  1.00  0.00    -0.083 C 
HETATM   26  C1  UNL     1     -15.897   3.207  24.315  1.00  0.00     0.043 C 
BRANCH  25  27
HETATM   27  C25 UNL     1     -13.788   1.897  24.950  1.00  0.00     0.013 C 
HETATM   28  C26 UNL     1     -14.680   1.051  25.886  1.00  0.00     0.015 C 
BRANCH  27  29
HETATM   29  C27 UNL     1     -12.329   2.023  25.496  1.00  0.00    -0.015 C 
HETATM   30  C28 UNL     1     -12.236   1.701  26.993  1.00  0.00     0.010 C 
HETATM   31  C29 UNL     1     -11.338   1.126  24.744  1.00  0.00     0.010 C 
ENDBRANCH  27  29
ENDBRANCH  25  27
ENDBRANCH  22  24
ENDBRANCH   1  22
BRANCH  15  32
HETATM   32  O1  UNL     1      -9.239  15.162  22.492  1.00  0.00    -0.395 OA
HETATM   33  H28 UNL     1      -8.344  15.309  22.850  1.00  0.00     0.210 HD
ENDBRANCH  15  32
TORSDOF 5
ENDMDL
