MODEL 1
REMARK minimizedAffinity -8.66542912
REMARK CNNscore 0.587405801
REMARK CNNaffinity 7.3609395
REMARK  12 active torsions:
REMARK  status: ('A' for Active; 'I' for Inactive)
REMARK    1  A    between atoms: C3_3  and  O1_4 
REMARK    2  A    between atoms: N1_14  and  O2_16 
REMARK    3  A    between atoms: O2_16  and  C13_17 
REMARK    4  A    between atoms: C13_17  and  C14_18 
REMARK       I    between atoms: C14_18  and  N2_20 
REMARK    5  A    between atoms: N2_20  and  C15_21 
REMARK    6  A    between atoms: C15_21  and  C16_22 
REMARK    7  A    between atoms: C15_21  and  C26_36 
REMARK       I    between atoms: C16_22  and  N3_24 
REMARK    8  A    between atoms: N3_24  and  C17_25 
REMARK    9  A    between atoms: C17_25  and  C18_26 
REMARK   10  A    between atoms: C17_25  and  C25_33 
REMARK   11  A    between atoms: C18_26  and  C19_27 
REMARK   12  A    between atoms: C25_33  and  O6_35 
ROOT
HETATM    1  C1  UNL     1      -2.755  51.685 -26.977  1.00  0.00     0.015 C 
HETATM    2  C2  UNL     1      -3.381  51.397 -25.992  1.00  0.00    -0.078 C 
HETATM    3  C3  UNL     1      -4.146  51.023 -24.778  1.00  0.00     0.128 C 
HETATM    4  C4  UNL     1      -4.514  49.541 -24.860  1.00  0.00     0.052 C 
HETATM    5  C5  UNL     1      -3.254  48.809 -24.416  1.00  0.00     0.010 C 
HETATM    6  C6  UNL     1      -2.524  49.764 -23.444  1.00  0.00     0.002 C 
HETATM    7  C7  UNL     1      -2.192  49.172 -22.038  1.00  0.00    -0.004 C 
HETATM    8  C8  UNL     1      -3.086  48.020 -21.526  1.00  0.00     0.010 C 
HETATM    9  C9  UNL     1      -2.663  47.511 -20.143  1.00  0.00     0.035 C 
HETATM   10  C10 UNL     1      -2.479  48.621 -19.136  1.00  0.00    -0.069 C 
HETATM   11  C11 UNL     1      -3.100  48.559 -17.947  1.00  0.00     0.030 C 
HETATM   12  C12 UNL     1      -3.015  49.701 -16.993  1.00  0.00     0.032 C 
HETATM   13  N1  UNL     1      -3.231  49.465 -15.730  1.00  0.00    -0.271 N 
ATOM     14  H1  UNL     1      -3.462  48.544 -15.358  1.00  0.00     0.194 HD
HETATM   15  C29 UNL     1      -2.684  51.044 -17.597  1.00  0.00     0.060 C 
HETATM   16  C30 UNL     1      -1.487  50.915 -18.526  1.00  0.00     0.020 C 
HETATM   17  C31 UNL     1      -1.584  49.769 -19.585  1.00  0.00    -0.016 C 
HETATM   18  C32 UNL     1      -0.117  49.253 -19.737  1.00  0.00     0.020 C 
HETATM   19  C33 UNL     1      -2.098  50.298 -20.970  1.00  0.00     0.002 C 
HETATM   20  C34 UNL     1      -3.443  51.059 -20.876  1.00  0.00     0.007 C 
HETATM   21  C35 UNL     1      -4.206  51.193 -22.202  1.00  0.00     0.014 C 
HETATM   22  C36 UNL     1      -3.312  51.116 -23.458  1.00  0.00     0.003 C 
HETATM   23  C37 UNL     1      -2.390  52.358 -23.485  1.00  0.00     0.020 C 
ENDROOT
BRANCH   3  24
HETATM   24  O1  UNL     1      -5.298  51.851 -24.729  1.00  0.00    -0.377 OA
HETATM   25  H2  UNL     1      -6.026  51.347 -24.329  1.00  0.00     0.211 HD
ENDBRANCH   3  24
BRANCH  13  26
HETATM   26  O2  UNL     1      -3.113  50.616 -14.940  1.00  0.00    -0.271 OA
BRANCH  26  27
HETATM   27  C13 UNL     1      -1.982  50.496 -14.084  1.00  0.00     0.303 C 
BRANCH  27  28
HETATM   28  C14 UNL     1      -2.280  51.030 -12.695  1.00  0.00     0.244 C 
HETATM   29  O3  UNL     1      -3.122  50.502 -11.962  1.00  0.00    -0.271 OA
HETATM   30  N2  UNL     1      -1.598  52.188 -12.357  1.00  0.00    -0.346 N 
HETATM   31  H16 UNL     1      -0.723  52.326 -12.862  1.00  0.00     0.163 HD
BRANCH  30  32
HETATM   32  C15 UNL     1      -1.675  52.708 -10.999  1.00  0.00     0.180 C 
BRANCH  32  33
HETATM   33  C16 UNL     1      -0.243  52.741 -10.429  1.00  0.00     0.241 C 
HETATM   34  O4  UNL     1      -0.008  52.891  -9.232  1.00  0.00    -0.271 OA
HETATM   35  N3  UNL     1       0.749  52.517 -11.361  1.00  0.00    -0.345 N 
HETATM   36  H18 UNL     1       0.485  52.662 -12.331  1.00  0.00     0.163 HD
BRANCH  35  37
HETATM   37  C17 UNL     1       2.114  52.992 -11.089  1.00  0.00     0.186 C 
BRANCH  37  38
HETATM   38  C18 UNL     1       2.150  54.268 -10.227  1.00  0.00     0.074 C 
BRANCH  38  39
HETATM   39  C19 UNL     1       3.501  54.598  -9.637  1.00  0.00    -0.056 A 
HETATM   40  C20 UNL     1       3.715  54.406  -8.264  1.00  0.00     0.007 A 
HETATM   41  C21 UNL     1       4.967  54.646  -7.696  1.00  0.00     0.001 A 
HETATM   42  C22 UNL     1       6.015  55.076  -8.501  1.00  0.00     0.000 A 
HETATM   43  C23 UNL     1       5.811  55.277  -9.865  1.00  0.00     0.001 A 
HETATM   44  C24 UNL     1       4.554  55.045 -10.432  1.00  0.00     0.007 A 
ENDBRANCH  38  39
ENDBRANCH  37  38
BRANCH  37  45
HETATM   45  C25 UNL     1       2.912  51.867 -10.434  1.00  0.00     0.163 C 
HETATM   46  O5  UNL     1       4.025  51.490 -10.765  1.00  0.00    -0.648 OA
BRANCH  45  47
HETATM   47  O6  UNL     1       2.273  51.296  -9.371  1.00  0.00    -0.775 OA
HETATM   48  H27 UNL     1       2.840  50.537  -9.132  1.00  0.00     0.167 HD
ENDBRANCH  45  47
ENDBRANCH  37  45
ENDBRANCH  35  37
ENDBRANCH  32  33
BRANCH  32  49
HETATM   49  C26 UNL     1      -2.404  54.065 -10.945  1.00  0.00     0.009 C 
HETATM   50  C27 UNL     1      -1.640  55.149 -10.181  1.00  0.00     0.012 C 
HETATM   51  C28 UNL     1      -3.817  53.923 -10.355  1.00  0.00     0.012 C 
ENDBRANCH  32  49
ENDBRANCH  30  32
ENDBRANCH  27  28
ENDBRANCH  26  27
ENDBRANCH  13  26
TORSDOF 12
ENDMDL
MODEL 2
REMARK minimizedAffinity -10.0918922
REMARK CNNscore 0.390848577
REMARK CNNaffinity 7.03727198
REMARK  12 active torsions:
REMARK  status: ('A' for Active; 'I' for Inactive)
REMARK    1  A    between atoms: C3_3  and  O1_4 
REMARK    2  A    between atoms: N1_14  and  O2_16 
REMARK    3  A    between atoms: O2_16  and  C13_17 
REMARK    4  A    between atoms: C13_17  and  C14_18 
REMARK       I    between atoms: C14_18  and  N2_20 
REMARK    5  A    between atoms: N2_20  and  C15_21 
REMARK    6  A    between atoms: C15_21  and  C16_22 
REMARK    7  A    between atoms: C15_21  and  C26_36 
REMARK       I    between atoms: C16_22  and  N3_24 
REMARK    8  A    between atoms: N3_24  and  C17_25 
REMARK    9  A    between atoms: C17_25  and  C18_26 
REMARK   10  A    between atoms: C17_25  and  C25_33 
REMARK   11  A    between atoms: C18_26  and  C19_27 
REMARK   12  A    between atoms: C25_33  and  O6_35 
ROOT
HETATM    1  C1  UNL     1       0.908  51.833 -28.453  1.00  0.00     0.015 C 
HETATM    2  C2  UNL     1       0.187  52.236 -27.580  1.00  0.00    -0.078 C 
HETATM    3  C3  UNL     1      -0.715  52.718 -26.507  1.00  0.00     0.128 C 
HETATM    4  C4  UNL     1      -2.161  52.408 -26.897  1.00  0.00     0.052 C 
HETATM    5  C5  UNL     1      -2.348  50.940 -26.535  1.00  0.00     0.010 C 
HETATM    6  C6  UNL     1      -1.387  50.664 -25.356  1.00  0.00     0.002 C 
HETATM    7  C7  UNL     1      -2.044  50.058 -24.076  1.00  0.00    -0.004 C 
HETATM    8  C8  UNL     1      -3.547  50.343 -23.850  1.00  0.00     0.010 C 
HETATM    9  C9  UNL     1      -4.087  49.691 -22.571  1.00  0.00     0.035 C 
HETATM   10  C10 UNL     1      -3.233  49.974 -21.358  1.00  0.00    -0.069 C 
HETATM   11  C11 UNL     1      -3.794  50.463 -20.240  1.00  0.00     0.030 C 
HETATM   12  C12 UNL     1      -2.944  50.850 -19.079  1.00  0.00     0.032 C 
HETATM   13  N1  UNL     1      -3.498  50.898 -17.901  1.00  0.00    -0.271 N 
ATOM     14  H1  UNL     1      -4.482  50.691 -17.729  1.00  0.00     0.194 HD
HETATM   15  C29 UNL     1      -1.500  51.159 -19.389  1.00  0.00     0.060 C 
HETATM   16  C30 UNL     1      -0.909  50.058 -20.258  1.00  0.00     0.020 C 
HETATM   17  C31 UNL     1      -1.747  49.684 -21.523  1.00  0.00    -0.016 C 
HETATM   18  C32 UNL     1      -1.534  48.145 -21.691  1.00  0.00     0.020 C 
HETATM   19  C33 UNL     1      -1.227  50.426 -22.805  1.00  0.00     0.002 C 
HETATM   20  C34 UNL     1      -1.159  51.964 -22.640  1.00  0.00     0.007 C 
HETATM   21  C35 UNL     1      -1.107  52.756 -23.955  1.00  0.00     0.014 C 
HETATM   22  C36 UNL     1      -0.537  51.962 -25.150  1.00  0.00     0.003 C 
HETATM   23  C37 UNL     1       0.960  51.674 -24.882  1.00  0.00     0.020 C 
ENDROOT
BRANCH   3  24
HETATM   24  O1  UNL     1      -0.497  54.113 -26.362  1.00  0.00    -0.377 OA
HETATM   25  H2  UNL     1      -1.335  54.535 -26.109  1.00  0.00     0.211 HD
ENDBRANCH   3  24
BRANCH  13  26
HETATM   26  O2  UNL     1      -2.593  51.264 -16.896  1.00  0.00    -0.271 OA
BRANCH  26  27
HETATM   27  C13 UNL     1      -2.725  50.381 -15.787  1.00  0.00     0.303 C 
BRANCH  27  28
HETATM   28  C14 UNL     1      -2.866  51.147 -14.484  1.00  0.00     0.244 C 
HETATM   29  O3  UNL     1      -3.447  52.235 -14.428  1.00  0.00    -0.271 OA
HETATM   30  N2  UNL     1      -2.229  50.570 -13.397  1.00  0.00    -0.346 N 
HETATM   31  H16 UNL     1      -2.094  49.563 -13.471  1.00  0.00     0.163 HD
BRANCH  30  32
HETATM   32  C15 UNL     1      -2.425  51.120 -12.062  1.00  0.00     0.180 C 
BRANCH  32  33
HETATM   33  C16 UNL     1      -1.292  52.133 -11.803  1.00  0.00     0.241 C 
HETATM   34  O4  UNL     1      -0.537  52.524 -12.690  1.00  0.00    -0.271 OA
HETATM   35  N3  UNL     1      -1.242  52.617 -10.513  1.00  0.00    -0.345 N 
HETATM   36  H18 UNL     1      -1.721  52.059  -9.812  1.00  0.00     0.163 HD
BRANCH  35  37
HETATM   37  C17 UNL     1       0.019  53.175 -10.001  1.00  0.00     0.186 C 
BRANCH  37  38
HETATM   38  C18 UNL     1      -0.030  54.702  -9.808  1.00  0.00     0.074 C 
BRANCH  38  39
HETATM   39  C19 UNL     1       1.317  55.365  -9.646  1.00  0.00    -0.056 A 
HETATM   40  C20 UNL     1       2.149  55.511 -10.767  1.00  0.00     0.007 A 
HETATM   41  C21 UNL     1       3.376  56.169 -10.666  1.00  0.00     0.001 A 
HETATM   42  C22 UNL     1       3.776  56.690  -9.440  1.00  0.00     0.000 A 
HETATM   43  C23 UNL     1       2.961  56.544  -8.320  1.00  0.00     0.001 A 
HETATM   44  C24 UNL     1       1.736  55.877  -8.420  1.00  0.00     0.007 A 
ENDBRANCH  38  39
ENDBRANCH  37  38
BRANCH  37  45
HETATM   45  C25 UNL     1       0.382  52.471  -8.696  1.00  0.00     0.163 C 
HETATM   46  O5  UNL     1       1.511  52.318  -8.253  1.00  0.00    -0.648 OA
BRANCH  45  47
HETATM   47  O6  UNL     1      -0.703  52.022  -8.000  1.00  0.00    -0.775 OA
HETATM   48  H27 UNL     1      -0.318  51.507  -7.264  1.00  0.00     0.167 HD
ENDBRANCH  45  47
ENDBRANCH  37  45
ENDBRANCH  35  37
ENDBRANCH  32  33
BRANCH  32  49
HETATM   49  C26 UNL     1      -3.842  51.703 -11.886  1.00  0.00     0.009 C 
HETATM   50  C27 UNL     1      -3.862  53.207 -11.602  1.00  0.00     0.012 C 
HETATM   51  C28 UNL     1      -4.623  50.965 -10.787  1.00  0.00     0.012 C 
ENDBRANCH  32  49
ENDBRANCH  30  32
ENDBRANCH  27  28
ENDBRANCH  26  27
ENDBRANCH  13  26
TORSDOF 12
ENDMDL
MODEL 3
REMARK minimizedAffinity -9.27940559
REMARK CNNscore 0.372014284
REMARK CNNaffinity 7.35215521
REMARK  12 active torsions:
REMARK  status: ('A' for Active; 'I' for Inactive)
REMARK    1  A    between atoms: C3_3  and  O1_4 
REMARK    2  A    between atoms: N1_14  and  O2_16 
REMARK    3  A    between atoms: O2_16  and  C13_17 
REMARK    4  A    between atoms: C13_17  and  C14_18 
REMARK       I    between atoms: C14_18  and  N2_20 
REMARK    5  A    between atoms: N2_20  and  C15_21 
REMARK    6  A    between atoms: C15_21  and  C16_22 
REMARK    7  A    between atoms: C15_21  and  C26_36 
REMARK       I    between atoms: C16_22  and  N3_24 
REMARK    8  A    between atoms: N3_24  and  C17_25 
REMARK    9  A    between atoms: C17_25  and  C18_26 
REMARK   10  A    between atoms: C17_25  and  C25_33 
REMARK   11  A    between atoms: C18_26  and  C19_27 
REMARK   12  A    between atoms: C25_33  and  O6_35 
ROOT
HETATM    1  C1  UNL     1       0.979  51.875 -28.776  1.00  0.00     0.015 C 
HETATM    2  C2  UNL     1       0.319  52.316 -27.873  1.00  0.00    -0.078 C 
HETATM    3  C3  UNL     1      -0.511  52.846 -26.765  1.00  0.00     0.128 C 
HETATM    4  C4  UNL     1      -1.986  52.741 -27.153  1.00  0.00     0.052 C 
HETATM    5  C5  UNL     1      -2.354  51.290 -26.869  1.00  0.00     0.010 C 
HETATM    6  C6  UNL     1      -1.428  50.831 -25.719  1.00  0.00     0.002 C 
HETATM    7  C7  UNL     1      -2.150  50.241 -24.467  1.00  0.00    -0.004 C 
HETATM    8  C8  UNL     1      -3.603  50.699 -24.207  1.00  0.00     0.010 C 
HETATM    9  C9  UNL     1      -4.214  50.049 -22.960  1.00  0.00     0.035 C 
HETATM   10  C10 UNL     1      -3.326  50.155 -21.743  1.00  0.00    -0.069 C 
HETATM   11  C11 UNL     1      -3.815  50.647 -20.594  1.00  0.00     0.030 C 
HETATM   12  C12 UNL     1      -2.917  50.860 -19.423  1.00  0.00     0.032 C 
HETATM   13  N1  UNL     1      -3.455  50.910 -18.237  1.00  0.00    -0.271 N 
ATOM     14  H1  UNL     1      -4.455  50.819 -18.065  1.00  0.00     0.194 HD
HETATM   15  C29 UNL     1      -1.447  51.003 -19.734  1.00  0.00     0.060 C 
HETATM   16  C30 UNL     1      -1.004  49.887 -20.668  1.00  0.00     0.020 C 
HETATM   17  C31 UNL     1      -1.888  49.692 -21.942  1.00  0.00    -0.016 C 
HETATM   18  C32 UNL     1      -1.871  48.150 -22.196  1.00  0.00     0.020 C 
HETATM   19  C33 UNL     1      -1.287  50.433 -23.188  1.00  0.00     0.002 C 
HETATM   20  C34 UNL     1      -1.026  51.939 -22.939  1.00  0.00     0.007 C 
HETATM   21  C35 UNL     1      -0.882  52.790 -24.210  1.00  0.00     0.014 C 
HETATM   22  C36 UNL     1      -0.421  51.999 -25.453  1.00  0.00     0.003 C 
HETATM   23  C37 UNL     1       1.029  51.512 -25.219  1.00  0.00     0.020 C 
ENDROOT
BRANCH   3  24
HETATM   24  O1  UNL     1      -0.118  54.193 -26.546  1.00  0.00    -0.377 OA
HETATM   25  H2  UNL     1      -0.896  54.701 -26.261  1.00  0.00     0.211 HD
ENDBRANCH   3  24
BRANCH  13  26
HETATM   26  O2  UNL     1      -2.506  51.105 -17.225  1.00  0.00    -0.271 OA
BRANCH  26  27
HETATM   27  C13 UNL     1      -2.534  50.003 -16.324  1.00  0.00     0.303 C 
BRANCH  27  28
HETATM   28  C14 UNL     1      -1.904  50.363 -14.990  1.00  0.00     0.244 C 
HETATM   29  O3  UNL     1      -1.060  51.259 -14.890  1.00  0.00    -0.271 OA
HETATM   30  N2  UNL     1      -2.289  49.560 -13.928  1.00  0.00    -0.346 N 
HETATM   31  H16 UNL     1      -3.197  49.112 -14.044  1.00  0.00     0.163 HD
BRANCH  30  32
HETATM   32  C15 UNL     1      -1.881  49.902 -12.573  1.00  0.00     0.180 C 
BRANCH  32  33
HETATM   33  C16 UNL     1      -0.343  49.814 -12.511  1.00  0.00     0.241 C 
HETATM   34  O4  UNL     1       0.316  50.345 -11.620  1.00  0.00    -0.271 OA
HETATM   35  N3  UNL     1       0.225  49.032 -13.494  1.00  0.00    -0.345 N 
HETATM   36  H18 UNL     1      -0.354  48.857 -14.310  1.00  0.00     0.163 HD
BRANCH  35  37
HETATM   37  C17 UNL     1       1.634  49.242 -13.858  1.00  0.00     0.186 C 
BRANCH  37  38
HETATM   38  C18 UNL     1       2.137  50.661 -13.533  1.00  0.00     0.074 C 
BRANCH  38  39
HETATM   39  C19 UNL     1       2.571  51.471 -14.732  1.00  0.00    -0.056 A 
HETATM   40  C20 UNL     1       3.942  51.655 -14.975  1.00  0.00     0.007 A 
HETATM   41  C21 UNL     1       4.379  52.349 -16.104  1.00  0.00     0.001 A 
HETATM   42  C22 UNL     1       3.447  52.860 -17.000  1.00  0.00     0.000 A 
HETATM   43  C23 UNL     1       2.085  52.689 -16.764  1.00  0.00     0.001 A 
HETATM   44  C24 UNL     1       1.647  52.002 -15.628  1.00  0.00     0.007 A 
ENDBRANCH  38  39
ENDBRANCH  37  38
BRANCH  37  45
HETATM   45  C25 UNL     1       2.492  48.186 -13.165  1.00  0.00     0.163 C 
HETATM   46  O5  UNL     1       2.266  46.986 -13.133  1.00  0.00    -0.648 OA
BRANCH  45  47
HETATM   47  O6  UNL     1       3.610  48.698 -12.572  1.00  0.00    -0.775 OA
HETATM   48  H27 UNL     1       3.989  47.941 -12.084  1.00  0.00     0.167 HD
ENDBRANCH  45  47
ENDBRANCH  37  45
ENDBRANCH  35  37
ENDBRANCH  32  33
BRANCH  32  49
HETATM   49  C26 UNL     1      -2.450  51.266 -12.130  1.00  0.00     0.009 C 
HETATM   50  C27 UNL     1      -3.598  51.770 -13.007  1.00  0.00     0.012 C 
HETATM   51  C28 UNL     1      -1.352  52.339 -12.059  1.00  0.00     0.012 C 
ENDBRANCH  32  49
ENDBRANCH  30  32
ENDBRANCH  27  28
ENDBRANCH  26  27
ENDBRANCH  13  26
TORSDOF 12
ENDMDL
MODEL 4
REMARK minimizedAffinity -9.49807835
REMARK CNNscore 0.289451033
REMARK CNNaffinity 7.22319937
REMARK  12 active torsions:
REMARK  status: ('A' for Active; 'I' for Inactive)
REMARK    1  A    between atoms: C3_3  and  O1_4 
REMARK    2  A    between atoms: N1_14  and  O2_16 
REMARK    3  A    between atoms: O2_16  and  C13_17 
REMARK    4  A    between atoms: C13_17  and  C14_18 
REMARK       I    between atoms: C14_18  and  N2_20 
REMARK    5  A    between atoms: N2_20  and  C15_21 
REMARK    6  A    between atoms: C15_21  and  C16_22 
REMARK    7  A    between atoms: C15_21  and  C26_36 
REMARK       I    between atoms: C16_22  and  N3_24 
REMARK    8  A    between atoms: N3_24  and  C17_25 
REMARK    9  A    between atoms: C17_25  and  C18_26 
REMARK   10  A    between atoms: C17_25  and  C25_33 
REMARK   11  A    between atoms: C18_26  and  C19_27 
REMARK   12  A    between atoms: C25_33  and  O6_35 
ROOT
HETATM    1  C1  UNL     1      -0.601  51.510 -27.999  1.00  0.00     0.015 C 
HETATM    2  C2  UNL     1      -1.416  51.608 -27.121  1.00  0.00    -0.078 C 
HETATM    3  C3  UNL     1      -2.424  51.708 -26.039  1.00  0.00     0.128 C 
HETATM    4  C4  UNL     1      -3.460  50.598 -26.219  1.00  0.00     0.052 C 
HETATM    5  C5  UNL     1      -2.800  49.359 -25.629  1.00  0.00     0.010 C 
HETATM    6  C6  UNL     1      -1.835  49.868 -24.534  1.00  0.00     0.002 C 
HETATM    7  C7  UNL     1      -2.035  49.247 -23.116  1.00  0.00    -0.004 C 
HETATM    8  C8  UNL     1      -3.441  48.707 -22.771  1.00  0.00     0.010 C 
HETATM    9  C9  UNL     1      -3.518  48.111 -21.361  1.00  0.00     0.035 C 
HETATM   10  C10 UNL     1      -2.951  49.026 -20.302  1.00  0.00    -0.069 C 
HETATM   11  C11 UNL     1      -3.678  49.326 -19.213  1.00  0.00     0.030 C 
HETATM   12  C12 UNL     1      -3.172  50.316 -18.220  1.00  0.00     0.032 C 
HETATM   13  N1  UNL     1      -3.648  50.268 -17.008  1.00  0.00    -0.271 N 
ATOM     14  H1  UNL     1      -4.351  49.596 -16.702  1.00  0.00     0.194 HD
HETATM   15  C29 UNL     1      -2.143  51.296 -18.727  1.00  0.00     0.060 C 
HETATM   16  C30 UNL     1      -1.051  50.556 -19.485  1.00  0.00     0.020 C 
HETATM   17  C31 UNL     1      -1.554  49.565 -20.584  1.00  0.00    -0.016 C 
HETATM   18  C32 UNL     1      -0.527  48.388 -20.547  1.00  0.00     0.020 C 
HETATM   19  C33 UNL     1      -1.545  50.222 -22.009  1.00  0.00     0.002 C 
HETATM   20  C34 UNL     1      -2.337  51.551 -22.077  1.00  0.00     0.007 C 
HETATM   21  C35 UNL     1      -2.745  51.990 -23.492  1.00  0.00     0.014 C 
HETATM   22  C36 UNL     1      -1.843  51.431 -24.613  1.00  0.00     0.003 C 
HETATM   23  C37 UNL     1      -0.434  52.056 -24.470  1.00  0.00     0.020 C 
ENDROOT
BRANCH   3  24
HETATM   24  O1  UNL     1      -3.012  52.997 -26.123  1.00  0.00    -0.377 OA
HETATM   25  H2  UNL     1      -3.941  52.934 -25.845  1.00  0.00     0.211 HD
ENDBRANCH   3  24
BRANCH  13  26
HETATM   26  O2  UNL     1      -3.087  51.242 -16.172  1.00  0.00    -0.271 OA
BRANCH  26  27
HETATM   27  C13 UNL     1      -1.985  50.687 -15.462  1.00  0.00     0.303 C 
BRANCH  27  28
HETATM   28  C14 UNL     1      -2.383  50.277 -14.055  1.00  0.00     0.244 C 
HETATM   29  O3  UNL     1      -3.069  49.274 -13.839  1.00  0.00    -0.271 OA
HETATM   30  N2  UNL     1      -1.985  51.154 -13.058  1.00  0.00    -0.346 N 
HETATM   31  H16 UNL     1      -1.173  51.723 -13.294  1.00  0.00     0.163 HD
BRANCH  30  32
HETATM   32  C15 UNL     1      -2.164  50.794 -11.658  1.00  0.00     0.180 C 
BRANCH  32  33
HETATM   33  C16 UNL     1      -1.011  51.432 -10.860  1.00  0.00     0.241 C 
HETATM   34  O4  UNL     1      -0.331  50.799 -10.055  1.00  0.00    -0.271 OA
HETATM   35  N3  UNL     1      -0.759  52.751 -11.174  1.00  0.00    -0.345 N 
HETATM   36  H18 UNL     1      -1.513  53.247 -11.640  1.00  0.00     0.163 HD
BRANCH  35  37
HETATM   37  C17 UNL     1      -0.064  53.604 -10.199  1.00  0.00     0.186 C 
BRANCH  37  38
HETATM   38  C18 UNL     1       0.744  54.739 -10.856  1.00  0.00     0.074 C 
BRANCH  38  39
HETATM   39  C19 UNL     1       2.228  54.708 -10.574  1.00  0.00    -0.056 A 
HETATM   40  C20 UNL     1       3.002  55.847 -10.848  1.00  0.00     0.007 A 
HETATM   41  C21 UNL     1       4.365  55.873 -10.547  1.00  0.00     0.001 A 
HETATM   42  C22 UNL     1       4.960  54.760  -9.964  1.00  0.00     0.000 A 
HETATM   43  C23 UNL     1       4.202  53.623  -9.694  1.00  0.00     0.001 A 
HETATM   44  C24 UNL     1       2.839  53.594 -10.005  1.00  0.00     0.007 A 
ENDBRANCH  38  39
ENDBRANCH  37  38
BRANCH  37  45
HETATM   45  C25 UNL     1      -1.083  54.162  -9.208  1.00  0.00     0.163 C 
HETATM   46  O5  UNL     1      -1.549  53.568  -8.247  1.00  0.00    -0.648 OA
BRANCH  45  47
HETATM   47  O6  UNL     1      -1.438  55.455  -9.464  1.00  0.00    -0.775 OA
HETATM   48  H27 UNL     1      -2.163  55.633  -8.833  1.00  0.00     0.167 HD
ENDBRANCH  45  47
ENDBRANCH  37  45
ENDBRANCH  35  37
ENDBRANCH  32  33
BRANCH  32  49
HETATM   49  C26 UNL     1      -3.569  51.171 -11.145  1.00  0.00     0.009 C 
HETATM   50  C27 UNL     1      -3.933  52.641 -11.365  1.00  0.00     0.012 C 
HETATM   51  C28 UNL     1      -3.739  50.819  -9.658  1.00  0.00     0.012 C 
ENDBRANCH  32  49
ENDBRANCH  30  32
ENDBRANCH  27  28
ENDBRANCH  26  27
ENDBRANCH  13  26
TORSDOF 12
ENDMDL
MODEL 5
REMARK minimizedAffinity -9.73372364
REMARK CNNscore 0.279243171
REMARK CNNaffinity 7.28831244
REMARK  12 active torsions:
REMARK  status: ('A' for Active; 'I' for Inactive)
REMARK    1  A    between atoms: C3_3  and  O1_4 
REMARK    2  A    between atoms: N1_14  and  O2_16 
REMARK    3  A    between atoms: O2_16  and  C13_17 
REMARK    4  A    between atoms: C13_17  and  C14_18 
REMARK       I    between atoms: C14_18  and  N2_20 
REMARK    5  A    between atoms: N2_20  and  C15_21 
REMARK    6  A    between atoms: C15_21  and  C16_22 
REMARK    7  A    between atoms: C15_21  and  C26_36 
REMARK       I    between atoms: C16_22  and  N3_24 
REMARK    8  A    between atoms: N3_24  and  C17_25 
REMARK    9  A    between atoms: C17_25  and  C18_26 
REMARK   10  A    between atoms: C17_25  and  C25_33 
REMARK   11  A    between atoms: C18_26  and  C19_27 
REMARK   12  A    between atoms: C25_33  and  O6_35 
ROOT
HETATM    1  C1  UNL     1       0.888  51.838 -28.401  1.00  0.00     0.015 C 
HETATM    2  C2  UNL     1       0.174  52.235 -27.519  1.00  0.00    -0.078 C 
HETATM    3  C3  UNL     1      -0.720  52.708 -26.435  1.00  0.00     0.128 C 
HETATM    4  C4  UNL     1      -2.161  52.321 -26.774  1.00  0.00     0.052 C 
HETATM    5  C5  UNL     1      -2.270  50.858 -26.364  1.00  0.00     0.010 C 
HETATM    6  C6  UNL     1      -1.265  50.662 -25.206  1.00  0.00     0.002 C 
HETATM    7  C7  UNL     1      -1.858  50.066 -23.891  1.00  0.00    -0.004 C 
HETATM    8  C8  UNL     1      -3.365  50.290 -23.629  1.00  0.00     0.010 C 
HETATM    9  C9  UNL     1      -3.839  49.654 -22.317  1.00  0.00     0.035 C 
HETATM   10  C10 UNL     1      -2.966  50.011 -21.138  1.00  0.00    -0.069 C 
HETATM   11  C11 UNL     1      -3.518  50.509 -20.019  1.00  0.00     0.030 C 
HETATM   12  C12 UNL     1      -2.655  50.969 -18.894  1.00  0.00     0.032 C 
HETATM   13  N1  UNL     1      -3.177  51.027 -17.703  1.00  0.00    -0.271 N 
ATOM     14  H1  UNL     1      -4.145  50.782 -17.496  1.00  0.00     0.194 HD
HETATM   15  C29 UNL     1      -1.235  51.333 -19.255  1.00  0.00     0.060 C 
HETATM   16  C30 UNL     1      -0.619  50.234 -20.108  1.00  0.00     0.020 C 
HETATM   17  C31 UNL     1      -1.473  49.784 -21.337  1.00  0.00    -0.016 C 
HETATM   18  C32 UNL     1      -1.195  48.252 -21.467  1.00  0.00     0.020 C 
HETATM   19  C33 UNL     1      -1.024  50.509 -22.655  1.00  0.00     0.002 C 
HETATM   20  C34 UNL     1      -1.022  52.052 -22.536  1.00  0.00     0.007 C 
HETATM   21  C35 UNL     1      -1.043  52.806 -23.875  1.00  0.00     0.014 C 
HETATM   22  C36 UNL     1      -0.469  52.002 -25.062  1.00  0.00     0.003 C 
HETATM   23  C37 UNL     1       1.046  51.790 -24.830  1.00  0.00     0.020 C 
ENDROOT
BRANCH   3  24
HETATM   24  O1  UNL     1      -0.562  54.115 -26.337  1.00  0.00    -0.377 OA
HETATM   25  H2  UNL     1      -1.411  54.507 -26.073  1.00  0.00     0.211 HD
ENDBRANCH   3  24
BRANCH  13  26
HETATM   26  O2  UNL     1      -2.263  51.465 -16.735  1.00  0.00    -0.271 OA
BRANCH  26  27
HETATM   27  C13 UNL     1      -1.834  50.360 -15.947  1.00  0.00     0.303 C 
BRANCH  27  28
HETATM   28  C14 UNL     1      -0.375  50.496 -15.551  1.00  0.00     0.244 C 
HETATM   29  O3  UNL     1       0.462  49.636 -15.844  1.00  0.00    -0.271 OA
HETATM   30  N2  UNL     1      -0.082  51.607 -14.776  1.00  0.00    -0.346 N 
HETATM   31  H16 UNL     1      -0.732  52.384 -14.888  1.00  0.00     0.163 HD
BRANCH  30  32
HETATM   32  C15 UNL     1       1.304  51.935 -14.469  1.00  0.00     0.180 C 
BRANCH  32  33
HETATM   33  C16 UNL     1       1.733  51.071 -13.267  1.00  0.00     0.241 C 
HETATM   34  O4  UNL     1       0.936  50.409 -12.608  1.00  0.00    -0.271 OA
HETATM   35  N3  UNL     1       3.093  51.046 -13.038  1.00  0.00    -0.345 N 
HETATM   36  H18 UNL     1       3.626  51.804 -13.454  1.00  0.00     0.163 HD
BRANCH  35  37
HETATM   37  C17 UNL     1       3.592  50.696 -11.700  1.00  0.00     0.186 C 
BRANCH  37  38
HETATM   38  C18 UNL     1       3.066  51.631 -10.595  1.00  0.00     0.074 C 
BRANCH  38  39
HETATM   39  C19 UNL     1       3.899  52.869 -10.361  1.00  0.00    -0.056 A 
HETATM   40  C20 UNL     1       3.471  54.095 -10.896  1.00  0.00     0.007 A 
HETATM   41  C21 UNL     1       4.185  55.269 -10.651  1.00  0.00     0.001 A 
HETATM   42  C22 UNL     1       5.331  55.224  -9.865  1.00  0.00     0.000 A 
HETATM   43  C23 UNL     1       5.767  54.012  -9.335  1.00  0.00     0.001 A 
HETATM   44  C24 UNL     1       5.057  52.835  -9.588  1.00  0.00     0.007 A 
ENDBRANCH  38  39
ENDBRANCH  37  38
BRANCH  37  45
HETATM   45  C25 UNL     1       3.237  49.242 -11.400  1.00  0.00     0.163 C 
HETATM   46  O5  UNL     1       3.686  48.261 -11.973  1.00  0.00    -0.648 OA
BRANCH  45  47
HETATM   47  O6  UNL     1       2.356  49.100 -10.367  1.00  0.00    -0.775 OA
HETATM   48  H27 UNL     1       2.141  48.147 -10.367  1.00  0.00     0.167 HD
ENDBRANCH  45  47
ENDBRANCH  37  45
ENDBRANCH  35  37
ENDBRANCH  32  33
BRANCH  32  49
HETATM   49  C26 UNL     1       2.214  51.789 -15.706  1.00  0.00     0.009 C 
HETATM   50  C27 UNL     1       3.673  52.173 -15.449  1.00  0.00     0.012 C 
HETATM   51  C28 UNL     1       1.676  52.595 -16.900  1.00  0.00     0.012 C 
ENDBRANCH  32  49
ENDBRANCH  30  32
ENDBRANCH  27  28
ENDBRANCH  26  27
ENDBRANCH  13  26
TORSDOF 12
ENDMDL
MODEL 6
REMARK minimizedAffinity -8.56577301
REMARK CNNscore 0.270929307
REMARK CNNaffinity 7.24394798
REMARK  12 active torsions:
REMARK  status: ('A' for Active; 'I' for Inactive)
REMARK    1  A    between atoms: C3_3  and  O1_4 
REMARK    2  A    between atoms: N1_14  and  O2_16 
REMARK    3  A    between atoms: O2_16  and  C13_17 
REMARK    4  A    between atoms: C13_17  and  C14_18 
REMARK       I    between atoms: C14_18  and  N2_20 
REMARK    5  A    between atoms: N2_20  and  C15_21 
REMARK    6  A    between atoms: C15_21  and  C16_22 
REMARK    7  A    between atoms: C15_21  and  C26_36 
REMARK       I    between atoms: C16_22  and  N3_24 
REMARK    8  A    between atoms: N3_24  and  C17_25 
REMARK    9  A    between atoms: C17_25  and  C18_26 
REMARK   10  A    between atoms: C17_25  and  C25_33 
REMARK   11  A    between atoms: C18_26  and  C19_27 
REMARK   12  A    between atoms: C25_33  and  O6_35 
ROOT
HETATM    1  C1  UNL     1      -0.690  51.473 -27.853  1.00  0.00     0.015 C 
HETATM    2  C2  UNL     1      -1.492  51.582 -26.964  1.00  0.00    -0.078 C 
HETATM    3  C3  UNL     1      -2.485  51.695 -25.869  1.00  0.00     0.128 C 
HETATM    4  C4  UNL     1      -3.537  50.597 -26.036  1.00  0.00     0.052 C 
HETATM    5  C5  UNL     1      -2.884  49.350 -25.452  1.00  0.00     0.010 C 
HETATM    6  C6  UNL     1      -1.899  49.850 -24.370  1.00  0.00     0.002 C 
HETATM    7  C7  UNL     1      -2.087  49.231 -22.950  1.00  0.00    -0.004 C 
HETATM    8  C8  UNL     1      -3.496  48.708 -22.586  1.00  0.00     0.010 C 
HETATM    9  C9  UNL     1      -3.561  48.115 -21.174  1.00  0.00     0.035 C 
HETATM   10  C10 UNL     1      -2.970  49.024 -20.124  1.00  0.00    -0.069 C 
HETATM   11  C11 UNL     1      -3.680  49.333 -19.026  1.00  0.00     0.030 C 
HETATM   12  C12 UNL     1      -3.150  50.318 -18.040  1.00  0.00     0.032 C 
HETATM   13  N1  UNL     1      -3.611  50.277 -16.822  1.00  0.00    -0.271 N 
ATOM     14  H1  UNL     1      -4.318  49.613 -16.507  1.00  0.00     0.194 HD
HETATM   15  C29 UNL     1      -2.116  51.286 -18.561  1.00  0.00     0.060 C 
HETATM   16  C30 UNL     1      -1.042  50.532 -19.332  1.00  0.00     0.020 C 
HETATM   17  C31 UNL     1      -1.571  49.547 -20.424  1.00  0.00    -0.016 C 
HETATM   18  C32 UNL     1      -0.557  48.358 -20.399  1.00  0.00     0.020 C 
HETATM   19  C33 UNL     1      -1.572  50.202 -21.849  1.00  0.00     0.002 C 
HETATM   20  C34 UNL     1      -2.350  51.540 -21.909  1.00  0.00     0.007 C 
HETATM   21  C35 UNL     1      -2.771  51.982 -23.319  1.00  0.00     0.014 C 
HETATM   22  C36 UNL     1      -1.889  51.412 -24.451  1.00  0.00     0.003 C 
HETATM   23  C37 UNL     1      -0.472  52.021 -24.327  1.00  0.00     0.020 C 
ENDROOT
BRANCH   3  24
HETATM   24  O1  UNL     1      -3.060  52.991 -25.948  1.00  0.00    -0.377 OA
HETATM   25  H2  UNL     1      -3.986  52.939 -25.658  1.00  0.00     0.211 HD
ENDBRANCH   3  24
BRANCH  13  26
HETATM   26  O2  UNL     1      -3.028  51.245 -15.994  1.00  0.00    -0.271 OA
BRANCH  26  27
HETATM   27  C13 UNL     1      -2.172  50.614 -15.049  1.00  0.00     0.303 C 
BRANCH  27  28
HETATM   28  C14 UNL     1      -2.673  50.813 -13.629  1.00  0.00     0.244 C 
HETATM   29  O3  UNL     1      -3.550  50.093 -13.142  1.00  0.00    -0.271 OA
HETATM   30  N2  UNL     1      -2.129  51.902 -12.967  1.00  0.00    -0.346 N 
HETATM   31  H16 UNL     1      -1.215  52.193 -13.310  1.00  0.00     0.163 HD
BRANCH  30  32
HETATM   32  C15 UNL     1      -2.406  52.104 -11.551  1.00  0.00     0.180 C 
BRANCH  32  33
HETATM   33  C16 UNL     1      -1.274  51.428 -10.752  1.00  0.00     0.241 C 
HETATM   34  O4  UNL     1      -0.856  51.876  -9.686  1.00  0.00    -0.271 OA
HETATM   35  N3  UNL     1      -0.821  50.243 -11.293  1.00  0.00    -0.345 N 
HETATM   36  H18 UNL     1      -1.034  50.095 -12.274  1.00  0.00     0.163 HD
BRANCH  35  37
HETATM   37  C17 UNL     1       0.524  49.761 -10.945  1.00  0.00     0.186 C 
BRANCH  37  38
HETATM   38  C18 UNL     1       1.604  50.855 -11.046  1.00  0.00     0.074 C 
BRANCH  38  39
HETATM   39  C19 UNL     1       2.465  50.784 -12.285  1.00  0.00    -0.056 A 
HETATM   40  C20 UNL     1       2.234  51.689 -13.333  1.00  0.00     0.007 A 
HETATM   41  C21 UNL     1       3.047  51.689 -14.468  1.00  0.00     0.001 A 
HETATM   42  C22 UNL     1       4.101  50.787 -14.558  1.00  0.00     0.000 A 
HETATM   43  C23 UNL     1       4.334  49.881 -13.526  1.00  0.00     0.001 A 
HETATM   44  C24 UNL     1       3.514  49.874 -12.394  1.00  0.00     0.007 A 
ENDBRANCH  38  39
ENDBRANCH  37  38
BRANCH  37  45
HETATM   45  C25 UNL     1       0.491  49.154  -9.545  1.00  0.00     0.163 C 
HETATM   46  O5  UNL     1       1.236  49.442  -8.620  1.00  0.00    -0.648 OA
BRANCH  45  47
HETATM   47  O6  UNL     1      -0.504  48.236  -9.374  1.00  0.00    -0.775 OA
HETATM   48  H27 UNL     1      -0.333  47.860  -8.488  1.00  0.00     0.167 HD
ENDBRANCH  45  47
ENDBRANCH  37  45
ENDBRANCH  35  37
ENDBRANCH  32  33
BRANCH  32  49
HETATM   49  C26 UNL     1      -2.608  53.595 -11.215  1.00  0.00     0.009 C 
HETATM   50  C27 UNL     1      -1.367  54.273 -10.631  1.00  0.00     0.012 C 
HETATM   51  C28 UNL     1      -3.798  53.803 -10.263  1.00  0.00     0.012 C 
ENDBRANCH  32  49
ENDBRANCH  30  32
ENDBRANCH  27  28
ENDBRANCH  26  27
ENDBRANCH  13  26
TORSDOF 12
ENDMDL
MODEL 7
REMARK minimizedAffinity -8.63744068
REMARK CNNscore 0.267790049
REMARK CNNaffinity 6.7714057
REMARK  12 active torsions:
REMARK  status: ('A' for Active; 'I' for Inactive)
REMARK    1  A    between atoms: C3_3  and  O1_4 
REMARK    2  A    between atoms: N1_14  and  O2_16 
REMARK    3  A    between atoms: O2_16  and  C13_17 
REMARK    4  A    between atoms: C13_17  and  C14_18 
REMARK       I    between atoms: C14_18  and  N2_20 
REMARK    5  A    between atoms: N2_20  and  C15_21 
REMARK    6  A    between atoms: C15_21  and  C16_22 
REMARK    7  A    between atoms: C15_21  and  C26_36 
REMARK       I    between atoms: C16_22  and  N3_24 
REMARK    8  A    between atoms: N3_24  and  C17_25 
REMARK    9  A    between atoms: C17_25  and  C18_26 
REMARK   10  A    between atoms: C17_25  and  C25_33 
REMARK   11  A    between atoms: C18_26  and  C19_27 
REMARK   12  A    between atoms: C25_33  and  O6_35 
ROOT
HETATM    1  C1  UNL     1      -3.054  50.746 -27.552  1.00  0.00     0.015 C 
HETATM    2  C2  UNL     1      -2.994  51.336 -26.506  1.00  0.00    -0.078 C 
HETATM    3  C3  UNL     1      -2.939  52.055 -25.211  1.00  0.00     0.128 C 
HETATM    4  C4  UNL     1      -4.365  52.357 -24.749  1.00  0.00     0.052 C 
HETATM    5  C5  UNL     1      -4.847  51.055 -24.121  1.00  0.00     0.010 C 
HETATM    6  C6  UNL     1      -3.584  50.348 -23.579  1.00  0.00     0.002 C 
HETATM    7  C7  UNL     1      -3.626  49.957 -22.069  1.00  0.00    -0.004 C 
HETATM    8  C8  UNL     1      -4.551  50.786 -21.148  1.00  0.00     0.010 C 
HETATM    9  C9  UNL     1      -4.520  50.308 -19.692  1.00  0.00     0.035 C 
HETATM   10  C10 UNL     1      -3.119  50.153 -19.151  1.00  0.00    -0.069 C 
HETATM   11  C11 UNL     1      -2.775  50.743 -17.994  1.00  0.00     0.030 C 
HETATM   12  C12 UNL     1      -1.366  50.689 -17.511  1.00  0.00     0.032 C 
HETATM   13  N1  UNL     1      -1.146  50.866 -16.239  1.00  0.00    -0.271 N 
ATOM     14  H1  UNL     1      -1.881  51.045 -15.557  1.00  0.00     0.194 HD
HETATM   15  C29 UNL     1      -0.315  50.434 -18.563  1.00  0.00     0.060 C 
HETATM   16  C30 UNL     1      -0.725  49.253 -19.431  1.00  0.00     0.020 C 
HETATM   17  C31 UNL     1      -2.175  49.322 -20.010  1.00  0.00    -0.016 C 
HETATM   18  C32 UNL     1      -2.659  47.836 -20.025  1.00  0.00     0.020 C 
HETATM   19  C33 UNL     1      -2.191  49.891 -21.473  1.00  0.00     0.002 C 
HETATM   20  C34 UNL     1      -1.493  51.266 -21.604  1.00  0.00     0.007 C 
HETATM   21  C35 UNL     1      -1.867  52.065 -22.862  1.00  0.00     0.014 C 
HETATM   22  C36 UNL     1      -2.354  51.197 -24.042  1.00  0.00     0.003 C 
HETATM   23  C37 UNL     1      -1.171  50.334 -24.541  1.00  0.00     0.020 C 
ENDROOT
BRANCH   3  24
HETATM   24  O1  UNL     1      -2.189  53.243 -25.415  1.00  0.00    -0.377 OA
HETATM   25  H2  UNL     1      -2.542  53.938 -24.836  1.00  0.00     0.211 HD
ENDBRANCH   3  24
BRANCH  13  26
HETATM   26  O2  UNL     1       0.214  50.783 -15.913  1.00  0.00    -0.271 OA
BRANCH  26  27
HETATM   27  C13 UNL     1       0.621  51.974 -15.248  1.00  0.00     0.303 C 
BRANCH  27  28
HETATM   28  C14 UNL     1       0.066  52.036 -13.836  1.00  0.00     0.244 C 
HETATM   29  O3  UNL     1      -0.904  51.356 -13.488  1.00  0.00    -0.271 OA
HETATM   30  N2  UNL     1       0.679  52.964 -13.010  1.00  0.00    -0.346 N 
HETATM   31  H16 UNL     1       1.635  53.200 -13.273  1.00  0.00     0.163 HD
BRANCH  30  32
HETATM   32  C15 UNL     1       0.347  53.006 -11.592  1.00  0.00     0.180 C 
BRANCH  32  33
HETATM   33  C16 UNL     1       1.361  52.116 -10.847  1.00  0.00     0.241 C 
HETATM   34  O4  UNL     1       1.087  51.529  -9.803  1.00  0.00    -0.271 OA
HETATM   35  N3  UNL     1       2.576  51.976 -11.486  1.00  0.00    -0.345 N 
HETATM   36  H18 UNL     1       2.795  52.682 -12.181  1.00  0.00     0.163 HD
BRANCH  35  37
HETATM   37  C17 UNL     1       3.760  51.592 -10.704  1.00  0.00     0.186 C 
BRANCH  37  38
HETATM   38  C18 UNL     1       3.754  52.168  -9.275  1.00  0.00     0.074 C 
BRANCH  38  39
HETATM   39  C19 UNL     1       4.831  53.190  -8.998  1.00  0.00    -0.056 A 
HETATM   40  C20 UNL     1       5.669  53.018  -7.884  1.00  0.00     0.007 A 
HETATM   41  C21 UNL     1       6.711  53.912  -7.631  1.00  0.00     0.001 A 
HETATM   42  C22 UNL     1       6.923  54.981  -8.493  1.00  0.00     0.000 A 
HETATM   43  C23 UNL     1       6.093  55.164  -9.596  1.00  0.00     0.001 A 
HETATM   44  C24 UNL     1       5.044  54.274  -9.845  1.00  0.00     0.007 A 
ENDBRANCH  38  39
ENDBRANCH  37  38
BRANCH  37  45
HETATM   45  C25 UNL     1       3.870  50.069 -10.679  1.00  0.00     0.163 C 
HETATM   46  O5  UNL     1       4.388  49.373 -11.538  1.00  0.00    -0.648 OA
BRANCH  45  47
HETATM   47  O6  UNL     1       3.346  49.505  -9.552  1.00  0.00    -0.775 OA
HETATM   48  H27 UNL     1       3.385  48.544  -9.725  1.00  0.00     0.167 HD
ENDBRANCH  45  47
ENDBRANCH  37  45
ENDBRANCH  35  37
ENDBRANCH  32  33
BRANCH  32  49
HETATM   49  C26 UNL     1       0.275  54.454 -11.064  1.00  0.00     0.009 C 
HETATM   50  C27 UNL     1       1.394  54.812 -10.083  1.00  0.00     0.012 C 
HETATM   51  C28 UNL     1      -1.088  54.750 -10.415  1.00  0.00     0.012 C 
ENDBRANCH  32  49
ENDBRANCH  30  32
ENDBRANCH  27  28
ENDBRANCH  26  27
ENDBRANCH  13  26
TORSDOF 12
ENDMDL
MODEL 8
REMARK minimizedAffinity -8.43596172
REMARK CNNscore 0.242677212
REMARK CNNaffinity 6.38609171
REMARK  12 active torsions:
REMARK  status: ('A' for Active; 'I' for Inactive)
REMARK    1  A    between atoms: C3_3  and  O1_4 
REMARK    2  A    between atoms: N1_14  and  O2_16 
REMARK    3  A    between atoms: O2_16  and  C13_17 
REMARK    4  A    between atoms: C13_17  and  C14_18 
REMARK       I    between atoms: C14_18  and  N2_20 
REMARK    5  A    between atoms: N2_20  and  C15_21 
REMARK    6  A    between atoms: C15_21  and  C16_22 
REMARK    7  A    between atoms: C15_21  and  C26_36 
REMARK       I    between atoms: C16_22  and  N3_24 
REMARK    8  A    between atoms: N3_24  and  C17_25 
REMARK    9  A    between atoms: C17_25  and  C18_26 
REMARK   10  A    between atoms: C17_25  and  C25_33 
REMARK   11  A    between atoms: C18_26  and  C19_27 
REMARK   12  A    between atoms: C25_33  and  O6_35 
ROOT
HETATM    1  C1  UNL     1      -4.857  48.116 -26.143  1.00  0.00     0.015 C 
HETATM    2  C2  UNL     1      -4.828  48.879 -25.213  1.00  0.00    -0.078 C 
HETATM    3  C3  UNL     1      -4.806  49.807 -24.058  1.00  0.00     0.128 C 
HETATM    4  C4  UNL     1      -6.192  49.827 -23.410  1.00  0.00     0.052 C 
HETATM    5  C5  UNL     1      -6.223  48.579 -22.537  1.00  0.00     0.010 C 
HETATM    6  C6  UNL     1      -4.759  48.311 -22.120  1.00  0.00     0.002 C 
HETATM    7  C7  UNL     1      -4.505  48.196 -20.584  1.00  0.00    -0.004 C 
HETATM    8  C8  UNL     1      -5.495  48.922 -19.646  1.00  0.00     0.010 C 
HETATM    9  C9  UNL     1      -5.155  48.733 -18.164  1.00  0.00     0.035 C 
HETATM   10  C10 UNL     1      -3.707  49.024 -17.848  1.00  0.00    -0.069 C 
HETATM   11  C11 UNL     1      -3.393  49.876 -16.858  1.00  0.00     0.030 C 
HETATM   12  C12 UNL     1      -1.972  50.256 -16.615  1.00  0.00     0.032 C 
HETATM   13  N1  UNL     1      -1.650  50.704 -15.435  1.00  0.00    -0.271 N 
ATOM     14  H1  UNL     1      -2.315  50.816 -14.670  1.00  0.00     0.194 HD
HETATM   15  C29 UNL     1      -1.032  50.084 -17.782  1.00  0.00     0.060 C 
HETATM   16  C30 UNL     1      -1.214  48.705 -18.397  1.00  0.00     0.020 C 
HETATM   17  C31 UNL     1      -2.690  48.312 -18.730  1.00  0.00    -0.016 C 
HETATM   18  C32 UNL     1      -2.755  46.774 -18.457  1.00  0.00     0.020 C 
HETATM   19  C33 UNL     1      -3.042  48.590 -20.233  1.00  0.00     0.002 C 
HETATM   20  C34 UNL     1      -2.762  50.050 -20.669  1.00  0.00     0.007 C 
HETATM   21  C35 UNL     1      -3.491  50.496 -21.945  1.00  0.00     0.014 C 
HETATM   22  C36 UNL     1      -3.870  49.340 -22.895  1.00  0.00     0.003 C 
HETATM   23  C37 UNL     1      -2.571  48.719 -23.461  1.00  0.00     0.020 C 
ENDROOT
BRANCH   3  24
HETATM   24  O1  UNL     1      -4.435  51.087 -24.547  1.00  0.00    -0.377 OA
HETATM   25  H2  UNL     1      -4.887  51.765 -24.019  1.00  0.00     0.211 HD
ENDBRANCH   3  24
BRANCH  13  26
HETATM   26  O2  UNL     1      -0.288  51.016 -15.332  1.00  0.00    -0.271 OA
BRANCH  26  27
HETATM   27  C13 UNL     1      -0.113  52.110 -14.437  1.00  0.00     0.303 C 
BRANCH  27  28
HETATM   28  C14 UNL     1      -0.705  51.807 -13.072  1.00  0.00     0.244 C 
HETATM   29  O3  UNL     1      -0.746  50.658 -12.621  1.00  0.00    -0.271 OA
HETATM   30  N2  UNL     1      -1.258  52.898 -12.422  1.00  0.00    -0.346 N 
HETATM   31  H16 UNL     1      -0.876  53.799 -12.707  1.00  0.00     0.163 HD
BRANCH  30  32
HETATM   32  C15 UNL     1      -1.710  52.771 -11.043  1.00  0.00     0.180 C 
BRANCH  32  33
HETATM   33  C16 UNL     1      -1.132  53.959 -10.249  1.00  0.00     0.241 C 
HETATM   34  O4  UNL     1      -1.319  55.129 -10.575  1.00  0.00    -0.271 OA
HETATM   35  N3  UNL     1      -0.448  53.604  -9.105  1.00  0.00    -0.345 N 
HETATM   36  H18 UNL     1      -0.130  52.640  -9.060  1.00  0.00     0.163 HD
BRANCH  35  37
HETATM   37  C17 UNL     1       0.541  54.533  -8.539  1.00  0.00     0.186 C 
BRANCH  37  38
HETATM   38  C18 UNL     1       1.367  55.265  -9.614  1.00  0.00     0.074 C 
BRANCH  38  39
HETATM   39  C19 UNL     1       2.852  55.324  -9.342  1.00  0.00    -0.056 A 
HETATM   40  C20 UNL     1       3.750  55.036 -10.381  1.00  0.00     0.007 A 
HETATM   41  C21 UNL     1       5.129  55.137 -10.181  1.00  0.00     0.001 A 
HETATM   42  C22 UNL     1       5.615  55.531  -8.940  1.00  0.00     0.000 A 
HETATM   43  C23 UNL     1       4.732  55.812  -7.901  1.00  0.00     0.001 A 
HETATM   44  C24 UNL     1       3.352  55.702  -8.098  1.00  0.00     0.007 A 
ENDBRANCH  38  39
ENDBRANCH  37  38
BRANCH  37  45
HETATM   45  C25 UNL     1      -0.173  55.528  -7.627  1.00  0.00     0.163 C 
HETATM   46  O5  UNL     1      -0.492  56.669  -7.922  1.00  0.00    -0.648 OA
BRANCH  45  47
HETATM   47  O6  UNL     1      -0.476  55.018  -6.398  1.00  0.00    -0.775 OA
HETATM   48  H27 UNL     1      -0.819  55.785  -5.899  1.00  0.00     0.167 HD
ENDBRANCH  45  47
ENDBRANCH  37  45
ENDBRANCH  35  37
ENDBRANCH  32  33
BRANCH  32  49
HETATM   49  C26 UNL     1      -3.244  52.643 -10.953  1.00  0.00     0.009 C 
HETATM   50  C27 UNL     1      -3.728  51.237 -10.592  1.00  0.00     0.012 C 
HETATM   51  C28 UNL     1      -3.925  53.098 -12.255  1.00  0.00     0.012 C 
ENDBRANCH  32  49
ENDBRANCH  30  32
ENDBRANCH  27  28
ENDBRANCH  26  27
ENDBRANCH  13  26
TORSDOF 12
ENDMDL
MODEL 9
REMARK minimizedAffinity -9.19427299
REMARK CNNscore 0.206387371
REMARK CNNaffinity 6.10838938
REMARK  12 active torsions:
REMARK  status: ('A' for Active; 'I' for Inactive)
REMARK    1  A    between atoms: C3_3  and  O1_4 
REMARK    2  A    between atoms: N1_14  and  O2_16 
REMARK    3  A    between atoms: O2_16  and  C13_17 
REMARK    4  A    between atoms: C13_17  and  C14_18 
REMARK       I    between atoms: C14_18  and  N2_20 
REMARK    5  A    between atoms: N2_20  and  C15_21 
REMARK    6  A    between atoms: C15_21  and  C16_22 
REMARK    7  A    between atoms: C15_21  and  C26_36 
REMARK       I    between atoms: C16_22  and  N3_24 
REMARK    8  A    between atoms: N3_24  and  C17_25 
REMARK    9  A    between atoms: C17_25  and  C18_26 
REMARK   10  A    between atoms: C17_25  and  C25_33 
REMARK   11  A    between atoms: C18_26  and  C19_27 
REMARK   12  A    between atoms: C25_33  and  O6_35 
ROOT
HETATM    1  C1  UNL     1       0.205  51.256 -26.846  1.00  0.00     0.015 C 
HETATM    2  C2  UNL     1      -0.959  51.363 -26.567  1.00  0.00    -0.078 C 
HETATM    3  C3  UNL     1      -2.398  51.475 -26.230  1.00  0.00     0.128 C 
HETATM    4  C4  UNL     1      -3.210  50.656 -27.236  1.00  0.00     0.052 C 
HETATM    5  C5  UNL     1      -3.100  49.221 -26.736  1.00  0.00     0.010 C 
HETATM    6  C6  UNL     1      -2.919  49.314 -25.204  1.00  0.00     0.002 C 
HETATM    7  C7  UNL     1      -3.945  48.504 -24.352  1.00  0.00    -0.004 C 
HETATM    8  C8  UNL     1      -5.323  48.215 -24.990  1.00  0.00     0.010 C 
HETATM    9  C9  UNL     1      -6.244  47.406 -24.070  1.00  0.00     0.035 C 
HETATM   10  C10 UNL     1      -6.337  47.978 -22.675  1.00  0.00    -0.069 C 
HETATM   11  C11 UNL     1      -7.539  48.223 -22.128  1.00  0.00     0.030 C 
HETATM   12  C12 UNL     1      -7.638  48.891 -20.799  1.00  0.00     0.032 C 
HETATM   13  N1  UNL     1      -8.731  48.727 -20.109  1.00  0.00    -0.271 N 
ATOM     14  H1  UNL     1      -9.525  48.172 -20.428  1.00  0.00     0.194 HD
HETATM   15  C29 UNL     1      -6.443  49.710 -20.379  1.00  0.00     0.060 C 
HETATM   16  C30 UNL     1      -5.167  48.907 -20.582  1.00  0.00     0.020 C 
HETATM   17  C31 UNL     1      -5.004  48.256 -21.993  1.00  0.00    -0.016 C 
HETATM   18  C32 UNL     1      -4.271  46.904 -21.717  1.00  0.00     0.020 C 
HETATM   19  C33 UNL     1      -4.125  49.141 -22.945  1.00  0.00     0.002 C 
HETATM   20  C34 UNL     1      -4.638  50.596 -23.079  1.00  0.00     0.007 C 
HETATM   21  C35 UNL     1      -4.119  51.356 -24.308  1.00  0.00     0.014 C 
HETATM   22  C36 UNL     1      -2.773  50.832 -24.854  1.00  0.00     0.003 C 
HETATM   23  C37 UNL     1      -1.671  51.114 -23.806  1.00  0.00     0.020 C 
ENDROOT
BRANCH   3  24
HETATM   24  O1  UNL     1      -2.740  52.852 -26.276  1.00  0.00    -0.377 OA
HETATM   25  H2  UNL     1      -3.659  52.935 -26.579  1.00  0.00     0.211 HD
ENDBRANCH   3  24
BRANCH  13  26
HETATM   26  O2  UNL     1      -8.696  49.397 -18.879  1.00  0.00    -0.271 OA
BRANCH  26  27
HETATM   27  C13 UNL     1      -8.401  48.473 -17.838  1.00  0.00     0.303 C 
BRANCH  27  28
HETATM   28  C14 UNL     1      -9.450  47.378 -17.756  1.00  0.00     0.244 C 
HETATM   29  O3  UNL     1      -9.513  46.473 -18.593  1.00  0.00    -0.271 OA
HETATM   30  N2  UNL     1     -10.366  47.525 -16.726  1.00  0.00    -0.346 N 
HETATM   31  H16 UNL     1     -10.029  48.073 -15.935  1.00  0.00     0.163 HD
BRANCH  30  32
HETATM   32  C15 UNL     1     -11.319  46.461 -16.443  1.00  0.00     0.180 C 
BRANCH  32  33
HETATM   33  C16 UNL     1     -12.686  46.896 -17.006  1.00  0.00     0.241 C 
HETATM   34  O4  UNL     1     -13.720  46.859 -16.342  1.00  0.00    -0.271 OA
HETATM   35  N3  UNL     1     -12.643  47.398 -18.291  1.00  0.00    -0.345 N 
HETATM   36  H18 UNL     1     -11.820  47.153 -18.834  1.00  0.00     0.163 HD
BRANCH  35  37
HETATM   37  C17 UNL     1     -13.863  47.386 -19.110  1.00  0.00     0.186 C 
BRANCH  37  38
HETATM   38  C18 UNL     1     -15.101  47.911 -18.359  1.00  0.00     0.074 C 
BRANCH  38  39
HETATM   39  C19 UNL     1     -16.415  47.315 -18.806  1.00  0.00    -0.056 A 
HETATM   40  C20 UNL     1     -17.522  48.158 -18.995  1.00  0.00     0.007 A 
HETATM   41  C21 UNL     1     -18.735  47.650 -19.462  1.00  0.00     0.001 A 
HETATM   42  C22 UNL     1     -18.847  46.293 -19.746  1.00  0.00     0.000 A 
HETATM   43  C23 UNL     1     -17.757  45.447 -19.555  1.00  0.00     0.001 A 
HETATM   44  C24 UNL     1     -16.545  45.955 -19.079  1.00  0.00     0.007 A 
ENDBRANCH  38  39
ENDBRANCH  37  38
BRANCH  37  45
HETATM   45  C25 UNL     1     -13.616  48.189 -20.385  1.00  0.00     0.163 C 
HETATM   46  O5  UNL     1     -13.244  47.737 -21.457  1.00  0.00    -0.648 OA
BRANCH  45  47
HETATM   47  O6  UNL     1     -13.882  49.521 -20.248  1.00  0.00    -0.775 OA
HETATM   48  H27 UNL     1     -13.576  49.913 -21.089  1.00  0.00     0.167 HD
ENDBRANCH  45  47
ENDBRANCH  37  45
ENDBRANCH  35  37
ENDBRANCH  32  33
BRANCH  32  49
HETATM   49  C26 UNL     1     -10.828  45.097 -16.970  1.00  0.00     0.009 C 
HETATM   50  C27 UNL     1     -11.953  44.175 -17.445  1.00  0.00     0.012 C 
HETATM   51  C28 UNL     1      -9.972  44.364 -15.924  1.00  0.00     0.012 C 
ENDBRANCH  32  49
ENDBRANCH  30  32
ENDBRANCH  27  28
ENDBRANCH  26  27
ENDBRANCH  13  26
TORSDOF 12
ENDMDL
