MODEL 1
REMARK minimizedAffinity -8.40553093
REMARK CNNscore 0.532665372
REMARK CNNaffinity 5.75695562
REMARK  8 active torsions:
REMARK  status: ('A' for Active; 'I' for Inactive)
REMARK    1  A    between atoms: C3_3  and  O1_4 
REMARK    2  A    between atoms: N1_14  and  O2_16 
REMARK    3  A    between atoms: O2_16  and  C13_17 
REMARK    4  A    between atoms: C13_17  and  C14_18 
REMARK       I    between atoms: C14_18  and  N2_20 
REMARK    5  A    between atoms: N2_20  and  C15_21 
REMARK    6  A    between atoms: C15_21  and  C16_22 
REMARK    7  A    between atoms: C16_22  and  O4_23 
REMARK    8  A    between atoms: C16_22  and  C17_24 
ROOT
HETATM    1  C1  UNL     1     -20.507  42.552 -28.099  1.00  0.00     0.015 C 
HETATM    2  C2  UNL     1     -19.579  43.179 -27.665  1.00  0.00    -0.078 C 
HETATM    3  C3  UNL     1     -18.449  43.952 -27.118  1.00  0.00     0.128 C 
HETATM    4  C4  UNL     1     -18.599  44.164 -25.609  1.00  0.00     0.052 C 
HETATM    5  C5  UNL     1     -17.203  44.604 -25.187  1.00  0.00     0.010 C 
HETATM    6  C6  UNL     1     -16.287  43.632 -25.935  1.00  0.00     0.002 C 
HETATM    7  C7  UNL     1     -14.832  44.092 -26.141  1.00  0.00    -0.004 C 
HETATM    8  C8  UNL     1     -14.142  44.416 -24.808  1.00  0.00     0.010 C 
HETATM    9  C9  UNL     1     -12.666  44.730 -25.025  1.00  0.00     0.035 C 
HETATM   10  C10 UNL     1     -12.453  45.843 -26.023  1.00  0.00    -0.069 C 
HETATM   11  C11 UNL     1     -11.593  46.839 -25.731  1.00  0.00     0.030 C 
HETATM   12  C12 UNL     1     -11.253  47.903 -26.716  1.00  0.00     0.032 C 
HETATM   13  N1  UNL     1     -10.438  48.894 -26.520  1.00  0.00    -0.271 N 
ATOM     14  H1  UNL     1     -10.231  49.606 -27.220  1.00  0.00     0.194 HD
HETATM   15  C23 UNL     1     -11.871  47.800 -28.094  1.00  0.00     0.060 C 
HETATM   16  C24 UNL     1     -13.239  47.141 -28.037  1.00  0.00     0.020 C 
HETATM   17  C25 UNL     1     -13.219  45.743 -27.350  1.00  0.00    -0.016 C 
HETATM   18  C26 UNL     1     -12.466  44.736 -28.251  1.00  0.00     0.020 C 
HETATM   19  C27 UNL     1     -14.715  45.299 -27.099  1.00  0.00     0.002 C 
HETATM   20  C28 UNL     1     -15.538  45.096 -28.393  1.00  0.00     0.007 C 
HETATM   21  C29 UNL     1     -16.234  43.737 -28.511  1.00  0.00     0.014 C 
HETATM   22  C30 UNL     1     -17.033  43.276 -27.268  1.00  0.00     0.003 C 
HETATM   23  C31 UNL     1     -17.139  41.731 -27.339  1.00  0.00     0.020 C 
ENDROOT
BRANCH   3  24
HETATM   24  O1  UNL     1     -18.485  45.251 -27.714  1.00  0.00    -0.377 OA
HETATM   25  H2  UNL     1     -18.570  45.113 -28.670  1.00  0.00     0.211 HD
ENDBRANCH   3  24
BRANCH  13  26
HETATM   26  O2  UNL     1      -9.872  48.877 -25.234  1.00  0.00    -0.271 OA
BRANCH  26  27
HETATM   27  C13 UNL     1      -8.466  48.686 -25.364  1.00  0.00     0.303 C 
BRANCH  27  28
HETATM   28  C14 UNL     1      -7.760  48.980 -24.047  1.00  0.00     0.243 C 
HETATM   29  O3  UNL     1      -8.133  48.521 -22.970  1.00  0.00    -0.271 OA
HETATM   30  N2  UNL     1      -6.714  49.879 -24.150  1.00  0.00    -0.356 N 
HETATM   31  H16 UNL     1      -6.611  50.396 -25.016  1.00  0.00     0.162 HD
BRANCH  30  32
HETATM   32  C15 UNL     1      -6.059  50.397 -22.959  1.00  0.00     0.159 C 
BRANCH  32  33
HETATM   33  C16 UNL     1      -5.339  51.736 -23.219  1.00  0.00     0.170 C 
BRANCH  33  34
HETATM   34  O4  UNL     1      -5.360  52.015 -24.628  1.00  0.00    -0.389 OA
HETATM   35  H20 UNL     1      -4.690  52.704 -24.786  1.00  0.00     0.210 HD
ENDBRANCH  33  34
BRANCH  33  36
HETATM   36  C17 UNL     1      -3.916  51.713 -22.727  1.00  0.00    -0.013 A 
HETATM   37  C18 UNL     1      -3.557  51.180 -21.485  1.00  0.00     0.013 A 
HETATM   38  C19 UNL     1      -2.227  51.228 -21.068  1.00  0.00     0.025 A 
HETATM   39  C20 UNL     1      -1.283  51.807 -21.907  1.00  0.00     0.005 A 
HETATM   40  C21 UNL     1       0.148  51.912 -21.476  1.00  0.00     0.068 C 
HETATM   41  N3  UNL     1      -1.604  52.325 -23.117  1.00  0.00    -0.369 N 
HETATM   42  C22 UNL     1      -2.900  52.278 -23.492  1.00  0.00     0.097 A 
ATOM     43  H3  UNL     1      -0.893  52.736 -23.721  1.00  0.00     0.165 HD
ENDBRANCH  33  36
ENDBRANCH  32  33
ENDBRANCH  30  32
ENDBRANCH  27  28
ENDBRANCH  26  27
ENDBRANCH  13  26
TORSDOF 8
ENDMDL
MODEL 2
REMARK minimizedAffinity -8.72057247
REMARK CNNscore 0.51566726
REMARK CNNaffinity 7.12136269
REMARK  8 active torsions:
REMARK  status: ('A' for Active; 'I' for Inactive)
REMARK    1  A    between atoms: C3_3  and  O1_4 
REMARK    2  A    between atoms: N1_14  and  O2_16 
REMARK    3  A    between atoms: O2_16  and  C13_17 
REMARK    4  A    between atoms: C13_17  and  C14_18 
REMARK       I    between atoms: C14_18  and  N2_20 
REMARK    5  A    between atoms: N2_20  and  C15_21 
REMARK    6  A    between atoms: C15_21  and  C16_22 
REMARK    7  A    between atoms: C16_22  and  O4_23 
REMARK    8  A    between atoms: C16_22  and  C17_24 
ROOT
HETATM    1  C1  UNL     1      -7.251  47.539  -7.400  1.00  0.00     0.015 C 
HETATM    2  C2  UNL     1      -6.327  47.746  -8.139  1.00  0.00    -0.078 C 
HETATM    3  C3  UNL     1      -5.187  47.984  -9.045  1.00  0.00     0.128 C 
HETATM    4  C4  UNL     1      -4.636  46.669  -9.601  1.00  0.00     0.052 C 
HETATM    5  C5  UNL     1      -3.776  47.128 -10.771  1.00  0.00     0.010 C 
HETATM    6  C6  UNL     1      -4.655  48.172 -11.465  1.00  0.00     0.002 C 
HETATM    7  C7  UNL     1      -3.925  49.186 -12.364  1.00  0.00    -0.004 C 
HETATM    8  C8  UNL     1      -3.110  48.491 -13.464  1.00  0.00     0.010 C 
HETATM    9  C9  UNL     1      -2.514  49.514 -14.424  1.00  0.00     0.035 C 
HETATM   10  C10 UNL     1      -1.680  50.554 -13.715  1.00  0.00    -0.069 C 
HETATM   11  C11 UNL     1      -0.465  50.872 -14.203  1.00  0.00     0.030 C 
HETATM   12  C12 UNL     1       0.359  51.969 -13.619  1.00  0.00     0.032 C 
HETATM   13  N1  UNL     1       1.534  52.342 -14.024  1.00  0.00    -0.271 N 
ATOM     14  H1  UNL     1       2.068  53.097 -13.596  1.00  0.00     0.194 HD
HETATM   15  C23 UNL     1      -0.245  52.760 -12.477  1.00  0.00     0.060 C 
HETATM   16  C24 UNL     1      -1.178  51.900 -11.643  1.00  0.00     0.020 C 
HETATM   17  C25 UNL     1      -2.303  51.222 -12.481  1.00  0.00    -0.016 C 
HETATM   18  C26 UNL     1      -3.294  52.299 -12.981  1.00  0.00     0.020 C 
HETATM   19  C27 UNL     1      -3.016  50.148 -11.566  1.00  0.00     0.002 C 
HETATM   20  C28 UNL     1      -3.740  50.748 -10.338  1.00  0.00     0.007 C 
HETATM   21  C29 UNL     1      -5.211  50.345 -10.193  1.00  0.00     0.014 C 
HETATM   22  C30 UNL     1      -5.514  48.833 -10.331  1.00  0.00     0.003 C 
HETATM   23  C31 UNL     1      -7.003  48.702 -10.744  1.00  0.00     0.020 C 
ENDROOT
BRANCH   3  24
HETATM   24  O1  UNL     1      -4.136  48.569  -8.273  1.00  0.00    -0.377 OA
HETATM   25  H2  UNL     1      -4.533  49.303  -7.778  1.00  0.00     0.211 HD
ENDBRANCH   3  24
BRANCH  13  26
HETATM   26  O2  UNL     1       1.988  51.588 -15.119  1.00  0.00    -0.271 OA
BRANCH  26  27
HETATM   27  C13 UNL     1       2.211  52.473 -16.213  1.00  0.00     0.303 C 
BRANCH  27  28
HETATM   28  C14 UNL     1       1.170  52.253 -17.302  1.00  0.00     0.243 C 
HETATM   29  O3  UNL     1       0.406  51.290 -17.314  1.00  0.00    -0.271 OA
HETATM   30  N2  UNL     1       1.211  53.182 -18.326  1.00  0.00    -0.356 N 
HETATM   31  H16 UNL     1       2.010  53.805 -18.375  1.00  0.00     0.162 HD
BRANCH  30  32
HETATM   32  C15 UNL     1       0.404  53.006 -19.523  1.00  0.00     0.159 C 
BRANCH  32  33
HETATM   33  C16 UNL     1       1.225  53.180 -20.817  1.00  0.00     0.170 C 
BRANCH  33  34
HETATM   34  O4  UNL     1       1.421  54.581 -21.065  1.00  0.00    -0.389 OA
HETATM   35  H20 UNL     1       1.700  54.664 -21.994  1.00  0.00     0.210 HD
ENDBRANCH  33  34
BRANCH  33  36
HETATM   36  C17 UNL     1       0.546  52.545 -22.002  1.00  0.00    -0.013 A 
HETATM   37  C18 UNL     1       0.689  53.038 -23.303  1.00  0.00     0.013 A 
HETATM   38  C19 UNL     1      -0.002  52.433 -24.353  1.00  0.00     0.025 A 
HETATM   39  C20 UNL     1      -0.818  51.343 -24.077  1.00  0.00     0.005 A 
HETATM   40  C21 UNL     1      -1.605  50.692 -25.173  1.00  0.00     0.068 C 
HETATM   41  N3  UNL     1      -0.968  50.844 -22.827  1.00  0.00    -0.369 N 
HETATM   42  C22 UNL     1      -0.300  51.455 -21.826  1.00  0.00     0.097 A 
ATOM     43  H3  UNL     1      -1.565  50.036 -22.649  1.00  0.00     0.165 HD
ENDBRANCH  33  36
ENDBRANCH  32  33
ENDBRANCH  30  32
ENDBRANCH  27  28
ENDBRANCH  26  27
ENDBRANCH  13  26
TORSDOF 8
ENDMDL
MODEL 3
REMARK minimizedAffinity -7.93202734
REMARK CNNscore 0.410899341
REMARK CNNaffinity 6.36452627
REMARK  8 active torsions:
REMARK  status: ('A' for Active; 'I' for Inactive)
REMARK    1  A    between atoms: C3_3  and  O1_4 
REMARK    2  A    between atoms: N1_14  and  O2_16 
REMARK    3  A    between atoms: O2_16  and  C13_17 
REMARK    4  A    between atoms: C13_17  and  C14_18 
REMARK       I    between atoms: C14_18  and  N2_20 
REMARK    5  A    between atoms: N2_20  and  C15_21 
REMARK    6  A    between atoms: C15_21  and  C16_22 
REMARK    7  A    between atoms: C16_22  and  O4_23 
REMARK    8  A    between atoms: C16_22  and  C17_24 
ROOT
HETATM    1  C1  UNL     1       5.058  58.537  -2.782  1.00  0.00     0.015 C 
HETATM    2  C2  UNL     1       4.572  58.035  -3.759  1.00  0.00    -0.078 C 
HETATM    3  C3  UNL     1       3.962  57.431  -4.958  1.00  0.00     0.128 C 
HETATM    4  C4  UNL     1       3.036  58.421  -5.669  1.00  0.00     0.052 C 
HETATM    5  C5  UNL     1       2.836  57.779  -7.035  1.00  0.00     0.010 C 
HETATM    6  C6  UNL     1       4.249  57.335  -7.425  1.00  0.00     0.002 C 
HETATM    7  C7  UNL     1       4.343  56.224  -8.487  1.00  0.00    -0.004 C 
HETATM    8  C8  UNL     1       3.626  56.617  -9.788  1.00  0.00     0.010 C 
HETATM    9  C9  UNL     1       3.855  55.566 -10.869  1.00  0.00     0.035 C 
HETATM   10  C10 UNL     1       3.442  54.183 -10.426  1.00  0.00    -0.069 C 
HETATM   11  C11 UNL     1       2.694  53.421 -11.248  1.00  0.00     0.030 C 
HETATM   12  C12 UNL     1       2.350  52.009 -10.921  1.00  0.00     0.032 C 
HETATM   13  N1  UNL     1       1.639  51.206 -11.652  1.00  0.00    -0.271 N 
ATOM     14  H1  UNL     1       1.423  50.244 -11.392  1.00  0.00     0.194 HD
HETATM   15  C23 UNL     1       2.920  51.431  -9.642  1.00  0.00     0.060 C 
HETATM   16  C24 UNL     1       3.086  52.504  -8.580  1.00  0.00     0.020 C 
HETATM   17  C25 UNL     1       3.947  53.713  -9.055  1.00  0.00    -0.016 C 
HETATM   18  C26 UNL     1       5.417  53.263  -9.225  1.00  0.00     0.020 C 
HETATM   19  C27 UNL     1       3.807  54.866  -7.983  1.00  0.00     0.002 C 
HETATM   20  C28 UNL     1       4.368  54.501  -6.589  1.00  0.00     0.007 C 
HETATM   21  C29 UNL     1       5.384  55.495  -6.019  1.00  0.00     0.014 C 
HETATM   22  C30 UNL     1       4.977  56.987  -6.080  1.00  0.00     0.003 C 
HETATM   23  C31 UNL     1       6.284  57.820  -6.035  1.00  0.00     0.020 C 
ENDROOT
BRANCH   3  24
HETATM   24  O1  UNL     1       3.139  56.346  -4.525  1.00  0.00    -0.377 OA
HETATM   25  H2  UNL     1       3.682  55.810  -3.926  1.00  0.00     0.211 HD
ENDBRANCH   3  24
BRANCH  13  26
HETATM   26  O2  UNL     1       1.199  51.810 -12.841  1.00  0.00    -0.271 OA
BRANCH  26  27
HETATM   27  C13 UNL     1       0.104  51.055 -13.352  1.00  0.00     0.303 C 
BRANCH  27  28
HETATM   28  C14 UNL     1      -1.014  50.967 -12.322  1.00  0.00     0.243 C 
HETATM   29  O3  UNL     1      -0.996  50.177 -11.380  1.00  0.00    -0.271 OA
HETATM   30  N2  UNL     1      -2.096  51.789 -12.582  1.00  0.00    -0.356 N 
HETATM   31  H16 UNL     1      -2.149  52.234 -13.492  1.00  0.00     0.162 HD
BRANCH  30  32
HETATM   32  C15 UNL     1      -3.313  51.689 -11.794  1.00  0.00     0.159 C 
BRANCH  32  33
HETATM   33  C16 UNL     1      -3.749  53.048 -11.210  1.00  0.00     0.170 C 
BRANCH  33  34
HETATM   34  O4  UNL     1      -4.013  53.960 -12.288  1.00  0.00    -0.389 OA
HETATM   35  H20 UNL     1      -4.025  54.854 -11.901  1.00  0.00     0.210 HD
ENDBRANCH  33  34
BRANCH  33  36
HETATM   36  C17 UNL     1      -2.700  53.630 -10.299  1.00  0.00    -0.013 A 
HETATM   37  C18 UNL     1      -2.015  54.812 -10.599  1.00  0.00     0.013 A 
HETATM   38  C19 UNL     1      -1.023  55.276  -9.736  1.00  0.00     0.025 A 
HETATM   39  C20 UNL     1      -0.740  54.548  -8.587  1.00  0.00     0.005 A 
HETATM   40  C21 UNL     1       0.346  54.995  -7.657  1.00  0.00     0.068 C 
HETATM   41  N3  UNL     1      -1.393  53.404  -8.272  1.00  0.00    -0.369 N 
HETATM   42  C22 UNL     1      -2.340  52.968  -9.129  1.00  0.00     0.097 A 
ATOM     43  H3  UNL     1      -1.176  52.890  -7.417  1.00  0.00     0.165 HD
ENDBRANCH  33  36
ENDBRANCH  32  33
ENDBRANCH  30  32
ENDBRANCH  27  28
ENDBRANCH  26  27
ENDBRANCH  13  26
TORSDOF 8
ENDMDL
MODEL 4
REMARK minimizedAffinity -9.16972923
REMARK CNNscore 0.410714805
REMARK CNNaffinity 6.75323486
REMARK  8 active torsions:
REMARK  status: ('A' for Active; 'I' for Inactive)
REMARK    1  A    between atoms: C3_3  and  O1_4 
REMARK    2  A    between atoms: N1_14  and  O2_16 
REMARK    3  A    between atoms: O2_16  and  C13_17 
REMARK    4  A    between atoms: C13_17  and  C14_18 
REMARK       I    between atoms: C14_18  and  N2_20 
REMARK    5  A    between atoms: N2_20  and  C15_21 
REMARK    6  A    between atoms: C15_21  and  C16_22 
REMARK    7  A    between atoms: C16_22  and  O4_23 
REMARK    8  A    between atoms: C16_22  and  C17_24 
ROOT
HETATM    1  C1  UNL     1      -8.053  48.934 -24.055  1.00  0.00     0.015 C 
HETATM    2  C2  UNL     1      -7.286  49.286 -23.200  1.00  0.00    -0.078 C 
HETATM    3  C3  UNL     1      -6.360  49.721 -22.139  1.00  0.00     0.128 C 
HETATM    4  C4  UNL     1      -7.013  49.629 -20.757  1.00  0.00     0.052 C 
HETATM    5  C5  UNL     1      -5.823  49.724 -19.811  1.00  0.00     0.010 C 
HETATM    6  C6  UNL     1      -4.791  48.792 -20.451  1.00  0.00     0.002 C 
HETATM    7  C7  UNL     1      -3.322  49.030 -20.052  1.00  0.00    -0.004 C 
HETATM    8  C8  UNL     1      -3.121  48.939 -18.533  1.00  0.00     0.010 C 
HETATM    9  C9  UNL     1      -1.642  49.035 -18.176  1.00  0.00     0.035 C 
HETATM   10  C10 UNL     1      -0.995  50.283 -18.729  1.00  0.00    -0.069 C 
HETATM   11  C11 UNL     1      -0.210  51.031 -17.929  1.00  0.00     0.030 C 
HETATM   12  C12 UNL     1       0.547  52.207 -18.442  1.00  0.00     0.032 C 
HETATM   13  N1  UNL     1       1.324  52.980 -17.745  1.00  0.00    -0.271 N 
ATOM     14  H1  UNL     1       1.825  53.778 -18.133  1.00  0.00     0.194 HD
HETATM   15  C23 UNL     1       0.448  52.508 -19.923  1.00  0.00     0.060 C 
HETATM   16  C24 UNL     1      -0.903  52.095 -20.479  1.00  0.00     0.020 C 
HETATM   17  C25 UNL     1      -1.249  50.600 -20.209  1.00  0.00    -0.016 C 
HETATM   18  C26 UNL     1      -0.317  49.695 -21.049  1.00  0.00     0.020 C 
HETATM   19  C27 UNL     1      -2.770  50.375 -20.575  1.00  0.00     0.002 C 
HETATM   20  C28 UNL     1      -3.098  50.596 -22.070  1.00  0.00     0.007 C 
HETATM   21  C29 UNL     1      -3.823  49.433 -22.753  1.00  0.00     0.014 C 
HETATM   22  C30 UNL     1      -5.046  48.861 -21.997  1.00  0.00     0.003 C 
HETATM   23  C31 UNL     1      -5.254  47.407 -22.495  1.00  0.00     0.020 C 
ENDROOT
BRANCH   3  24
HETATM   24  O1  UNL     1      -6.070  51.104 -22.358  1.00  0.00    -0.377 OA
HETATM   25  H2  UNL     1      -5.824  51.189 -23.292  1.00  0.00     0.211 HD
ENDBRANCH   3  24
BRANCH  13  26
HETATM   26  O2  UNL     1       1.396  52.593 -16.397  1.00  0.00    -0.271 OA
BRANCH  26  27
HETATM   27  C13 UNL     1       2.763  52.364 -16.067  1.00  0.00     0.303 C 
BRANCH  27  28
HETATM   28  C14 UNL     1       2.889  51.807 -14.655  1.00  0.00     0.243 C 
HETATM   29  O3  UNL     1       3.768  51.013 -14.325  1.00  0.00    -0.271 OA
HETATM   30  N2  UNL     1       1.880  52.200 -13.795  1.00  0.00    -0.356 N 
HETATM   31  H16 UNL     1       1.066  52.658 -14.190  1.00  0.00     0.162 HD
BRANCH  30  32
HETATM   32  C15 UNL     1       1.761  51.612 -12.470  1.00  0.00     0.159 C 
BRANCH  32  33
HETATM   33  C16 UNL     1       1.602  52.677 -11.366  1.00  0.00     0.170 C 
BRANCH  33  34
HETATM   34  O4  UNL     1       0.918  53.818 -11.910  1.00  0.00    -0.389 OA
HETATM   35  H20 UNL     1       1.064  54.554 -11.288  1.00  0.00     0.210 HD
ENDBRANCH  33  34
BRANCH  33  36
HETATM   36  C17 UNL     1       2.931  53.105 -10.802  1.00  0.00    -0.013 A 
HETATM   37  C18 UNL     1       3.780  52.223 -10.125  1.00  0.00     0.013 A 
HETATM   38  C19 UNL     1       4.979  52.691  -9.588  1.00  0.00     0.025 A 
HETATM   39  C20 UNL     1       5.304  54.033  -9.743  1.00  0.00     0.005 A 
HETATM   40  C21 UNL     1       6.564  54.579  -9.145  1.00  0.00     0.068 C 
HETATM   41  N3  UNL     1       4.502  54.905 -10.399  1.00  0.00    -0.369 N 
HETATM   42  C22 UNL     1       3.341  54.431 -10.899  1.00  0.00     0.097 A 
ATOM     43  H3  UNL     1       4.765  55.884 -10.511  1.00  0.00     0.165 HD
ENDBRANCH  33  36
ENDBRANCH  32  33
ENDBRANCH  30  32
ENDBRANCH  27  28
ENDBRANCH  26  27
ENDBRANCH  13  26
TORSDOF 8
ENDMDL
MODEL 5
REMARK minimizedAffinity -8.03051281
REMARK CNNscore 0.375166774
REMARK CNNaffinity 6.13931847
REMARK  8 active torsions:
REMARK  status: ('A' for Active; 'I' for Inactive)
REMARK    1  A    between atoms: C3_3  and  O1_4 
REMARK    2  A    between atoms: N1_14  and  O2_16 
REMARK    3  A    between atoms: O2_16  and  C13_17 
REMARK    4  A    between atoms: C13_17  and  C14_18 
REMARK       I    between atoms: C14_18  and  N2_20 
REMARK    5  A    between atoms: N2_20  and  C15_21 
REMARK    6  A    between atoms: C15_21  and  C16_22 
REMARK    7  A    between atoms: C16_22  and  O4_23 
REMARK    8  A    between atoms: C16_22  and  C17_24 
ROOT
HETATM    1  C1  UNL     1       0.743  53.367 -21.061  1.00  0.00     0.015 C 
HETATM    2  C2  UNL     1      -0.134  52.599 -21.349  1.00  0.00    -0.078 C 
HETATM    3  C3  UNL     1      -1.204  51.653 -21.718  1.00  0.00     0.128 C 
HETATM    4  C4  UNL     1      -0.805  50.809 -22.931  1.00  0.00     0.052 C 
HETATM    5  C5  UNL     1      -1.819  49.674 -22.904  1.00  0.00     0.010 C 
HETATM    6  C6  UNL     1      -1.859  49.274 -21.426  1.00  0.00     0.002 C 
HETATM    7  C7  UNL     1      -3.118  48.520 -20.960  1.00  0.00    -0.004 C 
HETATM    8  C8  UNL     1      -3.349  47.238 -21.773  1.00  0.00     0.010 C 
HETATM    9  C9  UNL     1      -4.515  46.438 -21.201  1.00  0.00     0.035 C 
HETATM   10  C10 UNL     1      -5.784  47.252 -21.111  1.00  0.00    -0.069 C 
HETATM   11  C11 UNL     1      -6.941  46.723 -21.555  1.00  0.00     0.030 C 
HETATM   12  C12 UNL     1      -8.245  47.426 -21.390  1.00  0.00     0.032 C 
HETATM   13  N1  UNL     1      -9.403  46.992 -21.784  1.00  0.00    -0.271 N 
ATOM     14  H1  UNL     1     -10.275  47.504 -21.655  1.00  0.00     0.194 HD
HETATM   15  C23 UNL     1      -8.235  48.747 -20.651  1.00  0.00     0.060 C 
HETATM   16  C24 UNL     1      -6.924  49.486 -20.859  1.00  0.00     0.020 C 
HETATM   17  C25 UNL     1      -5.674  48.642 -20.469  1.00  0.00    -0.016 C 
HETATM   18  C26 UNL     1      -5.640  48.449 -18.935  1.00  0.00     0.020 C 
HETATM   19  C27 UNL     1      -4.389  49.398 -20.993  1.00  0.00     0.002 C 
HETATM   20  C28 UNL     1      -4.159  50.779 -20.336  1.00  0.00     0.007 C 
HETATM   21  C29 UNL     1      -2.771  50.981 -19.721  1.00  0.00     0.014 C 
HETATM   22  C30 UNL     1      -1.571  50.587 -20.618  1.00  0.00     0.003 C 
HETATM   23  C31 UNL     1      -0.373  50.296 -19.677  1.00  0.00     0.020 C 
ENDROOT
BRANCH   3  24
HETATM   24  O1  UNL     1      -2.341  52.422 -22.116  1.00  0.00    -0.377 OA
HETATM   25  H2  UNL     1      -2.486  53.081 -21.420  1.00  0.00     0.211 HD
ENDBRANCH   3  24
BRANCH  13  26
HETATM   26  O2  UNL     1      -9.321  45.737 -22.410  1.00  0.00    -0.271 OA
BRANCH  26  27
HETATM   27  C13 UNL     1     -10.626  45.168 -22.450  1.00  0.00     0.303 C 
BRANCH  27  28
HETATM   28  C14 UNL     1     -11.649  46.201 -22.902  1.00  0.00     0.243 C 
HETATM   29  O3  UNL     1     -11.434  47.005 -23.807  1.00  0.00    -0.271 OA
HETATM   30  N2  UNL     1     -12.811  46.220 -22.151  1.00  0.00    -0.356 N 
HETATM   31  H16 UNL     1     -12.826  45.698 -21.281  1.00  0.00     0.162 HD
BRANCH  30  32
HETATM   32  C15 UNL     1     -13.804  47.265 -22.343  1.00  0.00     0.159 C 
BRANCH  32  33
HETATM   33  C16 UNL     1     -15.077  46.745 -23.041  1.00  0.00     0.170 C 
BRANCH  33  34
HETATM   34  O4  UNL     1     -15.419  47.633 -24.117  1.00  0.00    -0.389 OA
HETATM   35  H20 UNL     1     -16.342  47.436 -24.359  1.00  0.00     0.210 HD
ENDBRANCH  33  34
BRANCH  33  36
HETATM   36  C17 UNL     1     -16.236  46.636 -22.085  1.00  0.00    -0.013 A 
HETATM   37  C18 UNL     1     -17.534  46.332 -22.508  1.00  0.00     0.013 A 
HETATM   38  C19 UNL     1     -18.574  46.289 -21.580  1.00  0.00     0.025 A 
HETATM   39  C20 UNL     1     -18.290  46.548 -20.245  1.00  0.00     0.005 A 
HETATM   40  C21 UNL     1     -19.388  46.550 -19.225  1.00  0.00     0.068 C 
HETATM   41  N3  UNL     1     -17.042  46.840 -19.809  1.00  0.00    -0.369 N 
HETATM   42  C22 UNL     1     -16.055  46.888 -20.729  1.00  0.00     0.097 A 
ATOM     43  H3  UNL     1     -16.854  47.017 -18.823  1.00  0.00     0.165 HD
ENDBRANCH  33  36
ENDBRANCH  32  33
ENDBRANCH  30  32
ENDBRANCH  27  28
ENDBRANCH  26  27
ENDBRANCH  13  26
TORSDOF 8
ENDMDL
MODEL 6
REMARK minimizedAffinity -9.17892551
REMARK CNNscore 0.34912163
REMARK CNNaffinity 7.05426359
REMARK  8 active torsions:
REMARK  status: ('A' for Active; 'I' for Inactive)
REMARK    1  A    between atoms: C3_3  and  O1_4 
REMARK    2  A    between atoms: N1_14  and  O2_16 
REMARK    3  A    between atoms: O2_16  and  C13_17 
REMARK    4  A    between atoms: C13_17  and  C14_18 
REMARK       I    between atoms: C14_18  and  N2_20 
REMARK    5  A    between atoms: N2_20  and  C15_21 
REMARK    6  A    between atoms: C15_21  and  C16_22 
REMARK    7  A    between atoms: C16_22  and  O4_23 
REMARK    8  A    between atoms: C16_22  and  C17_24 
ROOT
HETATM    1  C1  UNL     1      -8.116  49.102 -24.339  1.00  0.00     0.015 C 
HETATM    2  C2  UNL     1      -7.341  49.459 -23.492  1.00  0.00    -0.078 C 
HETATM    3  C3  UNL     1      -6.404  49.899 -22.442  1.00  0.00     0.128 C 
HETATM    4  C4  UNL     1      -7.050  49.830 -21.056  1.00  0.00     0.052 C 
HETATM    5  C5  UNL     1      -5.854  49.927 -20.118  1.00  0.00     0.010 C 
HETATM    6  C6  UNL     1      -4.833  48.977 -20.752  1.00  0.00     0.002 C 
HETATM    7  C7  UNL     1      -3.361  49.207 -20.365  1.00  0.00    -0.004 C 
HETATM    8  C8  UNL     1      -3.152  49.134 -18.845  1.00  0.00     0.010 C 
HETATM    9  C9  UNL     1      -1.669  49.221 -18.499  1.00  0.00     0.035 C 
HETATM   10  C10 UNL     1      -1.014  50.456 -19.071  1.00  0.00    -0.069 C 
HETATM   11  C11 UNL     1      -0.218  51.208 -18.285  1.00  0.00     0.030 C 
HETATM   12  C12 UNL     1       0.547  52.370 -18.818  1.00  0.00     0.032 C 
HETATM   13  N1  UNL     1       1.334  53.144 -18.136  1.00  0.00    -0.271 N 
ATOM     14  H1  UNL     1       1.840  53.933 -18.537  1.00  0.00     0.194 HD
HETATM   15  C23 UNL     1       0.441  52.652 -20.302  1.00  0.00     0.060 C 
HETATM   16  C24 UNL     1      -0.917  52.244 -20.845  1.00  0.00     0.020 C 
HETATM   17  C25 UNL     1      -1.275  50.756 -20.554  1.00  0.00    -0.016 C 
HETATM   18  C26 UNL     1      -0.356  49.833 -21.388  1.00  0.00     0.020 C 
HETATM   19  C27 UNL     1      -2.799  50.540 -20.908  1.00  0.00     0.002 C 
HETATM   20  C28 UNL     1      -3.134  50.745 -22.404  1.00  0.00     0.007 C 
HETATM   21  C29 UNL     1      -3.874  49.580 -23.068  1.00  0.00     0.014 C 
HETATM   22  C30 UNL     1      -5.098  49.029 -22.297  1.00  0.00     0.003 C 
HETATM   23  C31 UNL     1      -5.321  47.571 -22.776  1.00  0.00     0.020 C 
ENDROOT
BRANCH   3  24
HETATM   24  O1  UNL     1      -6.103  51.276 -22.680  1.00  0.00    -0.377 OA
HETATM   25  H2  UNL     1      -5.862  51.347 -23.617  1.00  0.00     0.211 HD
ENDBRANCH   3  24
BRANCH  13  26
HETATM   26  O2  UNL     1       1.411  52.774 -16.783  1.00  0.00    -0.271 OA
BRANCH  26  27
HETATM   27  C13 UNL     1       2.734  52.316 -16.516  1.00  0.00     0.303 C 
BRANCH  27  28
HETATM   28  C14 UNL     1       2.871  51.891 -15.061  1.00  0.00     0.243 C 
HETATM   29  O3  UNL     1       3.822  51.233 -14.642  1.00  0.00    -0.271 OA
HETATM   30  N2  UNL     1       1.794  52.230 -14.263  1.00  0.00    -0.356 N 
HETATM   31  H16 UNL     1       0.948  52.559 -14.716  1.00  0.00     0.162 HD
BRANCH  30  32
HETATM   32  C15 UNL     1       1.695  51.739 -12.898  1.00  0.00     0.159 C 
BRANCH  32  33
HETATM   33  C16 UNL     1       0.436  50.878 -12.673  1.00  0.00     0.170 C 
BRANCH  33  34
HETATM   34  O4  UNL     1      -0.002  50.347 -13.934  1.00  0.00    -0.389 OA
HETATM   35  H20 UNL     1      -0.918  50.040 -13.805  1.00  0.00     0.210 HD
ENDBRANCH  33  34
BRANCH  33  36
HETATM   36  C17 UNL     1      -0.680  51.668 -12.040  1.00  0.00    -0.013 A 
HETATM   37  C18 UNL     1      -0.774  51.864 -10.659  1.00  0.00     0.013 A 
HETATM   38  C19 UNL     1      -1.856  52.568 -10.131  1.00  0.00     0.025 A 
HETATM   39  C20 UNL     1      -2.820  53.065 -11.000  1.00  0.00     0.005 A 
HETATM   40  C21 UNL     1      -4.016  53.792 -10.466  1.00  0.00     0.068 C 
HETATM   41  N3  UNL     1      -2.749  52.893 -12.341  1.00  0.00    -0.369 N 
HETATM   42  C22 UNL     1      -1.699  52.197 -12.826  1.00  0.00     0.097 A 
ATOM     43  H3  UNL     1      -3.462  53.275 -12.961  1.00  0.00     0.165 HD
ENDBRANCH  33  36
ENDBRANCH  32  33
ENDBRANCH  30  32
ENDBRANCH  27  28
ENDBRANCH  26  27
ENDBRANCH  13  26
TORSDOF 8
ENDMDL
MODEL 7
REMARK minimizedAffinity -8.18563652
REMARK CNNscore 0.312687159
REMARK CNNaffinity 6.02489996
REMARK  8 active torsions:
REMARK  status: ('A' for Active; 'I' for Inactive)
REMARK    1  A    between atoms: C3_3  and  O1_4 
REMARK    2  A    between atoms: N1_14  and  O2_16 
REMARK    3  A    between atoms: O2_16  and  C13_17 
REMARK    4  A    between atoms: C13_17  and  C14_18 
REMARK       I    between atoms: C14_18  and  N2_20 
REMARK    5  A    between atoms: N2_20  and  C15_21 
REMARK    6  A    between atoms: C15_21  and  C16_22 
REMARK    7  A    between atoms: C16_22  and  O4_23 
REMARK    8  A    between atoms: C16_22  and  C17_24 
ROOT
HETATM    1  C1  UNL     1       0.438  53.289 -19.405  1.00  0.00     0.015 C 
HETATM    2  C2  UNL     1      -0.226  52.495 -20.016  1.00  0.00    -0.078 C 
HETATM    3  C3  UNL     1      -1.025  51.514 -20.772  1.00  0.00     0.128 C 
HETATM    4  C4  UNL     1      -0.159  50.353 -21.265  1.00  0.00     0.052 C 
HETATM    5  C5  UNL     1      -1.189  49.299 -21.649  1.00  0.00     0.010 C 
HETATM    6  C6  UNL     1      -2.177  49.331 -20.480  1.00  0.00     0.002 C 
HETATM    7  C7  UNL     1      -3.584  48.774 -20.763  1.00  0.00    -0.004 C 
HETATM    8  C8  UNL     1      -3.533  47.322 -21.261  1.00  0.00     0.010 C 
HETATM    9  C9  UNL     1      -4.938  46.746 -21.397  1.00  0.00     0.035 C 
HETATM   10  C10 UNL     1      -5.822  47.587 -22.288  1.00  0.00    -0.069 C 
HETATM   11  C11 UNL     1      -6.564  46.987 -23.239  1.00  0.00     0.030 C 
HETATM   12  C12 UNL     1      -7.540  47.743 -24.073  1.00  0.00     0.032 C 
HETATM   13  N1  UNL     1      -8.294  47.248 -25.007  1.00  0.00    -0.271 N 
ATOM     14  H1  UNL     1      -8.950  47.800 -25.559  1.00  0.00     0.194 HD
HETATM   15  C23 UNL     1      -7.713  49.218 -23.778  1.00  0.00     0.060 C 
HETATM   16  C24 UNL     1      -6.422  49.832 -23.264  1.00  0.00     0.020 C 
HETATM   17  C25 UNL     1      -5.844  49.098 -22.018  1.00  0.00    -0.016 C 
HETATM   18  C26 UNL     1      -6.769  49.343 -20.801  1.00  0.00     0.020 C 
HETATM   19  C27 UNL     1      -4.383  49.641 -21.762  1.00  0.00     0.002 C 
HETATM   20  C28 UNL     1      -4.324  51.145 -21.402  1.00  0.00     0.007 C 
HETATM   21  C29 UNL     1      -3.567  51.472 -20.111  1.00  0.00     0.014 C 
HETATM   22  C30 UNL     1      -2.176  50.810 -19.956  1.00  0.00     0.003 C 
HETATM   23  C31 UNL     1      -1.859  50.762 -18.439  1.00  0.00     0.020 C 
ENDROOT
BRANCH   3  24
HETATM   24  O1  UNL     1      -1.525  52.171 -21.939  1.00  0.00    -0.377 OA
HETATM   25  H2  UNL     1      -1.922  53.003 -21.638  1.00  0.00     0.211 HD
ENDBRANCH   3  24
BRANCH  13  26
HETATM   26  O2  UNL     1      -8.104  45.866 -25.173  1.00  0.00    -0.271 OA
BRANCH  26  27
HETATM   27  C13 UNL     1      -9.118  45.374 -26.045  1.00  0.00     0.303 C 
BRANCH  27  28
HETATM   28  C14 UNL     1     -10.480  45.422 -25.366  1.00  0.00     0.243 C 
HETATM   29  O3  UNL     1     -10.622  45.367 -24.146  1.00  0.00    -0.271 OA
HETATM   30  N2  UNL     1     -11.552  45.445 -26.239  1.00  0.00    -0.356 N 
HETATM   31  H16 UNL     1     -11.375  45.251 -27.219  1.00  0.00     0.162 HD
BRANCH  30  32
HETATM   32  C15 UNL     1     -12.914  45.312 -25.748  1.00  0.00     0.159 C 
BRANCH  32  33
HETATM   33  C16 UNL     1     -13.613  46.675 -25.574  1.00  0.00     0.170 C 
BRANCH  33  34
HETATM   34  O4  UNL     1     -13.060  47.343 -24.428  1.00  0.00    -0.389 OA
HETATM   35  H20 UNL     1     -13.682  48.055 -24.193  1.00  0.00     0.210 HD
ENDBRANCH  33  34
BRANCH  33  36
HETATM   36  C17 UNL     1     -15.102  46.526 -25.403  1.00  0.00    -0.013 A 
HETATM   37  C18 UNL     1     -15.814  47.185 -24.396  1.00  0.00     0.013 A 
HETATM   38  C19 UNL     1     -17.185  46.970 -24.263  1.00  0.00     0.025 A 
HETATM   39  C20 UNL     1     -17.816  46.103 -25.146  1.00  0.00     0.005 A 
HETATM   40  C21 UNL     1     -19.281  45.818 -25.009  1.00  0.00     0.068 C 
HETATM   41  N3  UNL     1     -17.150  45.457 -26.133  1.00  0.00    -0.369 N 
HETATM   42  C22 UNL     1     -15.821  45.671 -26.233  1.00  0.00     0.097 A 
ATOM     43  H3  UNL     1     -17.635  44.833 -26.777  1.00  0.00     0.165 HD
ENDBRANCH  33  36
ENDBRANCH  32  33
ENDBRANCH  30  32
ENDBRANCH  27  28
ENDBRANCH  26  27
ENDBRANCH  13  26
TORSDOF 8
ENDMDL
MODEL 8
REMARK minimizedAffinity -8.18655586
REMARK CNNscore 0.280146867
REMARK CNNaffinity 6.15788651
REMARK  8 active torsions:
REMARK  status: ('A' for Active; 'I' for Inactive)
REMARK    1  A    between atoms: C3_3  and  O1_4 
REMARK    2  A    between atoms: N1_14  and  O2_16 
REMARK    3  A    between atoms: O2_16  and  C13_17 
REMARK    4  A    between atoms: C13_17  and  C14_18 
REMARK       I    between atoms: C14_18  and  N2_20 
REMARK    5  A    between atoms: N2_20  and  C15_21 
REMARK    6  A    between atoms: C15_21  and  C16_22 
REMARK    7  A    between atoms: C16_22  and  O4_23 
REMARK    8  A    between atoms: C16_22  and  C17_24 
ROOT
HETATM    1  C1  UNL     1     -12.937  46.195 -40.700  1.00  0.00     0.015 C 
HETATM    2  C2  UNL     1     -12.579  46.463 -39.585  1.00  0.00    -0.078 C 
HETATM    3  C3  UNL     1     -12.155  46.802 -38.214  1.00  0.00     0.128 C 
HETATM    4  C4  UNL     1     -13.337  47.288 -37.371  1.00  0.00     0.052 C 
HETATM    5  C5  UNL     1     -12.799  47.201 -35.949  1.00  0.00     0.010 C 
HETATM    6  C6  UNL     1     -12.093  45.842 -35.923  1.00  0.00     0.002 C 
HETATM    7  C7  UNL     1     -11.026  45.652 -34.829  1.00  0.00    -0.004 C 
HETATM    8  C8  UNL     1     -11.602  45.880 -33.424  1.00  0.00     0.010 C 
HETATM    9  C9  UNL     1     -10.568  45.547 -32.355  1.00  0.00     0.035 C 
HETATM   10  C10 UNL     1      -9.281  46.315 -32.538  1.00  0.00    -0.069 C 
HETATM   11  C11 UNL     1      -8.716  46.922 -31.475  1.00  0.00     0.030 C 
HETATM   12  C12 UNL     1      -7.391  47.598 -31.564  1.00  0.00     0.032 C 
HETATM   13  N1  UNL     1      -6.775  48.204 -30.595  1.00  0.00    -0.271 N 
ATOM     14  H1  UNL     1      -5.867  48.658 -30.696  1.00  0.00     0.194 HD
HETATM   15  C23 UNL     1      -6.664  47.535 -32.891  1.00  0.00     0.060 C 
HETATM   16  C24 UNL     1      -7.642  47.487 -34.053  1.00  0.00     0.020 C 
HETATM   17  C25 UNL     1      -8.668  46.320 -33.946  1.00  0.00    -0.016 C 
HETATM   18  C26 UNL     1      -7.938  44.971 -34.144  1.00  0.00     0.020 C 
HETATM   19  C27 UNL     1      -9.786  46.549 -35.039  1.00  0.00     0.002 C 
HETATM   20  C28 UNL     1      -9.265  46.489 -36.494  1.00  0.00     0.007 C 
HETATM   21  C29 UNL     1     -10.012  45.515 -37.410  1.00  0.00     0.014 C 
HETATM   22  C30 UNL     1     -11.557  45.607 -37.378  1.00  0.00     0.003 C 
HETATM   23  C31 UNL     1     -12.107  44.239 -37.857  1.00  0.00     0.020 C 
ENDROOT
BRANCH   3  24
HETATM   24  O1  UNL     1     -11.243  47.899 -38.303  1.00  0.00    -0.377 OA
HETATM   25  H2  UNL     1     -10.588  47.659 -38.976  1.00  0.00     0.211 HD
ENDBRANCH   3  24
BRANCH  13  26
HETATM   26  O2  UNL     1      -7.499  48.165 -29.392  1.00  0.00    -0.271 OA
BRANCH  26  27
HETATM   27  C13 UNL     1      -6.731  47.451 -28.428  1.00  0.00     0.303 C 
BRANCH  27  28
HETATM   28  C14 UNL     1      -5.317  48.010 -28.346  1.00  0.00     0.243 C 
HETATM   29  O3  UNL     1      -4.502  47.907 -29.262  1.00  0.00    -0.271 OA
HETATM   30  N2  UNL     1      -4.994  48.567 -27.122  1.00  0.00    -0.356 N 
HETATM   31  H16 UNL     1      -5.624  48.408 -26.343  1.00  0.00     0.162 HD
BRANCH  30  32
HETATM   32  C15 UNL     1      -3.630  48.981 -26.830  1.00  0.00     0.159 C 
BRANCH  32  33
HETATM   33  C16 UNL     1      -3.364  50.448 -27.222  1.00  0.00     0.170 C 
BRANCH  33  34
HETATM   34  O4  UNL     1      -2.968  50.501 -28.602  1.00  0.00    -0.389 OA
HETATM   35  H20 UNL     1      -2.562  51.375 -28.743  1.00  0.00     0.210 HD
ENDBRANCH  33  34
BRANCH  33  36
HETATM   36  C17 UNL     1      -2.296  51.073 -26.364  1.00  0.00    -0.013 A 
HETATM   37  C18 UNL     1      -1.978  50.593 -25.089  1.00  0.00     0.013 A 
HETATM   38  C19 UNL     1      -1.009  51.244 -24.326  1.00  0.00     0.025 A 
HETATM   39  C20 UNL     1      -0.375  52.360 -24.857  1.00  0.00     0.005 A 
HETATM   40  C21 UNL     1       0.642  53.107 -24.051  1.00  0.00     0.068 C 
HETATM   41  N3  UNL     1      -0.661  52.841 -26.090  1.00  0.00    -0.369 N 
HETATM   42  C22 UNL     1      -1.612  52.202 -26.805  1.00  0.00     0.097 A 
ATOM     43  H3  UNL     1      -0.176  53.656 -26.466  1.00  0.00     0.165 HD
ENDBRANCH  33  36
ENDBRANCH  32  33
ENDBRANCH  30  32
ENDBRANCH  27  28
ENDBRANCH  26  27
ENDBRANCH  13  26
TORSDOF 8
ENDMDL
MODEL 9
REMARK minimizedAffinity -8.66447639
REMARK CNNscore 0.230606675
REMARK CNNaffinity 6.24331045
REMARK  8 active torsions:
REMARK  status: ('A' for Active; 'I' for Inactive)
REMARK    1  A    between atoms: C3_3  and  O1_4 
REMARK    2  A    between atoms: N1_14  and  O2_16 
REMARK    3  A    between atoms: O2_16  and  C13_17 
REMARK    4  A    between atoms: C13_17  and  C14_18 
REMARK       I    between atoms: C14_18  and  N2_20 
REMARK    5  A    between atoms: N2_20  and  C15_21 
REMARK    6  A    between atoms: C15_21  and  C16_22 
REMARK    7  A    between atoms: C16_22  and  O4_23 
REMARK    8  A    between atoms: C16_22  and  C17_24 
ROOT
HETATM    1  C1  UNL     1      -0.083  54.015 -27.450  1.00  0.00     0.015 C 
HETATM    2  C2  UNL     1      -0.800  53.174 -26.980  1.00  0.00    -0.078 C 
HETATM    3  C3  UNL     1      -1.678  52.131 -26.419  1.00  0.00     0.128 C 
HETATM    4  C4  UNL     1      -1.420  50.773 -27.077  1.00  0.00     0.052 C 
HETATM    5  C5  UNL     1      -2.099  49.798 -26.125  1.00  0.00     0.010 C 
HETATM    6  C6  UNL     1      -1.663  50.295 -24.744  1.00  0.00     0.002 C 
HETATM    7  C7  UNL     1      -2.548  49.870 -23.557  1.00  0.00    -0.004 C 
HETATM    8  C8  UNL     1      -2.675  48.342 -23.460  1.00  0.00     0.010 C 
HETATM    9  C9  UNL     1      -3.434  47.942 -22.199  1.00  0.00     0.035 C 
HETATM   10  C10 UNL     1      -4.791  48.600 -22.110  1.00  0.00    -0.069 C 
HETATM   11  C11 UNL     1      -5.867  47.855 -21.790  1.00  0.00     0.030 C 
HETATM   12  C12 UNL     1      -7.211  48.461 -21.573  1.00  0.00     0.032 C 
HETATM   13  N1  UNL     1      -8.297  47.821 -21.263  1.00  0.00    -0.271 N 
ATOM     14  H1  UNL     1      -9.201  48.273 -21.124  1.00  0.00     0.194 HD
HETATM   15  C23 UNL     1      -7.319  49.968 -21.673  1.00  0.00     0.060 C 
HETATM   16  C24 UNL     1      -6.316  50.528 -22.666  1.00  0.00     0.020 C 
HETATM   17  C25 UNL     1      -4.847  50.114 -22.356  1.00  0.00    -0.016 C 
HETATM   18  C26 UNL     1      -4.375  50.818 -21.061  1.00  0.00     0.020 C 
HETATM   19  C27 UNL     1      -3.953  50.511 -23.597  1.00  0.00     0.002 C 
HETATM   20  C28 UNL     1      -3.890  52.033 -23.867  1.00  0.00     0.007 C 
HETATM   21  C29 UNL     1      -2.477  52.615 -23.965  1.00  0.00     0.014 C 
HETATM   22  C30 UNL     1      -1.491  51.848 -24.880  1.00  0.00     0.003 C 
HETATM   23  C31 UNL     1      -0.057  52.197 -24.401  1.00  0.00     0.020 C 
ENDROOT
BRANCH   3  24
HETATM   24  O1  UNL     1      -3.027  52.484 -26.735  1.00  0.00    -0.377 OA
HETATM   25  H2  UNL     1      -3.136  53.412 -26.476  1.00  0.00     0.211 HD
ENDBRANCH   3  24
BRANCH  13  26
HETATM   26  O2  UNL     1      -8.089  46.438 -21.139  1.00  0.00    -0.271 OA
BRANCH  26  27
HETATM   27  C13 UNL     1      -8.983  45.934 -20.151  1.00  0.00     0.303 C 
BRANCH  27  28
HETATM   28  C14 UNL     1     -10.358  45.677 -20.753  1.00  0.00     0.243 C 
HETATM   29  O3  UNL     1     -10.609  44.701 -21.458  1.00  0.00    -0.271 OA
HETATM   30  N2  UNL     1     -11.282  46.678 -20.513  1.00  0.00    -0.356 N 
HETATM   31  H16 UNL     1     -10.948  47.556 -20.131  1.00  0.00     0.162 HD
BRANCH  30  32
HETATM   32  C15 UNL     1     -12.581  46.664 -21.168  1.00  0.00     0.159 C 
BRANCH  32  33
HETATM   33  C16 UNL     1     -13.459  47.862 -20.757  1.00  0.00     0.170 C 
BRANCH  33  34
HETATM   34  O4  UNL     1     -12.896  48.479 -19.587  1.00  0.00    -0.389 OA
HETATM   35  H20 UNL     1     -13.592  49.045 -19.207  1.00  0.00     0.210 HD
ENDBRANCH  33  34
BRANCH  33  36
HETATM   36  C17 UNL     1     -14.880  47.447 -20.476  1.00  0.00    -0.013 A 
HETATM   37  C18 UNL     1     -15.702  46.874 -21.451  1.00  0.00     0.013 A 
HETATM   38  C19 UNL     1     -17.023  46.552 -21.141  1.00  0.00     0.025 A 
HETATM   39  C20 UNL     1     -17.492  46.807 -19.859  1.00  0.00     0.005 A 
HETATM   40  C21 UNL     1     -18.916  46.511 -19.501  1.00  0.00     0.068 C 
HETATM   41  N3  UNL     1     -16.714  47.357 -18.896  1.00  0.00    -0.369 N 
HETATM   42  C22 UNL     1     -15.443  47.672 -19.224  1.00  0.00     0.097 A 
ATOM     43  H3  UNL     1     -17.075  47.527 -17.957  1.00  0.00     0.165 HD
ENDBRANCH  33  36
ENDBRANCH  32  33
ENDBRANCH  30  32
ENDBRANCH  27  28
ENDBRANCH  26  27
ENDBRANCH  13  26
TORSDOF 8
ENDMDL
