MODEL 1
REMARK minimizedAffinity -8.9903183
REMARK CNNscore 0.569372892
REMARK CNNaffinity 7.46906328
REMARK  14 active torsions:
REMARK  status: ('A' for Active; 'I' for Inactive)
REMARK    1  A    between atoms: O1_2  and  C2_3 
REMARK    2  A    between atoms: C8_9  and  O2_10 
REMARK    3  A    between atoms: O2_10  and  C9_11 
REMARK    4  A    between atoms: C10_13  and  C11_14 
REMARK    5  A    between atoms: C11_14  and  O4_15 
REMARK    6  A    between atoms: C12_16  and  O5_17 
REMARK    7  A    between atoms: C13_18  and  O6_19 
REMARK    8  A    between atoms: C14_20  and  O7_21 
REMARK    9  A    between atoms: C18_25  and  C19_26 
REMARK   10  A    between atoms: C24_32  and  C25_33 
REMARK   11  A    between atoms: C25_33  and  C27_35 
REMARK   12  A    between atoms: C27_35  and  C28_36 
REMARK   13  A    between atoms: C29_37  and  C30_38 
REMARK   14  A    between atoms: C30_38  and  O9_41 
ROOT
HETATM    1  C2  UNL     1       0.485  52.308 -19.051  1.00  0.00     0.149 C 
HETATM    2  C3  UNL     1       0.366  52.319 -17.552  1.00  0.00     0.009 C 
HETATM    3  C4  UNL     1       0.083  51.191 -16.874  1.00  0.00    -0.066 C 
HETATM    4  C5  UNL     1      -0.120  49.946 -17.729  1.00  0.00     0.031 C 
HETATM    5  C6  UNL     1      -0.408  48.690 -16.894  1.00  0.00     0.013 C 
HETATM    6  C7  UNL     1       0.572  48.614 -15.733  1.00  0.00     0.034 C 
HETATM    7  C8  UNL     1       0.307  49.723 -14.709  1.00  0.00     0.136 C 
HETATM    8  C15 UNL     1      -0.109  51.115 -15.346  1.00  0.00     0.002 C 
HETATM    9  C16 UNL     1      -1.593  51.446 -15.043  1.00  0.00     0.022 C 
HETATM   10  C17 UNL     1       0.716  52.206 -14.607  1.00  0.00     0.022 C 
HETATM   11  C18 UNL     1      -1.109  50.214 -18.928  1.00  0.00     0.027 C 
HETATM   12  C20 UNL     1      -1.175  48.947 -19.844  1.00  0.00     0.018 C 
HETATM   13  C21 UNL     1      -1.802  49.090 -21.243  1.00  0.00     0.011 C 
HETATM   14  C22 UNL     1      -1.823  50.519 -21.799  1.00  0.00    -0.032 C 
HETATM   15  C23 UNL     1      -3.191  51.177 -21.434  1.00  0.00     0.016 C 
HETATM   16  C24 UNL     1      -1.591  50.622 -23.339  1.00  0.00    -0.002 C 
HETATM   17  C33 UNL     1      -1.146  52.092 -23.529  1.00  0.00     0.006 C 
HETATM   18  C34 UNL     1      -0.705  52.603 -22.136  1.00  0.00     0.011 C 
HETATM   19  C35 UNL     1      -0.581  51.341 -21.254  1.00  0.00    -0.029 C 
HETATM   20  C36 UNL     1       0.825  50.735 -21.567  1.00  0.00     0.016 C 
HETATM   21  C37 UNL     1      -0.721  51.561 -19.705  1.00  0.00     0.043 C 
ENDROOT
BRANCH   7  22
HETATM   22  O2  UNL     1      -0.737  49.247 -13.836  1.00  0.00    -0.352 OA
BRANCH  22  23
HETATM   23  C9  UNL     1      -0.279  48.786 -12.559  1.00  0.00     0.292 C 
HETATM   24  O3  UNL     1      -1.281  47.927 -12.003  1.00  0.00    -0.348 OA
HETATM   25  C10 UNL     1      -2.324  48.583 -11.278  1.00  0.00     0.179 C 
HETATM   26  C12 UNL     1      -1.769  49.307 -10.035  1.00  0.00     0.180 C 
HETATM   27  C13 UNL     1      -0.302  49.737 -10.203  1.00  0.00     0.183 C 
HETATM   28  C14 UNL     1       0.071  50.000 -11.659  1.00  0.00     0.204 C 
BRANCH  25  29
HETATM   29  C11 UNL     1      -3.182  49.493 -12.172  1.00  0.00     0.198 C 
BRANCH  29  30
HETATM   30  O4  UNL     1      -3.697  48.765 -13.282  1.00  0.00    -0.398 OA
HETATM   31  H16 UNL     1      -4.156  49.409 -13.849  1.00  0.00     0.209 HD
ENDBRANCH  29  30
ENDBRANCH  25  29
BRANCH  26  32
HETATM   32  O5  UNL     1      -1.816  48.431  -8.888  1.00  0.00    -0.390 OA
HETATM   33  H18 UNL     1      -2.072  48.979  -8.119  1.00  0.00     0.210 HD
ENDBRANCH  26  32
BRANCH  27  34
HETATM   34  O6  UNL     1       0.598  48.744  -9.676  1.00  0.00    -0.390 OA
HETATM   35  H20 UNL     1       0.027  48.126  -9.164  1.00  0.00     0.210 HD
ENDBRANCH  27  34
BRANCH  28  36
HETATM   36  O7  UNL     1       1.469  50.313 -11.767  1.00  0.00    -0.388 OA
HETATM   37  H22 UNL     1       1.871  50.000 -10.926  1.00  0.00     0.210 HD
ENDBRANCH  28  36
ENDBRANCH  22  23
ENDBRANCH   7  22
BRANCH  11  38
HETATM   38  C19 UNL     1      -2.506  50.355 -18.290  1.00  0.00     0.241 C 
HETATM   39  O8  UNL     1      -3.104  51.408 -18.101  1.00  0.00    -0.306 OA
ENDBRANCH  11  38
BRANCH   1  40
HETATM   40  O1  UNL     1       0.524  53.658 -19.533  1.00  0.00    -0.386 OA
HETATM   41  C1  UNL     1       1.719  53.956 -20.250  1.00  0.00     0.202 C 
ENDBRANCH   1  40
BRANCH  16  42
HETATM   42  C25 UNL     1      -2.555  49.991 -24.391  1.00  0.00    -0.010 C 
HETATM   43  C26 UNL     1      -3.070  48.629 -23.889  1.00  0.00     0.010 C 
BRANCH  42  44
HETATM   44  C27 UNL     1      -2.171  49.882 -25.883  1.00  0.00     0.031 C 
BRANCH  44  45
HETATM   45  C28 UNL     1      -1.241  50.920 -26.446  1.00  0.00    -0.027 C 
HETATM   46  C29 UNL     1       0.097  50.796 -26.393  1.00  0.00     0.006 C 
BRANCH  46  47
HETATM   47  C30 UNL     1       1.127  51.730 -26.972  1.00  0.00     0.068 C 
HETATM   48  C31 UNL     1       2.526  51.310 -26.514  1.00  0.00     0.050 C 
HETATM   49  C32 UNL     1       1.113  51.873 -28.502  1.00  0.00     0.050 C 
BRANCH  47  50
HETATM   50  O9  UNL     1       0.860  53.012 -26.400  1.00  0.00    -0.387 OA
HETATM   51  H52 UNL     1       0.026  53.328 -26.792  1.00  0.00     0.211 HD
ENDBRANCH  47  50
ENDBRANCH  46  47
ENDBRANCH  44  45
ENDBRANCH  42  44
ENDBRANCH  16  42
TORSDOF 14
ENDMDL
MODEL 2
REMARK minimizedAffinity -8.11697578
REMARK CNNscore 0.390124887
REMARK CNNaffinity 6.96119833
REMARK  14 active torsions:
REMARK  status: ('A' for Active; 'I' for Inactive)
REMARK    1  A    between atoms: O1_2  and  C2_3 
REMARK    2  A    between atoms: C8_9  and  O2_10 
REMARK    3  A    between atoms: O2_10  and  C9_11 
REMARK    4  A    between atoms: C10_13  and  C11_14 
REMARK    5  A    between atoms: C11_14  and  O4_15 
REMARK    6  A    between atoms: C12_16  and  O5_17 
REMARK    7  A    between atoms: C13_18  and  O6_19 
REMARK    8  A    between atoms: C14_20  and  O7_21 
REMARK    9  A    between atoms: C18_25  and  C19_26 
REMARK   10  A    between atoms: C24_32  and  C25_33 
REMARK   11  A    between atoms: C25_33  and  C27_35 
REMARK   12  A    between atoms: C27_35  and  C28_36 
REMARK   13  A    between atoms: C29_37  and  C30_38 
REMARK   14  A    between atoms: C30_38  and  O9_41 
ROOT
HETATM    1  C2  UNL     1      -1.967  47.289 -16.743  1.00  0.00     0.149 C 
HETATM    2  C3  UNL     1      -2.786  47.289 -18.004  1.00  0.00     0.009 C 
HETATM    3  C4  UNL     1      -2.491  48.123 -19.019  1.00  0.00    -0.066 C 
HETATM    4  C5  UNL     1      -1.306  49.050 -18.780  1.00  0.00     0.031 C 
HETATM    5  C6  UNL     1      -1.003  49.953 -19.986  1.00  0.00     0.013 C 
HETATM    6  C7  UNL     1      -1.022  49.122 -21.261  1.00  0.00     0.034 C 
HETATM    7  C8  UNL     1      -2.440  48.644 -21.591  1.00  0.00     0.136 C 
HETATM    8  C15 UNL     1      -3.302  48.230 -20.326  1.00  0.00     0.002 C 
HETATM    9  C16 UNL     1      -4.454  49.238 -20.081  1.00  0.00     0.022 C 
HETATM   10  C17 UNL     1      -3.999  46.887 -20.683  1.00  0.00     0.022 C 
HETATM   11  C18 UNL     1      -1.407  49.781 -17.386  1.00  0.00     0.027 C 
HETATM   12  C20 UNL     1      -0.105  50.613 -17.138  1.00  0.00     0.018 C 
HETATM   13  C21 UNL     1       0.170  51.131 -15.714  1.00  0.00     0.011 C 
HETATM   14  C22 UNL     1      -0.553  50.367 -14.599  1.00  0.00    -0.032 C 
HETATM   15  C23 UNL     1      -1.902  51.090 -14.290  1.00  0.00     0.016 C 
HETATM   16  C24 UNL     1       0.266  50.212 -13.279  1.00  0.00    -0.002 C 
HETATM   17  C33 UNL     1      -0.426  49.021 -12.574  1.00  0.00     0.006 C 
HETATM   18  C34 UNL     1      -1.247  48.283 -13.659  1.00  0.00     0.011 C 
HETATM   19  C35 UNL     1      -0.749  48.847 -15.008  1.00  0.00    -0.029 C 
HETATM   20  C36 UNL     1       0.558  48.061 -15.347  1.00  0.00     0.016 C 
HETATM   21  C37 UNL     1      -1.749  48.742 -16.215  1.00  0.00     0.043 C 
ENDROOT
BRANCH   7  22
HETATM   22  O2  UNL     1      -3.090  49.718 -22.302  1.00  0.00    -0.352 OA
BRANCH  22  23
HETATM   23  C9  UNL     1      -2.479  50.056 -23.553  1.00  0.00     0.292 C 
HETATM   24  O3  UNL     1      -2.143  51.449 -23.529  1.00  0.00    -0.348 OA
HETATM   25  C10 UNL     1      -3.189  52.343 -23.914  1.00  0.00     0.179 C 
HETATM   26  C12 UNL     1      -3.603  52.118 -25.382  1.00  0.00     0.180 C 
HETATM   27  C13 UNL     1      -3.352  50.677 -25.857  1.00  0.00     0.183 C 
HETATM   28  C14 UNL     1      -3.423  49.662 -24.719  1.00  0.00     0.204 C 
BRANCH  25  29
HETATM   29  C11 UNL     1      -4.378  52.313 -22.941  1.00  0.00     0.198 C 
BRANCH  29  30
HETATM   30  O4  UNL     1      -5.610  52.324 -23.653  1.00  0.00    -0.398 OA
HETATM   31  H16 UNL     1      -6.317  52.390 -22.987  1.00  0.00     0.209 HD
ENDBRANCH  29  30
ENDBRANCH  25  29
BRANCH  26  32
HETATM   32  O5  UNL     1      -2.838  52.981 -26.252  1.00  0.00    -0.390 OA
HETATM   33  H18 UNL     1      -3.445  53.293 -26.953  1.00  0.00     0.210 HD
ENDBRANCH  26  32
BRANCH  27  34
HETATM   34  O6  UNL     1      -2.068  50.554 -26.497  1.00  0.00    -0.390 OA
HETATM   35  H20 UNL     1      -1.761  51.479 -26.638  1.00  0.00     0.210 HD
ENDBRANCH  27  34
BRANCH  28  36
HETATM   36  O7  UNL     1      -3.097  48.349 -25.202  1.00  0.00    -0.388 OA
HETATM   37  H22 UNL     1      -2.642  48.494 -26.062  1.00  0.00     0.210 HD
ENDBRANCH  28  36
ENDBRANCH  22  23
ENDBRANCH   7  22
BRANCH  11  38
HETATM   38  C19 UNL     1      -2.549  50.806 -17.536  1.00  0.00     0.241 C 
HETATM   39  O8  UNL     1      -2.455  51.912 -18.056  1.00  0.00    -0.306 OA
ENDBRANCH  11  38
BRANCH   1  40
HETATM   40  O1  UNL     1      -2.641  46.516 -15.740  1.00  0.00    -0.386 OA
HETATM   41  C1  UNL     1      -4.059  46.627 -15.816  1.00  0.00     0.202 C 
ENDBRANCH   1  40
BRANCH  16  42
HETATM   42  C25 UNL     1       0.729  51.426 -12.414  1.00  0.00    -0.010 C 
HETATM   43  C26 UNL     1      -0.271  52.589 -12.556  1.00  0.00     0.010 C 
BRANCH  42  44
HETATM   44  C27 UNL     1       2.172  51.972 -12.486  1.00  0.00     0.031 C 
BRANCH  44  45
HETATM   45  C28 UNL     1       2.576  53.021 -11.489  1.00  0.00    -0.027 C 
HETATM   46  C29 UNL     1       3.480  52.790 -10.521  1.00  0.00     0.006 C 
BRANCH  46  47
HETATM   47  C30 UNL     1       4.009  53.771  -9.508  1.00  0.00     0.068 C 
HETATM   48  C31 UNL     1       4.634  53.018  -8.331  1.00  0.00     0.050 C 
HETATM   49  C32 UNL     1       5.014  54.804 -10.042  1.00  0.00     0.050 C 
BRANCH  47  50
HETATM   50  O9  UNL     1       2.869  54.473  -9.007  1.00  0.00    -0.387 OA
HETATM   51  H52 UNL     1       2.550  55.045  -9.728  1.00  0.00     0.211 HD
ENDBRANCH  47  50
ENDBRANCH  46  47
ENDBRANCH  44  45
ENDBRANCH  42  44
ENDBRANCH  16  42
TORSDOF 14
ENDMDL
MODEL 3
REMARK minimizedAffinity -8.76050568
REMARK CNNscore 0.366632223
REMARK CNNaffinity 7.21112585
REMARK  14 active torsions:
REMARK  status: ('A' for Active; 'I' for Inactive)
REMARK    1  A    between atoms: O1_2  and  C2_3 
REMARK    2  A    between atoms: C8_9  and  O2_10 
REMARK    3  A    between atoms: O2_10  and  C9_11 
REMARK    4  A    between atoms: C10_13  and  C11_14 
REMARK    5  A    between atoms: C11_14  and  O4_15 
REMARK    6  A    between atoms: C12_16  and  O5_17 
REMARK    7  A    between atoms: C13_18  and  O6_19 
REMARK    8  A    between atoms: C14_20  and  O7_21 
REMARK    9  A    between atoms: C18_25  and  C19_26 
REMARK   10  A    between atoms: C24_32  and  C25_33 
REMARK   11  A    between atoms: C25_33  and  C27_35 
REMARK   12  A    between atoms: C27_35  and  C28_36 
REMARK   13  A    between atoms: C29_37  and  C30_38 
REMARK   14  A    between atoms: C30_38  and  O9_41 
ROOT
HETATM    1  C2  UNL     1       0.489  51.931 -18.581  1.00  0.00     0.149 C 
HETATM    2  C3  UNL     1       0.571  51.966 -17.080  1.00  0.00     0.009 C 
HETATM    3  C4  UNL     1       0.251  50.884 -16.346  1.00  0.00    -0.066 C 
HETATM    4  C5  UNL     1      -0.207  49.667 -17.139  1.00  0.00     0.031 C 
HETATM    5  C6  UNL     1      -0.527  48.459 -16.246  1.00  0.00     0.013 C 
HETATM    6  C7  UNL     1       0.584  48.275 -15.221  1.00  0.00     0.034 C 
HETATM    7  C8  UNL     1       0.588  49.415 -14.197  1.00  0.00     0.136 C 
HETATM    8  C15 UNL     1       0.256  50.842 -14.804  1.00  0.00     0.002 C 
HETATM    9  C16 UNL     1      -1.126  51.348 -14.318  1.00  0.00     0.022 C 
HETATM   10  C17 UNL     1       1.293  51.832 -14.205  1.00  0.00     0.022 C 
HETATM   11  C18 UNL     1      -1.308  50.042 -18.204  1.00  0.00     0.027 C 
HETATM   12  C20 UNL     1      -1.642  48.785 -19.075  1.00  0.00     0.018 C 
HETATM   13  C21 UNL     1      -2.428  48.992 -20.382  1.00  0.00     0.011 C 
HETATM   14  C22 UNL     1      -2.356  50.409 -20.963  1.00  0.00    -0.032 C 
HETATM   15  C23 UNL     1      -3.578  51.228 -20.437  1.00  0.00     0.016 C 
HETATM   16  C24 UNL     1      -2.320  50.474 -22.522  1.00  0.00    -0.002 C 
HETATM   17  C33 UNL     1      -1.736  51.880 -22.802  1.00  0.00     0.006 C 
HETATM   18  C34 UNL     1      -1.057  52.344 -21.490  1.00  0.00     0.011 C 
HETATM   19  C35 UNL     1      -0.965  51.082 -20.604  1.00  0.00    -0.029 C 
HETATM   20  C36 UNL     1       0.307  50.311 -21.084  1.00  0.00     0.016 C 
HETATM   21  C37 UNL     1      -0.872  51.328 -19.055  1.00  0.00     0.043 C 
ENDROOT
BRANCH   7  22
HETATM   22  O2  UNL     1      -0.380  49.072 -13.184  1.00  0.00    -0.352 OA
BRANCH  22  23
HETATM   23  C9  UNL     1      -1.253  50.146 -12.810  1.00  0.00     0.292 C 
HETATM   24  O3  UNL     1      -0.726  50.766 -11.631  1.00  0.00    -0.348 OA
HETATM   25  C10 UNL     1      -1.106  50.161 -10.393  1.00  0.00     0.179 C 
HETATM   26  C12 UNL     1      -2.629  50.251 -10.173  1.00  0.00     0.180 C 
HETATM   27  C13 UNL     1      -3.418  50.311 -11.492  1.00  0.00     0.183 C 
HETATM   28  C14 UNL     1      -2.698  49.610 -12.640  1.00  0.00     0.204 C 
BRANCH  25  29
HETATM   29  C11 UNL     1      -0.558  48.733 -10.242  1.00  0.00     0.198 C 
BRANCH  29  30
HETATM   30  O4  UNL     1      -1.535  47.880  -9.656  1.00  0.00    -0.398 OA
HETATM   31  H16 UNL     1      -1.103  47.020  -9.510  1.00  0.00     0.209 HD
ENDBRANCH  29  30
ENDBRANCH  25  29
BRANCH  26  32
HETATM   32  O5  UNL     1      -2.955  51.452  -9.439  1.00  0.00    -0.390 OA
HETATM   33  H18 UNL     1      -3.673  51.221  -8.816  1.00  0.00     0.210 HD
ENDBRANCH  26  32
BRANCH  27  34
HETATM   34  O6  UNL     1      -3.681  51.672 -11.882  1.00  0.00    -0.390 OA
HETATM   35  H20 UNL     1      -3.450  52.215 -11.094  1.00  0.00     0.210 HD
ENDBRANCH  27  34
BRANCH  28  36
HETATM   36  O7  UNL     1      -3.436  49.771 -13.863  1.00  0.00    -0.388 OA
HETATM   37  H22 UNL     1      -4.052  50.519 -13.698  1.00  0.00     0.210 HD
ENDBRANCH  28  36
ENDBRANCH  22  23
ENDBRANCH   7  22
BRANCH  11  38
HETATM   38  C19 UNL     1      -2.582  50.351 -17.392  1.00  0.00     0.241 C 
HETATM   39  O8  UNL     1      -3.058  51.466 -17.203  1.00  0.00    -0.306 OA
ENDBRANCH  11  38
BRANCH   1  40
HETATM   40  O1  UNL     1       0.620  53.263 -19.095  1.00  0.00    -0.386 OA
HETATM   41  C1  UNL     1       1.805  53.445 -19.866  1.00  0.00     0.202 C 
ENDBRANCH   1  40
BRANCH  16  42
HETATM   42  C25 UNL     1      -3.482  49.954 -23.424  1.00  0.00    -0.010 C 
HETATM   43  C26 UNL     1      -3.299  48.452 -23.712  1.00  0.00     0.010 C 
BRANCH  42  44
HETATM   44  C27 UNL     1      -3.891  50.685 -24.722  1.00  0.00     0.031 C 
BRANCH  44  45
HETATM   45  C28 UNL     1      -2.820  50.966 -25.737  1.00  0.00    -0.027 C 
HETATM   46  C29 UNL     1      -2.426  52.215 -26.046  1.00  0.00     0.006 C 
BRANCH  46  47
HETATM   47  C30 UNL     1      -1.328  52.621 -26.994  1.00  0.00     0.068 C 
HETATM   48  C31 UNL     1      -0.276  53.447 -26.248  1.00  0.00     0.050 C 
HETATM   49  C32 UNL     1      -0.635  51.472 -27.743  1.00  0.00     0.050 C 
BRANCH  47  50
HETATM   50  O9  UNL     1      -1.939  53.481 -27.957  1.00  0.00    -0.387 OA
HETATM   51  H52 UNL     1      -2.516  52.923 -28.509  1.00  0.00     0.211 HD
ENDBRANCH  47  50
ENDBRANCH  46  47
ENDBRANCH  44  45
ENDBRANCH  42  44
ENDBRANCH  16  42
TORSDOF 14
ENDMDL
MODEL 4
REMARK minimizedAffinity -9.42061043
REMARK CNNscore 0.364868134
REMARK CNNaffinity 7.09404707
REMARK  14 active torsions:
REMARK  status: ('A' for Active; 'I' for Inactive)
REMARK    1  A    between atoms: O1_2  and  C2_3 
REMARK    2  A    between atoms: C8_9  and  O2_10 
REMARK    3  A    between atoms: O2_10  and  C9_11 
REMARK    4  A    between atoms: C10_13  and  C11_14 
REMARK    5  A    between atoms: C11_14  and  O4_15 
REMARK    6  A    between atoms: C12_16  and  O5_17 
REMARK    7  A    between atoms: C13_18  and  O6_19 
REMARK    8  A    between atoms: C14_20  and  O7_21 
REMARK    9  A    between atoms: C18_25  and  C19_26 
REMARK   10  A    between atoms: C24_32  and  C25_33 
REMARK   11  A    between atoms: C25_33  and  C27_35 
REMARK   12  A    between atoms: C27_35  and  C28_36 
REMARK   13  A    between atoms: C29_37  and  C30_38 
REMARK   14  A    between atoms: C30_38  and  O9_41 
ROOT
HETATM    1  C2  UNL     1      -3.543  47.355 -20.561  1.00  0.00     0.149 C 
HETATM    2  C3  UNL     1      -4.836  47.062 -21.271  1.00  0.00     0.009 C 
HETATM    3  C4  UNL     1      -5.133  47.663 -22.438  1.00  0.00    -0.066 C 
HETATM    4  C5  UNL     1      -4.090  48.646 -22.953  1.00  0.00     0.031 C 
HETATM    5  C6  UNL     1      -4.475  49.272 -24.302  1.00  0.00     0.013 C 
HETATM    6  C7  UNL     1      -4.966  48.184 -25.246  1.00  0.00     0.034 C 
HETATM    7  C8  UNL     1      -6.312  47.614 -24.784  1.00  0.00     0.136 C 
HETATM    8  C15 UNL     1      -6.454  47.466 -23.211  1.00  0.00     0.002 C 
HETATM    9  C16 UNL     1      -7.483  48.477 -22.645  1.00  0.00     0.022 C 
HETATM   10  C17 UNL     1      -7.068  46.061 -22.951  1.00  0.00     0.022 C 
HETATM   11  C18 UNL     1      -3.638  49.660 -21.832  1.00  0.00     0.027 C 
HETATM   12  C20 UNL     1      -2.476  50.555 -22.376  1.00  0.00     0.018 C 
HETATM   13  C21 UNL     1      -1.653  51.375 -21.366  1.00  0.00     0.011 C 
HETATM   14  C22 UNL     1      -1.696  50.856 -19.924  1.00  0.00    -0.032 C 
HETATM   15  C23 UNL     1      -2.838  51.598 -19.159  1.00  0.00     0.016 C 
HETATM   16  C24 UNL     1      -0.358  51.010 -19.136  1.00  0.00    -0.002 C 
HETATM   17  C33 UNL     1      -0.508  49.985 -17.986  1.00  0.00     0.006 C 
HETATM   18  C34 UNL     1      -1.634  49.011 -18.408  1.00  0.00     0.011 C 
HETATM   19  C35 UNL     1      -1.871  49.279 -19.910  1.00  0.00    -0.029 C 
HETATM   20  C36 UNL     1      -0.773  48.468 -20.671  1.00  0.00     0.016 C 
HETATM   21  C37 UNL     1      -3.287  48.892 -20.470  1.00  0.00     0.043 C 
ENDROOT
BRANCH   7  22
HETATM   22  O2  UNL     1      -7.336  48.493 -25.291  1.00  0.00    -0.352 OA
BRANCH  22  23
HETATM   23  C9  UNL     1      -8.504  47.822 -25.782  1.00  0.00     0.292 C 
HETATM   24  O3  UNL     1      -8.090  46.616 -26.434  1.00  0.00    -0.348 OA
HETATM   25  C10 UNL     1      -7.714  46.753 -27.807  1.00  0.00     0.179 C 
HETATM   26  C12 UNL     1      -8.908  47.213 -28.667  1.00  0.00     0.180 C 
HETATM   27  C13 UNL     1      -9.937  48.031 -27.869  1.00  0.00     0.183 C 
HETATM   28  C14 UNL     1      -9.311  48.780 -26.697  1.00  0.00     0.204 C 
BRANCH  25  29
HETATM   29  C11 UNL     1      -6.465  47.628 -27.992  1.00  0.00     0.198 C 
BRANCH  29  30
HETATM   30  O4  UNL     1      -6.663  48.571 -29.040  1.00  0.00    -0.398 OA
HETATM   31  H16 UNL     1      -5.816  49.033 -29.163  1.00  0.00     0.209 HD
ENDBRANCH  29  30
ENDBRANCH  25  29
BRANCH  26  32
HETATM   32  O5  UNL     1      -9.610  46.066 -29.197  1.00  0.00    -0.390 OA
HETATM   33  H18 UNL     1      -9.878  46.290 -30.110  1.00  0.00     0.210 HD
ENDBRANCH  26  32
BRANCH  27  34
HETATM   34  O6  UNL     1     -10.992  47.192 -27.362  1.00  0.00    -0.390 OA
HETATM   35  H20 UNL     1     -10.881  46.331 -27.826  1.00  0.00     0.210 HD
ENDBRANCH  27  34
BRANCH  28  36
HETATM   36  O7  UNL     1     -10.326  49.456 -25.938  1.00  0.00    -0.388 OA
HETATM   37  H22 UNL     1     -11.174  49.031 -26.201  1.00  0.00     0.210 HD
ENDBRANCH  28  36
ENDBRANCH  22  23
ENDBRANCH   7  22
BRANCH  11  38
HETATM   38  C19 UNL     1      -4.839  50.602 -21.616  1.00  0.00     0.241 C 
HETATM   39  O8  UNL     1      -5.597  50.586 -20.652  1.00  0.00    -0.306 OA
ENDBRANCH  11  38
BRANCH   1  40
HETATM   40  O1  UNL     1      -3.593  46.804 -19.238  1.00  0.00    -0.386 OA
HETATM   41  C1  UNL     1      -3.771  45.390 -19.234  1.00  0.00     0.202 C 
ENDBRANCH   1  40
BRANCH  16  42
HETATM   42  C25 UNL     1       0.294  52.392 -18.823  1.00  0.00    -0.010 C 
HETATM   43  C26 UNL     1       0.436  53.216 -20.118  1.00  0.00     0.010 C 
BRANCH  42  44
HETATM   44  C27 UNL     1       1.590  52.510 -17.990  1.00  0.00     0.031 C 
BRANCH  44  45
HETATM   45  C28 UNL     1       1.624  51.836 -16.647  1.00  0.00    -0.027 C 
HETATM   46  C29 UNL     1       1.116  52.404 -15.539  1.00  0.00     0.006 C 
BRANCH  46  47
HETATM   47  C30 UNL     1       1.036  51.808 -14.158  1.00  0.00     0.068 C 
HETATM   48  C31 UNL     1      -0.095  50.778 -14.102  1.00  0.00     0.050 C 
HETATM   49  C32 UNL     1       2.331  51.172 -13.630  1.00  0.00     0.050 C 
BRANCH  47  50
HETATM   50  O9  UNL     1       0.676  52.882 -13.287  1.00  0.00    -0.387 OA
HETATM   51  H52 UNL     1       1.450  53.472 -13.231  1.00  0.00     0.211 HD
ENDBRANCH  47  50
ENDBRANCH  46  47
ENDBRANCH  44  45
ENDBRANCH  42  44
ENDBRANCH  16  42
TORSDOF 14
ENDMDL
MODEL 5
REMARK minimizedAffinity -8.17581844
REMARK CNNscore 0.339271188
REMARK CNNaffinity 6.98256159
REMARK  14 active torsions:
REMARK  status: ('A' for Active; 'I' for Inactive)
REMARK    1  A    between atoms: O1_2  and  C2_3 
REMARK    2  A    between atoms: C8_9  and  O2_10 
REMARK    3  A    between atoms: O2_10  and  C9_11 
REMARK    4  A    between atoms: C10_13  and  C11_14 
REMARK    5  A    between atoms: C11_14  and  O4_15 
REMARK    6  A    between atoms: C12_16  and  O5_17 
REMARK    7  A    between atoms: C13_18  and  O6_19 
REMARK    8  A    between atoms: C14_20  and  O7_21 
REMARK    9  A    between atoms: C18_25  and  C19_26 
REMARK   10  A    between atoms: C24_32  and  C25_33 
REMARK   11  A    between atoms: C25_33  and  C27_35 
REMARK   12  A    between atoms: C27_35  and  C28_36 
REMARK   13  A    between atoms: C29_37  and  C30_38 
REMARK   14  A    between atoms: C30_38  and  O9_41 
ROOT
HETATM    1  C2  UNL     1       0.193  51.590 -19.036  1.00  0.00     0.149 C 
HETATM    2  C3  UNL     1       0.680  51.838 -17.635  1.00  0.00     0.009 C 
HETATM    3  C4  UNL     1       0.607  50.874 -16.698  1.00  0.00    -0.066 C 
HETATM    4  C5  UNL     1      -0.009  49.559 -17.159  1.00  0.00     0.031 C 
HETATM    5  C6  UNL     1      -0.034  48.492 -16.054  1.00  0.00     0.013 C 
HETATM    6  C7  UNL     1       1.319  48.448 -15.358  1.00  0.00     0.034 C 
HETATM    7  C8  UNL     1       1.564  49.722 -14.542  1.00  0.00     0.136 C 
HETATM    8  C15 UNL     1       1.033  51.050 -15.226  1.00  0.00     0.002 C 
HETATM    9  C16 UNL     1      -0.180  51.630 -14.455  1.00  0.00     0.022 C 
HETATM   10  C17 UNL     1       2.161  52.109 -15.077  1.00  0.00     0.022 C 
HETATM   11  C18 UNL     1      -1.371  49.786 -17.922  1.00  0.00     0.027 C 
HETATM   12  C20 UNL     1      -1.888  48.421 -18.485  1.00  0.00     0.018 C 
HETATM   13  C21 UNL     1      -3.006  48.444 -19.543  1.00  0.00     0.011 C 
HETATM   14  C22 UNL     1      -3.141  49.764 -20.311  1.00  0.00    -0.032 C 
HETATM   15  C23 UNL     1      -4.200  50.657 -19.590  1.00  0.00     0.016 C 
HETATM   16  C24 UNL     1      -3.534  49.606 -21.814  1.00  0.00    -0.002 C 
HETATM   17  C33 UNL     1      -3.094  50.954 -22.435  1.00  0.00     0.006 C 
HETATM   18  C34 UNL     1      -2.100  51.595 -21.437  1.00  0.00     0.011 C 
HETATM   19  C35 UNL     1      -1.728  50.472 -20.444  1.00  0.00    -0.029 C 
HETATM   20  C36 UNL     1      -0.611  49.632 -21.143  1.00  0.00     0.016 C 
HETATM   21  C37 UNL     1      -1.225  50.935 -19.030  1.00  0.00     0.043 C 
ENDROOT
BRANCH   7  22
HETATM   22  O2  UNL     1       0.920  49.533 -13.265  1.00  0.00    -0.352 OA
BRANCH  22  23
HETATM   23  C9  UNL     1       1.747  48.918 -12.269  1.00  0.00     0.292 C 
HETATM   24  O3  UNL     1       1.131  49.110 -10.990  1.00  0.00    -0.348 OA
HETATM   25  C10 UNL     1       1.437  50.345 -10.337  1.00  0.00     0.179 C 
HETATM   26  C12 UNL     1       2.941  50.444 -10.009  1.00  0.00     0.180 C 
HETATM   27  C13 UNL     1       3.816  49.630 -10.977  1.00  0.00     0.183 C 
HETATM   28  C14 UNL     1       3.187  49.488 -12.360  1.00  0.00     0.204 C 
BRANCH  25  29
HETATM   29  C11 UNL     1       0.905  51.566 -11.103  1.00  0.00     0.198 C 
BRANCH  29  30
HETATM   30  O4  UNL     1      -0.486  51.742 -10.864  1.00  0.00    -0.398 OA
HETATM   31  H16 UNL     1      -0.777  52.472 -11.438  1.00  0.00     0.209 HD
ENDBRANCH  29  30
ENDBRANCH  25  29
BRANCH  26  32
HETATM   32  O5  UNL     1       3.196  49.927  -8.684  1.00  0.00    -0.390 OA
HETATM   33  H18 UNL     1       3.874  50.502  -8.277  1.00  0.00     0.210 HD
ENDBRANCH  26  32
BRANCH  27  34
HETATM   34  O6  UNL     1       4.080  48.312 -10.460  1.00  0.00    -0.390 OA
HETATM   35  H20 UNL     1       3.788  48.340  -9.520  1.00  0.00     0.210 HD
ENDBRANCH  27  34
BRANCH  28  36
HETATM   36  O7  UNL     1       4.002  48.649 -13.194  1.00  0.00    -0.388 OA
HETATM   37  H22 UNL     1       4.593  48.163 -12.576  1.00  0.00     0.210 HD
ENDBRANCH  28  36
ENDBRANCH  22  23
ENDBRANCH   7  22
BRANCH  11  38
HETATM   38  C19 UNL     1      -2.385  50.216 -16.843  1.00  0.00     0.241 C 
HETATM   39  O8  UNL     1      -2.871  51.335 -16.723  1.00  0.00    -0.306 OA
ENDBRANCH  11  38
BRANCH   1  40
HETATM   40  O1  UNL     1       0.136  52.835 -19.745  1.00  0.00    -0.386 OA
HETATM   41  C1  UNL     1       1.383  53.194 -20.334  1.00  0.00     0.202 C 
ENDBRANCH   1  40
BRANCH  16  42
HETATM   42  C25 UNL     1      -4.880  48.971 -22.282  1.00  0.00    -0.010 C 
HETATM   43  C26 UNL     1      -4.779  47.435 -22.256  1.00  0.00     0.010 C 
BRANCH  42  44
HETATM   44  C27 UNL     1      -5.582  49.423 -23.582  1.00  0.00     0.031 C 
BRANCH  44  45
HETATM   45  C28 UNL     1      -4.726  49.682 -24.789  1.00  0.00    -0.027 C 
HETATM   46  C29 UNL     1      -4.473  48.737 -25.712  1.00  0.00     0.006 C 
BRANCH  46  47
HETATM   47  C30 UNL     1      -3.687  48.890 -26.988  1.00  0.00     0.068 C 
HETATM   48  C31 UNL     1      -4.446  48.240 -28.148  1.00  0.00     0.050 C 
HETATM   49  C32 UNL     1      -3.309  50.330 -27.370  1.00  0.00     0.050 C 
BRANCH  47  50
HETATM   50  O9  UNL     1      -2.482  48.145 -26.798  1.00  0.00    -0.387 OA
HETATM   51  H52 UNL     1      -1.947  48.634 -26.147  1.00  0.00     0.211 HD
ENDBRANCH  47  50
ENDBRANCH  46  47
ENDBRANCH  44  45
ENDBRANCH  42  44
ENDBRANCH  16  42
TORSDOF 14
ENDMDL
MODEL 6
REMARK minimizedAffinity -8.28259754
REMARK CNNscore 0.306273878
REMARK CNNaffinity 6.80447912
REMARK  14 active torsions:
REMARK  status: ('A' for Active; 'I' for Inactive)
REMARK    1  A    between atoms: O1_2  and  C2_3 
REMARK    2  A    between atoms: C8_9  and  O2_10 
REMARK    3  A    between atoms: O2_10  and  C9_11 
REMARK    4  A    between atoms: C10_13  and  C11_14 
REMARK    5  A    between atoms: C11_14  and  O4_15 
REMARK    6  A    between atoms: C12_16  and  O5_17 
REMARK    7  A    between atoms: C13_18  and  O6_19 
REMARK    8  A    between atoms: C14_20  and  O7_21 
REMARK    9  A    between atoms: C18_25  and  C19_26 
REMARK   10  A    between atoms: C24_32  and  C25_33 
REMARK   11  A    between atoms: C25_33  and  C27_35 
REMARK   12  A    between atoms: C27_35  and  C28_36 
REMARK   13  A    between atoms: C29_37  and  C30_38 
REMARK   14  A    between atoms: C30_38  and  O9_41 
ROOT
HETATM    1  C2  UNL     1       0.056  51.786 -19.204  1.00  0.00     0.149 C 
HETATM    2  C3  UNL     1       0.364  51.898 -17.737  1.00  0.00     0.009 C 
HETATM    3  C4  UNL     1       0.134  50.867 -16.903  1.00  0.00    -0.066 C 
HETATM    4  C5  UNL     1      -0.464  49.623 -17.549  1.00  0.00     0.031 C 
HETATM    5  C6  UNL     1      -0.673  48.475 -16.551  1.00  0.00     0.013 C 
HETATM    6  C7  UNL     1       0.575  48.311 -15.694  1.00  0.00     0.034 C 
HETATM    7  C8  UNL     1       0.758  49.503 -14.747  1.00  0.00     0.136 C 
HETATM    8  C15 UNL     1       0.369  50.905 -15.379  1.00  0.00     0.002 C 
HETATM    9  C16 UNL     1      -0.912  51.479 -14.722  1.00  0.00     0.022 C 
HETATM   10  C17 UNL     1       1.506  51.895 -14.997  1.00  0.00     0.022 C 
HETATM   11  C18 UNL     1      -1.705  49.975 -18.457  1.00  0.00     0.027 C 
HETATM   12  C20 UNL     1      -2.192  48.685 -19.196  1.00  0.00     0.018 C 
HETATM   13  C21 UNL     1      -3.161  48.845 -20.382  1.00  0.00     0.011 C 
HETATM   14  C22 UNL     1      -3.146  50.227 -21.046  1.00  0.00    -0.032 C 
HETATM   15  C23 UNL     1      -4.257  51.109 -20.392  1.00  0.00     0.016 C 
HETATM   16  C24 UNL     1      -3.343  50.208 -22.594  1.00  0.00    -0.002 C 
HETATM   17  C33 UNL     1      -2.777  51.579 -23.037  1.00  0.00     0.006 C 
HETATM   18  C34 UNL     1      -1.899  52.091 -21.870  1.00  0.00     0.011 C 
HETATM   19  C35 UNL     1      -1.702  50.876 -20.937  1.00  0.00    -0.029 C 
HETATM   20  C36 UNL     1      -0.535  50.042 -21.556  1.00  0.00     0.016 C 
HETATM   21  C37 UNL     1      -1.372  51.200 -19.435  1.00  0.00     0.043 C 
ENDROOT
BRANCH   7  22
HETATM   22  O2  UNL     1      -0.055  49.244 -13.585  1.00  0.00    -0.352 OA
BRANCH  22  23
HETATM   23  C9  UNL     1      -0.973  50.295 -13.256  1.00  0.00     0.292 C 
HETATM   24  O3  UNL     1      -0.394  51.090 -12.214  1.00  0.00    -0.348 OA
HETATM   25  C10 UNL     1      -0.614  50.619 -10.882  1.00  0.00     0.179 C 
HETATM   26  C12 UNL     1      -2.114  50.632 -10.528  1.00  0.00     0.180 C 
HETATM   27  C13 UNL     1      -3.019  50.476 -11.761  1.00  0.00     0.183 C 
HETATM   28  C14 UNL     1      -2.351  49.688 -12.884  1.00  0.00     0.204 C 
BRANCH  25  29
HETATM   29  C11 UNL     1       0.055  49.260 -10.619  1.00  0.00     0.198 C 
BRANCH  29  30
HETATM   30  O4  UNL     1       1.010  49.366  -9.569  1.00  0.00    -0.398 OA
HETATM   31  H16 UNL     1       1.454  48.502  -9.508  1.00  0.00     0.209 HD
ENDBRANCH  29  30
ENDBRANCH  25  29
BRANCH  26  32
HETATM   32  O5  UNL     1      -2.467  51.891  -9.911  1.00  0.00    -0.390 OA
HETATM   33  H18 UNL     1      -3.106  51.691  -9.198  1.00  0.00     0.210 HD
ENDBRANCH  26  32
BRANCH  27  34
HETATM   34  O6  UNL     1      -3.421  51.757 -12.281  1.00  0.00    -0.390 OA
HETATM   35  H20 UNL     1      -3.165  52.408 -11.588  1.00  0.00     0.210 HD
ENDBRANCH  27  34
BRANCH  28  36
HETATM   36  O7  UNL     1      -3.204  49.646 -14.039  1.00  0.00    -0.388 OA
HETATM   37  H22 UNL     1      -3.860  50.366 -13.905  1.00  0.00     0.210 HD
ENDBRANCH  28  36
ENDBRANCH  22  23
ENDBRANCH   7  22
BRANCH  11  38
HETATM   38  C19 UNL     1      -2.835  50.365 -17.484  1.00  0.00     0.241 C 
HETATM   39  O8  UNL     1      -3.201  51.508 -17.232  1.00  0.00    -0.306 OA
ENDBRANCH  11  38
BRANCH   1  40
HETATM   40  O1  UNL     1       0.139  53.085 -19.806  1.00  0.00    -0.386 OA
HETATM   41  C1  UNL     1       1.471  53.451 -20.153  1.00  0.00     0.202 C 
ENDBRANCH   1  40
BRANCH  16  42
HETATM   42  C25 UNL     1      -4.638  49.677 -23.283  1.00  0.00    -0.010 C 
HETATM   43  C26 UNL     1      -5.803  50.657 -23.049  1.00  0.00     0.010 C 
BRANCH  42  44
HETATM   44  C27 UNL     1      -5.132  48.228 -23.078  1.00  0.00     0.031 C 
BRANCH  44  45
HETATM   45  C28 UNL     1      -6.226  47.725 -23.977  1.00  0.00    -0.027 C 
HETATM   46  C29 UNL     1      -6.253  47.984 -25.297  1.00  0.00     0.006 C 
BRANCH  46  47
HETATM   47  C30 UNL     1      -7.255  47.488 -26.307  1.00  0.00     0.068 C 
HETATM   48  C31 UNL     1      -6.611  47.434 -27.694  1.00  0.00     0.050 C 
HETATM   49  C32 UNL     1      -7.903  46.131 -25.992  1.00  0.00     0.050 C 
BRANCH  47  50
HETATM   50  O9  UNL     1      -8.286  48.477 -26.355  1.00  0.00    -0.387 OA
HETATM   51  H52 UNL     1      -8.772  48.421 -25.512  1.00  0.00     0.211 HD
ENDBRANCH  47  50
ENDBRANCH  46  47
ENDBRANCH  44  45
ENDBRANCH  42  44
ENDBRANCH  16  42
TORSDOF 14
ENDMDL
MODEL 7
REMARK minimizedAffinity -8.44428444
REMARK CNNscore 0.302559882
REMARK CNNaffinity 6.76523733
REMARK  14 active torsions:
REMARK  status: ('A' for Active; 'I' for Inactive)
REMARK    1  A    between atoms: O1_2  and  C2_3 
REMARK    2  A    between atoms: C8_9  and  O2_10 
REMARK    3  A    between atoms: O2_10  and  C9_11 
REMARK    4  A    between atoms: C10_13  and  C11_14 
REMARK    5  A    between atoms: C11_14  and  O4_15 
REMARK    6  A    between atoms: C12_16  and  O5_17 
REMARK    7  A    between atoms: C13_18  and  O6_19 
REMARK    8  A    between atoms: C14_20  and  O7_21 
REMARK    9  A    between atoms: C18_25  and  C19_26 
REMARK   10  A    between atoms: C24_32  and  C25_33 
REMARK   11  A    between atoms: C25_33  and  C27_35 
REMARK   12  A    between atoms: C27_35  and  C28_36 
REMARK   13  A    between atoms: C29_37  and  C30_38 
REMARK   14  A    between atoms: C30_38  and  O9_41 
ROOT
HETATM    1  C2  UNL     1      -4.215  47.060 -19.971  1.00  0.00     0.149 C 
HETATM    2  C3  UNL     1      -5.650  46.679 -19.735  1.00  0.00     0.009 C 
HETATM    3  C4  UNL     1      -6.533  46.649 -20.751  1.00  0.00    -0.066 C 
HETATM    4  C5  UNL     1      -5.976  47.041 -22.113  1.00  0.00     0.031 C 
HETATM    5  C6  UNL     1      -7.024  46.956 -23.233  1.00  0.00     0.013 C 
HETATM    6  C7  UNL     1      -7.788  45.644 -23.117  1.00  0.00     0.034 C 
HETATM    7  C8  UNL     1      -8.677  45.628 -21.869  1.00  0.00     0.136 C 
HETATM    8  C15 UNL     1      -8.032  46.321 -20.597  1.00  0.00     0.002 C 
HETATM    9  C16 UNL     1      -8.766  47.640 -20.246  1.00  0.00     0.022 C 
HETATM   10  C17 UNL     1      -8.292  45.371 -19.394  1.00  0.00     0.022 C 
HETATM   11  C18 UNL     1      -5.154  48.386 -22.046  1.00  0.00     0.027 C 
HETATM   12  C20 UNL     1      -4.498  48.667 -23.438  1.00  0.00     0.018 C 
HETATM   13  C21 UNL     1      -3.385  49.728 -23.518  1.00  0.00     0.011 C 
HETATM   14  C22 UNL     1      -2.676  50.024 -22.191  1.00  0.00    -0.032 C 
HETATM   15  C23 UNL     1      -3.385  51.235 -21.505  1.00  0.00     0.016 C 
HETATM   16  C24 UNL     1      -1.149  50.320 -22.319  1.00  0.00    -0.002 C 
HETATM   17  C33 UNL     1      -0.620  50.059 -20.888  1.00  0.00     0.006 C 
HETATM   18  C34 UNL     1      -1.699  49.218 -20.166  1.00  0.00     0.011 C 
HETATM   19  C35 UNL     1      -2.653  48.728 -21.277  1.00  0.00    -0.029 C 
HETATM   20  C36 UNL     1      -1.974  47.467 -21.903  1.00  0.00     0.016 C 
HETATM   21  C37 UNL     1      -4.114  48.363 -20.827  1.00  0.00     0.043 C 
ENDROOT
BRANCH   7  22
HETATM   22  O2  UNL     1      -9.907  46.294 -22.223  1.00  0.00    -0.352 OA
BRANCH  22  23
HETATM   23  C9  UNL     1     -10.485  45.854 -23.459  1.00  0.00     0.292 C 
HETATM   24  O3  UNL     1     -11.371  46.876 -23.931  1.00  0.00    -0.348 OA
HETATM   25  C10 UNL     1     -12.702  46.829 -23.409  1.00  0.00     0.179 C 
HETATM   26  C12 UNL     1     -13.420  45.532 -23.832  1.00  0.00     0.180 C 
HETATM   27  C13 UNL     1     -12.448  44.367 -24.083  1.00  0.00     0.183 C 
HETATM   28  C14 UNL     1     -11.171  44.478 -23.255  1.00  0.00     0.204 C 
BRANCH  25  29
HETATM   29  C11 UNL     1     -12.750  47.078 -21.893  1.00  0.00     0.198 C 
BRANCH  29  30
HETATM   30  O4  UNL     1     -13.903  47.836 -21.545  1.00  0.00    -0.398 OA
HETATM   31  H16 UNL     1     -13.832  48.031 -20.594  1.00  0.00     0.209 HD
ENDBRANCH  29  30
ENDBRANCH  25  29
BRANCH  26  32
HETATM   32  O5  UNL     1     -14.142  45.744 -25.066  1.00  0.00    -0.390 OA
HETATM   33  H18 UNL     1     -14.985  45.255 -24.992  1.00  0.00     0.210 HD
ENDBRANCH  26  32
BRANCH  27  34
HETATM   34  O6  UNL     1     -12.082  44.282 -25.473  1.00  0.00    -0.390 OA
HETATM   35  H20 UNL     1     -12.708  44.881 -25.941  1.00  0.00     0.210 HD
ENDBRANCH  27  34
BRANCH  28  36
HETATM   36  O7  UNL     1     -10.265  43.415 -23.592  1.00  0.00    -0.388 OA
HETATM   37  H22 UNL     1     -10.580  43.069 -24.456  1.00  0.00     0.210 HD
ENDBRANCH  28  36
ENDBRANCH  22  23
ENDBRANCH   7  22
BRANCH  11  38
HETATM   38  C19 UNL     1      -6.198  49.499 -21.831  1.00  0.00     0.241 C 
HETATM   39  O8  UNL     1      -6.405  50.094 -20.778  1.00  0.00    -0.306 OA
ENDBRANCH  11  38
BRANCH   1  40
HETATM   40  O1  UNL     1      -3.566  47.271 -18.710  1.00  0.00    -0.386 OA
HETATM   41  C1  UNL     1      -4.303  48.130 -17.844  1.00  0.00     0.202 C 
ENDBRANCH   1  40
BRANCH  16  42
HETATM   42  C25 UNL     1      -0.580  51.534 -23.117  1.00  0.00    -0.010 C 
HETATM   43  C26 UNL     1       0.436  52.306 -22.254  1.00  0.00     0.010 C 
BRANCH  42  44
HETATM   44  C27 UNL     1      -1.505  52.533 -23.846  1.00  0.00     0.031 C 
BRANCH  44  45
HETATM   45  C28 UNL     1      -1.489  52.537 -25.349  1.00  0.00    -0.027 C 
HETATM   46  C29 UNL     1      -0.352  52.436 -26.060  1.00  0.00     0.006 C 
BRANCH  46  47
HETATM   47  C30 UNL     1      -0.212  52.366 -27.558  1.00  0.00     0.068 C 
HETATM   48  C31 UNL     1      -0.427  53.754 -28.166  1.00  0.00     0.050 C 
HETATM   49  C32 UNL     1       1.112  51.782 -28.078  1.00  0.00     0.050 C 
BRANCH  47  50
HETATM   50  O9  UNL     1      -1.279  51.531 -28.014  1.00  0.00    -0.387 OA
HETATM   51  H52 UNL     1      -1.071  50.624 -27.728  1.00  0.00     0.211 HD
ENDBRANCH  47  50
ENDBRANCH  46  47
ENDBRANCH  44  45
ENDBRANCH  42  44
ENDBRANCH  16  42
TORSDOF 14
ENDMDL
MODEL 8
REMARK minimizedAffinity -9.57966328
REMARK CNNscore 0.286834419
REMARK CNNaffinity 7.10274506
REMARK  14 active torsions:
REMARK  status: ('A' for Active; 'I' for Inactive)
REMARK    1  A    between atoms: O1_2  and  C2_3 
REMARK    2  A    between atoms: C8_9  and  O2_10 
REMARK    3  A    between atoms: O2_10  and  C9_11 
REMARK    4  A    between atoms: C10_13  and  C11_14 
REMARK    5  A    between atoms: C11_14  and  O4_15 
REMARK    6  A    between atoms: C12_16  and  O5_17 
REMARK    7  A    between atoms: C13_18  and  O6_19 
REMARK    8  A    between atoms: C14_20  and  O7_21 
REMARK    9  A    between atoms: C18_25  and  C19_26 
REMARK   10  A    between atoms: C24_32  and  C25_33 
REMARK   11  A    between atoms: C25_33  and  C27_35 
REMARK   12  A    between atoms: C27_35  and  C28_36 
REMARK   13  A    between atoms: C29_37  and  C30_38 
REMARK   14  A    between atoms: C30_38  and  O9_41 
ROOT
HETATM    1  C2  UNL     1      -4.300  46.738 -20.385  1.00  0.00     0.149 C 
HETATM    2  C3  UNL     1      -5.768  46.433 -20.504  1.00  0.00     0.009 C 
HETATM    3  C4  UNL     1      -6.442  46.716 -21.633  1.00  0.00    -0.066 C 
HETATM    4  C5  UNL     1      -5.622  47.369 -22.739  1.00  0.00     0.031 C 
HETATM    5  C6  UNL     1      -6.442  47.637 -24.010  1.00  0.00     0.013 C 
HETATM    6  C7  UNL     1      -7.263  46.404 -24.356  1.00  0.00     0.034 C 
HETATM    7  C8  UNL     1      -8.374  46.169 -23.326  1.00  0.00     0.136 C 
HETATM    8  C15 UNL     1      -7.955  46.487 -21.829  1.00  0.00     0.002 C 
HETATM    9  C16 UNL     1      -8.691  47.743 -21.298  1.00  0.00     0.022 C 
HETATM   10  C17 UNL     1      -8.475  45.306 -20.962  1.00  0.00     0.022 C 
HETATM   11  C18 UNL     1      -4.778  48.587 -22.200  1.00  0.00     0.027 C 
HETATM   12  C20 UNL     1      -3.859  49.132 -23.343  1.00  0.00     0.018 C 
HETATM   13  C21 UNL     1      -2.711  50.086 -22.964  1.00  0.00     0.011 C 
HETATM   14  C22 UNL     1      -2.256  50.002 -21.502  1.00  0.00    -0.032 C 
HETATM   15  C23 UNL     1      -3.034  51.073 -20.674  1.00  0.00     0.016 C 
HETATM   16  C24 UNL     1      -0.722  50.192 -21.285  1.00  0.00    -0.002 C 
HETATM   17  C33 UNL     1      -0.484  49.558 -19.893  1.00  0.00     0.006 C 
HETATM   18  C34 UNL     1      -1.712  48.664 -19.600  1.00  0.00     0.011 C 
HETATM   19  C35 UNL     1      -2.456  48.530 -20.946  1.00  0.00    -0.029 C 
HETATM   20  C36 UNL     1      -1.719  47.400 -21.735  1.00  0.00     0.016 C 
HETATM   21  C37 UNL     1      -3.989  48.192 -20.862  1.00  0.00     0.043 C 
ENDROOT
BRANCH   7  22
HETATM   22  O2  UNL     1      -9.487  46.999 -23.713  1.00  0.00    -0.352 OA
BRANCH  22  23
HETATM   23  C9  UNL     1     -10.329  46.428 -24.724  1.00  0.00     0.292 C 
HETATM   24  O3  UNL     1      -9.706  46.630 -25.997  1.00  0.00    -0.348 OA
HETATM   25  C10 UNL     1      -9.976  47.886 -26.625  1.00  0.00     0.179 C 
HETATM   26  C12 UNL     1     -11.476  48.033 -26.952  1.00  0.00     0.180 C 
HETATM   27  C13 UNL     1     -12.375  47.223 -26.003  1.00  0.00     0.183 C 
HETATM   28  C14 UNL     1     -11.753  47.035 -24.622  1.00  0.00     0.204 C 
BRANCH  25  29
HETATM   29  C11 UNL     1      -9.413  49.076 -25.832  1.00  0.00     0.198 C 
BRANCH  29  30
HETATM   30  O4  UNL     1     -10.200  50.242 -26.048  1.00  0.00    -0.398 OA
HETATM   31  H16 UNL     1      -9.747  50.972 -25.591  1.00  0.00     0.209 HD
ENDBRANCH  29  30
ENDBRANCH  25  29
BRANCH  26  32
HETATM   32  O5  UNL     1     -11.742  47.552 -28.288  1.00  0.00    -0.390 OA
HETATM   33  H18 UNL     1     -12.403  48.155 -28.683  1.00  0.00     0.210 HD
ENDBRANCH  26  32
BRANCH  27  34
HETATM   34  O6  UNL     1     -12.674  45.925 -26.548  1.00  0.00    -0.390 OA
HETATM   35  H20 UNL     1     -12.380  45.965 -27.487  1.00  0.00     0.210 HD
ENDBRANCH  27  34
BRANCH  28  36
HETATM   36  O7  UNL     1     -12.593  46.201 -23.807  1.00  0.00    -0.388 OA
HETATM   37  H22 UNL     1     -13.195  45.745 -24.436  1.00  0.00     0.210 HD
ENDBRANCH  28  36
ENDBRANCH  22  23
ENDBRANCH   7  22
BRANCH  11  38
HETATM   38  C19 UNL     1      -5.800  49.702 -21.902  1.00  0.00     0.241 C 
HETATM   39  O8  UNL     1      -6.013  50.684 -22.605  1.00  0.00    -0.306 OA
ENDBRANCH  11  38
BRANCH   1  40
HETATM   40  O1  UNL     1      -3.895  46.591 -19.017  1.00  0.00    -0.386 OA
HETATM   41  C1  UNL     1      -4.774  47.244 -18.106  1.00  0.00     0.202 C 
ENDBRANCH   1  40
BRANCH  16  42
HETATM   42  C25 UNL     1       0.034  51.507 -21.647  1.00  0.00    -0.010 C 
HETATM   43  C26 UNL     1       0.414  52.271 -20.364  1.00  0.00     0.010 C 
BRANCH  42  44
HETATM   44  C27 UNL     1      -0.516  52.499 -22.696  1.00  0.00     0.031 C 
BRANCH  44  45
HETATM   45  C28 UNL     1      -0.383  52.131 -24.147  1.00  0.00    -0.027 C 
HETATM   46  C29 UNL     1       0.767  52.279 -24.828  1.00  0.00     0.006 C 
BRANCH  46  47
HETATM   47  C30 UNL     1       1.041  51.892 -26.258  1.00  0.00     0.068 C 
HETATM   48  C31 UNL     1       2.478  51.382 -26.392  1.00  0.00     0.050 C 
HETATM   49  C32 UNL     1       0.077  50.863 -26.867  1.00  0.00     0.050 C 
BRANCH  47  50
HETATM   50  O9  UNL     1       0.946  53.100 -27.017  1.00  0.00    -0.387 OA
HETATM   51  H52 UNL     1       0.006  53.352 -27.030  1.00  0.00     0.211 HD
ENDBRANCH  47  50
ENDBRANCH  46  47
ENDBRANCH  44  45
ENDBRANCH  42  44
ENDBRANCH  16  42
TORSDOF 14
ENDMDL
MODEL 9
REMARK minimizedAffinity -8.9009037
REMARK CNNscore 0.276170492
REMARK CNNaffinity 6.56484461
REMARK  14 active torsions:
REMARK  status: ('A' for Active; 'I' for Inactive)
REMARK    1  A    between atoms: O1_2  and  C2_3 
REMARK    2  A    between atoms: C8_9  and  O2_10 
REMARK    3  A    between atoms: O2_10  and  C9_11 
REMARK    4  A    between atoms: C10_13  and  C11_14 
REMARK    5  A    between atoms: C11_14  and  O4_15 
REMARK    6  A    between atoms: C12_16  and  O5_17 
REMARK    7  A    between atoms: C13_18  and  O6_19 
REMARK    8  A    between atoms: C14_20  and  O7_21 
REMARK    9  A    between atoms: C18_25  and  C19_26 
REMARK   10  A    between atoms: C24_32  and  C25_33 
REMARK   11  A    between atoms: C25_33  and  C27_35 
REMARK   12  A    between atoms: C27_35  and  C28_36 
REMARK   13  A    between atoms: C29_37  and  C30_38 
REMARK   14  A    between atoms: C30_38  and  O9_41 
ROOT
HETATM    1  C2  UNL     1      -2.022  47.361 -16.865  1.00  0.00     0.149 C 
HETATM    2  C3  UNL     1      -2.911  47.294 -18.076  1.00  0.00     0.009 C 
HETATM    3  C4  UNL     1      -2.657  48.049 -19.161  1.00  0.00    -0.066 C 
HETATM    4  C5  UNL     1      -1.442  48.962 -19.053  1.00  0.00     0.031 C 
HETATM    5  C6  UNL     1      -1.190  49.772 -20.333  1.00  0.00     0.013 C 
HETATM    6  C7  UNL     1      -1.296  48.857 -21.545  1.00  0.00     0.034 C 
HETATM    7  C8  UNL     1      -2.741  48.392 -21.763  1.00  0.00     0.136 C 
HETATM    8  C15 UNL     1      -3.538  48.086 -20.427  1.00  0.00     0.002 C 
HETATM    9  C16 UNL     1      -4.653  49.136 -20.189  1.00  0.00     0.022 C 
HETATM   10  C17 UNL     1      -4.280  46.739 -20.650  1.00  0.00     0.022 C 
HETATM   11  C18 UNL     1      -1.449  49.789 -17.710  1.00  0.00     0.027 C 
HETATM   12  C20 UNL     1      -0.119  50.605 -17.593  1.00  0.00     0.018 C 
HETATM   13  C21 UNL     1       0.246  51.212 -16.225  1.00  0.00     0.011 C 
HETATM   14  C22 UNL     1      -0.427  50.544 -15.021  1.00  0.00    -0.032 C 
HETATM   15  C23 UNL     1      -1.743  51.318 -14.690  1.00  0.00     0.016 C 
HETATM   16  C24 UNL     1       0.461  50.460 -13.741  1.00  0.00    -0.002 C 
HETATM   17  C33 UNL     1      -0.214  49.336 -12.918  1.00  0.00     0.006 C 
HETATM   18  C34 UNL     1      -1.109  48.546 -13.902  1.00  0.00     0.011 C 
HETATM   19  C35 UNL     1      -0.677  49.004 -15.312  1.00  0.00    -0.029 C 
HETATM   20  C36 UNL     1       0.593  48.166 -15.667  1.00  0.00     0.016 C 
HETATM   21  C37 UNL     1      -1.746  48.841 -16.453  1.00  0.00     0.043 C 
ENDROOT
BRANCH   7  22
HETATM   22  O2  UNL     1      -3.407  49.430 -22.509  1.00  0.00    -0.352 OA
BRANCH  22  23
HETATM   23  C9  UNL     1      -2.734  49.820 -23.713  1.00  0.00     0.292 C 
HETATM   24  O3  UNL     1      -2.318  51.184 -23.576  1.00  0.00    -0.348 OA
HETATM   25  C10 UNL     1      -3.297  52.166 -23.924  1.00  0.00     0.179 C 
HETATM   26  C12 UNL     1      -3.672  52.074 -25.416  1.00  0.00     0.180 C 
HETATM   27  C13 UNL     1      -3.490  50.658 -25.990  1.00  0.00     0.183 C 
HETATM   28  C14 UNL     1      -3.659  49.570 -24.933  1.00  0.00     0.204 C 
BRANCH  25  29
HETATM   29  C11 UNL     1      -4.518  52.139 -22.992  1.00  0.00     0.198 C 
BRANCH  29  30
HETATM   30  O4  UNL     1      -5.721  52.299 -23.736  1.00  0.00    -0.398 OA
HETATM   31  H16 UNL     1      -6.444  52.357 -23.087  1.00  0.00     0.209 HD
ENDBRANCH  29  30
ENDBRANCH  25  29
BRANCH  26  32
HETATM   32  O5  UNL     1      -2.828  52.949 -26.196  1.00  0.00    -0.390 OA
HETATM   33  H18 UNL     1      -3.391  53.348 -26.890  1.00  0.00     0.210 HD
ENDBRANCH  26  32
BRANCH  27  34
HETATM   34  O6  UNL     1      -2.194  50.504 -26.598  1.00  0.00    -0.390 OA
HETATM   35  H20 UNL     1      -1.828  51.416 -26.661  1.00  0.00     0.210 HD
ENDBRANCH  27  34
BRANCH  28  36
HETATM   36  O7  UNL     1      -3.394  48.278 -25.503  1.00  0.00    -0.388 OA
HETATM   37  H22 UNL     1      -2.903  48.456 -26.336  1.00  0.00     0.210 HD
ENDBRANCH  28  36
ENDBRANCH  22  23
ENDBRANCH   7  22
BRANCH  11  38
HETATM   38  C19 UNL     1      -2.577  50.828 -17.868  1.00  0.00     0.241 C 
HETATM   39  O8  UNL     1      -2.461  51.940 -18.371  1.00  0.00    -0.306 OA
ENDBRANCH  11  38
BRANCH   1  40
HETATM   40  O1  UNL     1      -2.654  46.675 -15.775  1.00  0.00    -0.386 OA
HETATM   41  C1  UNL     1      -4.076  46.749 -15.825  1.00  0.00     0.202 C 
ENDBRANCH   1  40
BRANCH  16  42
HETATM   42  C25 UNL     1       0.996  51.719 -12.990  1.00  0.00    -0.010 C 
HETATM   43  C26 UNL     1       2.528  51.639 -12.845  1.00  0.00     0.010 C 
BRANCH  42  44
HETATM   44  C27 UNL     1       0.374  52.196 -11.659  1.00  0.00     0.031 C 
BRANCH  44  45
HETATM   45  C28 UNL     1      -0.979  52.848 -11.710  1.00  0.00    -0.027 C 
HETATM   46  C29 UNL     1      -2.095  52.234 -11.280  1.00  0.00     0.006 C 
BRANCH  46  47
HETATM   47  C30 UNL     1      -3.489  52.801 -11.222  1.00  0.00     0.068 C 
HETATM   48  C31 UNL     1      -4.479  51.708 -10.812  1.00  0.00     0.050 C 
HETATM   49  C32 UNL     1      -3.674  54.024 -10.310  1.00  0.00     0.050 C 
BRANCH  47  50
HETATM   50  O9  UNL     1      -3.812  53.187 -12.560  1.00  0.00    -0.387 OA
HETATM   51  H52 UNL     1      -3.263  53.963 -12.771  1.00  0.00     0.211 HD
ENDBRANCH  47  50
ENDBRANCH  46  47
ENDBRANCH  44  45
ENDBRANCH  42  44
ENDBRANCH  16  42
TORSDOF 14
ENDMDL
