MODEL 1
REMARK minimizedAffinity -8.76764011
REMARK CNNscore 0.323218793
REMARK CNNaffinity 7.01343489
REMARK  19 active torsions:
REMARK  status: ('A' for Active; 'I' for Inactive)
REMARK    1  A    between atoms: O1_2  and  C2_3 
REMARK    2  A    between atoms: C2_3  and  C3_4 
REMARK    3  A    between atoms: C2_3  and  C28_36 
REMARK    4  A    between atoms: C3_4  and  C4_5 
REMARK    5  A    between atoms: C4_5  and  C6_7 
REMARK    6  A    between atoms: C6_7  and  O2_8 
REMARK    7  A    between atoms: C6_7  and  C7_9 
REMARK    8  A    between atoms: C8_10  and  C9_11 
REMARK    9  A    between atoms: C10_12  and  C11_13 
REMARK   10  A    between atoms: C11_13  and  N1_14 
REMARK       I    between atoms: N1_14  and  C12_15 
REMARK   11  A    between atoms: C12_15  and  C13_17 
REMARK   12  A    between atoms: C13_17  and  C16_20 
REMARK   13  A    between atoms: C16_20  and  O4_21 
REMARK   14  A    between atoms: C16_20  and  C17_22 
REMARK   15  A    between atoms: C19_24  and  C20_25 
REMARK   16  A    between atoms: C21_26  and  C22_27 
REMARK   17  A    between atoms: C23_28  and  C24_29 
REMARK   18  A    between atoms: C26_31  and  N2_33 
REMARK   19  A    between atoms: C28_36  and  O7_37 
ROOT
HETATM    1  C9  UNL     1      -4.694  48.298 -27.778  1.00  0.00    -0.003 C 
HETATM    2  C10 UNL     1      -3.927  49.366 -27.513  1.00  0.00    -0.007 C 
ENDROOT
BRANCH   1   3
HETATM    3  C8  UNL     1      -4.981  47.866 -29.127  1.00  0.00    -0.002 C 
HETATM    4  C7  UNL     1      -6.118  48.174 -29.776  1.00  0.00     0.005 C 
BRANCH   4   5
HETATM    5  C6  UNL     1      -6.485  47.735 -31.174  1.00  0.00     0.144 C 
BRANCH   5   6
HETATM    6  C4  UNL     1      -7.706  48.456 -31.796  1.00  0.00     0.016 C 
HETATM    7  C5  UNL     1      -8.574  49.120 -30.707  1.00  0.00     0.013 C 
BRANCH   6   8
HETATM    8  C3  UNL     1      -8.622  47.589 -32.694  1.00  0.00     0.042 C 
BRANCH   8   9
HETATM    9  C2  UNL     1      -8.268  46.108 -32.960  1.00  0.00     0.159 C 
BRANCH   9  10
HETATM   10  O1  UNL     1      -8.384  45.791 -34.362  1.00  0.00    -0.388 OA
HETATM   11  C1  UNL     1      -8.661  46.940 -35.162  1.00  0.00     0.202 C 
ENDBRANCH   9  10
BRANCH   9  12
HETATM   12  C28 UNL     1      -9.025  44.973 -32.179  1.00  0.00     0.133 C 
HETATM   13  C29 UNL     1     -10.106  45.478 -31.180  1.00  0.00     0.114 C 
HETATM   14  C30 UNL     1     -11.290  44.532 -30.976  1.00  0.00     0.023 C 
HETATM   15  C31 UNL     1      -9.347  45.579 -29.873  1.00  0.00     0.227 C 
HETATM   16  O8  UNL     1      -9.682  46.246 -28.910  1.00  0.00    -0.273 OA
HETATM   17  N3  UNL     1      -8.239  44.754 -29.961  1.00  0.00    -0.332 N 
HETATM   18  C32 UNL     1      -7.212  44.725 -28.945  1.00  0.00     0.154 C 
HETATM   19  C33 UNL     1      -8.092  44.115 -31.306  1.00  0.00     0.183 C 
HETATM   20  C34 UNL     1      -6.653  43.819 -31.811  1.00  0.00     0.294 C 
HETATM   21  C35 UNL     1      -8.143  42.545 -31.230  1.00  0.00     0.169 C 
HETATM   22  O9  UNL     1      -5.703  44.448 -32.222  1.00  0.00    -0.262 OA
HETATM   23  O10 UNL     1      -6.728  42.486 -31.584  1.00  0.00    -0.311 OA
HETATM   24  C36 UNL     1      -8.931  41.658 -32.178  1.00  0.00     0.043 C 
BRANCH  12  25
HETATM   25  O7  UNL     1      -9.664  44.171 -33.188  1.00  0.00    -0.383 OA
HETATM   26  H42 UNL     1     -10.063  44.809 -33.818  1.00  0.00     0.210 HD
ENDBRANCH  12  25
ENDBRANCH   9  12
ENDBRANCH   8   9
ENDBRANCH   6   8
ENDBRANCH   5   6
BRANCH   5  27
HETATM   27  O2  UNL     1      -5.365  47.922 -32.047  1.00  0.00    -0.391 OA
HETATM   28  H12 UNL     1      -4.640  47.386 -31.685  1.00  0.00     0.210 HD
ENDBRANCH   5  27
ENDBRANCH   4   5
ENDBRANCH   1   3
BRANCH   2  29
HETATM   29  C11 UNL     1      -3.617  49.851 -26.132  1.00  0.00     0.149 C 
BRANCH  29  30
HETATM   30  N1  UNL     1      -2.282  50.397 -26.148  1.00  0.00    -0.357 N 
HETATM   31  C12 UNL     1      -2.022  51.723 -26.411  1.00  0.00     0.228 C 
HETATM   32  O3  UNL     1      -2.916  52.533 -26.639  1.00  0.00    -0.273 OA
HETATM   33  H19 UNL     1      -1.491  49.765 -26.041  1.00  0.00     0.162 HD
BRANCH  31  34
HETATM   34  C13 UNL     1      -0.525  52.112 -26.388  1.00  0.00     0.063 C 
HETATM   35  C14 UNL     1       0.288  50.845 -26.032  1.00  0.00     0.028 C 
HETATM   36  C15 UNL     1      -0.134  52.562 -27.807  1.00  0.00     0.028 C 
BRANCH  34  37
HETATM   37  C16 UNL     1      -0.341  53.215 -25.300  1.00  0.00     0.164 C 
BRANCH  37  38
HETATM   38  O4  UNL     1       0.974  53.790 -25.383  1.00  0.00    -0.390 OA
HETATM   39  H27 UNL     1       1.051  54.404 -24.630  1.00  0.00     0.210 HD
ENDBRANCH  37  38
BRANCH  37  40
HETATM   40  C17 UNL     1      -0.576  52.816 -23.845  1.00  0.00    -0.054 C 
HETATM   41  C18 UNL     1      -1.995  52.508 -23.439  1.00  0.00     0.046 C 
HETATM   42  C19 UNL     1       0.482  52.742 -23.009  1.00  0.00     0.005 C 
BRANCH  42  43
HETATM   43  C20 UNL     1       0.463  52.424 -21.596  1.00  0.00     0.000 C 
HETATM   44  C21 UNL     1       0.320  53.371 -20.654  1.00  0.00     0.000 C 
BRANCH  44  45
HETATM   45  C22 UNL     1       0.281  53.085 -19.232  1.00  0.00     0.001 C 
HETATM   46  C23 UNL     1       0.443  51.842 -18.747  1.00  0.00     0.009 C 
BRANCH  46  47
HETATM   47  C24 UNL     1       0.448  51.437 -17.334  1.00  0.00    -0.034 C 
HETATM   48  C25 UNL     1      -0.707  50.555 -16.895  1.00  0.00     0.050 C 
HETATM   49  C26 UNL     1       1.442  51.842 -16.506  1.00  0.00     0.082 C 
HETATM   50  C27 UNL     1       2.661  52.678 -16.727  1.00  0.00     0.075 C 
BRANCH  49  51
HETATM   51  N2  UNL     1       1.356  51.434 -15.116  1.00  0.00    -0.120 N 
HETATM   52  O5  UNL     1       0.845  52.240 -14.329  1.00  0.00    -0.532 OA
HETATM   53  O6  UNL     1       1.776  50.304 -14.835  1.00  0.00    -0.532 OA
ENDBRANCH  49  51
ENDBRANCH  46  47
ENDBRANCH  44  45
ENDBRANCH  42  43
ENDBRANCH  37  40
ENDBRANCH  34  37
ENDBRANCH  31  34
ENDBRANCH  29  30
ENDBRANCH   2  29
TORSDOF 19
ENDMDL
MODEL 2
REMARK minimizedAffinity -8.41810036
REMARK CNNscore 0.289470434
REMARK CNNaffinity 6.94819403
REMARK  19 active torsions:
REMARK  status: ('A' for Active; 'I' for Inactive)
REMARK    1  A    between atoms: O1_2  and  C2_3 
REMARK    2  A    between atoms: C2_3  and  C3_4 
REMARK    3  A    between atoms: C2_3  and  C28_36 
REMARK    4  A    between atoms: C3_4  and  C4_5 
REMARK    5  A    between atoms: C4_5  and  C6_7 
REMARK    6  A    between atoms: C6_7  and  O2_8 
REMARK    7  A    between atoms: C6_7  and  C7_9 
REMARK    8  A    between atoms: C8_10  and  C9_11 
REMARK    9  A    between atoms: C10_12  and  C11_13 
REMARK   10  A    between atoms: C11_13  and  N1_14 
REMARK       I    between atoms: N1_14  and  C12_15 
REMARK   11  A    between atoms: C12_15  and  C13_17 
REMARK   12  A    between atoms: C13_17  and  C16_20 
REMARK   13  A    between atoms: C16_20  and  O4_21 
REMARK   14  A    between atoms: C16_20  and  C17_22 
REMARK   15  A    between atoms: C19_24  and  C20_25 
REMARK   16  A    between atoms: C21_26  and  C22_27 
REMARK   17  A    between atoms: C23_28  and  C24_29 
REMARK   18  A    between atoms: C26_31  and  N2_33 
REMARK   19  A    between atoms: C28_36  and  O7_37 
ROOT
HETATM    1  C9  UNL     1      -4.449  48.018 -27.527  1.00  0.00    -0.003 C 
HETATM    2  C10 UNL     1      -3.851  49.158 -27.154  1.00  0.00    -0.007 C 
ENDROOT
BRANCH   1   3
HETATM    3  C8  UNL     1      -5.009  47.833 -28.847  1.00  0.00    -0.002 C 
HETATM    4  C7  UNL     1      -6.330  47.804 -29.093  1.00  0.00     0.005 C 
BRANCH   4   5
HETATM    5  C6  UNL     1      -6.974  47.592 -30.442  1.00  0.00     0.144 C 
BRANCH   5   6
HETATM    6  C4  UNL     1      -8.343  48.289 -30.640  1.00  0.00     0.016 C 
HETATM    7  C5  UNL     1      -9.166  48.280 -29.336  1.00  0.00     0.013 C 
BRANCH   6   8
HETATM    8  C3  UNL     1      -9.228  47.735 -31.784  1.00  0.00     0.042 C 
BRANCH   8   9
HETATM    9  C2  UNL     1      -9.712  46.268 -31.747  1.00  0.00     0.159 C 
BRANCH   9  10
HETATM   10  O1  UNL     1     -10.004  45.852 -30.397  1.00  0.00    -0.388 OA
HETATM   11  C1  UNL     1     -11.404  45.721 -30.155  1.00  0.00     0.202 C 
ENDBRANCH   9  10
BRANCH   9  12
HETATM   12  C28 UNL     1      -8.822  45.138 -32.382  1.00  0.00     0.133 C 
HETATM   13  C29 UNL     1      -9.521  44.302 -33.492  1.00  0.00     0.114 C 
HETATM   14  C30 UNL     1      -8.591  43.761 -34.578  1.00  0.00     0.023 C 
HETATM   15  C31 UNL     1     -10.095  43.127 -32.729  1.00  0.00     0.227 C 
HETATM   16  O8  UNL     1     -11.002  42.407 -33.111  1.00  0.00    -0.273 OA
HETATM   17  N3  UNL     1      -9.383  42.999 -31.548  1.00  0.00    -0.332 N 
HETATM   18  C32 UNL     1      -9.764  42.071 -30.509  1.00  0.00     0.154 C 
HETATM   19  C33 UNL     1      -8.367  44.081 -31.359  1.00  0.00     0.183 C 
HETATM   20  C34 UNL     1      -8.052  44.530 -29.907  1.00  0.00     0.294 C 
HETATM   21  C35 UNL     1      -6.903  43.515 -31.261  1.00  0.00     0.169 C 
HETATM   22  O9  UNL     1      -8.597  45.158 -29.026  1.00  0.00    -0.262 OA
HETATM   23  O10 UNL     1      -6.857  43.894 -29.851  1.00  0.00    -0.311 OA
HETATM   24  C36 UNL     1      -5.698  44.102 -31.973  1.00  0.00     0.043 C 
BRANCH  12  25
HETATM   25  O7  UNL     1      -7.690  45.817 -32.955  1.00  0.00    -0.383 OA
HETATM   26  H42 UNL     1      -8.060  46.597 -33.422  1.00  0.00     0.210 HD
ENDBRANCH  12  25
ENDBRANCH   9  12
ENDBRANCH   8   9
ENDBRANCH   6   8
ENDBRANCH   5   6
BRANCH   5  27
HETATM   27  O2  UNL     1      -6.090  48.045 -31.474  1.00  0.00    -0.391 OA
HETATM   28  H12 UNL     1      -5.274  47.526 -31.384  1.00  0.00     0.210 HD
ENDBRANCH   5  27
ENDBRANCH   4   5
ENDBRANCH   1   3
BRANCH   2  29
HETATM   29  C11 UNL     1      -3.271  49.392 -25.794  1.00  0.00     0.149 C 
BRANCH  29  30
HETATM   30  N1  UNL     1      -2.042  50.128 -25.962  1.00  0.00    -0.357 N 
HETATM   31  C12 UNL     1      -2.010  51.455 -26.326  1.00  0.00     0.228 C 
HETATM   32  O3  UNL     1      -3.033  52.104 -26.521  1.00  0.00    -0.273 OA
HETATM   33  H19 UNL     1      -1.157  49.629 -25.888  1.00  0.00     0.162 HD
BRANCH  31  34
HETATM   34  C13 UNL     1      -0.594  52.062 -26.460  1.00  0.00     0.063 C 
HETATM   35  C14 UNL     1       0.431  50.953 -26.125  1.00  0.00     0.028 C 
HETATM   36  C15 UNL     1      -0.399  52.482 -27.928  1.00  0.00     0.028 C 
BRANCH  34  37
HETATM   37  C16 UNL     1      -0.488  53.242 -25.445  1.00  0.00     0.164 C 
BRANCH  37  38
HETATM   38  O4  UNL     1       0.683  54.032 -25.710  1.00  0.00    -0.390 OA
HETATM   39  H27 UNL     1       0.734  54.693 -24.995  1.00  0.00     0.210 HD
ENDBRANCH  37  38
BRANCH  37  40
HETATM   40  C17 UNL     1      -0.479  52.894 -23.958  1.00  0.00    -0.054 C 
HETATM   41  C18 UNL     1      -1.764  52.371 -23.368  1.00  0.00     0.046 C 
HETATM   42  C19 UNL     1       0.664  53.050 -23.257  1.00  0.00     0.005 C 
BRANCH  42  43
HETATM   43  C20 UNL     1       0.865  52.816 -21.842  1.00  0.00     0.000 C 
HETATM   44  C21 UNL     1       1.212  53.802 -20.999  1.00  0.00     0.000 C 
BRANCH  44  45
HETATM   45  C22 UNL     1       1.405  53.605 -19.574  1.00  0.00     0.001 C 
HETATM   46  C23 UNL     1       0.995  52.492 -18.943  1.00  0.00     0.009 C 
BRANCH  46  47
HETATM   47  C24 UNL     1       1.157  52.171 -17.518  1.00  0.00    -0.034 C 
HETATM   48  C25 UNL     1       2.396  52.740 -16.849  1.00  0.00     0.050 C 
HETATM   49  C26 UNL     1       0.235  51.414 -16.874  1.00  0.00     0.082 C 
HETATM   50  C27 UNL     1      -1.041  50.780 -17.323  1.00  0.00     0.075 C 
BRANCH  49  51
HETATM   51  N2  UNL     1       0.486  51.107 -15.477  1.00  0.00    -0.120 N 
HETATM   52  O5  UNL     1       0.030  51.897 -14.642  1.00  0.00    -0.532 OA
HETATM   53  O6  UNL     1       1.111  50.067 -15.235  1.00  0.00    -0.532 OA
ENDBRANCH  49  51
ENDBRANCH  46  47
ENDBRANCH  44  45
ENDBRANCH  42  43
ENDBRANCH  37  40
ENDBRANCH  34  37
ENDBRANCH  31  34
ENDBRANCH  29  30
ENDBRANCH   2  29
TORSDOF 19
ENDMDL
MODEL 3
REMARK minimizedAffinity -8.5639801
REMARK CNNscore 0.283132404
REMARK CNNaffinity 6.84697771
REMARK  19 active torsions:
REMARK  status: ('A' for Active; 'I' for Inactive)
REMARK    1  A    between atoms: O1_2  and  C2_3 
REMARK    2  A    between atoms: C2_3  and  C3_4 
REMARK    3  A    between atoms: C2_3  and  C28_36 
REMARK    4  A    between atoms: C3_4  and  C4_5 
REMARK    5  A    between atoms: C4_5  and  C6_7 
REMARK    6  A    between atoms: C6_7  and  O2_8 
REMARK    7  A    between atoms: C6_7  and  C7_9 
REMARK    8  A    between atoms: C8_10  and  C9_11 
REMARK    9  A    between atoms: C10_12  and  C11_13 
REMARK   10  A    between atoms: C11_13  and  N1_14 
REMARK       I    between atoms: N1_14  and  C12_15 
REMARK   11  A    between atoms: C12_15  and  C13_17 
REMARK   12  A    between atoms: C13_17  and  C16_20 
REMARK   13  A    between atoms: C16_20  and  O4_21 
REMARK   14  A    between atoms: C16_20  and  C17_22 
REMARK   15  A    between atoms: C19_24  and  C20_25 
REMARK   16  A    between atoms: C21_26  and  C22_27 
REMARK   17  A    between atoms: C23_28  and  C24_29 
REMARK   18  A    between atoms: C26_31  and  N2_33 
REMARK   19  A    between atoms: C28_36  and  O7_37 
ROOT
HETATM    1  C9  UNL     1      -4.601  48.626 -27.856  1.00  0.00    -0.003 C 
HETATM    2  C10 UNL     1      -3.531  49.260 -27.356  1.00  0.00    -0.007 C 
ENDROOT
BRANCH   1   3
HETATM    3  C8  UNL     1      -4.503  47.687 -28.951  1.00  0.00    -0.002 C 
HETATM    4  C7  UNL     1      -5.216  47.799 -30.086  1.00  0.00     0.005 C 
BRANCH   4   5
HETATM    5  C6  UNL     1      -5.175  46.841 -31.253  1.00  0.00     0.144 C 
BRANCH   5   6
HETATM    6  C4  UNL     1      -6.232  47.095 -32.357  1.00  0.00     0.016 C 
HETATM    7  C5  UNL     1      -5.659  47.979 -33.484  1.00  0.00     0.013 C 
BRANCH   6   8
HETATM    8  C3  UNL     1      -7.573  47.709 -31.884  1.00  0.00     0.042 C 
BRANCH   8   9
HETATM    9  C2  UNL     1      -8.873  46.876 -31.956  1.00  0.00     0.159 C 
BRANCH   9  10
HETATM   10  O1  UNL     1      -9.968  47.567 -31.321  1.00  0.00    -0.388 OA
HETATM   11  C1  UNL     1      -9.541  48.723 -30.601  1.00  0.00     0.202 C 
ENDBRANCH   9  10
BRANCH   9  12
HETATM   12  C28 UNL     1      -8.887  45.405 -31.400  1.00  0.00     0.133 C 
HETATM   13  C29 UNL     1      -7.482  44.767 -31.205  1.00  0.00     0.114 C 
HETATM   14  C30 UNL     1      -7.386  43.748 -30.070  1.00  0.00     0.023 C 
HETATM   15  C31 UNL     1      -7.247  44.044 -32.515  1.00  0.00     0.227 C 
HETATM   16  O8  UNL     1      -6.162  43.700 -32.950  1.00  0.00    -0.273 OA
HETATM   17  N3  UNL     1      -8.480  43.816 -33.101  1.00  0.00    -0.332 N 
HETATM   18  C32 UNL     1      -8.618  43.279 -34.435  1.00  0.00     0.154 C 
HETATM   19  C33 UNL     1      -9.614  44.416 -32.329  1.00  0.00     0.183 C 
HETATM   20  C34 UNL     1     -10.851  44.907 -33.128  1.00  0.00     0.294 C 
HETATM   21  C35 UNL     1     -10.643  43.332 -31.840  1.00  0.00     0.169 C 
HETATM   22  O9  UNL     1     -11.130  45.821 -33.872  1.00  0.00    -0.262 OA
HETATM   23  O10 UNL     1     -11.635  43.861 -32.772  1.00  0.00    -0.311 OA
HETATM   24  C36 UNL     1     -11.247  43.278 -30.448  1.00  0.00     0.043 C 
BRANCH  12  25
HETATM   25  O7  UNL     1      -9.544  45.483 -30.122  1.00  0.00    -0.383 OA
HETATM   26  H42 UNL     1      -9.160  46.269 -29.677  1.00  0.00     0.210 HD
ENDBRANCH  12  25
ENDBRANCH   9  12
ENDBRANCH   8   9
ENDBRANCH   6   8
ENDBRANCH   5   6
BRANCH   5  27
HETATM   27  O2  UNL     1      -3.879  46.877 -31.861  1.00  0.00    -0.391 OA
HETATM   28  H12 UNL     1      -3.244  46.624 -31.170  1.00  0.00     0.210 HD
ENDBRANCH   5  27
ENDBRANCH   4   5
ENDBRANCH   1   3
BRANCH   2  29
HETATM   29  C11 UNL     1      -3.593  50.246 -26.232  1.00  0.00     0.149 C 
BRANCH  29  30
HETATM   30  N1  UNL     1      -2.268  50.785 -26.048  1.00  0.00    -0.357 N 
HETATM   31  C12 UNL     1      -1.971  52.116 -26.236  1.00  0.00     0.228 C 
HETATM   32  O3  UNL     1      -2.823  52.937 -26.563  1.00  0.00    -0.273 OA
HETATM   33  H19 UNL     1      -1.501  50.146 -25.849  1.00  0.00     0.162 HD
BRANCH  31  34
HETATM   34  C13 UNL     1      -0.491  52.496 -25.994  1.00  0.00     0.063 C 
HETATM   35  C14 UNL     1       0.314  51.185 -25.832  1.00  0.00     0.028 C 
HETATM   36  C15 UNL     1       0.017  53.230 -27.249  1.00  0.00     0.028 C 
BRANCH  34  37
HETATM   37  C16 UNL     1      -0.429  53.351 -24.691  1.00  0.00     0.164 C 
BRANCH  37  38
HETATM   38  O4  UNL     1       0.806  54.082 -24.626  1.00  0.00    -0.390 OA
HETATM   39  H27 UNL     1       0.817  54.523 -23.757  1.00  0.00     0.210 HD
ENDBRANCH  37  38
BRANCH  37  40
HETATM   40  C17 UNL     1      -0.602  52.622 -23.360  1.00  0.00    -0.054 C 
HETATM   41  C18 UNL     1      -1.998  52.194 -22.989  1.00  0.00     0.046 C 
HETATM   42  C19 UNL     1       0.489  52.382 -22.602  1.00  0.00     0.005 C 
BRANCH  42  43
HETATM   43  C20 UNL     1       0.530  51.746 -21.301  1.00  0.00     0.000 C 
HETATM   44  C21 UNL     1       0.393  52.444 -20.162  1.00  0.00     0.000 C 
BRANCH  44  45
HETATM   45  C22 UNL     1       0.413  51.836 -18.844  1.00  0.00     0.001 C 
HETATM   46  C23 UNL     1       1.186  52.307 -17.851  1.00  0.00     0.009 C 
BRANCH  46  47
HETATM   47  C24 UNL     1       1.271  51.794 -16.476  1.00  0.00    -0.034 C 
HETATM   48  C25 UNL     1       0.041  51.065 -15.965  1.00  0.00     0.050 C 
HETATM   49  C26 UNL     1       2.396  51.975 -15.742  1.00  0.00     0.082 C 
HETATM   50  C27 UNL     1       3.704  52.631 -16.047  1.00  0.00     0.075 C 
BRANCH  49  51
HETATM   51  N2  UNL     1       2.390  51.474 -14.380  1.00  0.00    -0.120 N 
HETATM   52  O5  UNL     1       1.864  52.196 -13.523  1.00  0.00    -0.532 OA
HETATM   53  O6  UNL     1       2.885  50.356 -14.190  1.00  0.00    -0.532 OA
ENDBRANCH  49  51
ENDBRANCH  46  47
ENDBRANCH  44  45
ENDBRANCH  42  43
ENDBRANCH  37  40
ENDBRANCH  34  37
ENDBRANCH  31  34
ENDBRANCH  29  30
ENDBRANCH   2  29
TORSDOF 19
ENDMDL
MODEL 4
REMARK minimizedAffinity -7.99019527
REMARK CNNscore 0.282336265
REMARK CNNaffinity 6.59790421
REMARK  19 active torsions:
REMARK  status: ('A' for Active; 'I' for Inactive)
REMARK    1  A    between atoms: O1_2  and  C2_3 
REMARK    2  A    between atoms: C2_3  and  C3_4 
REMARK    3  A    between atoms: C2_3  and  C28_36 
REMARK    4  A    between atoms: C3_4  and  C4_5 
REMARK    5  A    between atoms: C4_5  and  C6_7 
REMARK    6  A    between atoms: C6_7  and  O2_8 
REMARK    7  A    between atoms: C6_7  and  C7_9 
REMARK    8  A    between atoms: C8_10  and  C9_11 
REMARK    9  A    between atoms: C10_12  and  C11_13 
REMARK   10  A    between atoms: C11_13  and  N1_14 
REMARK       I    between atoms: N1_14  and  C12_15 
REMARK   11  A    between atoms: C12_15  and  C13_17 
REMARK   12  A    between atoms: C13_17  and  C16_20 
REMARK   13  A    between atoms: C16_20  and  O4_21 
REMARK   14  A    between atoms: C16_20  and  C17_22 
REMARK   15  A    between atoms: C19_24  and  C20_25 
REMARK   16  A    between atoms: C21_26  and  C22_27 
REMARK   17  A    between atoms: C23_28  and  C24_29 
REMARK   18  A    between atoms: C26_31  and  N2_33 
REMARK   19  A    between atoms: C28_36  and  O7_37 
ROOT
HETATM    1  C9  UNL     1       0.395  52.117 -18.053  1.00  0.00    -0.003 C 
HETATM    2  C10 UNL     1       0.318  51.768 -19.346  1.00  0.00    -0.007 C 
ENDROOT
BRANCH   1   3
HETATM    3  C8  UNL     1       0.559  51.143 -16.997  1.00  0.00    -0.002 C 
HETATM    4  C7  UNL     1       0.733  51.475 -15.706  1.00  0.00     0.005 C 
BRANCH   4   5
HETATM    5  C6  UNL     1       0.933  50.508 -14.563  1.00  0.00     0.144 C 
BRANCH   5   6
HETATM    6  C4  UNL     1       1.771  51.047 -13.378  1.00  0.00     0.016 C 
HETATM    7  C5  UNL     1       2.975  50.128 -13.083  1.00  0.00     0.013 C 
BRANCH   6   8
HETATM    8  C3  UNL     1       1.001  51.287 -12.056  1.00  0.00     0.042 C 
BRANCH   8   9
HETATM    9  C2  UNL     1       1.068  52.667 -11.361  1.00  0.00     0.159 C 
BRANCH   9  10
HETATM   10  O1  UNL     1       2.099  52.691 -10.354  1.00  0.00    -0.388 OA
HETATM   11  C1  UNL     1       3.277  53.367 -10.792  1.00  0.00     0.202 C 
ENDBRANCH   9  10
BRANCH   9  12
HETATM   12  C28 UNL     1      -0.224  53.267 -10.696  1.00  0.00     0.133 C 
HETATM   13  C29 UNL     1      -0.123  54.771 -10.313  1.00  0.00     0.114 C 
HETATM   14  C30 UNL     1      -1.442  55.543 -10.370  1.00  0.00     0.023 C 
HETATM   15  C31 UNL     1       0.343  54.730  -8.872  1.00  0.00     0.227 C 
HETATM   16  O8  UNL     1       0.883  55.645  -8.276  1.00  0.00    -0.273 OA
HETATM   17  N3  UNL     1       0.012  53.489  -8.355  1.00  0.00    -0.332 N 
HETATM   18  C32 UNL     1       0.445  53.053  -7.047  1.00  0.00     0.154 C 
HETATM   19  C33 UNL     1      -0.598  52.576  -9.372  1.00  0.00     0.183 C 
HETATM   20  C34 UNL     1      -0.338  51.052  -9.222  1.00  0.00     0.294 C 
HETATM   21  C35 UNL     1      -2.056  52.136  -8.982  1.00  0.00     0.169 C 
HETATM   22  O9  UNL     1       0.586  50.283  -9.371  1.00  0.00    -0.262 OA
HETATM   23  O10 UNL     1      -1.579  50.774  -8.756  1.00  0.00    -0.311 OA
HETATM   24  C36 UNL     1      -3.234  52.098  -9.939  1.00  0.00     0.043 C 
BRANCH  12  25
HETATM   25  O7  UNL     1      -1.270  53.105 -11.671  1.00  0.00    -0.383 OA
HETATM   26  H42 UNL     1      -0.876  53.380 -12.527  1.00  0.00     0.210 HD
ENDBRANCH  12  25
ENDBRANCH   9  12
ENDBRANCH   8   9
ENDBRANCH   6   8
ENDBRANCH   5   6
BRANCH   5  27
HETATM   27  O2  UNL     1      -0.340  50.092 -14.057  1.00  0.00    -0.391 OA
HETATM   28  H12 UNL     1      -0.809  49.674 -14.798  1.00  0.00     0.210 HD
ENDBRANCH   5  27
ENDBRANCH   4   5
ENDBRANCH   1   3
BRANCH   2  29
HETATM   29  C11 UNL     1       0.136  52.744 -20.466  1.00  0.00     0.149 C 
BRANCH  29  30
HETATM   30  N1  UNL     1      -0.685  52.112 -21.469  1.00  0.00    -0.357 N 
HETATM   31  C12 UNL     1      -0.523  52.339 -22.817  1.00  0.00     0.228 C 
HETATM   32  O3  UNL     1       0.344  53.090 -23.254  1.00  0.00    -0.273 OA
HETATM   33  H19 UNL     1      -1.470  51.536 -21.170  1.00  0.00     0.162 HD
BRANCH  31  34
HETATM   34  C13 UNL     1      -1.506  51.572 -23.731  1.00  0.00     0.063 C 
HETATM   35  C14 UNL     1      -2.217  50.501 -22.870  1.00  0.00     0.028 C 
HETATM   36  C15 UNL     1      -2.561  52.574 -24.234  1.00  0.00     0.028 C 
BRANCH  34  37
HETATM   37  C16 UNL     1      -0.671  50.906 -24.869  1.00  0.00     0.164 C 
BRANCH  37  38
HETATM   38  O4  UNL     1       0.460  51.725 -25.209  1.00  0.00    -0.390 OA
HETATM   39  H27 UNL     1       0.885  51.298 -25.976  1.00  0.00     0.210 HD
ENDBRANCH  37  38
BRANCH  37  40
HETATM   40  C17 UNL     1      -1.397  50.564 -26.168  1.00  0.00    -0.054 C 
HETATM   41  C18 UNL     1      -0.979  51.316 -27.406  1.00  0.00     0.046 C 
HETATM   42  C19 UNL     1      -2.351  49.608 -26.151  1.00  0.00     0.005 C 
BRANCH  42  43
HETATM   43  C20 UNL     1      -3.175  49.171 -27.259  1.00  0.00     0.000 C 
HETATM   44  C21 UNL     1      -4.269  48.414 -27.078  1.00  0.00     0.000 C 
BRANCH  44  45
HETATM   45  C22 UNL     1      -5.124  47.972 -28.164  1.00  0.00     0.001 C 
HETATM   46  C23 UNL     1      -6.362  47.494 -27.951  1.00  0.00     0.009 C 
BRANCH  46  47
HETATM   47  C24 UNL     1      -7.324  47.043 -28.967  1.00  0.00    -0.034 C 
HETATM   48  C25 UNL     1      -6.745  46.226 -30.108  1.00  0.00     0.050 C 
HETATM   49  C26 UNL     1      -8.639  47.353 -28.855  1.00  0.00     0.082 C 
HETATM   50  C27 UNL     1      -9.412  48.113 -27.827  1.00  0.00     0.075 C 
BRANCH  49  51
HETATM   51  N2  UNL     1      -9.520  46.906 -29.919  1.00  0.00    -0.120 N 
HETATM   52  O5  UNL     1      -9.669  47.673 -30.878  1.00  0.00    -0.532 OA
HETATM   53  O6  UNL     1     -10.028  45.785 -29.793  1.00  0.00    -0.532 OA
ENDBRANCH  49  51
ENDBRANCH  46  47
ENDBRANCH  44  45
ENDBRANCH  42  43
ENDBRANCH  37  40
ENDBRANCH  34  37
ENDBRANCH  31  34
ENDBRANCH  29  30
ENDBRANCH   2  29
TORSDOF 19
ENDMDL
MODEL 5
REMARK minimizedAffinity -8.27088737
REMARK CNNscore 0.276771635
REMARK CNNaffinity 7.3201828
REMARK  19 active torsions:
REMARK  status: ('A' for Active; 'I' for Inactive)
REMARK    1  A    between atoms: O1_2  and  C2_3 
REMARK    2  A    between atoms: C2_3  and  C3_4 
REMARK    3  A    between atoms: C2_3  and  C28_36 
REMARK    4  A    between atoms: C3_4  and  C4_5 
REMARK    5  A    between atoms: C4_5  and  C6_7 
REMARK    6  A    between atoms: C6_7  and  O2_8 
REMARK    7  A    between atoms: C6_7  and  C7_9 
REMARK    8  A    between atoms: C8_10  and  C9_11 
REMARK    9  A    between atoms: C10_12  and  C11_13 
REMARK   10  A    between atoms: C11_13  and  N1_14 
REMARK       I    between atoms: N1_14  and  C12_15 
REMARK   11  A    between atoms: C12_15  and  C13_17 
REMARK   12  A    between atoms: C13_17  and  C16_20 
REMARK   13  A    between atoms: C16_20  and  O4_21 
REMARK   14  A    between atoms: C16_20  and  C17_22 
REMARK   15  A    between atoms: C19_24  and  C20_25 
REMARK   16  A    between atoms: C21_26  and  C22_27 
REMARK   17  A    between atoms: C23_28  and  C24_29 
REMARK   18  A    between atoms: C26_31  and  N2_33 
REMARK   19  A    between atoms: C28_36  and  O7_37 
ROOT
HETATM    1  C9  UNL     1       0.359  53.142 -21.486  1.00  0.00    -0.003 C 
HETATM    2  C10 UNL     1       0.839  52.458 -20.437  1.00  0.00    -0.007 C 
ENDROOT
BRANCH   1   3
HETATM    3  C8  UNL     1       0.434  52.638 -22.838  1.00  0.00    -0.002 C 
HETATM    4  C7  UNL     1       0.681  53.418 -23.906  1.00  0.00     0.005 C 
BRANCH   4   5
HETATM    5  C6  UNL     1       0.749  52.955 -25.342  1.00  0.00     0.144 C 
BRANCH   5   6
HETATM    6  C4  UNL     1      -0.182  51.770 -25.701  1.00  0.00     0.016 C 
HETATM    7  C5  UNL     1       0.269  51.083 -27.006  1.00  0.00     0.013 C 
BRANCH   6   8
HETATM    8  C3  UNL     1      -1.690  52.101 -25.815  1.00  0.00     0.042 C 
BRANCH   8   9
HETATM    9  C2  UNL     1      -2.743  50.980 -25.655  1.00  0.00     0.159 C 
BRANCH   9  10
HETATM   10  O1  UNL     1      -3.636  50.943 -26.786  1.00  0.00    -0.388 OA
HETATM   11  C1  UNL     1      -2.948  51.043 -28.032  1.00  0.00     0.202 C 
ENDBRANCH   9  10
BRANCH   9  12
HETATM   12  C28 UNL     1      -3.645  50.939 -24.368  1.00  0.00     0.133 C 
HETATM   13  C29 UNL     1      -2.975  51.502 -23.082  1.00  0.00     0.114 C 
HETATM   14  C30 UNL     1      -3.935  52.144 -22.080  1.00  0.00     0.023 C 
HETATM   15  C31 UNL     1      -2.370  50.270 -22.440  1.00  0.00     0.227 C 
HETATM   16  O8  UNL     1      -1.471  50.269 -21.617  1.00  0.00    -0.273 OA
HETATM   17  N3  UNL     1      -3.045  49.164 -22.928  1.00  0.00    -0.332 N 
HETATM   18  C32 UNL     1      -2.626  47.811 -22.640  1.00  0.00     0.154 C 
HETATM   19  C33 UNL     1      -4.062  49.511 -23.969  1.00  0.00     0.183 C 
HETATM   20  C34 UNL     1      -4.335  48.469 -25.087  1.00  0.00     0.294 C 
HETATM   21  C35 UNL     1      -5.518  49.099 -23.542  1.00  0.00     0.169 C 
HETATM   22  O9  UNL     1      -3.767  48.038 -26.066  1.00  0.00    -0.262 OA
HETATM   23  O10 UNL     1      -5.523  48.067 -24.576  1.00  0.00    -0.311 OA
HETATM   24  C36 UNL     1      -6.749  49.974 -23.706  1.00  0.00     0.043 C 
BRANCH  12  25
HETATM   25  O7  UNL     1      -4.799  51.741 -24.680  1.00  0.00    -0.383 OA
HETATM   26  H42 UNL     1      -4.448  52.546 -25.118  1.00  0.00     0.210 HD
ENDBRANCH  12  25
ENDBRANCH   9  12
ENDBRANCH   8   9
ENDBRANCH   6   8
ENDBRANCH   5   6
BRANCH   5  27
HETATM   27  O2  UNL     1       0.436  54.047 -26.214  1.00  0.00    -0.391 OA
HETATM   28  H12 UNL     1       1.092  54.741 -26.033  1.00  0.00     0.210 HD
ENDBRANCH   5  27
ENDBRANCH   4   5
ENDBRANCH   1   3
BRANCH   2  29
HETATM   29  C11 UNL     1       0.791  52.951 -19.025  1.00  0.00     0.149 C 
BRANCH  29  30
HETATM   30  N1  UNL     1       0.467  51.829 -18.179  1.00  0.00    -0.357 N 
HETATM   31  C12 UNL     1      -0.827  51.440 -17.919  1.00  0.00     0.228 C 
HETATM   32  O3  UNL     1      -1.795  52.020 -18.402  1.00  0.00    -0.273 OA
HETATM   33  H19 UNL     1       1.220  51.350 -17.688  1.00  0.00     0.162 HD
BRANCH  31  34
HETATM   34  C13 UNL     1      -0.967  50.216 -16.983  1.00  0.00     0.063 C 
HETATM   35  C14 UNL     1      -1.981  50.582 -15.873  1.00  0.00     0.028 C 
HETATM   36  C15 UNL     1      -1.547  49.054 -17.811  1.00  0.00     0.028 C 
BRANCH  34  37
HETATM   37  C16 UNL     1       0.440  49.922 -16.377  1.00  0.00     0.164 C 
BRANCH  37  38
HETATM   38  O4  UNL     1       0.583  48.520 -16.092  1.00  0.00    -0.390 OA
HETATM   39  H27 UNL     1       1.441  48.420 -15.641  1.00  0.00     0.210 HD
ENDBRANCH  37  38
BRANCH  37  40
HETATM   40  C17 UNL     1       0.840  50.689 -15.118  1.00  0.00    -0.054 C 
HETATM   41  C18 UNL     1       1.019  52.180 -15.253  1.00  0.00     0.046 C 
HETATM   42  C19 UNL     1       0.994  50.011 -13.961  1.00  0.00     0.005 C 
BRANCH  42  43
HETATM   43  C20 UNL     1       1.405  50.545 -12.679  1.00  0.00     0.000 C 
HETATM   44  C21 UNL     1       2.549  51.231 -12.527  1.00  0.00     0.000 C 
BRANCH  44  45
HETATM   45  C22 UNL     1       2.983  51.793 -11.261  1.00  0.00     0.001 C 
HETATM   46  C23 UNL     1       3.203  53.109 -11.100  1.00  0.00     0.009 C 
BRANCH  46  47
HETATM   47  C24 UNL     1       3.617  53.793  -9.866  1.00  0.00    -0.034 C 
HETATM   48  C25 UNL     1       4.000  52.890  -8.706  1.00  0.00     0.050 C 
HETATM   49  C26 UNL     1       3.646  55.146  -9.806  1.00  0.00     0.082 C 
HETATM   50  C27 UNL     1       3.336  56.207 -10.812  1.00  0.00     0.075 C 
BRANCH  49  51
HETATM   51  N2  UNL     1       4.028  55.747  -8.541  1.00  0.00    -0.120 N 
HETATM   52  O5  UNL     1       3.112  56.014  -7.753  1.00  0.00    -0.532 OA
HETATM   53  O6  UNL     1       5.237  55.920  -8.344  1.00  0.00    -0.532 OA
ENDBRANCH  49  51
ENDBRANCH  46  47
ENDBRANCH  44  45
ENDBRANCH  42  43
ENDBRANCH  37  40
ENDBRANCH  34  37
ENDBRANCH  31  34
ENDBRANCH  29  30
ENDBRANCH   2  29
TORSDOF 19
ENDMDL
MODEL 6
REMARK minimizedAffinity -8.3001585
REMARK CNNscore 0.252655059
REMARK CNNaffinity 6.89566183
REMARK  19 active torsions:
REMARK  status: ('A' for Active; 'I' for Inactive)
REMARK    1  A    between atoms: O1_2  and  C2_3 
REMARK    2  A    between atoms: C2_3  and  C3_4 
REMARK    3  A    between atoms: C2_3  and  C28_36 
REMARK    4  A    between atoms: C3_4  and  C4_5 
REMARK    5  A    between atoms: C4_5  and  C6_7 
REMARK    6  A    between atoms: C6_7  and  O2_8 
REMARK    7  A    between atoms: C6_7  and  C7_9 
REMARK    8  A    between atoms: C8_10  and  C9_11 
REMARK    9  A    between atoms: C10_12  and  C11_13 
REMARK   10  A    between atoms: C11_13  and  N1_14 
REMARK       I    between atoms: N1_14  and  C12_15 
REMARK   11  A    between atoms: C12_15  and  C13_17 
REMARK   12  A    between atoms: C13_17  and  C16_20 
REMARK   13  A    between atoms: C16_20  and  O4_21 
REMARK   14  A    between atoms: C16_20  and  C17_22 
REMARK   15  A    between atoms: C19_24  and  C20_25 
REMARK   16  A    between atoms: C21_26  and  C22_27 
REMARK   17  A    between atoms: C23_28  and  C24_29 
REMARK   18  A    between atoms: C26_31  and  N2_33 
REMARK   19  A    between atoms: C28_36  and  O7_37 
ROOT
HETATM    1  C9  UNL     1      -4.144  48.348 -27.742  1.00  0.00    -0.003 C 
HETATM    2  C10 UNL     1      -3.567  49.525 -27.460  1.00  0.00    -0.007 C 
ENDROOT
BRANCH   1   3
HETATM    3  C8  UNL     1      -4.931  48.137 -28.936  1.00  0.00    -0.002 C 
HETATM    4  C7  UNL     1      -6.239  47.826 -28.914  1.00  0.00     0.005 C 
BRANCH   4   5
HETATM    5  C6  UNL     1      -7.107  47.571 -30.124  1.00  0.00     0.144 C 
BRANCH   5   6
HETATM    6  C4  UNL     1      -8.633  47.666 -29.876  1.00  0.00     0.016 C 
HETATM    7  C5  UNL     1      -9.232  48.913 -30.557  1.00  0.00     0.013 C 
BRANCH   6   8
HETATM    8  C3  UNL     1      -9.082  47.651 -28.394  1.00  0.00     0.042 C 
BRANCH   8   9
HETATM    9  C2  UNL     1     -10.270  46.765 -27.954  1.00  0.00     0.159 C 
BRANCH   9  10
HETATM   10  O1  UNL     1     -11.100  47.449 -26.993  1.00  0.00    -0.388 OA
HETATM   11  C1  UNL     1     -12.276  48.003 -27.581  1.00  0.00     0.202 C 
ENDBRANCH   9  10
BRANCH   9  12
HETATM   12  C28 UNL     1      -9.997  45.330 -27.371  1.00  0.00     0.133 C 
HETATM   13  C29 UNL     1      -8.494  44.983 -27.170  1.00  0.00     0.114 C 
HETATM   14  C30 UNL     1      -8.201  44.023 -26.016  1.00  0.00     0.023 C 
HETATM   15  C31 UNL     1      -8.122  44.295 -28.467  1.00  0.00     0.227 C 
HETATM   16  O8  UNL     1      -6.990  44.162 -28.899  1.00  0.00    -0.273 OA
HETATM   17  N3  UNL     1      -9.287  43.820 -29.044  1.00  0.00    -0.332 N 
HETATM   18  C32 UNL     1      -9.317  43.242 -30.368  1.00  0.00     0.154 C 
HETATM   19  C33 UNL     1     -10.516  44.201 -28.280  1.00  0.00     0.183 C 
HETATM   20  C34 UNL     1     -11.825  44.426 -29.083  1.00  0.00     0.294 C 
HETATM   21  C35 UNL     1     -11.314  42.947 -27.767  1.00  0.00     0.169 C 
HETATM   22  O9  UNL     1     -12.277  45.255 -29.843  1.00  0.00    -0.262 OA
HETATM   23  O10 UNL     1     -12.390  43.255 -28.706  1.00  0.00    -0.311 OA
HETATM   24  C36 UNL     1     -11.896  42.801 -26.372  1.00  0.00     0.043 C 
BRANCH  12  25
HETATM   25  O7  UNL     1     -10.656  45.302 -26.092  1.00  0.00    -0.383 OA
HETATM   26  H42 UNL     1     -10.433  46.156 -25.663  1.00  0.00     0.210 HD
ENDBRANCH  12  25
ENDBRANCH   9  12
ENDBRANCH   8   9
ENDBRANCH   6   8
ENDBRANCH   5   6
BRANCH   5  27
HETATM   27  O2  UNL     1      -6.767  48.495 -31.164  1.00  0.00    -0.391 OA
HETATM   28  H12 UNL     1      -5.827  48.351 -31.364  1.00  0.00     0.210 HD
ENDBRANCH   5  27
ENDBRANCH   4   5
ENDBRANCH   1   3
BRANCH   2  29
HETATM   29  C11 UNL     1      -2.756  49.787 -26.230  1.00  0.00     0.149 C 
BRANCH  29  30
HETATM   30  N1  UNL     1      -1.916  50.929 -26.492  1.00  0.00    -0.357 N 
HETATM   31  C12 UNL     1      -0.559  50.927 -26.266  1.00  0.00     0.228 C 
HETATM   32  O3  UNL     1       0.030  49.940 -25.834  1.00  0.00    -0.273 OA
HETATM   33  H19 UNL     1      -2.353  51.803 -26.782  1.00  0.00     0.162 HD
BRANCH  31  34
HETATM   34  C13 UNL     1       0.164  52.251 -26.604  1.00  0.00     0.063 C 
HETATM   35  C14 UNL     1       1.682  52.024 -26.413  1.00  0.00     0.028 C 
HETATM   36  C15 UNL     1      -0.101  52.566 -28.088  1.00  0.00     0.028 C 
BRANCH  34  37
HETATM   37  C16 UNL     1      -0.364  53.342 -25.622  1.00  0.00     0.164 C 
BRANCH  37  38
HETATM   38  O4  UNL     1       0.521  54.474 -25.603  1.00  0.00    -0.390 OA
HETATM   39  H27 UNL     1       0.183  55.074 -24.913  1.00  0.00     0.210 HD
ENDBRANCH  37  38
BRANCH  37  40
HETATM   40  C17 UNL     1      -0.608  52.926 -24.172  1.00  0.00    -0.054 C 
HETATM   41  C18 UNL     1      -2.040  52.722 -23.750  1.00  0.00     0.046 C 
HETATM   42  C19 UNL     1       0.453  52.748 -23.357  1.00  0.00     0.005 C 
BRANCH  42  43
HETATM   43  C20 UNL     1       0.430  52.397 -21.952  1.00  0.00     0.000 C 
HETATM   44  C21 UNL     1      -0.090  51.239 -21.514  1.00  0.00     0.000 C 
BRANCH  44  45
HETATM   45  C22 UNL     1      -0.114  50.850 -20.117  1.00  0.00     0.001 C 
HETATM   46  C23 UNL     1       0.079  51.736 -19.124  1.00  0.00     0.009 C 
BRANCH  46  47
HETATM   47  C24 UNL     1       0.052  51.466 -17.679  1.00  0.00    -0.034 C 
HETATM   48  C25 UNL     1      -1.166  50.715 -17.169  1.00  0.00     0.050 C 
HETATM   49  C26 UNL     1       1.071  51.874 -16.884  1.00  0.00     0.082 C 
HETATM   50  C27 UNL     1       2.348  52.595 -17.172  1.00  0.00     0.075 C 
BRANCH  49  51
HETATM   51  N2  UNL     1       0.953  51.606 -15.463  1.00  0.00    -0.120 N 
HETATM   52  O5  UNL     1       0.433  52.489 -14.770  1.00  0.00    -0.532 OA
HETATM   53  O6  UNL     1       1.358  50.506 -15.063  1.00  0.00    -0.532 OA
ENDBRANCH  49  51
ENDBRANCH  46  47
ENDBRANCH  44  45
ENDBRANCH  42  43
ENDBRANCH  37  40
ENDBRANCH  34  37
ENDBRANCH  31  34
ENDBRANCH  29  30
ENDBRANCH   2  29
TORSDOF 19
ENDMDL
MODEL 7
REMARK minimizedAffinity -8.45562458
REMARK CNNscore 0.243130326
REMARK CNNaffinity 6.88750648
REMARK  19 active torsions:
REMARK  status: ('A' for Active; 'I' for Inactive)
REMARK    1  A    between atoms: O1_2  and  C2_3 
REMARK    2  A    between atoms: C2_3  and  C3_4 
REMARK    3  A    between atoms: C2_3  and  C28_36 
REMARK    4  A    between atoms: C3_4  and  C4_5 
REMARK    5  A    between atoms: C4_5  and  C6_7 
REMARK    6  A    between atoms: C6_7  and  O2_8 
REMARK    7  A    between atoms: C6_7  and  C7_9 
REMARK    8  A    between atoms: C8_10  and  C9_11 
REMARK    9  A    between atoms: C10_12  and  C11_13 
REMARK   10  A    between atoms: C11_13  and  N1_14 
REMARK       I    between atoms: N1_14  and  C12_15 
REMARK   11  A    between atoms: C12_15  and  C13_17 
REMARK   12  A    between atoms: C13_17  and  C16_20 
REMARK   13  A    between atoms: C16_20  and  O4_21 
REMARK   14  A    between atoms: C16_20  and  C17_22 
REMARK   15  A    between atoms: C19_24  and  C20_25 
REMARK   16  A    between atoms: C21_26  and  C22_27 
REMARK   17  A    between atoms: C23_28  and  C24_29 
REMARK   18  A    between atoms: C26_31  and  N2_33 
REMARK   19  A    between atoms: C28_36  and  O7_37 
ROOT
HETATM    1  C9  UNL     1       1.062  53.645 -20.800  1.00  0.00    -0.003 C 
HETATM    2  C10 UNL     1       0.566  52.656 -20.042  1.00  0.00    -0.007 C 
ENDROOT
BRANCH   1   3
HETATM    3  C8  UNL     1       1.375  53.465 -22.200  1.00  0.00    -0.002 C 
HETATM    4  C7  UNL     1       0.457  53.136 -23.126  1.00  0.00     0.005 C 
BRANCH   4   5
HETATM    5  C6  UNL     1       0.725  52.912 -24.595  1.00  0.00     0.144 C 
BRANCH   5   6
HETATM    6  C4  UNL     1      -0.136  51.812 -25.266  1.00  0.00     0.016 C 
HETATM    7  C5  UNL     1       0.549  51.265 -26.535  1.00  0.00     0.013 C 
BRANCH   6   8
HETATM    8  C3  UNL     1      -1.588  52.211 -25.624  1.00  0.00     0.042 C 
BRANCH   8   9
HETATM    9  C2  UNL     1      -2.712  51.150 -25.595  1.00  0.00     0.159 C 
BRANCH   9  10
HETATM   10  O1  UNL     1      -3.570  51.273 -26.747  1.00  0.00    -0.388 OA
HETATM   11  C1  UNL     1      -2.900  50.957 -27.967  1.00  0.00     0.202 C 
ENDBRANCH   9  10
BRANCH   9  12
HETATM   12  C28 UNL     1      -3.655  51.049 -24.341  1.00  0.00     0.133 C 
HETATM   13  C29 UNL     1      -3.091  51.702 -23.046  1.00  0.00     0.114 C 
HETATM   14  C30 UNL     1      -4.145  52.268 -22.095  1.00  0.00     0.023 C 
HETATM   15  C31 UNL     1      -2.396  50.548 -22.353  1.00  0.00     0.227 C 
HETATM   16  O8  UNL     1      -1.533  50.651 -21.498  1.00  0.00    -0.273 OA
HETATM   17  N3  UNL     1      -2.942  49.372 -22.836  1.00  0.00    -0.332 N 
HETATM   18  C32 UNL     1      -2.406  48.072 -22.500  1.00  0.00     0.154 C 
HETATM   19  C33 UNL     1      -3.947  49.597 -23.922  1.00  0.00     0.183 C 
HETATM   20  C34 UNL     1      -4.076  48.510 -25.023  1.00  0.00     0.294 C 
HETATM   21  C35 UNL     1      -5.372  49.055 -23.538  1.00  0.00     0.169 C 
HETATM   22  O9  UNL     1      -3.432  48.114 -25.970  1.00  0.00    -0.262 OA
HETATM   23  O10 UNL     1      -5.239  48.005 -24.545  1.00  0.00    -0.311 OA
HETATM   24  C36 UNL     1      -6.674  49.802 -23.767  1.00  0.00     0.043 C 
BRANCH  12  25
HETATM   25  O7  UNL     1      -4.867  51.729 -24.714  1.00  0.00    -0.383 OA
HETATM   26  H42 UNL     1      -4.579  52.554 -25.159  1.00  0.00     0.210 HD
ENDBRANCH  12  25
ENDBRANCH   9  12
ENDBRANCH   8   9
ENDBRANCH   6   8
ENDBRANCH   5   6
BRANCH   5  27
HETATM   27  O2  UNL     1       0.525  54.134 -25.313  1.00  0.00    -0.391 OA
HETATM   28  H12 UNL     1       1.143  54.781 -24.934  1.00  0.00     0.210 HD
ENDBRANCH   5  27
ENDBRANCH   4   5
ENDBRANCH   1   3
BRANCH   2  29
HETATM   29  C11 UNL     1       0.241  52.798 -18.588  1.00  0.00     0.149 C 
BRANCH  29  30
HETATM   30  N1  UNL     1      -0.083  51.488 -18.081  1.00  0.00    -0.357 N 
HETATM   31  C12 UNL     1      -1.378  51.050 -17.919  1.00  0.00     0.228 C 
HETATM   32  O3  UNL     1      -2.345  51.748 -18.209  1.00  0.00    -0.273 OA
HETATM   33  H19 UNL     1       0.671  50.888 -17.752  1.00  0.00     0.162 HD
BRANCH  31  34
HETATM   34  C13 UNL     1      -1.518  49.617 -17.355  1.00  0.00     0.063 C 
HETATM   35  C14 UNL     1      -2.946  49.473 -16.778  1.00  0.00     0.028 C 
HETATM   36  C15 UNL     1      -1.362  48.633 -18.529  1.00  0.00     0.028 C 
BRANCH  34  37
HETATM   37  C16 UNL     1      -0.445  49.443 -16.235  1.00  0.00     0.164 C 
BRANCH  37  38
HETATM   38  O4  UNL     1      -0.090  48.058 -16.089  1.00  0.00    -0.390 OA
HETATM   39  H27 UNL     1       0.513  48.010 -15.324  1.00  0.00     0.210 HD
ENDBRANCH  37  38
BRANCH  37  40
HETATM   40  C17 UNL     1      -0.784  49.978 -14.846  1.00  0.00    -0.054 C 
HETATM   41  C18 UNL     1      -1.312  48.988 -13.839  1.00  0.00     0.046 C 
HETATM   42  C19 UNL     1      -0.581  51.287 -14.583  1.00  0.00     0.005 C 
BRANCH  42  43
HETATM   43  C20 UNL     1      -0.874  51.991 -13.351  1.00  0.00     0.000 C 
HETATM   44  C21 UNL     1       0.075  52.260 -12.441  1.00  0.00     0.000 C 
BRANCH  44  45
HETATM   45  C22 UNL     1      -0.182  52.976 -11.205  1.00  0.00     0.001 C 
HETATM   46  C23 UNL     1       0.156  54.266 -11.042  1.00  0.00     0.009 C 
BRANCH  46  47
HETATM   47  C24 UNL     1      -0.075  55.099  -9.852  1.00  0.00    -0.034 C 
HETATM   48  C25 UNL     1      -1.499  55.589  -9.655  1.00  0.00     0.050 C 
HETATM   49  C26 UNL     1       0.944  55.386  -9.006  1.00  0.00     0.082 C 
HETATM   50  C27 UNL     1       2.387  55.001  -8.997  1.00  0.00     0.075 C 
BRANCH  49  51
HETATM   51  N2  UNL     1       0.645  56.246  -7.875  1.00  0.00    -0.120 N 
HETATM   52  O5  UNL     1       1.513  56.335  -6.998  1.00  0.00    -0.532 OA
HETATM   53  O6  UNL     1      -0.440  56.841  -7.893  1.00  0.00    -0.532 OA
ENDBRANCH  49  51
ENDBRANCH  46  47
ENDBRANCH  44  45
ENDBRANCH  42  43
ENDBRANCH  37  40
ENDBRANCH  34  37
ENDBRANCH  31  34
ENDBRANCH  29  30
ENDBRANCH   2  29
TORSDOF 19
ENDMDL
MODEL 8
REMARK minimizedAffinity -8.65618992
REMARK CNNscore 0.240419954
REMARK CNNaffinity 6.64305115
REMARK  19 active torsions:
REMARK  status: ('A' for Active; 'I' for Inactive)
REMARK    1  A    between atoms: O1_2  and  C2_3 
REMARK    2  A    between atoms: C2_3  and  C3_4 
REMARK    3  A    between atoms: C2_3  and  C28_36 
REMARK    4  A    between atoms: C3_4  and  C4_5 
REMARK    5  A    between atoms: C4_5  and  C6_7 
REMARK    6  A    between atoms: C6_7  and  O2_8 
REMARK    7  A    between atoms: C6_7  and  C7_9 
REMARK    8  A    between atoms: C8_10  and  C9_11 
REMARK    9  A    between atoms: C10_12  and  C11_13 
REMARK   10  A    between atoms: C11_13  and  N1_14 
REMARK       I    between atoms: N1_14  and  C12_15 
REMARK   11  A    between atoms: C12_15  and  C13_17 
REMARK   12  A    between atoms: C13_17  and  C16_20 
REMARK   13  A    between atoms: C16_20  and  O4_21 
REMARK   14  A    between atoms: C16_20  and  C17_22 
REMARK   15  A    between atoms: C19_24  and  C20_25 
REMARK   16  A    between atoms: C21_26  and  C22_27 
REMARK   17  A    between atoms: C23_28  and  C24_29 
REMARK   18  A    between atoms: C26_31  and  N2_33 
REMARK   19  A    between atoms: C28_36  and  O7_37 
ROOT
HETATM    1  C9  UNL     1      -3.730  48.457 -27.287  1.00  0.00    -0.003 C 
HETATM    2  C10 UNL     1      -3.261  49.660 -26.926  1.00  0.00    -0.007 C 
ENDROOT
BRANCH   1   3
HETATM    3  C8  UNL     1      -4.603  48.275 -28.424  1.00  0.00    -0.002 C 
HETATM    4  C7  UNL     1      -5.896  47.919 -28.315  1.00  0.00     0.005 C 
BRANCH   4   5
HETATM    5  C6  UNL     1      -6.850  47.692 -29.463  1.00  0.00     0.144 C 
BRANCH   5   6
HETATM    6  C4  UNL     1      -7.570  46.321 -29.465  1.00  0.00     0.016 C 
HETATM    7  C5  UNL     1      -7.794  45.808 -28.028  1.00  0.00     0.013 C 
BRANCH   6   8
HETATM    8  C3  UNL     1      -6.890  45.198 -30.288  1.00  0.00     0.042 C 
BRANCH   8   9
HETATM    9  C2  UNL     1      -7.231  45.021 -31.785  1.00  0.00     0.159 C 
BRANCH   9  10
HETATM   10  O1  UNL     1      -6.200  45.583 -32.622  1.00  0.00    -0.388 OA
HETATM   11  C1  UNL     1      -4.941  45.669 -31.957  1.00  0.00     0.202 C 
ENDBRANCH   9  10
BRANCH   9  12
HETATM   12  C28 UNL     1      -8.602  45.556 -32.340  1.00  0.00     0.133 C 
HETATM   13  C29 UNL     1      -9.673  45.857 -31.253  1.00  0.00     0.114 C 
HETATM   14  C30 UNL     1     -10.647  46.984 -31.599  1.00  0.00     0.023 C 
HETATM   15  C31 UNL     1     -10.454  44.562 -31.170  1.00  0.00     0.227 C 
HETATM   16  O8  UNL     1     -11.151  44.213 -30.233  1.00  0.00    -0.273 OA
HETATM   17  N3  UNL     1     -10.262  43.874 -32.356  1.00  0.00    -0.332 N 
HETATM   18  C32 UNL     1     -10.742  42.527 -32.558  1.00  0.00     0.154 C 
HETATM   19  C33 UNL     1      -9.303  44.558 -33.279  1.00  0.00     0.183 C 
HETATM   20  C34 UNL     1      -8.436  43.667 -34.209  1.00  0.00     0.294 C 
HETATM   21  C35 UNL     1      -9.968  44.948 -34.650  1.00  0.00     0.169 C 
HETATM   22  O9  UNL     1      -7.493  42.914 -34.102  1.00  0.00    -0.262 OA
HETATM   23  O10 UNL     1      -9.150  43.945 -35.326  1.00  0.00    -0.311 OA
HETATM   24  C36 UNL     1      -9.794  46.286 -35.348  1.00  0.00     0.043 C 
BRANCH  12  25
HETATM   25  O7  UNL     1      -8.287  46.777 -33.032  1.00  0.00    -0.383 OA
HETATM   26  H42 UNL     1      -7.670  47.262 -32.443  1.00  0.00     0.210 HD
ENDBRANCH  12  25
ENDBRANCH   9  12
ENDBRANCH   8   9
ENDBRANCH   6   8
ENDBRANCH   5   6
BRANCH   5  27
HETATM   27  O2  UNL     1      -7.848  48.719 -29.470  1.00  0.00    -0.391 OA
HETATM   28  H12 UNL     1      -7.374  49.563 -29.563  1.00  0.00     0.210 HD
ENDBRANCH   5  27
ENDBRANCH   4   5
ENDBRANCH   1   3
BRANCH   2  29
HETATM   29  C11 UNL     1      -2.366  49.890 -25.749  1.00  0.00     0.149 C 
BRANCH  29  30
HETATM   30  N1  UNL     1      -1.565  51.057 -26.028  1.00  0.00    -0.357 N 
HETATM   31  C12 UNL     1      -0.214  50.992 -26.280  1.00  0.00     0.228 C 
HETATM   32  O3  UNL     1       0.398  49.927 -26.295  1.00  0.00    -0.273 OA
HETATM   33  H19 UNL     1      -1.996  51.977 -25.959  1.00  0.00     0.162 HD
BRANCH  31  34
HETATM   34  C13 UNL     1       0.467  52.353 -26.551  1.00  0.00     0.063 C 
HETATM   35  C14 UNL     1       1.991  52.169 -26.351  1.00  0.00     0.028 C 
HETATM   36  C15 UNL     1       0.209  52.724 -28.023  1.00  0.00     0.028 C 
BRANCH  34  37
HETATM   37  C16 UNL     1      -0.107  53.381 -25.529  1.00  0.00     0.164 C 
BRANCH  37  38
HETATM   38  O4  UNL     1       0.120  54.725 -25.984  1.00  0.00    -0.390 OA
HETATM   39  H27 UNL     1      -0.183  55.311 -25.266  1.00  0.00     0.210 HD
ENDBRANCH  37  38
BRANCH  37  40
HETATM   40  C17 UNL     1       0.389  53.294 -24.087  1.00  0.00    -0.054 C 
HETATM   41  C18 UNL     1       1.282  54.407 -23.602  1.00  0.00     0.046 C 
HETATM   42  C19 UNL     1      -0.003  52.253 -23.323  1.00  0.00     0.005 C 
BRANCH  42  43
HETATM   43  C20 UNL     1       0.387  51.971 -21.957  1.00  0.00     0.000 C 
HETATM   44  C21 UNL     1      -0.319  52.420 -20.907  1.00  0.00     0.000 C 
BRANCH  44  45
HETATM   45  C22 UNL     1       0.036  52.142 -19.527  1.00  0.00     0.001 C 
HETATM   46  C23 UNL     1      -0.231  50.962 -18.943  1.00  0.00     0.009 C 
BRANCH  46  47
HETATM   47  C24 UNL     1       0.101  50.559 -17.569  1.00  0.00    -0.034 C 
HETATM   48  C25 UNL     1      -0.435  49.208 -17.129  1.00  0.00     0.050 C 
HETATM   49  C26 UNL     1       0.844  51.368 -16.775  1.00  0.00     0.082 C 
HETATM   50  C27 UNL     1       1.478  52.701 -17.006  1.00  0.00     0.075 C 
BRANCH  49  51
HETATM   51  N2  UNL     1       1.096  50.918 -15.418  1.00  0.00    -0.120 N 
HETATM   52  O5  UNL     1       2.278  50.736 -15.102  1.00  0.00    -0.532 OA
HETATM   53  O6  UNL     1       0.112  50.780 -14.681  1.00  0.00    -0.532 OA
ENDBRANCH  49  51
ENDBRANCH  46  47
ENDBRANCH  44  45
ENDBRANCH  42  43
ENDBRANCH  37  40
ENDBRANCH  34  37
ENDBRANCH  31  34
ENDBRANCH  29  30
ENDBRANCH   2  29
TORSDOF 19
ENDMDL
MODEL 9
REMARK minimizedAffinity -8.733675
REMARK CNNscore 0.217753842
REMARK CNNaffinity 6.69957972
REMARK  19 active torsions:
REMARK  status: ('A' for Active; 'I' for Inactive)
REMARK    1  A    between atoms: O1_2  and  C2_3 
REMARK    2  A    between atoms: C2_3  and  C3_4 
REMARK    3  A    between atoms: C2_3  and  C28_36 
REMARK    4  A    between atoms: C3_4  and  C4_5 
REMARK    5  A    between atoms: C4_5  and  C6_7 
REMARK    6  A    between atoms: C6_7  and  O2_8 
REMARK    7  A    between atoms: C6_7  and  C7_9 
REMARK    8  A    between atoms: C8_10  and  C9_11 
REMARK    9  A    between atoms: C10_12  and  C11_13 
REMARK   10  A    between atoms: C11_13  and  N1_14 
REMARK       I    between atoms: N1_14  and  C12_15 
REMARK   11  A    between atoms: C12_15  and  C13_17 
REMARK   12  A    between atoms: C13_17  and  C16_20 
REMARK   13  A    between atoms: C16_20  and  O4_21 
REMARK   14  A    between atoms: C16_20  and  C17_22 
REMARK   15  A    between atoms: C19_24  and  C20_25 
REMARK   16  A    between atoms: C21_26  and  C22_27 
REMARK   17  A    between atoms: C23_28  and  C24_29 
REMARK   18  A    between atoms: C26_31  and  N2_33 
REMARK   19  A    between atoms: C28_36  and  O7_37 
ROOT
HETATM    1  C9  UNL     1      -4.997  48.094 -26.560  1.00  0.00    -0.003 C 
HETATM    2  C10 UNL     1      -3.823  48.741 -26.520  1.00  0.00    -0.007 C 
ENDROOT
BRANCH   1   3
HETATM    3  C8  UNL     1      -5.780  47.986 -27.770  1.00  0.00    -0.002 C 
HETATM    4  C7  UNL     1      -6.747  47.068 -27.945  1.00  0.00     0.005 C 
BRANCH   4   5
HETATM    5  C6  UNL     1      -7.582  46.890 -29.192  1.00  0.00     0.144 C 
BRANCH   5   6
HETATM    6  C4  UNL     1      -7.796  45.423 -29.642  1.00  0.00     0.016 C 
HETATM    7  C5  UNL     1      -7.416  44.435 -28.520  1.00  0.00     0.013 C 
BRANCH   6   8
HETATM    8  C3  UNL     1      -7.067  44.998 -30.940  1.00  0.00     0.042 C 
BRANCH   8   9
HETATM    9  C2  UNL     1      -7.855  44.320 -32.084  1.00  0.00     0.159 C 
BRANCH   9  10
HETATM   10  O1  UNL     1      -7.058  43.309 -32.734  1.00  0.00    -0.388 OA
HETATM   11  C1  UNL     1      -5.929  42.916 -31.955  1.00  0.00     0.202 C 
ENDBRANCH   9  10
BRANCH   9  12
HETATM   12  C28 UNL     1      -8.483  45.200 -33.225  1.00  0.00     0.133 C 
HETATM   13  C29 UNL     1      -7.940  46.656 -33.299  1.00  0.00     0.114 C 
HETATM   14  C30 UNL     1      -7.925  47.270 -34.700  1.00  0.00     0.023 C 
HETATM   15  C31 UNL     1      -8.923  47.434 -32.449  1.00  0.00     0.227 C 
HETATM   16  O8  UNL     1      -8.714  48.523 -31.942  1.00  0.00    -0.273 OA
HETATM   17  N3  UNL     1     -10.099  46.707 -32.388  1.00  0.00    -0.332 N 
HETATM   18  C32 UNL     1     -11.201  47.085 -31.533  1.00  0.00     0.154 C 
HETATM   19  C33 UNL     1     -10.004  45.383 -33.078  1.00  0.00     0.183 C 
HETATM   20  C34 UNL     1     -10.850  44.211 -32.511  1.00  0.00     0.294 C 
HETATM   21  C35 UNL     1     -11.031  45.252 -34.262  1.00  0.00     0.169 C 
HETATM   22  O9  UNL     1     -10.836  43.485 -31.541  1.00  0.00    -0.262 OA
HETATM   23  O10 UNL     1     -11.776  44.254 -33.499  1.00  0.00    -0.311 OA
HETATM   24  C36 UNL     1     -10.705  44.687 -35.634  1.00  0.00     0.043 C 
BRANCH  12  25
HETATM   25  O7  UNL     1      -8.164  44.523 -34.454  1.00  0.00    -0.383 OA
HETATM   26  H42 UNL     1      -7.222  44.261 -34.373  1.00  0.00     0.210 HD
ENDBRANCH  12  25
ENDBRANCH   9  12
ENDBRANCH   8   9
ENDBRANCH   6   8
ENDBRANCH   5   6
BRANCH   5  27
HETATM   27  O2  UNL     1      -8.868  47.489 -28.999  1.00  0.00    -0.391 OA
HETATM   28  H12 UNL     1      -8.708  48.429 -28.809  1.00  0.00     0.210 HD
ENDBRANCH   5  27
ENDBRANCH   4   5
ENDBRANCH   1   3
BRANCH   2  29
HETATM   29  C11 UNL     1      -2.989  48.885 -25.286  1.00  0.00     0.149 C 
BRANCH  29  30
HETATM   30  N1  UNL     1      -1.871  49.736 -25.609  1.00  0.00    -0.357 N 
HETATM   31  C12 UNL     1      -2.015  50.953 -26.235  1.00  0.00     0.228 C 
HETATM   32  O3  UNL     1      -3.115  51.399 -26.551  1.00  0.00    -0.273 OA
HETATM   33  H19 UNL     1      -0.927  49.392 -25.441  1.00  0.00     0.162 HD
BRANCH  31  34
HETATM   34  C13 UNL     1      -0.695  51.713 -26.500  1.00  0.00     0.063 C 
HETATM   35  C14 UNL     1       0.476  50.747 -26.200  1.00  0.00     0.028 C 
HETATM   36  C15 UNL     1      -0.656  52.082 -27.994  1.00  0.00     0.028 C 
BRANCH  34  37
HETATM   37  C16 UNL     1      -0.659  52.944 -25.543  1.00  0.00     0.164 C 
BRANCH  37  38
HETATM   38  O4  UNL     1       0.610  53.614 -25.630  1.00  0.00    -0.390 OA
HETATM   39  H27 UNL     1       0.597  54.314 -24.951  1.00  0.00     0.210 HD
ENDBRANCH  37  38
BRANCH  37  40
HETATM   40  C17 UNL     1      -0.946  52.696 -24.063  1.00  0.00    -0.054 C 
HETATM   41  C18 UNL     1      -2.393  52.636 -23.647  1.00  0.00     0.046 C 
HETATM   42  C19 UNL     1       0.091  52.526 -23.216  1.00  0.00     0.005 C 
BRANCH  42  43
HETATM   43  C20 UNL     1       0.030  52.322 -21.784  1.00  0.00     0.000 C 
HETATM   44  C21 UNL     1       0.572  53.192 -20.916  1.00  0.00     0.000 C 
BRANCH  44  45
HETATM   45  C22 UNL     1       0.515  53.025 -19.476  1.00  0.00     0.001 C 
HETATM   46  C23 UNL     1       0.345  51.823 -18.900  1.00  0.00     0.009 C 
BRANCH  46  47
HETATM   47  C24 UNL     1       0.296  51.529 -17.460  1.00  0.00    -0.034 C 
HETATM   48  C25 UNL     1      -0.922  50.757 -16.984  1.00  0.00     0.050 C 
HETATM   49  C26 UNL     1       1.297  51.935 -16.641  1.00  0.00     0.082 C 
HETATM   50  C27 UNL     1       2.570  52.675 -16.895  1.00  0.00     0.075 C 
BRANCH  49  51
HETATM   51  N2  UNL     1       1.157  51.642 -15.227  1.00  0.00    -0.120 N 
HETATM   52  O5  UNL     1       0.592  52.497 -14.534  1.00  0.00    -0.532 OA
HETATM   53  O6  UNL     1       1.591  50.552 -14.833  1.00  0.00    -0.532 OA
ENDBRANCH  49  51
ENDBRANCH  46  47
ENDBRANCH  44  45
ENDBRANCH  42  43
ENDBRANCH  37  40
ENDBRANCH  34  37
ENDBRANCH  31  34
ENDBRANCH  29  30
ENDBRANCH   2  29
TORSDOF 19
ENDMDL
