MODEL 1
REMARK minimizedAffinity -8.91583252
REMARK CNNscore 0.650595427
REMARK CNNaffinity 6.76837778
REMARK  7 active torsions:
REMARK  status: ('A' for Active; 'I' for Inactive)
REMARK    1  A    between atoms: C2_2  and  C30_33 
REMARK    2  A    between atoms: C3_3  and  C4_4 
REMARK    3  A    between atoms: C4_4  and  C5_5 
REMARK    4  A    between atoms: C5_5  and  C6_6 
REMARK    5  A    between atoms: C6_6  and  C8_8 
REMARK    6  A    between atoms: C10_10  and  O1_11 
REMARK    7  A    between atoms: C30_33  and  O5_35 
ROOT
HETATM    1  C8  UNL     1      -2.086   9.128  16.274  1.00  0.00     0.001 C 
HETATM    2  C9  UNL     1      -3.239   9.607  15.356  1.00  0.00     0.038 C 
HETATM    3  C10 UNL     1      -2.771   9.365  13.899  1.00  0.00     0.131 C 
HETATM    4  C11 UNL     1      -1.532   8.432  14.026  1.00  0.00     0.014 C 
HETATM    5  C12 UNL     1      -2.034   6.959  14.158  1.00  0.00     0.023 C 
HETATM    6  C13 UNL     1      -0.486   8.387  12.915  1.00  0.00    -0.058 C 
HETATM    7  C14 UNL     1       0.807   8.055  13.161  1.00  0.00    -0.000 C 
HETATM    8  C15 UNL     1       1.214   7.794  14.616  1.00  0.00     0.157 C 
HETATM    9  O2  UNL     1       2.320   7.328  14.893  1.00  0.00    -0.293 OA
HETATM   10  C16 UNL     1       0.252   8.110  15.758  1.00  0.00     0.094 C 
HETATM   11  C17 UNL     1      -0.868   9.042  15.308  1.00  0.00    -0.019 C 
HETATM   12  C18 UNL     1      -0.249  10.456  15.084  1.00  0.00     0.017 C 
HETATM   13  C19 UNL     1       1.913   8.012  12.071  1.00  0.00    -0.008 C 
HETATM   14  C20 UNL     1       2.947   9.098  12.494  1.00  0.00     0.021 C 
HETATM   15  C21 UNL     1       2.616   6.619  12.036  1.00  0.00     0.022 C 
HETATM   16  C22 UNL     1       2.091   5.673  10.969  1.00  0.00     0.080 C 
HETATM   17  C23 UNL     1       2.286   6.245   9.586  1.00  0.00     0.135 C 
HETATM   18  O3  UNL     1       2.483   5.497   8.626  1.00  0.00    -0.297 OA
HETATM   19  C24 UNL     1       2.219   7.768   9.425  1.00  0.00     0.018 C 
HETATM   20  C25 UNL     1       3.665   8.292   9.349  1.00  0.00     0.023 C 
HETATM   21  C26 UNL     1       1.571   8.086   8.056  1.00  0.00     0.023 C 
HETATM   22  C27 UNL     1       1.390   8.398  10.615  1.00  0.00     0.014 C 
HETATM   23  C28 UNL     1      -0.116   8.096  10.444  1.00  0.00     0.011 C 
HETATM   24  C29 UNL     1      -0.978   8.700  11.536  1.00  0.00     0.036 C 
ENDROOT
BRANCH   1  25
HETATM   25  C6  UNL     1      -1.909   9.872  17.632  1.00  0.00    -0.013 C 
HETATM   26  C7  UNL     1      -3.117  10.801  17.851  1.00  0.00     0.010 C 
BRANCH  25  27
HETATM   27  C5  UNL     1      -0.605  10.688  17.778  1.00  0.00     0.008 C 
BRANCH  27  28
HETATM   28  C4  UNL     1      -0.483  11.390  19.137  1.00  0.00     0.028 C 
BRANCH  28  29
HETATM   29  C3  UNL     1       0.552  10.719  19.997  1.00  0.00    -0.013 C 
HETATM   30  C2  UNL     1       1.883  10.673  19.788  1.00  0.00     0.008 C 
HETATM   31  C1  UNL     1       2.607  11.251  18.609  1.00  0.00     0.055 C 
BRANCH  30  32
HETATM   32  C30 UNL     1       2.690   9.959  20.813  1.00  0.00     0.171 C 
HETATM   33  O4  UNL     1       3.897  10.016  20.960  1.00  0.00    -0.646 OA
BRANCH  32  34
HETATM   34  O5  UNL     1       1.932   9.194  21.616  1.00  0.00    -0.773 OA
HETATM   35  H44 UNL     1       2.584   8.789  22.224  1.00  0.00     0.167 HD
ENDBRANCH  32  34
ENDBRANCH  30  32
ENDBRANCH  28  29
ENDBRANCH  27  28
ENDBRANCH  25  27
ENDBRANCH   1  25
BRANCH   3  36
HETATM   36  O1  UNL     1      -3.827   8.807  13.131  1.00  0.00    -0.394 OA
HETATM   37  H17 UNL     1      -4.582   9.419  13.181  1.00  0.00     0.210 HD
ENDBRANCH   3  36
TORSDOF 7
ENDMDL
MODEL 2
REMARK minimizedAffinity -6.81560612
REMARK CNNscore 0.582646489
REMARK CNNaffinity 7.19412374
REMARK  7 active torsions:
REMARK  status: ('A' for Active; 'I' for Inactive)
REMARK    1  A    between atoms: C2_2  and  C30_33 
REMARK    2  A    between atoms: C3_3  and  C4_4 
REMARK    3  A    between atoms: C4_4  and  C5_5 
REMARK    4  A    between atoms: C5_5  and  C6_6 
REMARK    5  A    between atoms: C6_6  and  C8_8 
REMARK    6  A    between atoms: C10_10  and  O1_11 
REMARK    7  A    between atoms: C30_33  and  O5_35 
ROOT
HETATM    1  C8  UNL     1      -8.458   7.317  15.654  1.00  0.00     0.001 C 
HETATM    2  C9  UNL     1      -8.999   6.019  15.002  1.00  0.00     0.038 C 
HETATM    3  C10 UNL     1      -7.789   5.328  14.327  1.00  0.00     0.131 C 
HETATM    4  C11 UNL     1      -6.539   6.050  14.910  1.00  0.00     0.014 C 
HETATM    5  C12 UNL     1      -6.195   5.405  16.291  1.00  0.00     0.023 C 
HETATM    6  C13 UNL     1      -5.220   6.046  14.142  1.00  0.00    -0.058 C 
HETATM    7  C14 UNL     1      -4.305   7.037  14.285  1.00  0.00    -0.000 C 
HETATM    8  C15 UNL     1      -4.664   8.217  15.195  1.00  0.00     0.157 C 
HETATM    9  O2  UNL     1      -3.823   9.063  15.502  1.00  0.00    -0.293 OA
HETATM   10  C16 UNL     1      -6.081   8.371  15.741  1.00  0.00     0.094 C 
HETATM   11  C17 UNL     1      -7.079   7.520  14.962  1.00  0.00    -0.019 C 
HETATM   12  C18 UNL     1      -7.264   8.172  13.557  1.00  0.00     0.017 C 
HETATM   13  C19 UNL     1      -2.957   7.090  13.514  1.00  0.00    -0.008 C 
HETATM   14  C20 UNL     1      -3.036   8.378  12.640  1.00  0.00     0.021 C 
HETATM   15  C21 UNL     1      -1.750   7.208  14.496  1.00  0.00     0.022 C 
HETATM   16  C22 UNL     1      -1.058   5.891  14.807  1.00  0.00     0.080 C 
HETATM   17  C23 UNL     1      -0.487   5.265  13.559  1.00  0.00     0.135 C 
HETATM   18  O3  UNL     1       0.536   4.579  13.620  1.00  0.00    -0.297 OA
HETATM   19  C24 UNL     1      -1.226   5.500  12.237  1.00  0.00     0.018 C 
HETATM   20  C25 UNL     1      -0.474   6.606  11.475  1.00  0.00     0.023 C 
HETATM   21  C26 UNL     1      -1.104   4.220  11.375  1.00  0.00     0.023 C 
HETATM   22  C27 UNL     1      -2.739   5.859  12.524  1.00  0.00     0.014 C 
HETATM   23  C28 UNL     1      -3.514   4.604  12.985  1.00  0.00     0.011 C 
HETATM   24  C29 UNL     1      -4.984   4.869  13.247  1.00  0.00     0.036 C 
ENDROOT
BRANCH   1  25
HETATM   25  C6  UNL     1      -9.437   8.528  15.734  1.00  0.00    -0.013 C 
HETATM   26  C7  UNL     1     -10.121   8.525  17.113  1.00  0.00     0.010 C 
BRANCH  25  27
HETATM   27  C5  UNL     1     -10.517   8.585  14.630  1.00  0.00     0.008 C 
BRANCH  27  28
HETATM   28  C4  UNL     1     -11.929   8.292  15.154  1.00  0.00     0.028 C 
BRANCH  28  29
HETATM   29  C3  UNL     1     -12.914   8.202  14.022  1.00  0.00    -0.013 C 
HETATM   30  C2  UNL     1     -13.987   8.991  13.806  1.00  0.00     0.008 C 
HETATM   31  C1  UNL     1     -14.448  10.107  14.695  1.00  0.00     0.055 C 
BRANCH  30  32
HETATM   32  C30 UNL     1     -14.788   8.699  12.588  1.00  0.00     0.171 C 
HETATM   33  O4  UNL     1     -14.957   9.434  11.632  1.00  0.00    -0.646 OA
BRANCH  32  34
HETATM   34  O5  UNL     1     -15.352   7.480  12.629  1.00  0.00    -0.773 OA
HETATM   35  H44 UNL     1     -15.843   7.430  11.783  1.00  0.00     0.167 HD
ENDBRANCH  32  34
ENDBRANCH  30  32
ENDBRANCH  28  29
ENDBRANCH  27  28
ENDBRANCH  25  27
ENDBRANCH   1  25
BRANCH   3  36
HETATM   36  O1  UNL     1      -7.813   3.932  14.587  1.00  0.00    -0.394 OA
HETATM   37  H17 UNL     1      -8.664   3.588  14.265  1.00  0.00     0.210 HD
ENDBRANCH   3  36
TORSDOF 7
ENDMDL
MODEL 3
REMARK minimizedAffinity -7.76174545
REMARK CNNscore 0.566696882
REMARK CNNaffinity 6.53209162
REMARK  7 active torsions:
REMARK  status: ('A' for Active; 'I' for Inactive)
REMARK    1  A    between atoms: C2_2  and  C30_33 
REMARK    2  A    between atoms: C3_3  and  C4_4 
REMARK    3  A    between atoms: C4_4  and  C5_5 
REMARK    4  A    between atoms: C5_5  and  C6_6 
REMARK    5  A    between atoms: C6_6  and  C8_8 
REMARK    6  A    between atoms: C10_10  and  O1_11 
REMARK    7  A    between atoms: C30_33  and  O5_35 
ROOT
HETATM    1  C8  UNL     1      -0.940   7.598  13.847  1.00  0.00     0.001 C 
HETATM    2  C9  UNL     1      -1.364   6.583  14.939  1.00  0.00     0.038 C 
HETATM    3  C10 UNL     1      -2.129   7.391  16.016  1.00  0.00     0.131 C 
HETATM    4  C11 UNL     1      -2.436   8.762  15.347  1.00  0.00     0.014 C 
HETATM    5  C12 UNL     1      -3.725   8.611  14.479  1.00  0.00     0.023 C 
HETATM    6  C13 UNL     1      -2.689   9.998  16.206  1.00  0.00    -0.058 C 
HETATM    7  C14 UNL     1      -2.432  11.251  15.753  1.00  0.00    -0.000 C 
HETATM    8  C15 UNL     1      -1.802  11.394  14.363  1.00  0.00     0.157 C 
HETATM    9  O2  UNL     1      -1.696  12.495  13.823  1.00  0.00    -0.293 OA
HETATM   10  C16 UNL     1      -1.285  10.166  13.617  1.00  0.00     0.094 C 
HETATM   11  C17 UNL     1      -1.102   8.976  14.553  1.00  0.00    -0.019 C 
HETATM   12  C18 UNL     1       0.131   9.271  15.461  1.00  0.00     0.017 C 
HETATM   13  C19 UNL     1      -2.655  12.539  16.593  1.00  0.00    -0.008 C 
HETATM   14  C20 UNL     1      -1.240  13.170  16.758  1.00  0.00     0.021 C 
HETATM   15  C21 UNL     1      -3.583  13.546  15.844  1.00  0.00     0.022 C 
HETATM   16  C22 UNL     1      -5.041  13.499  16.271  1.00  0.00     0.080 C 
HETATM   17  C23 UNL     1      -5.194  13.838  17.733  1.00  0.00     0.135 C 
HETATM   18  O3  UNL     1      -6.212  14.405  18.136  1.00  0.00    -0.297 OA
HETATM   19  C24 UNL     1      -4.058  13.444  18.683  1.00  0.00     0.018 C 
HETATM   20  C25 UNL     1      -3.215  14.705  18.949  1.00  0.00     0.023 C 
HETATM   21  C26 UNL     1      -4.676  13.042  20.044  1.00  0.00     0.023 C 
HETATM   22  C27 UNL     1      -3.222  12.257  18.056  1.00  0.00     0.014 C 
HETATM   23  C28 UNL     1      -4.025  10.938  18.120  1.00  0.00     0.011 C 
HETATM   24  C29 UNL     1      -3.268   9.747  17.565  1.00  0.00     0.036 C 
ENDROOT
BRANCH   1  25
HETATM   25  C6  UNL     1       0.387   7.302  13.086  1.00  0.00    -0.013 C 
HETATM   26  C7  UNL     1       1.496   7.009  14.113  1.00  0.00     0.010 C 
BRANCH  25  27
HETATM   27  C5  UNL     1       0.865   8.413  12.124  1.00  0.00     0.008 C 
BRANCH  27  28
HETATM   28  C4  UNL     1       1.081   7.916  10.689  1.00  0.00     0.028 C 
BRANCH  28  29
HETATM   29  C3  UNL     1       2.134   6.844  10.645  1.00  0.00    -0.013 C 
HETATM   30  C2  UNL     1       2.692   6.290   9.550  1.00  0.00     0.008 C 
HETATM   31  C1  UNL     1       2.334   6.604   8.128  1.00  0.00     0.055 C 
BRANCH  30  32
HETATM   32  C30 UNL     1       3.737   5.259   9.789  1.00  0.00     0.171 C 
HETATM   33  O4  UNL     1       4.929   5.451   9.946  1.00  0.00    -0.646 OA
BRANCH  32  34
HETATM   34  O5  UNL     1       3.229   4.016   9.818  1.00  0.00    -0.773 OA
HETATM   35  H44 UNL     1       4.015   3.453   9.973  1.00  0.00     0.167 HD
ENDBRANCH  32  34
ENDBRANCH  30  32
ENDBRANCH  28  29
ENDBRANCH  27  28
ENDBRANCH  25  27
ENDBRANCH   1  25
BRANCH   3  36
HETATM   36  O1  UNL     1      -3.292   6.685  16.425  1.00  0.00    -0.394 OA
HETATM   37  H17 UNL     1      -3.007   5.812  16.748  1.00  0.00     0.210 HD
ENDBRANCH   3  36
TORSDOF 7
ENDMDL
MODEL 4
REMARK minimizedAffinity -8.7761898
REMARK CNNscore 0.5389992
REMARK CNNaffinity 7.14468813
REMARK  7 active torsions:
REMARK  status: ('A' for Active; 'I' for Inactive)
REMARK    1  A    between atoms: C2_2  and  C30_33 
REMARK    2  A    between atoms: C3_3  and  C4_4 
REMARK    3  A    between atoms: C4_4  and  C5_5 
REMARK    4  A    between atoms: C5_5  and  C6_6 
REMARK    5  A    between atoms: C6_6  and  C8_8 
REMARK    6  A    between atoms: C10_10  and  O1_11 
REMARK    7  A    between atoms: C30_33  and  O5_35 
ROOT
HETATM    1  C8  UNL     1      -5.861   6.115  14.753  1.00  0.00     0.001 C 
HETATM    2  C9  UNL     1      -6.112   4.913  13.808  1.00  0.00     0.038 C 
HETATM    3  C10 UNL     1      -4.825   4.741  12.964  1.00  0.00     0.131 C 
HETATM    4  C11 UNL     1      -3.751   5.604  13.689  1.00  0.00     0.014 C 
HETATM    5  C12 UNL     1      -3.150   4.764  14.861  1.00  0.00     0.023 C 
HETATM    6  C13 UNL     1      -2.539   6.126  12.924  1.00  0.00    -0.058 C 
HETATM    7  C14 UNL     1      -1.890   7.258  13.294  1.00  0.00    -0.000 C 
HETATM    8  C15 UNL     1      -2.459   8.055  14.475  1.00  0.00     0.157 C 
HETATM    9  O2  UNL     1      -1.833   8.992  14.969  1.00  0.00    -0.293 OA
HETATM   10  C16 UNL     1      -3.822   7.700  15.063  1.00  0.00     0.094 C 
HETATM   11  C17 UNL     1      -4.634   6.828  14.112  1.00  0.00    -0.019 C 
HETATM   12  C18 UNL     1      -5.087   7.721  12.917  1.00  0.00     0.017 C 
HETATM   13  C19 UNL     1      -0.663   7.841  12.540  1.00  0.00    -0.008 C 
HETATM   14  C20 UNL     1      -1.129   9.232  12.015  1.00  0.00     0.021 C 
HETATM   15  C21 UNL     1       0.551   8.034  13.502  1.00  0.00     0.022 C 
HETATM   16  C22 UNL     1       1.571   6.908  13.466  1.00  0.00     0.080 C 
HETATM   17  C23 UNL     1       2.179   6.765  12.092  1.00  0.00     0.135 C 
HETATM   18  O3  UNL     1       3.342   6.376  11.965  1.00  0.00    -0.297 OA
HETATM   19  C24 UNL     1       1.302   7.105  10.881  1.00  0.00     0.018 C 
HETATM   20  C25 UNL     1       1.693   8.517  10.407  1.00  0.00     0.023 C 
HETATM   21  C26 UNL     1       1.671   6.143   9.726  1.00  0.00     0.023 C 
HETATM   22  C27 UNL     1      -0.225   6.979  11.272  1.00  0.00     0.014 C 
HETATM   23  C28 UNL     1      -0.625   5.493  11.418  1.00  0.00     0.011 C 
HETATM   24  C29 UNL     1      -2.088   5.296  11.760  1.00  0.00     0.036 C 
ENDROOT
BRANCH   1  25
HETATM   25  C6  UNL     1      -7.100   6.974  15.147  1.00  0.00    -0.013 C 
HETATM   26  C7  UNL     1      -7.436   6.716  16.627  1.00  0.00     0.010 C 
BRANCH  25  27
HETATM   27  C5  UNL     1      -8.367   6.747  14.290  1.00  0.00     0.008 C 
BRANCH  27  28
HETATM   28  C4  UNL     1      -9.657   7.185  14.996  1.00  0.00     0.028 C 
BRANCH  28  29
HETATM   29  C3  UNL     1     -10.555   7.938  14.054  1.00  0.00    -0.013 C 
HETATM   30  C2  UNL     1     -11.840   7.663  13.753  1.00  0.00     0.008 C 
HETATM   31  C1  UNL     1     -12.633   6.501  14.272  1.00  0.00     0.055 C 
BRANCH  30  32
HETATM   32  C30 UNL     1     -12.510   8.589  12.802  1.00  0.00     0.171 C 
HETATM   33  O4  UNL     1     -13.677   8.561  12.457  1.00  0.00    -0.646 OA
BRANCH  32  34
HETATM   34  O5  UNL     1     -11.670   9.519  12.319  1.00  0.00    -0.773 OA
HETATM   35  H44 UNL     1     -12.234  10.043  11.714  1.00  0.00     0.167 HD
ENDBRANCH  32  34
ENDBRANCH  30  32
ENDBRANCH  28  29
ENDBRANCH  27  28
ENDBRANCH  25  27
ENDBRANCH   1  25
BRANCH   3  36
HETATM   36  O1  UNL     1      -4.480   3.366  12.869  1.00  0.00    -0.394 OA
HETATM   37  H17 UNL     1      -5.242   2.898  12.484  1.00  0.00     0.210 HD
ENDBRANCH   3  36
TORSDOF 7
ENDMDL
MODEL 5
REMARK minimizedAffinity -8.05589104
REMARK CNNscore 0.507843554
REMARK CNNaffinity 6.95286703
REMARK  7 active torsions:
REMARK  status: ('A' for Active; 'I' for Inactive)
REMARK    1  A    between atoms: C2_2  and  C30_33 
REMARK    2  A    between atoms: C3_3  and  C4_4 
REMARK    3  A    between atoms: C4_4  and  C5_5 
REMARK    4  A    between atoms: C5_5  and  C6_6 
REMARK    5  A    between atoms: C6_6  and  C8_8 
REMARK    6  A    between atoms: C10_10  and  O1_11 
REMARK    7  A    between atoms: C30_33  and  O5_35 
ROOT
HETATM    1  C8  UNL     1     -10.433   7.831  14.967  1.00  0.00     0.001 C 
HETATM    2  C9  UNL     1      -9.953   9.269  14.646  1.00  0.00     0.038 C 
HETATM    3  C10 UNL     1     -11.188  10.035  14.109  1.00  0.00     0.131 C 
HETATM    4  C11 UNL     1     -12.406   9.138  14.474  1.00  0.00     0.014 C 
HETATM    5  C12 UNL     1     -12.810   9.430  15.954  1.00  0.00     0.023 C 
HETATM    6  C13 UNL     1     -13.709   9.251  13.686  1.00  0.00    -0.058 C 
HETATM    7  C14 UNL     1     -14.570   8.209  13.571  1.00  0.00    -0.000 C 
HETATM    8  C15 UNL     1     -14.162   6.871  14.199  1.00  0.00     0.157 C 
HETATM    9  O2  UNL     1     -14.960   5.937  14.279  1.00  0.00    -0.293 OA
HETATM   10  C16 UNL     1     -12.748   6.668  14.738  1.00  0.00     0.094 C 
HETATM   11  C17 UNL     1     -11.786   7.724  14.205  1.00  0.00    -0.019 C 
HETATM   12  C18 UNL     1     -11.539   7.422  12.695  1.00  0.00     0.017 C 
HETATM   13  C19 UNL     1     -15.898   8.267  12.768  1.00  0.00    -0.008 C 
HETATM   14  C20 UNL     1     -15.732   7.220  11.626  1.00  0.00     0.021 C 
HETATM   15  C21 UNL     1     -17.115   7.867  13.660  1.00  0.00     0.022 C 
HETATM   16  C22 UNL     1     -17.885   9.040  14.242  1.00  0.00     0.080 C 
HETATM   17  C23 UNL     1     -18.466   9.907  13.152  1.00  0.00     0.135 C 
HETATM   18  O3  UNL     1     -19.527  10.508  13.336  1.00  0.00    -0.297 OA
HETATM   19  C24 UNL     1     -17.691  10.019  11.835  1.00  0.00     0.018 C 
HETATM   20  C25 UNL     1     -18.367   9.081  10.818  1.00  0.00     0.023 C 
HETATM   21  C26 UNL     1     -17.869  11.455  11.283  1.00  0.00     0.023 C 
HETATM   22  C27 UNL     1     -16.166   9.680  12.079  1.00  0.00     0.014 C 
HETATM   23  C28 UNL     1     -15.471  10.833  12.837  1.00  0.00     0.011 C 
HETATM   24  C29 UNL     1     -13.994  10.589  13.077  1.00  0.00     0.036 C 
ENDROOT
BRANCH   1  25
HETATM   25  C6  UNL     1      -9.390   6.685  14.798  1.00  0.00    -0.013 C 
HETATM   26  C7  UNL     1      -8.107   7.063  15.562  1.00  0.00     0.010 C 
BRANCH  25  27
HETATM   27  C5  UNL     1      -9.027   6.324  13.340  1.00  0.00     0.008 C 
BRANCH  27  28
HETATM   28  C4  UNL     1      -7.600   5.780  13.192  1.00  0.00     0.028 C 
BRANCH  28  29
HETATM   29  C3  UNL     1      -7.616   4.349  12.731  1.00  0.00    -0.013 C 
HETATM   30  C2  UNL     1      -6.557   3.533  12.561  1.00  0.00     0.008 C 
HETATM   31  C1  UNL     1      -5.119   3.910  12.755  1.00  0.00     0.055 C 
BRANCH  30  32
HETATM   32  C30 UNL     1      -6.855   2.146  12.116  1.00  0.00     0.171 C 
HETATM   33  O4  UNL     1      -6.171   1.451  11.387  1.00  0.00    -0.646 OA
BRANCH  32  34
HETATM   34  O5  UNL     1      -8.017   1.690  12.612  1.00  0.00    -0.773 OA
HETATM   35  H44 UNL     1      -8.084   0.787  12.239  1.00  0.00     0.167 HD
ENDBRANCH  32  34
ENDBRANCH  30  32
ENDBRANCH  28  29
ENDBRANCH  27  28
ENDBRANCH  25  27
ENDBRANCH   1  25
BRANCH   3  36
HETATM   36  O1  UNL     1     -11.247  11.334  14.681  1.00  0.00    -0.394 OA
HETATM   37  H17 UNL     1     -10.410  11.785  14.472  1.00  0.00     0.210 HD
ENDBRANCH   3  36
TORSDOF 7
ENDMDL
MODEL 6
REMARK minimizedAffinity -7.45705414
REMARK CNNscore 0.484403282
REMARK CNNaffinity 6.47102594
REMARK  7 active torsions:
REMARK  status: ('A' for Active; 'I' for Inactive)
REMARK    1  A    between atoms: C2_2  and  C30_33 
REMARK    2  A    between atoms: C3_3  and  C4_4 
REMARK    3  A    between atoms: C4_4  and  C5_5 
REMARK    4  A    between atoms: C5_5  and  C6_6 
REMARK    5  A    between atoms: C6_6  and  C8_8 
REMARK    6  A    between atoms: C10_10  and  O1_11 
REMARK    7  A    between atoms: C30_33  and  O5_35 
ROOT
HETATM    1  C8  UNL     1      -0.766   7.935  14.089  1.00  0.00     0.001 C 
HETATM    2  C9  UNL     1      -1.059   6.932  15.234  1.00  0.00     0.038 C 
HETATM    3  C10 UNL     1      -1.838   7.717  16.318  1.00  0.00     0.131 C 
HETATM    4  C11 UNL     1      -2.283   9.034  15.618  1.00  0.00     0.014 C 
HETATM    5  C12 UNL     1      -3.593   8.750  14.817  1.00  0.00     0.023 C 
HETATM    6  C13 UNL     1      -2.596  10.278  16.445  1.00  0.00    -0.058 C 
HETATM    7  C14 UNL     1      -2.460  11.529  15.938  1.00  0.00    -0.000 C 
HETATM    8  C15 UNL     1      -1.905  11.668  14.515  1.00  0.00     0.157 C 
HETATM    9  O2  UNL     1      -1.913  12.753  13.934  1.00  0.00    -0.293 OA
HETATM   10  C16 UNL     1      -1.326  10.458  13.788  1.00  0.00     0.094 C 
HETATM   11  C17 UNL     1      -1.007   9.322  14.754  1.00  0.00    -0.019 C 
HETATM   12  C18 UNL     1       0.238   9.747  15.593  1.00  0.00     0.017 C 
HETATM   13  C19 UNL     1      -2.748  12.827  16.743  1.00  0.00    -0.008 C 
HETATM   14  C20 UNL     1      -1.382  13.572  16.819  1.00  0.00     0.021 C 
HETATM   15  C21 UNL     1      -3.786  13.729  16.005  1.00  0.00     0.022 C 
HETATM   16  C22 UNL     1      -5.215  13.584  16.502  1.00  0.00     0.080 C 
HETATM   17  C23 UNL     1      -5.330  13.965  17.957  1.00  0.00     0.135 C 
HETATM   18  O3  UNL     1      -6.370  14.465  18.388  1.00  0.00    -0.297 OA
HETATM   19  C24 UNL     1      -4.124  13.697  18.865  1.00  0.00     0.018 C 
HETATM   20  C25 UNL     1      -3.375  15.029  19.048  1.00  0.00     0.023 C 
HETATM   21  C26 UNL     1      -4.647  13.299  20.267  1.00  0.00     0.023 C 
HETATM   22  C27 UNL     1      -3.225  12.556  18.240  1.00  0.00     0.014 C 
HETATM   23  C28 UNL     1      -3.916  11.181  18.387  1.00  0.00     0.011 C 
HETATM   24  C29 UNL     1      -3.092  10.034  17.837  1.00  0.00     0.036 C 
ENDROOT
BRANCH   1  25
HETATM   25  C6  UNL     1       0.545   7.715  13.276  1.00  0.00    -0.013 C 
HETATM   26  C7  UNL     1       0.410   8.420  11.914  1.00  0.00     0.010 C 
BRANCH  25  27
HETATM   27  C5  UNL     1       0.949   6.241  13.049  1.00  0.00     0.008 C 
BRANCH  27  28
HETATM   28  C4  UNL     1      -0.097   5.244  13.566  1.00  0.00     0.028 C 
BRANCH  28  29
HETATM   29  C3  UNL     1      -0.686   4.449  12.433  1.00  0.00    -0.013 C 
HETATM   30  C2  UNL     1      -1.961   4.470  11.996  1.00  0.00     0.008 C 
HETATM   31  C1  UNL     1      -3.080   5.271  12.592  1.00  0.00     0.055 C 
BRANCH  30  32
HETATM   32  C30 UNL     1      -2.277   3.598  10.835  1.00  0.00     0.171 C 
HETATM   33  O4  UNL     1      -1.512   2.846  10.258  1.00  0.00    -0.646 OA
BRANCH  32  34
HETATM   34  O5  UNL     1      -3.557   3.713  10.443  1.00  0.00    -0.773 OA
HETATM   35  H44 UNL     1      -3.618   3.099   9.682  1.00  0.00     0.167 HD
ENDBRANCH  32  34
ENDBRANCH  30  32
ENDBRANCH  28  29
ENDBRANCH  27  28
ENDBRANCH  25  27
ENDBRANCH   1  25
BRANCH   3  36
HETATM   36  O1  UNL     1      -2.921   6.938  16.805  1.00  0.00    -0.394 OA
HETATM   37  H17 UNL     1      -2.554   6.103  17.144  1.00  0.00     0.210 HD
ENDBRANCH   3  36
TORSDOF 7
ENDMDL
MODEL 7
REMARK minimizedAffinity -7.38985729
REMARK CNNscore 0.471437931
REMARK CNNaffinity 6.10763502
REMARK  7 active torsions:
REMARK  status: ('A' for Active; 'I' for Inactive)
REMARK    1  A    between atoms: C2_2  and  C30_33 
REMARK    2  A    between atoms: C3_3  and  C4_4 
REMARK    3  A    between atoms: C4_4  and  C5_5 
REMARK    4  A    between atoms: C5_5  and  C6_6 
REMARK    5  A    between atoms: C6_6  and  C8_8 
REMARK    6  A    between atoms: C10_10  and  O1_11 
REMARK    7  A    between atoms: C30_33  and  O5_35 
ROOT
HETATM    1  C8  UNL     1       0.181  12.862  19.747  1.00  0.00     0.001 C 
HETATM    2  C9  UNL     1      -1.050  13.666  19.257  1.00  0.00     0.038 C 
HETATM    3  C10 UNL     1      -1.503  13.010  17.929  1.00  0.00     0.131 C 
HETATM    4  C11 UNL     1      -0.756  11.645  17.881  1.00  0.00     0.014 C 
HETATM    5  C12 UNL     1      -1.566  10.608  18.723  1.00  0.00     0.023 C 
HETATM    6  C13 UNL     1      -0.508  10.950  16.545  1.00  0.00    -0.058 C 
HETATM    7  C14 UNL     1       0.538  10.106  16.360  1.00  0.00    -0.000 C 
HETATM    8  C15 UNL     1       1.522   9.919  17.521  1.00  0.00     0.157 C 
HETATM    9  O2  UNL     1       2.391   9.048  17.484  1.00  0.00    -0.293 OA
HETATM   10  C16 UNL     1       1.445  10.818  18.752  1.00  0.00     0.094 C 
HETATM   11  C17 UNL     1       0.626  12.075  18.480  1.00  0.00    -0.019 C 
HETATM   12  C18 UNL     1       1.464  12.992  17.536  1.00  0.00     0.017 C 
HETATM   13  C19 UNL     1       0.845   9.387  15.016  1.00  0.00    -0.008 C 
HETATM   14  C20 UNL     1       2.237   9.929  14.572  1.00  0.00     0.021 C 
HETATM   15  C21 UNL     1       0.933   7.841  15.210  1.00  0.00     0.022 C 
HETATM   16  C22 UNL     1      -0.338   7.087  14.859  1.00  0.00     0.080 C 
HETATM   17  C23 UNL     1      -0.705   7.280  13.408  1.00  0.00     0.135 C 
HETATM   18  O3  UNL     1      -1.284   6.384  12.789  1.00  0.00    -0.297 OA
HETATM   19  C24 UNL     1      -0.346   8.616  12.749  1.00  0.00     0.018 C 
HETATM   20  C25 UNL     1       0.934   8.398  11.923  1.00  0.00     0.023 C 
HETATM   21  C26 UNL     1      -1.459   8.976  11.735  1.00  0.00     0.023 C 
HETATM   22  C27 UNL     1      -0.191   9.736  13.855  1.00  0.00     0.014 C 
HETATM   23  C28 UNL     1      -1.575  10.136  14.417  1.00  0.00     0.011 C 
HETATM   24  C29 UNL     1      -1.504  11.231  15.462  1.00  0.00     0.036 C 
ENDROOT
BRANCH   1  25
HETATM   25  C6  UNL     1       1.259  13.646  20.555  1.00  0.00    -0.013 C 
HETATM   26  C7  UNL     1       1.482  15.016  19.889  1.00  0.00     0.010 C 
BRANCH  25  27
HETATM   27  C5  UNL     1       2.620  12.930  20.718  1.00  0.00     0.008 C 
BRANCH  27  28
HETATM   28  C4  UNL     1       3.209  13.070  22.127  1.00  0.00     0.028 C 
BRANCH  28  29
HETATM   29  C3  UNL     1       2.907  11.853  22.958  1.00  0.00    -0.013 C 
HETATM   30  C2  UNL     1       3.330  10.591  22.744  1.00  0.00     0.008 C 
HETATM   31  C1  UNL     1       4.162  10.130  21.585  1.00  0.00     0.055 C 
BRANCH  30  32
HETATM   32  C30 UNL     1       2.903   9.572  23.738  1.00  0.00     0.171 C 
HETATM   33  O4  UNL     1       2.550   9.776  24.886  1.00  0.00    -0.646 OA
BRANCH  32  34
HETATM   34  O5  UNL     1       2.943   8.326  23.241  1.00  0.00    -0.773 OA
HETATM   35  H44 UNL     1       2.648   7.771  23.992  1.00  0.00     0.167 HD
ENDBRANCH  32  34
ENDBRANCH  30  32
ENDBRANCH  28  29
ENDBRANCH  27  28
ENDBRANCH  25  27
ENDBRANCH   1  25
BRANCH   3  36
HETATM   36  O1  UNL     1      -2.917  12.885  17.900  1.00  0.00    -0.394 OA
HETATM   37  H17 UNL     1      -3.293  13.775  18.021  1.00  0.00     0.210 HD
ENDBRANCH   3  36
TORSDOF 7
ENDMDL
MODEL 8
REMARK minimizedAffinity -8.77639484
REMARK CNNscore 0.449511737
REMARK CNNaffinity 6.52509356
REMARK  7 active torsions:
REMARK  status: ('A' for Active; 'I' for Inactive)
REMARK    1  A    between atoms: C2_2  and  C30_33 
REMARK    2  A    between atoms: C3_3  and  C4_4 
REMARK    3  A    between atoms: C4_4  and  C5_5 
REMARK    4  A    between atoms: C5_5  and  C6_6 
REMARK    5  A    between atoms: C6_6  and  C8_8 
REMARK    6  A    between atoms: C10_10  and  O1_11 
REMARK    7  A    between atoms: C30_33  and  O5_35 
ROOT
HETATM    1  C8  UNL     1      -5.903   6.996  14.864  1.00  0.00     0.001 C 
HETATM    2  C9  UNL     1      -5.719   8.382  15.532  1.00  0.00     0.038 C 
HETATM    3  C10 UNL     1      -4.329   8.902  15.089  1.00  0.00     0.131 C 
HETATM    4  C11 UNL     1      -3.914   7.980  13.906  1.00  0.00     0.014 C 
HETATM    5  C12 UNL     1      -4.582   8.519  12.601  1.00  0.00     0.023 C 
HETATM    6  C13 UNL     1      -2.441   7.808  13.546  1.00  0.00    -0.058 C 
HETATM    7  C14 UNL     1      -1.977   6.685  12.942  1.00  0.00    -0.000 C 
HETATM    8  C15 UNL     1      -2.971   5.543  12.694  1.00  0.00     0.157 C 
HETATM    9  O2  UNL     1      -2.662   4.570  12.006  1.00  0.00    -0.293 OA
HETATM   10  C16 UNL     1      -4.371   5.590  13.301  1.00  0.00     0.094 C 
HETATM   11  C17 UNL     1      -4.459   6.608  14.433  1.00  0.00    -0.019 C 
HETATM   12  C18 UNL     1      -3.662   6.039  15.647  1.00  0.00     0.017 C 
HETATM   13  C19 UNL     1      -0.487   6.452  12.570  1.00  0.00    -0.008 C 
HETATM   14  C20 UNL     1      -0.041   5.222  13.415  1.00  0.00     0.021 C 
HETATM   15  C21 UNL     1      -0.329   6.119  11.054  1.00  0.00     0.022 C 
HETATM   16  C22 UNL     1       0.057   7.304  10.184  1.00  0.00     0.080 C 
HETATM   17  C23 UNL     1       1.389   7.877  10.599  1.00  0.00     0.135 C 
HETATM   18  O3  UNL     1       2.131   8.396   9.762  1.00  0.00    -0.297 OA
HETATM   19  C24 UNL     1       1.771   7.802  12.082  1.00  0.00     0.018 C 
HETATM   20  C25 UNL     1       2.743   6.620  12.251  1.00  0.00     0.023 C 
HETATM   21  C26 UNL     1       2.572   9.075  12.446  1.00  0.00     0.023 C 
HETATM   22  C27 UNL     1       0.467   7.668  12.966  1.00  0.00     0.014 C 
HETATM   23  C28 UNL     1      -0.298   9.011  13.008  1.00  0.00     0.011 C 
HETATM   24  C29 UNL     1      -1.545   8.965  13.868  1.00  0.00     0.036 C 
ENDROOT
BRANCH   1  25
HETATM   25  C6  UNL     1      -6.757   5.947  15.638  1.00  0.00    -0.013 C 
HETATM   26  C7  UNL     1      -7.241   4.871  14.649  1.00  0.00     0.010 C 
BRANCH  25  27
HETATM   27  C5  UNL     1      -7.971   6.514  16.408  1.00  0.00     0.008 C 
BRANCH  27  28
HETATM   28  C4  UNL     1      -9.156   6.857  15.495  1.00  0.00     0.028 C 
BRANCH  28  29
HETATM   29  C3  UNL     1      -9.234   8.338  15.249  1.00  0.00    -0.013 C 
HETATM   30  C2  UNL     1     -10.344   9.099  15.185  1.00  0.00     0.008 C 
HETATM   31  C1  UNL     1     -11.755   8.605  15.304  1.00  0.00     0.055 C 
BRANCH  30  32
HETATM   32  C30 UNL     1     -10.137  10.553  14.951  1.00  0.00     0.171 C 
HETATM   33  O4  UNL     1      -9.381  11.289  15.559  1.00  0.00    -0.646 OA
BRANCH  32  34
HETATM   34  O5  UNL     1     -10.902  11.022  13.952  1.00  0.00    -0.773 OA
HETATM   35  H44 UNL     1     -10.670  11.973  13.916  1.00  0.00     0.167 HD
ENDBRANCH  32  34
ENDBRANCH  30  32
ENDBRANCH  28  29
ENDBRANCH  27  28
ENDBRANCH  25  27
ENDBRANCH   1  25
BRANCH   3  36
HETATM   36  O1  UNL     1      -4.408  10.276  14.738  1.00  0.00    -0.394 OA
HETATM   37  H17 UNL     1      -4.756  10.757  15.510  1.00  0.00     0.210 HD
ENDBRANCH   3  36
TORSDOF 7
ENDMDL
MODEL 9
REMARK minimizedAffinity -7.86253166
REMARK CNNscore 0.444628417
REMARK CNNaffinity 6.95972824
REMARK  7 active torsions:
REMARK  status: ('A' for Active; 'I' for Inactive)
REMARK    1  A    between atoms: C2_2  and  C30_33 
REMARK    2  A    between atoms: C3_3  and  C4_4 
REMARK    3  A    between atoms: C4_4  and  C5_5 
REMARK    4  A    between atoms: C5_5  and  C6_6 
REMARK    5  A    between atoms: C6_6  and  C8_8 
REMARK    6  A    between atoms: C10_10  and  O1_11 
REMARK    7  A    between atoms: C30_33  and  O5_35 
ROOT
HETATM    1  C8  UNL     1       0.795   6.297  12.143  1.00  0.00     0.001 C 
HETATM    2  C9  UNL     1       0.937   4.808  11.741  1.00  0.00     0.038 C 
HETATM    3  C10 UNL     1      -0.467   4.174  11.894  1.00  0.00     0.131 C 
HETATM    4  C11 UNL     1      -1.440   5.382  12.028  1.00  0.00     0.014 C 
HETATM    5  C12 UNL     1      -1.781   5.904  10.596  1.00  0.00     0.023 C 
HETATM    6  C13 UNL     1      -2.794   5.208  12.710  1.00  0.00    -0.058 C 
HETATM    7  C14 UNL     1      -3.424   6.240  13.325  1.00  0.00    -0.000 C 
HETATM    8  C15 UNL     1      -2.699   7.590  13.383  1.00  0.00     0.157 C 
HETATM    9  O2  UNL     1      -3.276   8.606  13.772  1.00  0.00    -0.293 OA
HETATM   10  C16 UNL     1      -1.237   7.702  12.958  1.00  0.00     0.094 C 
HETATM   11  C17 UNL     1      -0.561   6.336  12.907  1.00  0.00    -0.019 C 
HETATM   12  C18 UNL     1      -0.373   5.844  14.375  1.00  0.00     0.017 C 
HETATM   13  C19 UNL     1      -4.794   6.113  14.048  1.00  0.00    -0.008 C 
HETATM   14  C20 UNL     1      -4.501   6.449  15.541  1.00  0.00     0.021 C 
HETATM   15  C21 UNL     1      -5.828   7.137  13.483  1.00  0.00     0.022 C 
HETATM   16  C22 UNL     1      -6.778   6.567  12.444  1.00  0.00     0.080 C 
HETATM   17  C23 UNL     1      -7.611   5.447  13.020  1.00  0.00     0.135 C 
HETATM   18  O3  UNL     1      -8.756   5.250  12.609  1.00  0.00    -0.297 OA
HETATM   19  C24 UNL     1      -6.980   4.572  14.108  1.00  0.00     0.018 C 
HETATM   20  C25 UNL     1      -7.520   5.058  15.466  1.00  0.00     0.023 C 
HETATM   21  C26 UNL     1      -7.495   3.124  13.930  1.00  0.00     0.023 C 
HETATM   22  C27 UNL     1      -5.403   4.640  14.005  1.00  0.00     0.014 C 
HETATM   23  C28 UNL     1      -4.908   3.846  12.775  1.00  0.00     0.011 C 
HETATM   24  C29 UNL     1      -3.398   3.840  12.633  1.00  0.00     0.036 C 
ENDROOT
BRANCH   1  25
HETATM   25  C6  UNL     1       2.038   6.974  12.796  1.00  0.00    -0.013 C 
HETATM   26  C7  UNL     1       1.768   8.484  12.934  1.00  0.00     0.010 C 
BRANCH  25  27
HETATM   27  C5  UNL     1       3.377   6.763  12.053  1.00  0.00     0.008 C 
BRANCH  27  28
HETATM   28  C4  UNL     1       3.416   7.439  10.677  1.00  0.00     0.028 C 
BRANCH  28  29
HETATM   29  C3  UNL     1       4.345   8.621  10.685  1.00  0.00    -0.013 C 
HETATM   30  C2  UNL     1       5.693   8.602  10.700  1.00  0.00     0.008 C 
HETATM   31  C1  UNL     1       6.552   7.374  10.759  1.00  0.00     0.055 C 
BRANCH  30  32
HETATM   32  C30 UNL     1       6.374   9.923  10.680  1.00  0.00     0.171 C 
HETATM   33  O4  UNL     1       5.915  10.986  11.056  1.00  0.00    -0.646 OA
BRANCH  32  34
HETATM   34  O5  UNL     1       7.619   9.848  10.180  1.00  0.00    -0.773 OA
HETATM   35  H44 UNL     1       7.936  10.773  10.222  1.00  0.00     0.167 HD
ENDBRANCH  32  34
ENDBRANCH  30  32
ENDBRANCH  28  29
ENDBRANCH  27  28
ENDBRANCH  25  27
ENDBRANCH   1  25
BRANCH   3  36
HETATM   36  O1  UNL     1      -0.752   3.336  10.784  1.00  0.00    -0.394 OA
HETATM   37  H17 UNL     1      -0.047   2.667  10.733  1.00  0.00     0.210 HD
ENDBRANCH   3  36
TORSDOF 7
ENDMDL
