MODEL 1
REMARK minimizedAffinity -6.43334007
REMARK CNNscore 0.524225056
REMARK CNNaffinity 6.59966803
REMARK  10 active torsions:
REMARK  status: ('A' for Active; 'I' for Inactive)
REMARK    1  A    between atoms: C14_14  and  C15_15 
REMARK    2  A    between atoms: C15_15  and  C17_17 
REMARK    3  A    between atoms: C17_17  and  C18_18 
REMARK    4  A    between atoms: C18_18  and  C19_19 
REMARK    5  A    between atoms: C20_20  and  C22_22 
REMARK    6  A    between atoms: C22_22  and  O2_24 
REMARK    7  A    between atoms: C27_29  and  C28_30 
REMARK    8  A    between atoms: C28_30  and  C29_31 
REMARK    9  A    between atoms: C29_31  and  C30_32 
REMARK   10  A    between atoms: C30_32  and  O4_34 
ROOT
HETATM    1  C1  UNL     1       0.231   8.331   8.738  1.00  0.00     0.043 C 
HETATM    2  C2  UNL     1       1.554   8.093   9.442  1.00  0.00    -0.085 C 
HETATM    3  C3  UNL     1       2.701   8.196   8.469  1.00  0.00     0.043 C 
HETATM    4  C4  UNL     1       1.640   7.873  10.783  1.00  0.00    -0.073 C 
HETATM    5  C5  UNL     1       0.413   8.133  11.648  1.00  0.00     0.035 C 
HETATM    6  C6  UNL     1       0.731   8.378  13.123  1.00  0.00     0.010 C 
HETATM    7  C7  UNL     1       1.998   9.244  13.362  1.00  0.00     0.003 C 
HETATM    8  C8  UNL     1       3.278   8.761  12.511  1.00  0.00    -0.032 C 
HETATM    9  C9  UNL     1       3.742   9.870  11.526  1.00  0.00     0.016 C 
HETATM   10  C10 UNL     1       4.508   8.463  13.423  1.00  0.00     0.011 C 
HETATM   11  C11 UNL     1       4.802   9.437  14.585  1.00  0.00     0.011 C 
HETATM   12  C12 UNL     1       3.596  10.227  15.126  1.00  0.00    -0.032 C 
HETATM   13  C13 UNL     1       3.551  11.641  14.458  1.00  0.00     0.016 C 
HETATM   14  C14 UNL     1       3.564  10.455  16.680  1.00  0.00    -0.002 C 
HETATM   15  C23 UNL     1       2.043  10.686  16.946  1.00  0.00     0.006 C 
HETATM   16  C24 UNL     1       1.275  10.227  15.691  1.00  0.00     0.011 C 
HETATM   17  C25 UNL     1       2.294   9.385  14.897  1.00  0.00    -0.032 C 
HETATM   18  C26 UNL     1       2.297   7.974  15.581  1.00  0.00     0.016 C 
HETATM   19  C27 UNL     1       2.860   7.490  11.652  1.00  0.00     0.024 C 
ENDROOT
BRANCH  14  20
HETATM   20  C15 UNL     1       4.464  11.561  17.316  1.00  0.00    -0.014 C 
HETATM   21  C16 UNL     1       5.892  11.047  17.544  1.00  0.00     0.010 C 
BRANCH  20  22
HETATM   22  C17 UNL     1       3.867  12.054  18.666  1.00  0.00     0.008 C 
BRANCH  22  23
HETATM   23  C18 UNL     1       4.654  11.598  19.906  1.00  0.00     0.028 C 
BRANCH  23  24
HETATM   24  C19 UNL     1       3.977  10.526  20.711  1.00  0.00    -0.013 C 
HETATM   25  C20 UNL     1       3.352  10.653  21.899  1.00  0.00     0.008 C 
HETATM   26  C21 UNL     1       3.239  11.910  22.707  1.00  0.00     0.055 C 
BRANCH  25  27
HETATM   27  C22 UNL     1       2.745   9.418  22.460  1.00  0.00     0.171 C 
HETATM   28  O1  UNL     1       2.017   8.632  21.878  1.00  0.00    -0.646 OA
BRANCH  27  29
HETATM   29  O2  UNL     1       3.077   9.224  23.747  1.00  0.00    -0.773 OA
HETATM   30  H35 UNL     1       2.607   8.396  23.980  1.00  0.00     0.167 HD
ENDBRANCH  27  29
ENDBRANCH  25  27
ENDBRANCH  23  24
ENDBRANCH  22  23
ENDBRANCH  20  22
ENDBRANCH  14  20
BRANCH  19  31
HETATM   31  C28 UNL     1       4.007   6.679  10.987  1.00  0.00     0.020 C 
BRANCH  31  32
HETATM   32  C29 UNL     1       5.303   6.676  11.808  1.00  0.00     0.110 C 
BRANCH  32  33
HETATM   33  C30 UNL     1       6.536   6.295  11.043  1.00  0.00     0.139 C 
HETATM   34  O3  UNL     1       6.894   5.162  10.768  1.00  0.00    -0.650 OA
BRANCH  33  35
HETATM   35  O4  UNL     1       7.280   7.358  10.684  1.00  0.00    -0.776 OA
HETATM   36  H48 UNL     1       8.020   6.959  10.181  1.00  0.00     0.167 HD
ENDBRANCH  33  35
ENDBRANCH  32  33
ENDBRANCH  31  32
ENDBRANCH  19  31
TORSDOF 10
ENDMDL
MODEL 2
REMARK minimizedAffinity -6.1558485
REMARK CNNscore 0.399211377
REMARK CNNaffinity 6.23620939
REMARK  10 active torsions:
REMARK  status: ('A' for Active; 'I' for Inactive)
REMARK    1  A    between atoms: C14_14  and  C15_15 
REMARK    2  A    between atoms: C15_15  and  C17_17 
REMARK    3  A    between atoms: C17_17  and  C18_18 
REMARK    4  A    between atoms: C18_18  and  C19_19 
REMARK    5  A    between atoms: C20_20  and  C22_22 
REMARK    6  A    between atoms: C22_22  and  O2_24 
REMARK    7  A    between atoms: C27_29  and  C28_30 
REMARK    8  A    between atoms: C28_30  and  C29_31 
REMARK    9  A    between atoms: C29_31  and  C30_32 
REMARK   10  A    between atoms: C30_32  and  O4_34 
ROOT
HETATM    1  C1  UNL     1       0.721   7.335   9.784  1.00  0.00     0.043 C 
HETATM    2  C2  UNL     1       1.232   7.500  11.203  1.00  0.00    -0.085 C 
HETATM    3  C3  UNL     1       2.683   7.911  11.202  1.00  0.00     0.043 C 
HETATM    4  C4  UNL     1       0.432   7.339  12.293  1.00  0.00    -0.073 C 
HETATM    5  C5  UNL     1      -1.076   7.251  12.087  1.00  0.00     0.035 C 
HETATM    6  C6  UNL     1      -1.894   7.603  13.329  1.00  0.00     0.010 C 
HETATM    7  C7  UNL     1      -1.330   8.801  14.141  1.00  0.00     0.003 C 
HETATM    8  C8  UNL     1       0.250   8.691  14.436  1.00  0.00    -0.032 C 
HETATM    9  C9  UNL     1       1.023   9.868  13.779  1.00  0.00     0.016 C 
HETATM   10  C10 UNL     1       0.567   8.774  15.962  1.00  0.00     0.011 C 
HETATM   11  C11 UNL     1      -0.204   9.813  16.806  1.00  0.00     0.011 C 
HETATM   12  C12 UNL     1      -1.583  10.233  16.266  1.00  0.00    -0.032 C 
HETATM   13  C13 UNL     1      -1.447  11.562  15.452  1.00  0.00     0.016 C 
HETATM   14  C14 UNL     1      -2.701  10.471  17.344  1.00  0.00    -0.002 C 
HETATM   15  C23 UNL     1      -4.007  10.259  16.514  1.00  0.00     0.006 C 
HETATM   16  C24 UNL     1      -3.612   9.577  15.190  1.00  0.00     0.011 C 
HETATM   17  C25 UNL     1      -2.185   9.049  15.434  1.00  0.00    -0.032 C 
HETATM   18  C26 UNL     1      -2.362   7.711  16.232  1.00  0.00     0.016 C 
HETATM   19  C27 UNL     1       0.787   7.338  13.797  1.00  0.00     0.024 C 
ENDROOT
BRANCH  14  20
HETATM   20  C15 UNL     1      -2.713  11.799  18.163  1.00  0.00    -0.014 C 
HETATM   21  C16 UNL     1      -1.430  11.948  18.992  1.00  0.00     0.010 C 
BRANCH  20  22
HETATM   22  C17 UNL     1      -3.951  11.860  19.104  1.00  0.00     0.008 C 
BRANCH  22  23
HETATM   23  C18 UNL     1      -4.723  13.189  19.043  1.00  0.00     0.028 C 
BRANCH  23  24
HETATM   24  C19 UNL     1      -5.269  13.652  20.364  1.00  0.00    -0.013 C 
HETATM   25  C20 UNL     1      -6.560  13.830  20.708  1.00  0.00     0.008 C 
HETATM   26  C21 UNL     1      -7.747  13.645  19.813  1.00  0.00     0.055 C 
BRANCH  25  27
HETATM   27  C22 UNL     1      -6.814  14.276  22.104  1.00  0.00     0.171 C 
HETATM   28  O1  UNL     1      -6.087  14.111  23.067  1.00  0.00    -0.646 OA
BRANCH  27  29
HETATM   29  O2  UNL     1      -7.990  14.913  22.230  1.00  0.00    -0.773 OA
HETATM   30  H35 UNL     1      -8.025  15.136  23.184  1.00  0.00     0.167 HD
ENDBRANCH  27  29
ENDBRANCH  25  27
ENDBRANCH  23  24
ENDBRANCH  22  23
ENDBRANCH  20  22
ENDBRANCH  14  20
BRANCH  19  31
HETATM   31  C28 UNL     1       2.214   6.878  14.212  1.00  0.00     0.020 C 
BRANCH  31  32
HETATM   32  C29 UNL     1       2.647   7.410  15.584  1.00  0.00     0.110 C 
BRANCH  32  33
HETATM   33  C30 UNL     1       4.045   7.951  15.640  1.00  0.00     0.139 C 
HETATM   34  O3  UNL     1       4.360   9.126  15.730  1.00  0.00    -0.650 OA
BRANCH  33  35
HETATM   35  O4  UNL     1       4.983   6.991  15.551  1.00  0.00    -0.776 OA
HETATM   36  H48 UNL     1       5.824   7.486  15.628  1.00  0.00     0.167 HD
ENDBRANCH  33  35
ENDBRANCH  32  33
ENDBRANCH  31  32
ENDBRANCH  19  31
TORSDOF 10
ENDMDL
MODEL 3
REMARK minimizedAffinity -7.42436266
REMARK CNNscore 0.372099161
REMARK CNNaffinity 6.43738365
REMARK  10 active torsions:
REMARK  status: ('A' for Active; 'I' for Inactive)
REMARK    1  A    between atoms: C14_14  and  C15_15 
REMARK    2  A    between atoms: C15_15  and  C17_17 
REMARK    3  A    between atoms: C17_17  and  C18_18 
REMARK    4  A    between atoms: C18_18  and  C19_19 
REMARK    5  A    between atoms: C20_20  and  C22_22 
REMARK    6  A    between atoms: C22_22  and  O2_24 
REMARK    7  A    between atoms: C27_29  and  C28_30 
REMARK    8  A    between atoms: C28_30  and  C29_31 
REMARK    9  A    between atoms: C29_31  and  C30_32 
REMARK   10  A    between atoms: C30_32  and  O4_34 
ROOT
HETATM    1  C1  UNL     1       0.111   8.384   8.262  1.00  0.00     0.043 C 
HETATM    2  C2  UNL     1       1.115   8.029   9.343  1.00  0.00    -0.085 C 
HETATM    3  C3  UNL     1       2.524   8.140   8.820  1.00  0.00     0.043 C 
HETATM    4  C4  UNL     1       0.740   7.711  10.614  1.00  0.00    -0.073 C 
HETATM    5  C5  UNL     1      -0.700   7.973  11.039  1.00  0.00     0.035 C 
HETATM    6  C6  UNL     1      -0.889   8.097  12.551  1.00  0.00     0.010 C 
HETATM    7  C7  UNL     1       0.246   8.877  13.270  1.00  0.00     0.003 C 
HETATM    8  C8  UNL     1       1.724   8.388  12.855  1.00  0.00    -0.032 C 
HETATM    9  C9  UNL     1       2.521   9.537  12.178  1.00  0.00     0.016 C 
HETATM   10  C10 UNL     1       2.569   7.962  14.097  1.00  0.00     0.011 C 
HETATM   11  C11 UNL     1       2.480   8.835  15.368  1.00  0.00     0.011 C 
HETATM   12  C12 UNL     1       1.184   9.647  15.541  1.00  0.00    -0.032 C 
HETATM   13  C13 UNL     1       1.402  11.105  15.017  1.00  0.00     0.016 C 
HETATM   14  C14 UNL     1       0.638   9.767  17.008  1.00  0.00    -0.002 C 
HETATM   15  C23 UNL     1      -0.878  10.058  16.772  1.00  0.00     0.006 C 
HETATM   16  C24 UNL     1      -1.191   9.729  15.299  1.00  0.00     0.011 C 
HETATM   17  C25 UNL     1       0.013   8.894  14.822  1.00  0.00    -0.032 C 
HETATM   18  C26 UNL     1      -0.250   7.440  15.347  1.00  0.00     0.016 C 
HETATM   19  C27 UNL     1       1.587   7.204  11.804  1.00  0.00     0.024 C 
ENDROOT
BRANCH  14  20
HETATM   20  C15 UNL     1       1.300  10.777  17.998  1.00  0.00    -0.014 C 
HETATM   21  C16 UNL     1       2.719  10.330  18.375  1.00  0.00     0.010 C 
BRANCH  20  22
HETATM   22  C17 UNL     1       0.444  10.933  19.288  1.00  0.00     0.008 C 
BRANCH  22  23
HETATM   23  C18 UNL     1       1.191  11.585  20.464  1.00  0.00     0.028 C 
BRANCH  23  24
HETATM   24  C19 UNL     1       1.919  10.618  21.351  1.00  0.00    -0.013 C 
HETATM   25  C20 UNL     1       2.780  10.898  22.350  1.00  0.00     0.008 C 
HETATM   26  C21 UNL     1       3.237  12.264  22.765  1.00  0.00     0.055 C 
BRANCH  25  27
HETATM   27  C22 UNL     1       3.341   9.733  23.085  1.00  0.00     0.171 C 
HETATM   28  O1  UNL     1       4.235   8.995  22.709  1.00  0.00    -0.646 OA
BRANCH  27  29
HETATM   29  O2  UNL     1       2.740   9.539  24.270  1.00  0.00    -0.773 OA
HETATM   30  H35 UNL     1       3.196   8.749  24.629  1.00  0.00     0.167 HD
ENDBRANCH  27  29
ENDBRANCH  25  27
ENDBRANCH  23  24
ENDBRANCH  22  23
ENDBRANCH  20  22
ENDBRANCH  14  20
BRANCH  19  31
HETATM   31  C28 UNL     1       2.869   6.382  11.492  1.00  0.00     0.020 C 
BRANCH  31  32
HETATM   32  C29 UNL     1       2.599   5.140  10.633  1.00  0.00     0.110 C 
BRANCH  32  33
HETATM   33  C30 UNL     1       3.630   4.863   9.579  1.00  0.00     0.139 C 
HETATM   34  O3  UNL     1       3.417   4.679   8.392  1.00  0.00    -0.650 OA
BRANCH  33  35
HETATM   35  O4  UNL     1       4.880   4.800  10.073  1.00  0.00    -0.776 OA
HETATM   36  H48 UNL     1       5.431   4.642   9.278  1.00  0.00     0.167 HD
ENDBRANCH  33  35
ENDBRANCH  32  33
ENDBRANCH  31  32
ENDBRANCH  19  31
TORSDOF 10
ENDMDL
MODEL 4
REMARK minimizedAffinity -6.18623781
REMARK CNNscore 0.301257908
REMARK CNNaffinity 6.2629981
REMARK  10 active torsions:
REMARK  status: ('A' for Active; 'I' for Inactive)
REMARK    1  A    between atoms: C14_14  and  C15_15 
REMARK    2  A    between atoms: C15_15  and  C17_17 
REMARK    3  A    between atoms: C17_17  and  C18_18 
REMARK    4  A    between atoms: C18_18  and  C19_19 
REMARK    5  A    between atoms: C20_20  and  C22_22 
REMARK    6  A    between atoms: C22_22  and  O2_24 
REMARK    7  A    between atoms: C27_29  and  C28_30 
REMARK    8  A    between atoms: C28_30  and  C29_31 
REMARK    9  A    between atoms: C29_31  and  C30_32 
REMARK   10  A    between atoms: C30_32  and  O4_34 
ROOT
HETATM    1  C1  UNL     1       0.075   8.461   8.415  1.00  0.00     0.043 C 
HETATM    2  C2  UNL     1       1.017   8.025   9.523  1.00  0.00    -0.085 C 
HETATM    3  C3  UNL     1       2.438   7.974   9.024  1.00  0.00     0.043 C 
HETATM    4  C4  UNL     1       0.588   7.777  10.792  1.00  0.00    -0.073 C 
HETATM    5  C5  UNL     1      -0.822   8.200  11.184  1.00  0.00     0.035 C 
HETATM    6  C6  UNL     1      -1.022   8.376  12.689  1.00  0.00     0.010 C 
HETATM    7  C7  UNL     1       0.178   9.046  13.414  1.00  0.00     0.003 C 
HETATM    8  C8  UNL     1       1.602   8.394  13.038  1.00  0.00    -0.032 C 
HETATM    9  C9  UNL     1       2.528   9.437  12.353  1.00  0.00     0.016 C 
HETATM   10  C10 UNL     1       2.375   7.908  14.303  1.00  0.00     0.011 C 
HETATM   11  C11 UNL     1       2.358   8.813  15.555  1.00  0.00     0.011 C 
HETATM   12  C12 UNL     1       1.154   9.762  15.687  1.00  0.00    -0.032 C 
HETATM   13  C13 UNL     1       1.535  11.177  15.138  1.00  0.00     0.016 C 
HETATM   14  C14 UNL     1       0.599   9.972  17.141  1.00  0.00    -0.002 C 
HETATM   15  C23 UNL     1      -0.873  10.417  16.870  1.00  0.00     0.006 C 
HETATM   16  C24 UNL     1      -1.195  10.091  15.398  1.00  0.00     0.011 C 
HETATM   17  C25 UNL     1      -0.079   9.122  14.961  1.00  0.00    -0.032 C 
HETATM   18  C26 UNL     1      -0.505   7.716  15.510  1.00  0.00     0.016 C 
HETATM   19  C27 UNL     1       1.356   7.209  12.007  1.00  0.00     0.024 C 
ENDROOT
BRANCH  14  20
HETATM   20  C15 UNL     1       1.348  10.927  18.123  1.00  0.00    -0.014 C 
HETATM   21  C16 UNL     1       2.714  10.350  18.518  1.00  0.00     0.010 C 
BRANCH  20  22
HETATM   22  C17 UNL     1       0.502  11.183  19.403  1.00  0.00     0.008 C 
BRANCH  22  23
HETATM   23  C18 UNL     1       0.699  12.579  20.019  1.00  0.00     0.028 C 
BRANCH  23  24
HETATM   24  C19 UNL     1       2.109  13.091  19.960  1.00  0.00    -0.013 C 
HETATM   25  C20 UNL     1       2.968  13.269  20.984  1.00  0.00     0.008 C 
HETATM   26  C21 UNL     1       2.674  13.033  22.434  1.00  0.00     0.055 C 
BRANCH  25  27
HETATM   27  C22 UNL     1       4.322  13.771  20.629  1.00  0.00     0.171 C 
HETATM   28  O1  UNL     1       4.670  14.936  20.549  1.00  0.00    -0.646 OA
BRANCH  27  29
HETATM   29  O2  UNL     1       5.188  12.775  20.381  1.00  0.00    -0.773 OA
HETATM   30  H35 UNL     1       6.017  13.247  20.156  1.00  0.00     0.167 HD
ENDBRANCH  27  29
ENDBRANCH  25  27
ENDBRANCH  23  24
ENDBRANCH  22  23
ENDBRANCH  20  22
ENDBRANCH  14  20
BRANCH  19  31
HETATM   31  C28 UNL     1       2.549   6.248  11.737  1.00  0.00     0.020 C 
BRANCH  31  32
HETATM   32  C29 UNL     1       3.918   6.921  11.901  1.00  0.00     0.110 C 
BRANCH  32  33
HETATM   33  C30 UNL     1       4.947   6.516  10.888  1.00  0.00     0.139 C 
HETATM   34  O3  UNL     1       5.858   7.211  10.468  1.00  0.00    -0.650 OA
BRANCH  33  35
HETATM   35  O4  UNL     1       4.765   5.266  10.426  1.00  0.00    -0.776 OA
HETATM   36  H48 UNL     1       5.514   5.140   9.807  1.00  0.00     0.167 HD
ENDBRANCH  33  35
ENDBRANCH  32  33
ENDBRANCH  31  32
ENDBRANCH  19  31
TORSDOF 10
ENDMDL
MODEL 5
REMARK minimizedAffinity -8.54837418
REMARK CNNscore 0.281453788
REMARK CNNaffinity 6.40311241
REMARK  10 active torsions:
REMARK  status: ('A' for Active; 'I' for Inactive)
REMARK    1  A    between atoms: C14_14  and  C15_15 
REMARK    2  A    between atoms: C15_15  and  C17_17 
REMARK    3  A    between atoms: C17_17  and  C18_18 
REMARK    4  A    between atoms: C18_18  and  C19_19 
REMARK    5  A    between atoms: C20_20  and  C22_22 
REMARK    6  A    between atoms: C22_22  and  O2_24 
REMARK    7  A    between atoms: C27_29  and  C28_30 
REMARK    8  A    between atoms: C28_30  and  C29_31 
REMARK    9  A    between atoms: C29_31  and  C30_32 
REMARK   10  A    between atoms: C30_32  and  O4_34 
ROOT
HETATM    1  C1  UNL     1       2.133   6.977   9.003  1.00  0.00     0.043 C 
HETATM    2  C2  UNL     1       1.504   6.306  10.210  1.00  0.00    -0.085 C 
HETATM    3  C3  UNL     1       2.318   5.111  10.639  1.00  0.00     0.043 C 
HETATM    4  C4  UNL     1       0.385   6.790  10.816  1.00  0.00    -0.073 C 
HETATM    5  C5  UNL     1      -0.102   8.186  10.445  1.00  0.00     0.035 C 
HETATM    6  C6  UNL     1      -0.990   8.837  11.506  1.00  0.00     0.010 C 
HETATM    7  C7  UNL     1      -0.523   8.583  12.965  1.00  0.00     0.003 C 
HETATM    8  C8  UNL     1      -0.198   7.036  13.277  1.00  0.00    -0.032 C 
HETATM    9  C9  UNL     1       1.294   6.849  13.667  1.00  0.00     0.016 C 
HETATM   10  C10 UNL     1      -1.023   6.497  14.487  1.00  0.00     0.011 C 
HETATM   11  C11 UNL     1      -1.182   7.413  15.720  1.00  0.00     0.011 C 
HETATM   12  C12 UNL     1      -1.069   8.925  15.459  1.00  0.00    -0.032 C 
HETATM   13  C13 UNL     1       0.387   9.405  15.767  1.00  0.00     0.016 C 
HETATM   14  C14 UNL     1      -2.037   9.842  16.290  1.00  0.00    -0.002 C 
HETATM   15  C23 UNL     1      -2.122  11.122  15.400  1.00  0.00     0.006 C 
HETATM   16  C24 UNL     1      -1.555  10.763  14.012  1.00  0.00     0.011 C 
HETATM   17  C25 UNL     1      -1.527   9.222  13.989  1.00  0.00    -0.032 C 
HETATM   18  C26 UNL     1      -2.994   8.780  13.659  1.00  0.00     0.016 C 
HETATM   19  C27 UNL     1      -0.467   6.190  11.958  1.00  0.00     0.024 C 
ENDROOT
BRANCH  14  20
HETATM   20  C15 UNL     1      -1.705  10.163  17.781  1.00  0.00    -0.014 C 
HETATM   21  C16 UNL     1      -2.983  10.233  18.628  1.00  0.00     0.010 C 
BRANCH  20  22
HETATM   22  C17 UNL     1      -0.927  11.505  17.901  1.00  0.00     0.008 C 
BRANCH  22  23
HETATM   23  C18 UNL     1      -0.453  11.833  19.327  1.00  0.00     0.028 C 
BRANCH  23  24
HETATM   24  C19 UNL     1       0.533  10.853  19.894  1.00  0.00    -0.013 C 
HETATM   25  C20 UNL     1       1.607  11.113  20.667  1.00  0.00     0.008 C 
HETATM   26  C21 UNL     1       2.081  12.470  21.092  1.00  0.00     0.055 C 
BRANCH  25  27
HETATM   27  C22 UNL     1       2.401   9.937  21.110  1.00  0.00     0.171 C 
HETATM   28  O1  UNL     1       2.002   8.993  21.770  1.00  0.00    -0.646 OA
BRANCH  27  29
HETATM   29  O2  UNL     1       3.681  10.003  20.706  1.00  0.00    -0.773 OA
HETATM   30  H35 UNL     1       4.076   9.184  21.071  1.00  0.00     0.167 HD
ENDBRANCH  27  29
ENDBRANCH  25  27
ENDBRANCH  23  24
ENDBRANCH  22  23
ENDBRANCH  20  22
ENDBRANCH  14  20
BRANCH  19  31
HETATM   31  C28 UNL     1      -0.507   4.643  12.106  1.00  0.00     0.020 C 
BRANCH  31  32
HETATM   32  C29 UNL     1      -1.409   3.959  11.071  1.00  0.00     0.110 C 
BRANCH  32  33
HETATM   33  C30 UNL     1      -1.352   2.459  11.075  1.00  0.00     0.139 C 
HETATM   34  O3  UNL     1      -0.341   1.776  11.069  1.00  0.00    -0.650 OA
BRANCH  33  35
HETATM   35  O4  UNL     1      -2.570   1.888  11.054  1.00  0.00    -0.776 OA
HETATM   36  H48 UNL     1      -2.372   0.929  11.085  1.00  0.00     0.167 HD
ENDBRANCH  33  35
ENDBRANCH  32  33
ENDBRANCH  31  32
ENDBRANCH  19  31
TORSDOF 10
ENDMDL
MODEL 6
REMARK minimizedAffinity -8.63457108
REMARK CNNscore 0.277655333
REMARK CNNaffinity 6.94845629
REMARK  10 active torsions:
REMARK  status: ('A' for Active; 'I' for Inactive)
REMARK    1  A    between atoms: C14_14  and  C15_15 
REMARK    2  A    between atoms: C15_15  and  C17_17 
REMARK    3  A    between atoms: C17_17  and  C18_18 
REMARK    4  A    between atoms: C18_18  and  C19_19 
REMARK    5  A    between atoms: C20_20  and  C22_22 
REMARK    6  A    between atoms: C22_22  and  O2_24 
REMARK    7  A    between atoms: C27_29  and  C28_30 
REMARK    8  A    between atoms: C28_30  and  C29_31 
REMARK    9  A    between atoms: C29_31  and  C30_32 
REMARK   10  A    between atoms: C30_32  and  O4_34 
ROOT
HETATM    1  C1  UNL     1       1.359   7.002   9.782  1.00  0.00     0.043 C 
HETATM    2  C2  UNL     1       0.970   7.474  11.171  1.00  0.00    -0.085 C 
HETATM    3  C3  UNL     1       1.547   8.838  11.450  1.00  0.00     0.043 C 
HETATM    4  C4  UNL     1       0.162   6.747  11.991  1.00  0.00    -0.073 C 
HETATM    5  C5  UNL     1      -0.588   5.555  11.411  1.00  0.00     0.035 C 
HETATM    6  C6  UNL     1      -1.825   5.148  12.212  1.00  0.00     0.010 C 
HETATM    7  C7  UNL     1      -2.652   6.347  12.752  1.00  0.00     0.003 C 
HETATM    8  C8  UNL     1      -1.757   7.463  13.494  1.00  0.00    -0.032 C 
HETATM    9  C9  UNL     1      -1.847   8.828  12.758  1.00  0.00     0.016 C 
HETATM   10  C10 UNL     1      -2.250   7.733  14.950  1.00  0.00     0.011 C 
HETATM   11  C11 UNL     1      -3.772   7.819  15.196  1.00  0.00     0.011 C 
HETATM   12  C12 UNL     1      -4.662   7.062  14.195  1.00  0.00    -0.032 C 
HETATM   13  C13 UNL     1      -5.171   8.048  13.093  1.00  0.00     0.016 C 
HETATM   14  C14 UNL     1      -5.930   6.357  14.797  1.00  0.00    -0.002 C 
HETATM   15  C23 UNL     1      -6.221   5.245  13.740  1.00  0.00     0.006 C 
HETATM   16  C24 UNL     1      -4.973   5.116  12.844  1.00  0.00     0.011 C 
HETATM   17  C25 UNL     1      -3.859   5.844  13.621  1.00  0.00    -0.032 C 
HETATM   18  C26 UNL     1      -3.362   4.821  14.700  1.00  0.00     0.016 C 
HETATM   19  C27 UNL     1      -0.240   6.992  13.464  1.00  0.00     0.024 C 
ENDROOT
BRANCH  14  20
HETATM   20  C15 UNL     1      -7.193   7.206  15.145  1.00  0.00    -0.014 C 
HETATM   21  C16 UNL     1      -7.551   7.079  16.632  1.00  0.00     0.010 C 
BRANCH  20  22
HETATM   22  C17 UNL     1      -8.410   6.773  14.278  1.00  0.00     0.008 C 
BRANCH  22  23
HETATM   23  C18 UNL     1      -9.775   7.175  14.862  1.00  0.00     0.028 C 
BRANCH  23  24
HETATM   24  C19 UNL     1     -10.784   7.613  13.840  1.00  0.00    -0.013 C 
HETATM   25  C20 UNL     1     -11.254   8.859  13.624  1.00  0.00     0.008 C 
HETATM   26  C21 UNL     1     -10.897  10.086  14.405  1.00  0.00     0.055 C 
BRANCH  25  27
HETATM   27  C22 UNL     1     -12.238   9.009  12.519  1.00  0.00     0.171 C 
HETATM   28  O1  UNL     1     -13.418   8.702  12.545  1.00  0.00    -0.646 OA
BRANCH  27  29
HETATM   29  O2  UNL     1     -11.689   9.537  11.413  1.00  0.00    -0.773 OA
HETATM   30  H35 UNL     1     -12.437   9.567  10.781  1.00  0.00     0.167 HD
ENDBRANCH  27  29
ENDBRANCH  25  27
ENDBRANCH  23  24
ENDBRANCH  22  23
ENDBRANCH  20  22
ENDBRANCH  14  20
BRANCH  19  31
HETATM   31  C28 UNL     1       0.757   7.761  14.377  1.00  0.00     0.020 C 
BRANCH  31  32
HETATM   32  C29 UNL     1       2.163   7.146  14.390  1.00  0.00     0.110 C 
BRANCH  32  33
HETATM   33  C30 UNL     1       2.942   7.375  15.652  1.00  0.00     0.139 C 
HETATM   34  O3  UNL     1       4.154   7.478  15.744  1.00  0.00    -0.650 OA
BRANCH  33  35
HETATM   35  O4  UNL     1       2.160   7.432  16.746  1.00  0.00    -0.776 OA
HETATM   36  H48 UNL     1       2.796   7.608  17.471  1.00  0.00     0.167 HD
ENDBRANCH  33  35
ENDBRANCH  32  33
ENDBRANCH  31  32
ENDBRANCH  19  31
TORSDOF 10
ENDMDL
MODEL 7
REMARK minimizedAffinity -7.00431108
REMARK CNNscore 0.272127211
REMARK CNNaffinity 6.59494352
REMARK  10 active torsions:
REMARK  status: ('A' for Active; 'I' for Inactive)
REMARK    1  A    between atoms: C14_14  and  C15_15 
REMARK    2  A    between atoms: C15_15  and  C17_17 
REMARK    3  A    between atoms: C17_17  and  C18_18 
REMARK    4  A    between atoms: C18_18  and  C19_19 
REMARK    5  A    between atoms: C20_20  and  C22_22 
REMARK    6  A    between atoms: C22_22  and  O2_24 
REMARK    7  A    between atoms: C27_29  and  C28_30 
REMARK    8  A    between atoms: C28_30  and  C29_31 
REMARK    9  A    between atoms: C29_31  and  C30_32 
REMARK   10  A    between atoms: C30_32  and  O4_34 
ROOT
HETATM    1  C1  UNL     1      -2.362   3.622  10.376  1.00  0.00     0.043 C 
HETATM    2  C2  UNL     1      -2.379   4.361  11.701  1.00  0.00    -0.085 C 
HETATM    3  C3  UNL     1      -1.170   5.252  11.830  1.00  0.00     0.043 C 
HETATM    4  C4  UNL     1      -3.401   4.239  12.593  1.00  0.00    -0.073 C 
HETATM    5  C5  UNL     1      -4.686   3.553  12.145  1.00  0.00     0.035 C 
HETATM    6  C6  UNL     1      -5.912   3.924  12.980  1.00  0.00     0.010 C 
HETATM    7  C7  UNL     1      -5.977   5.424  13.379  1.00  0.00     0.003 C 
HETATM    8  C8  UNL     1      -4.599   5.985  13.996  1.00  0.00    -0.032 C 
HETATM    9  C9  UNL     1      -4.015   7.121  13.112  1.00  0.00     0.016 C 
HETATM   10  C10 UNL     1      -4.805   6.612  15.411  1.00  0.00     0.011 C 
HETATM   11  C11 UNL     1      -6.053   7.493  15.638  1.00  0.00     0.011 C 
HETATM   12  C12 UNL     1      -7.257   7.209  14.723  1.00  0.00    -0.032 C 
HETATM   13  C13 UNL     1      -7.246   8.203  13.515  1.00  0.00     0.016 C 
HETATM   14  C14 UNL     1      -8.673   7.322  15.392  1.00  0.00    -0.002 C 
HETATM   15  C23 UNL     1      -9.548   6.422  14.464  1.00  0.00     0.006 C 
HETATM   16  C24 UNL     1      -8.592   5.581  13.595  1.00  0.00     0.011 C 
HETATM   17  C25 UNL     1      -7.223   5.703  14.292  1.00  0.00    -0.032 C 
HETATM   18  C26 UNL     1      -7.265   4.681  15.481  1.00  0.00     0.016 C 
HETATM   19  C27 UNL     1      -3.542   4.799  14.027  1.00  0.00     0.024 C 
ENDROOT
BRANCH  14  20
HETATM   20  C15 UNL     1      -9.301   8.730  15.637  1.00  0.00    -0.014 C 
HETATM   21  C16 UNL     1     -10.002   8.792  17.001  1.00  0.00     0.010 C 
BRANCH  20  22
HETATM   22  C17 UNL     1     -10.316   9.088  14.514  1.00  0.00     0.008 C 
BRANCH  22  23
HETATM   23  C18 UNL     1     -11.440  10.040  14.960  1.00  0.00     0.028 C 
BRANCH  23  24
HETATM   24  C19 UNL     1     -12.496  10.284  13.921  1.00  0.00    -0.013 C 
HETATM   25  C20 UNL     1     -13.657   9.620  13.749  1.00  0.00     0.008 C 
HETATM   26  C21 UNL     1     -14.126   8.441  14.547  1.00  0.00     0.055 C 
BRANCH  25  27
HETATM   27  C22 UNL     1     -14.532  10.096  12.645  1.00  0.00     0.171 C 
HETATM   28  O1  UNL     1     -15.013  11.209  12.523  1.00  0.00    -0.646 OA
BRANCH  27  29
HETATM   29  O2  UNL     1     -14.773   9.138  11.735  1.00  0.00    -0.773 OA
HETATM   30  H35 UNL     1     -15.358   9.583  11.087  1.00  0.00     0.167 HD
ENDBRANCH  27  29
ENDBRANCH  25  27
ENDBRANCH  23  24
ENDBRANCH  22  23
ENDBRANCH  20  22
ENDBRANCH  14  20
BRANCH  19  31
HETATM   31  C28 UNL     1      -2.245   5.029  14.854  1.00  0.00     0.020 C 
BRANCH  31  32
HETATM   32  C29 UNL     1      -1.578   6.381  14.571  1.00  0.00     0.110 C 
BRANCH  32  33
HETATM   33  C30 UNL     1      -1.144   7.140  15.791  1.00  0.00     0.139 C 
HETATM   34  O3  UNL     1      -1.766   8.030  16.346  1.00  0.00    -0.650 OA
BRANCH  33  35
HETATM   35  O4  UNL     1       0.068   6.763  16.238  1.00  0.00    -0.776 OA
HETATM   36  H48 UNL     1       0.198   7.317  17.035  1.00  0.00     0.167 HD
ENDBRANCH  33  35
ENDBRANCH  32  33
ENDBRANCH  31  32
ENDBRANCH  19  31
TORSDOF 10
ENDMDL
MODEL 8
REMARK minimizedAffinity -7.74506187
REMARK CNNscore 0.257552713
REMARK CNNaffinity 6.86106873
REMARK  10 active torsions:
REMARK  status: ('A' for Active; 'I' for Inactive)
REMARK    1  A    between atoms: C14_14  and  C15_15 
REMARK    2  A    between atoms: C15_15  and  C17_17 
REMARK    3  A    between atoms: C17_17  and  C18_18 
REMARK    4  A    between atoms: C18_18  and  C19_19 
REMARK    5  A    between atoms: C20_20  and  C22_22 
REMARK    6  A    between atoms: C22_22  and  O2_24 
REMARK    7  A    between atoms: C27_29  and  C28_30 
REMARK    8  A    between atoms: C28_30  and  C29_31 
REMARK    9  A    between atoms: C29_31  and  C30_32 
REMARK   10  A    between atoms: C30_32  and  O4_34 
ROOT
HETATM    1  C1  UNL     1       2.318   9.256  14.293  1.00  0.00     0.043 C 
HETATM    2  C2  UNL     1       1.480   8.188  13.615  1.00  0.00    -0.085 C 
HETATM    3  C3  UNL     1       2.272   6.916  13.450  1.00  0.00     0.043 C 
HETATM    4  C4  UNL     1       0.178   8.389  13.272  1.00  0.00    -0.073 C 
HETATM    5  C5  UNL     1      -0.542   9.617  13.815  1.00  0.00     0.035 C 
HETATM    6  C6  UNL     1      -2.065   9.488  13.833  1.00  0.00     0.010 C 
HETATM    7  C7  UNL     1      -2.577   8.085  14.259  1.00  0.00     0.003 C 
HETATM    8  C8  UNL     1      -1.850   6.873  13.487  1.00  0.00    -0.032 C 
HETATM    9  C9  UNL     1      -1.082   5.959  14.482  1.00  0.00     0.016 C 
HETATM   10  C10 UNL     1      -2.873   5.944  12.761  1.00  0.00     0.011 C 
HETATM   11  C11 UNL     1      -4.177   5.581  13.505  1.00  0.00     0.011 C 
HETATM   12  C12 UNL     1      -4.647   6.585  14.572  1.00  0.00    -0.032 C 
HETATM   13  C13 UNL     1      -4.163   6.119  15.984  1.00  0.00     0.016 C 
HETATM   14  C14 UNL     1      -6.199   6.806  14.673  1.00  0.00    -0.002 C 
HETATM   15  C23 UNL     1      -6.288   8.222  15.325  1.00  0.00     0.006 C 
HETATM   16  C24 UNL     1      -4.894   8.871  15.220  1.00  0.00     0.011 C 
HETATM   17  C25 UNL     1      -4.144   8.017  14.180  1.00  0.00    -0.032 C 
HETATM   18  C26 UNL     1      -4.639   8.525  12.782  1.00  0.00     0.016 C 
HETATM   19  C27 UNL     1      -0.791   7.486  12.472  1.00  0.00     0.024 C 
ENDROOT
BRANCH  14  20
HETATM   20  C15 UNL     1      -7.083   5.747  15.404  1.00  0.00    -0.014 C 
HETATM   21  C16 UNL     1      -7.411   4.568  14.478  1.00  0.00     0.010 C 
BRANCH  20  22
HETATM   22  C17 UNL     1      -8.404   6.386  15.920  1.00  0.00     0.008 C 
BRANCH  22  23
HETATM   23  C18 UNL     1      -9.124   7.267  14.884  1.00  0.00     0.028 C 
BRANCH  23  24
HETATM   24  C19 UNL     1     -10.479   6.764  14.476  1.00  0.00    -0.013 C 
HETATM   25  C20 UNL     1     -11.527   7.483  14.026  1.00  0.00     0.008 C 
HETATM   26  C21 UNL     1     -11.578   8.974  13.881  1.00  0.00     0.055 C 
BRANCH  25  27
HETATM   27  C22 UNL     1     -12.749   6.715  13.669  1.00  0.00     0.171 C 
HETATM   28  O1  UNL     1     -13.535   6.968  12.772  1.00  0.00    -0.646 OA
BRANCH  27  29
HETATM   29  O2  UNL     1     -12.938   5.653  14.469  1.00  0.00    -0.773 OA
HETATM   30  H35 UNL     1     -13.767   5.257  14.129  1.00  0.00     0.167 HD
ENDBRANCH  27  29
ENDBRANCH  25  27
ENDBRANCH  23  24
ENDBRANCH  22  23
ENDBRANCH  20  22
ENDBRANCH  14  20
BRANCH  19  31
HETATM   31  C28 UNL     1      -0.186   6.523  11.412  1.00  0.00     0.020 C 
BRANCH  31  32
HETATM   32  C29 UNL     1       0.273   7.239  10.135  1.00  0.00     0.110 C 
BRANCH  32  33
HETATM   33  C30 UNL     1       1.730   7.084   9.812  1.00  0.00     0.139 C 
HETATM   34  O3  UNL     1       2.616   7.880  10.074  1.00  0.00    -0.650 OA
BRANCH  33  35
HETATM   35  O4  UNL     1       2.000   5.947   9.145  1.00  0.00    -0.776 OA
HETATM   36  H48 UNL     1       2.973   5.976   9.032  1.00  0.00     0.167 HD
ENDBRANCH  33  35
ENDBRANCH  32  33
ENDBRANCH  31  32
ENDBRANCH  19  31
TORSDOF 10
ENDMDL
MODEL 9
REMARK minimizedAffinity -6.40757227
REMARK CNNscore 0.24383156
REMARK CNNaffinity 6.44353247
REMARK  10 active torsions:
REMARK  status: ('A' for Active; 'I' for Inactive)
REMARK    1  A    between atoms: C14_14  and  C15_15 
REMARK    2  A    between atoms: C15_15  and  C17_17 
REMARK    3  A    between atoms: C17_17  and  C18_18 
REMARK    4  A    between atoms: C18_18  and  C19_19 
REMARK    5  A    between atoms: C20_20  and  C22_22 
REMARK    6  A    between atoms: C22_22  and  O2_24 
REMARK    7  A    between atoms: C27_29  and  C28_30 
REMARK    8  A    between atoms: C28_30  and  C29_31 
REMARK    9  A    between atoms: C29_31  and  C30_32 
REMARK   10  A    between atoms: C30_32  and  O4_34 
ROOT
HETATM    1  C1  UNL     1       0.782   8.079   8.057  1.00  0.00     0.043 C 
HETATM    2  C2  UNL     1       1.753   7.873   9.205  1.00  0.00    -0.085 C 
HETATM    3  C3  UNL     1       3.164   8.176   8.770  1.00  0.00     0.043 C 
HETATM    4  C4  UNL     1       1.344   7.514  10.453  1.00  0.00    -0.073 C 
HETATM    5  C5  UNL     1      -0.143   7.576  10.782  1.00  0.00     0.035 C 
HETATM    6  C6  UNL     1      -0.445   7.681  12.277  1.00  0.00     0.010 C 
HETATM    7  C7  UNL     1       0.521   8.616  13.055  1.00  0.00     0.003 C 
HETATM    8  C8  UNL     1       2.077   8.336  12.742  1.00  0.00    -0.032 C 
HETATM    9  C9  UNL     1       2.748   9.581  12.100  1.00  0.00     0.016 C 
HETATM   10  C10 UNL     1       2.889   8.039  14.042  1.00  0.00     0.011 C 
HETATM   11  C11 UNL     1       2.598   8.899  15.291  1.00  0.00     0.011 C 
HETATM   12  C12 UNL     1       1.193   9.523  15.369  1.00  0.00    -0.032 C 
HETATM   13  C13 UNL     1       1.240  10.994  14.838  1.00  0.00     0.016 C 
HETATM   14  C14 UNL     1       0.541   9.575  16.797  1.00  0.00    -0.002 C 
HETATM   15  C23 UNL     1      -0.982   9.650  16.460  1.00  0.00     0.006 C 
HETATM   16  C24 UNL     1      -1.149   9.272  14.975  1.00  0.00     0.011 C 
HETATM   17  C25 UNL     1       0.187   8.609  14.589  1.00  0.00    -0.032 C 
HETATM   18  C26 UNL     1       0.095   7.136  15.118  1.00  0.00     0.016 C 
HETATM   19  C27 UNL     1       2.173   7.138  11.702  1.00  0.00     0.024 C 
ENDROOT
BRANCH  14  20
HETATM   20  C15 UNL     1       0.991  10.673  17.811  1.00  0.00    -0.014 C 
HETATM   21  C16 UNL     1       2.334  10.309  18.459  1.00  0.00     0.010 C 
BRANCH  20  22
HETATM   22  C17 UNL     1      -0.082  10.879  18.919  1.00  0.00     0.008 C 
BRANCH  22  23
HETATM   23  C18 UNL     1      -0.545  12.337  19.084  1.00  0.00     0.028 C 
BRANCH  23  24
HETATM   24  C19 UNL     1      -1.484  12.816  18.015  1.00  0.00    -0.013 C 
HETATM   25  C20 UNL     1      -2.790  12.515  17.866  1.00  0.00     0.008 C 
HETATM   26  C21 UNL     1      -3.585  11.581  18.727  1.00  0.00     0.055 C 
BRANCH  25  27
HETATM   27  C22 UNL     1      -3.487  13.156  16.720  1.00  0.00     0.171 C 
HETATM   28  O1  UNL     1      -3.664  12.678  15.613  1.00  0.00    -0.646 OA
BRANCH  27  29
HETATM   29  O2  UNL     1      -3.931  14.389  17.017  1.00  0.00    -0.773 OA
HETATM   30  H35 UNL     1      -4.352  14.685  16.182  1.00  0.00     0.167 HD
ENDBRANCH  27  29
ENDBRANCH  25  27
ENDBRANCH  23  24
ENDBRANCH  22  23
ENDBRANCH  20  22
ENDBRANCH  14  20
BRANCH  19  31
HETATM   31  C28 UNL     1       3.575   6.501  11.485  1.00  0.00     0.020 C 
BRANCH  31  32
HETATM   32  C29 UNL     1       4.713   7.530  11.471  1.00  0.00     0.110 C 
BRANCH  32  33
HETATM   33  C30 UNL     1       6.095   6.947  11.489  1.00  0.00     0.139 C 
HETATM   34  O3  UNL     1       7.058   7.353  10.860  1.00  0.00    -0.650 OA
BRANCH  33  35
HETATM   35  O4  UNL     1       6.194   5.859  12.276  1.00  0.00    -0.776 OA
HETATM   36  H48 UNL     1       7.140   5.614  12.207  1.00  0.00     0.167 HD
ENDBRANCH  33  35
ENDBRANCH  32  33
ENDBRANCH  31  32
ENDBRANCH  19  31
TORSDOF 10
ENDMDL
