MODEL 1
REMARK minimizedAffinity -8.04050636
REMARK CNNscore 0.696215928
REMARK CNNaffinity 6.03937292
REMARK  11 active torsions:
REMARK  status: ('A' for Active; 'I' for Inactive)
REMARK    1  A    between atoms: C12_13  and  O2_14 
REMARK    2  A    between atoms: C19_21  and  O3_22 
REMARK    3  A    between atoms: C19_21  and  C20_23 
REMARK    4  A    between atoms: C20_23  and  C21_25 
REMARK    5  A    between atoms: C21_25  and  O5_26 
REMARK    6  A    between atoms: O5_26  and  C22_27 
REMARK    7  A    between atoms: C22_27  and  C23_29 
REMARK    8  A    between atoms: C23_29  and  C24_30 
REMARK    9  A    between atoms: C24_30  and  C25_31 
REMARK       I    between atoms: C25_31  and  N1_33 
REMARK   10  A    between atoms: N1_33  and  C26_34 
REMARK   11  A    between atoms: C26_34  and  C27_35 
ROOT
HETATM    1  C1  UNL     1     -15.809  44.406 -24.602  1.00  0.00     0.020 C 
HETATM    2  C2  UNL     1     -16.159  45.623 -25.485  1.00  0.00    -0.014 C 
HETATM    3  C3  UNL     1     -16.729  46.758 -24.583  1.00  0.00     0.022 C 
HETATM    4  C4  UNL     1     -18.126  46.475 -24.050  1.00  0.00     0.084 C 
HETATM    5  C5  UNL     1     -19.070  46.180 -25.185  1.00  0.00     0.149 C 
HETATM    6  O1  UNL     1     -20.269  46.446 -25.128  1.00  0.00    -0.293 OA
HETATM    7  C6  UNL     1     -18.539  45.455 -26.363  1.00  0.00     0.053 C 
HETATM    8  C7  UNL     1     -17.233  45.159 -26.480  1.00  0.00    -0.068 C 
HETATM    9  C8  UNL     1     -16.762  44.280 -27.614  1.00  0.00     0.035 C 
HETATM   10  C9  UNL     1     -15.597  44.902 -28.367  1.00  0.00     0.010 C 
HETATM   11  C10 UNL     1     -14.432  45.266 -27.432  1.00  0.00    -0.002 C 
HETATM   12  C11 UNL     1     -14.928  46.207 -26.290  1.00  0.00     0.031 C 
HETATM   13  C12 UNL     1     -13.754  46.758 -25.425  1.00  0.00     0.124 C 
HETATM   14  C13 UNL     1     -12.576  47.316 -26.253  1.00  0.00     0.045 C 
HETATM   15  C14 UNL     1     -12.085  46.367 -27.369  1.00  0.00     0.001 C 
HETATM   16  C15 UNL     1     -11.353  45.135 -26.775  1.00  0.00     0.019 C 
HETATM   17  C16 UNL     1     -13.324  45.987 -28.218  1.00  0.00     0.002 C 
HETATM   18  C17 UNL     1     -12.721  45.295 -29.433  1.00  0.00     0.009 C 
HETATM   19  C18 UNL     1     -11.420  46.077 -29.703  1.00  0.00     0.047 C 
HETATM   20  C19 UNL     1     -11.193  47.019 -28.479  1.00  0.00     0.128 C 
ENDROOT
BRANCH  20  21
HETATM   21  O3  UNL     1     -11.727  48.294 -28.847  1.00  0.00    -0.381 OA
HETATM   22  H27 UNL     1     -11.155  48.647 -29.561  1.00  0.00     0.211 HD
ENDBRANCH  20  21
BRANCH  20  23
HETATM   23  C20 UNL     1      -9.691  47.143 -28.109  1.00  0.00     0.185 C 
HETATM   24  O4  UNL     1      -8.868  46.290 -28.461  1.00  0.00    -0.292 OA
BRANCH  23  25
HETATM   25  C21 UNL     1      -9.241  48.300 -27.208  1.00  0.00     0.260 C 
BRANCH  25  26
HETATM   26  O5  UNL     1      -9.279  48.169 -25.795  1.00  0.00    -0.314 OA
BRANCH  26  27
HETATM   27  C22 UNL     1      -8.437  47.233 -25.287  1.00  0.00     0.259 C 
HETATM   28  O6  UNL     1      -8.803  46.218 -24.704  1.00  0.00    -0.265 OA
BRANCH  27  29
HETATM   29  C23 UNL     1      -6.993  47.518 -25.630  1.00  0.00     0.120 C 
BRANCH  29  30
HETATM   30  C24 UNL     1      -6.319  48.565 -24.753  1.00  0.00     0.112 C 
BRANCH  30  31
HETATM   31  C25 UNL     1      -4.807  48.514 -24.851  1.00  0.00     0.218 C 
HETATM   32  O7  UNL     1      -4.080  48.291 -23.890  1.00  0.00    -0.274 OA
HETATM   33  N1  UNL     1      -4.340  48.767 -26.121  1.00  0.00    -0.357 N 
HETATM   34  H34 UNL     1      -4.993  48.761 -26.891  1.00  0.00     0.162 HD
BRANCH  33  35
HETATM   35  C26 UNL     1      -2.932  48.674 -26.440  1.00  0.00     0.161 C 
BRANCH  35  36
HETATM   36  C27 UNL     1      -2.330  50.040 -26.631  1.00  0.00    -0.038 A 
HETATM   37  C28 UNL     1      -3.077  51.090 -27.172  1.00  0.00     0.025 A 
HETATM   38  C29 UNL     1      -2.463  52.322 -27.346  1.00  0.00     0.088 A 
HETATM   39  N2  UNL     1      -1.174  52.570 -27.032  1.00  0.00    -0.375 N 
HETATM   40  C30 UNL     1      -0.465  51.541 -26.518  1.00  0.00     0.088 A 
ATOM     41  H2  UNL     1      -0.755  53.489 -27.175  1.00  0.00     0.164 HD
HETATM   42  C31 UNL     1      -0.990  50.277 -26.304  1.00  0.00     0.025 A 
ENDBRANCH  35  36
ENDBRANCH  33  35
ENDBRANCH  30  31
ENDBRANCH  29  30
ENDBRANCH  27  29
ENDBRANCH  26  27
ENDBRANCH  25  26
ENDBRANCH  23  25
ENDBRANCH  20  23
BRANCH  13  43
HETATM   43  O2  UNL     1     -13.252  45.819 -24.484  1.00  0.00    -0.395 OA
HETATM   44  H16 UNL     1     -13.258  44.934 -24.880  1.00  0.00     0.210 HD
ENDBRANCH  13  43
TORSDOF 11
ENDMDL
MODEL 2
REMARK minimizedAffinity -8.73531342
REMARK CNNscore 0.560755193
REMARK CNNaffinity 6.40660477
REMARK  11 active torsions:
REMARK  status: ('A' for Active; 'I' for Inactive)
REMARK    1  A    between atoms: C12_13  and  O2_14 
REMARK    2  A    between atoms: C19_21  and  O3_22 
REMARK    3  A    between atoms: C19_21  and  C20_23 
REMARK    4  A    between atoms: C20_23  and  C21_25 
REMARK    5  A    between atoms: C21_25  and  O5_26 
REMARK    6  A    between atoms: O5_26  and  C22_27 
REMARK    7  A    between atoms: C22_27  and  C23_29 
REMARK    8  A    between atoms: C23_29  and  C24_30 
REMARK    9  A    between atoms: C24_30  and  C25_31 
REMARK       I    between atoms: C25_31  and  N1_33 
REMARK   10  A    between atoms: N1_33  and  C26_34 
REMARK   11  A    between atoms: C26_34  and  C27_35 
ROOT
HETATM    1  C1  UNL     1      -0.718  50.323 -25.665  1.00  0.00     0.020 C 
HETATM    2  C2  UNL     1      -1.310  51.642 -25.123  1.00  0.00    -0.014 C 
HETATM    3  C3  UNL     1      -2.607  51.980 -25.918  1.00  0.00     0.022 C 
HETATM    4  C4  UNL     1      -2.350  52.436 -27.347  1.00  0.00     0.084 C 
HETATM    5  C5  UNL     1      -1.402  53.606 -27.362  1.00  0.00     0.149 C 
HETATM    6  O1  UNL     1      -1.441  54.471 -28.234  1.00  0.00    -0.293 OA
HETATM    7  C6  UNL     1      -0.329  53.647 -26.341  1.00  0.00     0.053 C 
HETATM    8  C7  UNL     1      -0.256  52.734 -25.356  1.00  0.00    -0.068 C 
HETATM    9  C8  UNL     1       0.942  52.718 -24.437  1.00  0.00     0.035 C 
HETATM   10  C9  UNL     1       0.533  52.702 -22.973  1.00  0.00     0.010 C 
HETATM   11  C10 UNL     1      -0.424  51.542 -22.653  1.00  0.00    -0.002 C 
HETATM   12  C11 UNL     1      -1.675  51.598 -23.584  1.00  0.00     0.031 C 
HETATM   13  C12 UNL     1      -2.764  50.560 -23.176  1.00  0.00     0.124 C 
HETATM   14  C13 UNL     1      -3.086  50.552 -21.666  1.00  0.00     0.045 C 
HETATM   15  C14 UNL     1      -1.839  50.480 -20.757  1.00  0.00     0.001 C 
HETATM   16  C15 UNL     1      -1.172  49.081 -20.831  1.00  0.00     0.019 C 
HETATM   17  C16 UNL     1      -0.895  51.629 -21.191  1.00  0.00     0.002 C 
HETATM   18  C17 UNL     1       0.153  51.661 -20.086  1.00  0.00     0.009 C 
HETATM   19  C18 UNL     1      -0.641  51.336 -18.806  1.00  0.00     0.047 C 
HETATM   20  C19 UNL     1      -2.062  50.872 -19.257  1.00  0.00     0.128 C 
ENDROOT
BRANCH  20  21
HETATM   21  O3  UNL     1      -2.907  52.025 -19.175  1.00  0.00    -0.381 OA
HETATM   22  H27 UNL     1      -2.991  52.248 -18.224  1.00  0.00     0.211 HD
ENDBRANCH  20  21
BRANCH  20  23
HETATM   23  C20 UNL     1      -2.613  49.728 -18.365  1.00  0.00     0.185 C 
HETATM   24  O4  UNL     1      -3.309  48.822 -18.836  1.00  0.00    -0.292 OA
BRANCH  23  25
HETATM   25  C21 UNL     1      -2.365  49.781 -16.852  1.00  0.00     0.260 C 
BRANCH  25  26
HETATM   26  O5  UNL     1      -1.756  50.919 -16.262  1.00  0.00    -0.314 OA
BRANCH  26  27
HETATM   27  C22 UNL     1      -1.178  50.693 -15.054  1.00  0.00     0.259 C 
HETATM   28  O6  UNL     1      -0.166  50.021 -14.886  1.00  0.00    -0.265 OA
BRANCH  27  29
HETATM   29  C23 UNL     1      -1.850  51.471 -13.946  1.00  0.00     0.120 C 
BRANCH  29  30
HETATM   30  C24 UNL     1      -2.820  50.664 -13.092  1.00  0.00     0.112 C 
BRANCH  30  31
HETATM   31  C25 UNL     1      -3.465  51.500 -12.003  1.00  0.00     0.218 C 
HETATM   32  O7  UNL     1      -4.249  51.042 -11.182  1.00  0.00    -0.274 OA
HETATM   33  N1  UNL     1      -3.095  52.825 -12.052  1.00  0.00    -0.357 N 
HETATM   34  H34 UNL     1      -2.314  53.093 -12.633  1.00  0.00     0.162 HD
BRANCH  33  35
HETATM   35  C26 UNL     1      -3.530  53.767 -11.044  1.00  0.00     0.161 C 
BRANCH  35  36
HETATM   36  C27 UNL     1      -2.423  54.069 -10.071  1.00  0.00    -0.038 A 
HETATM   37  C28 UNL     1      -1.637  55.217 -10.205  1.00  0.00     0.025 A 
HETATM   38  C29 UNL     1      -0.615  55.432  -9.291  1.00  0.00     0.088 A 
HETATM   39  N2  UNL     1      -0.324  54.591  -8.276  1.00  0.00    -0.375 N 
HETATM   40  C30 UNL     1      -1.090  53.483  -8.168  1.00  0.00     0.088 A 
ATOM     41  H2  UNL     1       0.436  54.781  -7.624  1.00  0.00     0.164 HD
HETATM   42  C31 UNL     1      -2.133  53.182  -9.029  1.00  0.00     0.025 A 
ENDBRANCH  35  36
ENDBRANCH  33  35
ENDBRANCH  30  31
ENDBRANCH  29  30
ENDBRANCH  27  29
ENDBRANCH  26  27
ENDBRANCH  25  26
ENDBRANCH  23  25
ENDBRANCH  20  23
BRANCH  13  43
HETATM   43  O2  UNL     1      -2.468  49.234 -23.591  1.00  0.00    -0.395 OA
HETATM   44  H16 UNL     1      -1.516  49.075 -23.503  1.00  0.00     0.210 HD
ENDBRANCH  13  43
TORSDOF 11
ENDMDL
MODEL 3
REMARK minimizedAffinity -10.4032459
REMARK CNNscore 0.521090031
REMARK CNNaffinity 7.35474634
REMARK  11 active torsions:
REMARK  status: ('A' for Active; 'I' for Inactive)
REMARK    1  A    between atoms: C12_13  and  O2_14 
REMARK    2  A    between atoms: C19_21  and  O3_22 
REMARK    3  A    between atoms: C19_21  and  C20_23 
REMARK    4  A    between atoms: C20_23  and  C21_25 
REMARK    5  A    between atoms: C21_25  and  O5_26 
REMARK    6  A    between atoms: O5_26  and  C22_27 
REMARK    7  A    between atoms: C22_27  and  C23_29 
REMARK    8  A    between atoms: C23_29  and  C24_30 
REMARK    9  A    between atoms: C24_30  and  C25_31 
REMARK       I    between atoms: C25_31  and  N1_33 
REMARK   10  A    between atoms: N1_33  and  C26_34 
REMARK   11  A    between atoms: C26_34  and  C27_35 
ROOT
HETATM    1  C1  UNL     1      -0.153  49.900 -20.912  1.00  0.00     0.020 C 
HETATM    2  C2  UNL     1      -0.924  51.215 -21.156  1.00  0.00    -0.014 C 
HETATM    3  C3  UNL     1      -0.205  52.025 -22.275  1.00  0.00     0.022 C 
HETATM    4  C4  UNL     1       1.119  52.636 -21.837  1.00  0.00     0.084 C 
HETATM    5  C5  UNL     1       0.924  53.488 -20.612  1.00  0.00     0.149 C 
HETATM    6  O1  UNL     1       1.625  54.470 -20.376  1.00  0.00    -0.293 OA
HETATM    7  C6  UNL     1      -0.087  53.059 -19.618  1.00  0.00     0.053 C 
HETATM    8  C7  UNL     1      -0.891  52.003 -19.838  1.00  0.00    -0.068 C 
HETATM    9  C8  UNL     1      -1.791  51.503 -18.734  1.00  0.00     0.035 C 
HETATM   10  C9  UNL     1      -3.228  51.345 -19.202  1.00  0.00     0.010 C 
HETATM   11  C10 UNL     1      -3.335  50.450 -20.449  1.00  0.00    -0.002 C 
HETATM   12  C11 UNL     1      -2.430  51.005 -21.593  1.00  0.00     0.031 C 
HETATM   13  C12 UNL     1      -2.645  50.246 -22.938  1.00  0.00     0.124 C 
HETATM   14  C13 UNL     1      -4.129  50.064 -23.322  1.00  0.00     0.045 C 
HETATM   15  C14 UNL     1      -5.010  49.499 -22.185  1.00  0.00     0.001 C 
HETATM   16  C15 UNL     1      -4.683  48.006 -21.913  1.00  0.00     0.019 C 
HETATM   17  C16 UNL     1      -4.789  50.406 -20.949  1.00  0.00     0.002 C 
HETATM   18  C17 UNL     1      -5.880  49.959 -19.985  1.00  0.00     0.009 C 
HETATM   19  C18 UNL     1      -7.082  49.645 -20.897  1.00  0.00     0.047 C 
HETATM   20  C19 UNL     1      -6.556  49.670 -22.367  1.00  0.00     0.128 C 
ENDROOT
BRANCH  20  21
HETATM   21  O3  UNL     1      -6.845  50.976 -22.876  1.00  0.00    -0.381 OA
HETATM   22  H27 UNL     1      -7.821  51.045 -22.944  1.00  0.00     0.211 HD
ENDBRANCH  20  21
BRANCH  20  23
HETATM   23  C20 UNL     1      -7.227  48.581 -23.245  1.00  0.00     0.185 C 
HETATM   24  O4  UNL     1      -7.830  47.628 -22.741  1.00  0.00    -0.292 OA
BRANCH  23  25
HETATM   25  C21 UNL     1      -7.052  48.643 -24.768  1.00  0.00     0.260 C 
BRANCH  25  26
HETATM   26  O5  UNL     1      -5.938  48.022 -25.390  1.00  0.00    -0.314 OA
BRANCH  26  27
HETATM   27  C22 UNL     1      -6.135  47.665 -26.686  1.00  0.00     0.259 C 
HETATM   28  O6  UNL     1      -7.171  47.170 -27.116  1.00  0.00    -0.265 OA
BRANCH  27  29
HETATM   29  C23 UNL     1      -4.976  48.063 -27.570  1.00  0.00     0.120 C 
BRANCH  29  30
HETATM   30  C24 UNL     1      -3.843  48.788 -26.855  1.00  0.00     0.112 C 
BRANCH  30  31
HETATM   31  C25 UNL     1      -3.224  49.878 -27.709  1.00  0.00     0.218 C 
HETATM   32  O7  UNL     1      -3.629  50.163 -28.829  1.00  0.00    -0.274 OA
HETATM   33  N1  UNL     1      -2.151  50.492 -27.103  1.00  0.00    -0.357 N 
HETATM   34  H34 UNL     1      -1.989  50.334 -26.119  1.00  0.00     0.162 HD
BRANCH  33  35
HETATM   35  C26 UNL     1      -1.481  51.618 -27.717  1.00  0.00     0.161 C 
BRANCH  35  36
HETATM   36  C27 UNL     1      -0.036  51.678 -27.305  1.00  0.00    -0.038 A 
HETATM   37  C28 UNL     1       0.984  51.767 -28.257  1.00  0.00     0.025 A 
HETATM   38  C29 UNL     1       2.300  51.796 -27.819  1.00  0.00     0.088 A 
HETATM   39  N2  UNL     1       2.662  51.736 -26.520  1.00  0.00    -0.375 N 
HETATM   40  C30 UNL     1       1.663  51.643 -25.616  1.00  0.00     0.088 A 
ATOM     41  H2  UNL     1       3.642  51.759 -26.236  1.00  0.00     0.164 HD
HETATM   42  C31 UNL     1       0.320  51.610 -25.954  1.00  0.00     0.025 A 
ENDBRANCH  35  36
ENDBRANCH  33  35
ENDBRANCH  30  31
ENDBRANCH  29  30
ENDBRANCH  27  29
ENDBRANCH  26  27
ENDBRANCH  25  26
ENDBRANCH  23  25
ENDBRANCH  20  23
BRANCH  13  43
HETATM   43  O2  UNL     1      -1.997  48.983 -22.987  1.00  0.00    -0.395 OA
HETATM   44  H16 UNL     1      -2.054  48.559 -22.117  1.00  0.00     0.210 HD
ENDBRANCH  13  43
TORSDOF 11
ENDMDL
MODEL 4
REMARK minimizedAffinity -9.06539536
REMARK CNNscore 0.486264408
REMARK CNNaffinity 6.7763958
REMARK  11 active torsions:
REMARK  status: ('A' for Active; 'I' for Inactive)
REMARK    1  A    between atoms: C12_13  and  O2_14 
REMARK    2  A    between atoms: C19_21  and  O3_22 
REMARK    3  A    between atoms: C19_21  and  C20_23 
REMARK    4  A    between atoms: C20_23  and  C21_25 
REMARK    5  A    between atoms: C21_25  and  O5_26 
REMARK    6  A    between atoms: O5_26  and  C22_27 
REMARK    7  A    between atoms: C22_27  and  C23_29 
REMARK    8  A    between atoms: C23_29  and  C24_30 
REMARK    9  A    between atoms: C24_30  and  C25_31 
REMARK       I    between atoms: C25_31  and  N1_33 
REMARK   10  A    between atoms: N1_33  and  C26_34 
REMARK   11  A    between atoms: C26_34  and  C27_35 
ROOT
HETATM    1  C1  UNL     1      -2.130  52.678 -24.553  1.00  0.00     0.020 C 
HETATM    2  C2  UNL     1      -1.189  51.457 -24.629  1.00  0.00    -0.014 C 
HETATM    3  C3  UNL     1       0.286  51.957 -24.685  1.00  0.00     0.022 C 
HETATM    4  C4  UNL     1       0.666  52.599 -26.011  1.00  0.00     0.084 C 
HETATM    5  C5  UNL     1       0.385  51.656 -27.151  1.00  0.00     0.149 C 
HETATM    6  O1  UNL     1       1.046  51.664 -28.188  1.00  0.00    -0.293 OA
HETATM    7  C6  UNL     1      -0.792  50.763 -27.043  1.00  0.00     0.053 C 
HETATM    8  C7  UNL     1      -1.535  50.706 -25.923  1.00  0.00    -0.068 C 
HETATM    9  C8  UNL     1      -2.816  49.907 -25.913  1.00  0.00     0.035 C 
HETATM   10  C9  UNL     1      -2.880  48.953 -24.732  1.00  0.00     0.010 C 
HETATM   11  C10 UNL     1      -2.672  49.678 -23.391  1.00  0.00    -0.002 C 
HETATM   12  C11 UNL     1      -1.324  50.465 -23.404  1.00  0.00     0.031 C 
HETATM   13  C12 UNL     1      -0.973  51.061 -22.008  1.00  0.00     0.124 C 
HETATM   14  C13 UNL     1      -1.121  50.057 -20.844  1.00  0.00     0.045 C 
HETATM   15  C14 UNL     1      -2.466  49.297 -20.835  1.00  0.00     0.001 C 
HETATM   16  C15 UNL     1      -3.638  50.238 -20.444  1.00  0.00     0.019 C 
HETATM   17  C16 UNL     1      -2.638  48.662 -22.237  1.00  0.00     0.002 C 
HETATM   18  C17 UNL     1      -3.821  47.722 -22.056  1.00  0.00     0.009 C 
HETATM   19  C18 UNL     1      -3.645  47.166 -20.629  1.00  0.00     0.047 C 
HETATM   20  C19 UNL     1      -2.518  48.006 -19.950  1.00  0.00     0.128 C 
ENDROOT
BRANCH  20  21
HETATM   21  O3  UNL     1      -1.307  47.258 -20.109  1.00  0.00    -0.381 OA
HETATM   22  H27 UNL     1      -1.399  46.449 -19.563  1.00  0.00     0.211 HD
ENDBRANCH  20  21
BRANCH  20  23
HETATM   23  C20 UNL     1      -2.806  48.263 -18.447  1.00  0.00     0.185 C 
HETATM   24  O4  UNL     1      -3.902  47.990 -17.946  1.00  0.00    -0.292 OA
BRANCH  23  25
HETATM   25  C21 UNL     1      -1.738  48.959 -17.595  1.00  0.00     0.260 C 
BRANCH  25  26
HETATM   26  O5  UNL     1      -1.967  49.209 -16.216  1.00  0.00    -0.314 OA
BRANCH  26  27
HETATM   27  C22 UNL     1      -2.519  50.418 -15.940  1.00  0.00     0.259 C 
HETATM   28  O6  UNL     1      -2.835  51.244 -16.790  1.00  0.00    -0.265 OA
BRANCH  27  29
HETATM   29  C23 UNL     1      -2.819  50.586 -14.468  1.00  0.00     0.120 C 
BRANCH  29  30
HETATM   30  C24 UNL     1      -3.062  52.022 -14.023  1.00  0.00     0.112 C 
BRANCH  30  31
HETATM   31  C25 UNL     1      -3.415  52.119 -12.551  1.00  0.00     0.218 C 
HETATM   32  O7  UNL     1      -3.554  51.139 -11.829  1.00  0.00    -0.274 OA
HETATM   33  N1  UNL     1      -3.584  53.416 -12.122  1.00  0.00    -0.357 N 
HETATM   34  H34 UNL     1      -3.278  54.172 -12.718  1.00  0.00     0.162 HD
BRANCH  33  35
HETATM   35  C26 UNL     1      -3.834  53.724 -10.730  1.00  0.00     0.161 C 
BRANCH  35  36
HETATM   36  C27 UNL     1      -2.545  53.939  -9.984  1.00  0.00    -0.038 A 
HETATM   37  C28 UNL     1      -1.716  55.027 -10.273  1.00  0.00     0.025 A 
HETATM   38  C29 UNL     1      -0.528  55.161  -9.568  1.00  0.00     0.088 A 
HETATM   39  N2  UNL     1      -0.116  54.297  -8.618  1.00  0.00    -0.375 N 
HETATM   40  C30 UNL     1      -0.927  53.248  -8.358  1.00  0.00     0.088 A 
ATOM     41  H2  UNL     1       0.765  54.428  -8.120  1.00  0.00     0.164 HD
HETATM   42  C31 UNL     1      -2.132  53.029  -9.006  1.00  0.00     0.025 A 
ENDBRANCH  35  36
ENDBRANCH  33  35
ENDBRANCH  30  31
ENDBRANCH  29  30
ENDBRANCH  27  29
ENDBRANCH  26  27
ENDBRANCH  25  26
ENDBRANCH  23  25
ENDBRANCH  20  23
BRANCH  13  43
HETATM   43  O2  UNL     1      -1.701  52.240 -21.694  1.00  0.00    -0.395 OA
HETATM   44  H16 UNL     1      -2.607  52.156 -22.030  1.00  0.00     0.210 HD
ENDBRANCH  13  43
TORSDOF 11
ENDMDL
MODEL 5
REMARK minimizedAffinity -9.78381634
REMARK CNNscore 0.481433332
REMARK CNNaffinity 7.51978827
REMARK  11 active torsions:
REMARK  status: ('A' for Active; 'I' for Inactive)
REMARK    1  A    between atoms: C12_13  and  O2_14 
REMARK    2  A    between atoms: C19_21  and  O3_22 
REMARK    3  A    between atoms: C19_21  and  C20_23 
REMARK    4  A    between atoms: C20_23  and  C21_25 
REMARK    5  A    between atoms: C21_25  and  O5_26 
REMARK    6  A    between atoms: O5_26  and  C22_27 
REMARK    7  A    between atoms: C22_27  and  C23_29 
REMARK    8  A    between atoms: C23_29  and  C24_30 
REMARK    9  A    between atoms: C24_30  and  C25_31 
REMARK       I    between atoms: C25_31  and  N1_33 
REMARK   10  A    between atoms: N1_33  and  C26_34 
REMARK   11  A    between atoms: C26_34  and  C27_35 
ROOT
HETATM    1  C1  UNL     1      -4.521  51.118 -24.537  1.00  0.00     0.020 C 
HETATM    2  C2  UNL     1      -3.724  49.796 -24.528  1.00  0.00    -0.014 C 
HETATM    3  C3  UNL     1      -2.500  49.936 -25.482  1.00  0.00     0.022 C 
HETATM    4  C4  UNL     1      -2.870  49.949 -26.958  1.00  0.00     0.084 C 
HETATM    5  C5  UNL     1      -3.674  48.725 -27.308  1.00  0.00     0.149 C 
HETATM    6  O1  UNL     1      -3.641  48.215 -28.426  1.00  0.00    -0.293 OA
HETATM    7  C6  UNL     1      -4.607  48.189 -26.290  1.00  0.00     0.053 C 
HETATM    8  C7  UNL     1      -4.667  48.701 -25.048  1.00  0.00    -0.068 C 
HETATM    9  C8  UNL     1      -5.742  48.235 -24.096  1.00  0.00     0.035 C 
HETATM   10  C9  UNL     1      -5.168  47.823 -22.750  1.00  0.00     0.010 C 
HETATM   11  C10 UNL     1      -4.318  48.938 -22.118  1.00  0.00    -0.002 C 
HETATM   12  C11 UNL     1      -3.187  49.379 -23.099  1.00  0.00     0.031 C 
HETATM   13  C12 UNL     1      -2.183  50.371 -22.438  1.00  0.00     0.124 C 
HETATM   14  C13 UNL     1      -1.688  49.924 -21.046  1.00  0.00     0.045 C 
HETATM   15  C14 UNL     1      -2.819  49.505 -20.080  1.00  0.00     0.001 C 
HETATM   16  C15 UNL     1      -3.645  50.735 -19.618  1.00  0.00     0.019 C 
HETATM   17  C16 UNL     1      -3.671  48.440 -20.814  1.00  0.00     0.002 C 
HETATM   18  C17 UNL     1      -4.571  47.889 -19.716  1.00  0.00     0.009 C 
HETATM   19  C18 UNL     1      -3.673  47.883 -18.463  1.00  0.00     0.047 C 
HETATM   20  C19 UNL     1      -2.378  48.674 -18.828  1.00  0.00     0.128 C 
ENDROOT
BRANCH  20  21
HETATM   21  O3  UNL     1      -1.404  47.697 -19.210  1.00  0.00    -0.381 OA
HETATM   22  H27 UNL     1      -1.183  47.185 -18.403  1.00  0.00     0.211 HD
ENDBRANCH  20  21
BRANCH  20  23
HETATM   23  C20 UNL     1      -1.859  49.524 -17.638  1.00  0.00     0.185 C 
HETATM   24  O4  UNL     1      -2.488  49.597 -16.576  1.00  0.00    -0.292 OA
BRANCH  23  25
HETATM   25  C21 UNL     1      -0.590  50.364 -17.823  1.00  0.00     0.260 C 
BRANCH  25  26
HETATM   26  O5  UNL     1      -0.662  51.661 -18.397  1.00  0.00    -0.314 OA
BRANCH  26  27
HETATM   27  C22 UNL     1       0.476  52.394 -18.293  1.00  0.00     0.259 C 
HETATM   28  O6  UNL     1       1.312  52.251 -17.408  1.00  0.00    -0.265 OA
BRANCH  27  29
HETATM   29  C23 UNL     1       0.662  53.328 -19.467  1.00  0.00     0.120 C 
BRANCH  29  30
HETATM   30  C24 UNL     1       0.805  52.640 -20.818  1.00  0.00     0.112 C 
BRANCH  30  31
HETATM   31  C25 UNL     1       1.083  53.621 -21.940  1.00  0.00     0.218 C 
HETATM   32  O7  UNL     1       1.703  54.665 -21.780  1.00  0.00    -0.274 OA
HETATM   33  N1  UNL     1       0.547  53.227 -23.145  1.00  0.00    -0.357 N 
HETATM   34  H34 UNL     1       0.211  52.280 -23.244  1.00  0.00     0.162 HD
BRANCH  33  35
HETATM   35  C26 UNL     1       0.780  53.981 -24.358  1.00  0.00     0.161 C 
BRANCH  35  36
HETATM   36  C27 UNL     1       0.573  53.124 -25.576  1.00  0.00    -0.038 A 
HETATM   37  C28 UNL     1       1.000  51.793 -25.605  1.00  0.00     0.025 A 
HETATM   38  C29 UNL     1       0.804  51.057 -26.765  1.00  0.00     0.088 A 
HETATM   39  N2  UNL     1       0.227  51.552 -27.881  1.00  0.00    -0.375 N 
HETATM   40  C30 UNL     1      -0.172  52.842 -27.836  1.00  0.00     0.088 A 
ATOM     41  H2  UNL     1       0.100  50.981 -28.716  1.00  0.00     0.164 HD
HETATM   42  C31 UNL     1      -0.021  53.656 -26.726  1.00  0.00     0.025 A 
ENDBRANCH  35  36
ENDBRANCH  33  35
ENDBRANCH  30  31
ENDBRANCH  29  30
ENDBRANCH  27  29
ENDBRANCH  26  27
ENDBRANCH  25  26
ENDBRANCH  23  25
ENDBRANCH  20  23
BRANCH  13  43
HETATM   43  O2  UNL     1      -2.674  51.701 -22.346  1.00  0.00    -0.395 OA
HETATM   44  H16 UNL     1      -3.621  51.679 -22.141  1.00  0.00     0.210 HD
ENDBRANCH  13  43
TORSDOF 11
ENDMDL
MODEL 6
REMARK minimizedAffinity -7.97945023
REMARK CNNscore 0.443053633
REMARK CNNaffinity 6.51315832
REMARK  11 active torsions:
REMARK  status: ('A' for Active; 'I' for Inactive)
REMARK    1  A    between atoms: C12_13  and  O2_14 
REMARK    2  A    between atoms: C19_21  and  O3_22 
REMARK    3  A    between atoms: C19_21  and  C20_23 
REMARK    4  A    between atoms: C20_23  and  C21_25 
REMARK    5  A    between atoms: C21_25  and  O5_26 
REMARK    6  A    between atoms: O5_26  and  C22_27 
REMARK    7  A    between atoms: C22_27  and  C23_29 
REMARK    8  A    between atoms: C23_29  and  C24_30 
REMARK    9  A    between atoms: C24_30  and  C25_31 
REMARK       I    between atoms: C25_31  and  N1_33 
REMARK   10  A    between atoms: N1_33  and  C26_34 
REMARK   11  A    between atoms: C26_34  and  C27_35 
ROOT
HETATM    1  C1  UNL     1      -1.514  50.123 -24.157  1.00  0.00     0.020 C 
HETATM    2  C2  UNL     1      -2.208  50.397 -22.806  1.00  0.00    -0.014 C 
HETATM    3  C3  UNL     1      -2.133  51.922 -22.498  1.00  0.00     0.022 C 
HETATM    4  C4  UNL     1      -0.740  52.406 -22.122  1.00  0.00     0.084 C 
HETATM    5  C5  UNL     1      -0.202  51.607 -20.964  1.00  0.00     0.149 C 
HETATM    6  O1  UNL     1       0.583  52.082 -20.146  1.00  0.00    -0.293 OA
HETATM    7  C6  UNL     1      -0.564  50.173 -20.879  1.00  0.00     0.053 C 
HETATM    8  C7  UNL     1      -1.432  49.611 -21.738  1.00  0.00    -0.068 C 
HETATM    9  C8  UNL     1      -1.647  48.117 -21.717  1.00  0.00     0.035 C 
HETATM   10  C9  UNL     1      -3.122  47.757 -21.651  1.00  0.00     0.010 C 
HETATM   11  C10 UNL     1      -3.929  48.414 -22.783  1.00  0.00    -0.002 C 
HETATM   12  C11 UNL     1      -3.728  49.962 -22.764  1.00  0.00     0.031 C 
HETATM   13  C12 UNL     1      -4.670  50.694 -23.768  1.00  0.00     0.124 C 
HETATM   14  C13 UNL     1      -6.142  50.235 -23.691  1.00  0.00     0.045 C 
HETATM   15  C14 UNL     1      -6.327  48.702 -23.727  1.00  0.00     0.001 C 
HETATM   16  C15 UNL     1      -6.008  48.132 -25.135  1.00  0.00     0.019 C 
HETATM   17  C16 UNL     1      -5.428  48.111 -22.613  1.00  0.00     0.002 C 
HETATM   18  C17 UNL     1      -5.875  46.657 -22.533  1.00  0.00     0.009 C 
HETATM   19  C18 UNL     1      -7.395  46.717 -22.780  1.00  0.00     0.047 C 
HETATM   20  C19 UNL     1      -7.722  48.169 -23.253  1.00  0.00     0.128 C 
ENDROOT
BRANCH  20  21
HETATM   21  O3  UNL     1      -8.147  48.885 -22.090  1.00  0.00    -0.381 OA
HETATM   22  H27 UNL     1      -9.005  48.497 -21.815  1.00  0.00     0.211 HD
ENDBRANCH  20  21
BRANCH  20  23
HETATM   23  C20 UNL     1      -8.827  48.193 -24.342  1.00  0.00     0.185 C 
HETATM   24  O4  UNL     1      -9.191  49.250 -24.868  1.00  0.00    -0.292 OA
BRANCH  23  25
HETATM   25  C21 UNL     1      -9.545  46.886 -24.701  1.00  0.00     0.260 C 
BRANCH  25  26
HETATM   26  O5  UNL     1     -10.495  46.852 -25.754  1.00  0.00    -0.314 OA
BRANCH  26  27
HETATM   27  C22 UNL     1     -10.000  46.462 -26.957  1.00  0.00     0.259 C 
HETATM   28  O6  UNL     1     -10.394  46.887 -28.037  1.00  0.00    -0.265 OA
BRANCH  27  29
HETATM   29  C23 UNL     1      -8.814  45.535 -26.812  1.00  0.00     0.120 C 
BRANCH  29  30
HETATM   30  C24 UNL     1      -7.563  45.971 -27.564  1.00  0.00     0.112 C 
BRANCH  30  31
HETATM   31  C25 UNL     1      -7.419  45.271 -28.902  1.00  0.00     0.218 C 
HETATM   32  O7  UNL     1      -6.943  44.149 -29.023  1.00  0.00    -0.274 OA
HETATM   33  N1  UNL     1      -7.856  46.036 -29.960  1.00  0.00    -0.357 N 
HETATM   34  H34 UNL     1      -8.399  46.866 -29.771  1.00  0.00     0.162 HD
BRANCH  33  35
HETATM   35  C26 UNL     1      -7.887  45.511 -31.308  1.00  0.00     0.161 C 
BRANCH  35  36
HETATM   36  C27 UNL     1      -6.749  46.056 -32.127  1.00  0.00    -0.038 A 
HETATM   37  C28 UNL     1      -5.459  45.531 -32.011  1.00  0.00     0.025 A 
HETATM   38  C29 UNL     1      -4.444  46.089 -32.775  1.00  0.00     0.088 A 
HETATM   39  N2  UNL     1      -4.624  47.122 -33.625  1.00  0.00    -0.375 N 
HETATM   40  C30 UNL     1      -5.876  47.622 -33.717  1.00  0.00     0.088 A 
ATOM     41  H2  UNL     1      -3.853  47.508 -34.170  1.00  0.00     0.164 HD
HETATM   42  C31 UNL     1      -6.954  47.132 -32.998  1.00  0.00     0.025 A 
ENDBRANCH  35  36
ENDBRANCH  33  35
ENDBRANCH  30  31
ENDBRANCH  29  30
ENDBRANCH  27  29
ENDBRANCH  26  27
ENDBRANCH  25  26
ENDBRANCH  23  25
ENDBRANCH  20  23
BRANCH  13  43
HETATM   43  O2  UNL     1      -4.232  50.616 -25.117  1.00  0.00    -0.395 OA
HETATM   44  H16 UNL     1      -3.851  49.739 -25.280  1.00  0.00     0.210 HD
ENDBRANCH  13  43
TORSDOF 11
ENDMDL
MODEL 7
REMARK minimizedAffinity -9.17348957
REMARK CNNscore 0.441715896
REMARK CNNaffinity 6.1741004
REMARK  11 active torsions:
REMARK  status: ('A' for Active; 'I' for Inactive)
REMARK    1  A    between atoms: C12_13  and  O2_14 
REMARK    2  A    between atoms: C19_21  and  O3_22 
REMARK    3  A    between atoms: C19_21  and  C20_23 
REMARK    4  A    between atoms: C20_23  and  C21_25 
REMARK    5  A    between atoms: C21_25  and  O5_26 
REMARK    6  A    between atoms: O5_26  and  C22_27 
REMARK    7  A    between atoms: C22_27  and  C23_29 
REMARK    8  A    between atoms: C23_29  and  C24_30 
REMARK    9  A    between atoms: C24_30  and  C25_31 
REMARK       I    between atoms: C25_31  and  N1_33 
REMARK   10  A    between atoms: N1_33  and  C26_34 
REMARK   11  A    between atoms: C26_34  and  C27_35 
ROOT
HETATM    1  C1  UNL     1      -0.216  49.844 -20.995  1.00  0.00     0.020 C 
HETATM    2  C2  UNL     1      -1.040  51.133 -21.207  1.00  0.00    -0.014 C 
HETATM    3  C3  UNL     1      -0.429  51.936 -22.394  1.00  0.00     0.022 C 
HETATM    4  C4  UNL     1       0.906  52.590 -22.069  1.00  0.00     0.084 C 
HETATM    5  C5  UNL     1       0.779  53.465 -20.851  1.00  0.00     0.149 C 
HETATM    6  O1  UNL     1       1.469  54.470 -20.689  1.00  0.00    -0.293 OA
HETATM    7  C6  UNL     1      -0.142  53.032 -19.775  1.00  0.00     0.053 C 
HETATM    8  C7  UNL     1      -0.931  51.951 -19.912  1.00  0.00    -0.068 C 
HETATM    9  C8  UNL     1      -1.732  51.453 -18.734  1.00  0.00     0.035 C 
HETATM   10  C9  UNL     1      -3.195  51.246 -19.089  1.00  0.00     0.010 C 
HETATM   11  C10 UNL     1      -3.369  50.321 -20.305  1.00  0.00    -0.002 C 
HETATM   12  C11 UNL     1      -2.568  50.873 -21.526  1.00  0.00     0.031 C 
HETATM   13  C12 UNL     1      -2.861  50.079 -22.835  1.00  0.00     0.124 C 
HETATM   14  C13 UNL     1      -4.364  49.848 -23.103  1.00  0.00     0.045 C 
HETATM   15  C14 UNL     1      -5.141  49.287 -21.892  1.00  0.00     0.001 C 
HETATM   16  C15 UNL     1      -4.754  47.810 -21.613  1.00  0.00     0.019 C 
HETATM   17  C16 UNL     1      -4.855  50.227 -20.694  1.00  0.00     0.002 C 
HETATM   18  C17 UNL     1      -5.858  49.774 -19.642  1.00  0.00     0.009 C 
HETATM   19  C18 UNL     1      -7.115  49.407 -20.455  1.00  0.00     0.047 C 
HETATM   20  C19 UNL     1      -6.701  49.413 -21.960  1.00  0.00     0.128 C 
ENDROOT
BRANCH  20  21
HETATM   21  O3  UNL     1      -7.063  50.699 -22.473  1.00  0.00    -0.381 OA
HETATM   22  H27 UNL     1      -8.043  50.741 -22.469  1.00  0.00     0.211 HD
ENDBRANCH  20  21
BRANCH  20  23
HETATM   23  C20 UNL     1      -7.405  48.287 -22.763  1.00  0.00     0.185 C 
HETATM   24  O4  UNL     1      -7.613  47.175 -22.266  1.00  0.00    -0.292 OA
BRANCH  23  25
HETATM   25  C21 UNL     1      -7.760  48.535 -24.235  1.00  0.00     0.260 C 
BRANCH  25  26
HETATM   26  O5  UNL     1      -9.069  48.268 -24.714  1.00  0.00    -0.314 OA
BRANCH  26  27
HETATM   27  C22 UNL     1      -9.406  48.932 -25.849  1.00  0.00     0.259 C 
HETATM   28  O6  UNL     1      -9.906  50.051 -25.873  1.00  0.00    -0.265 OA
BRANCH  27  29
HETATM   29  C23 UNL     1      -8.980  48.187 -27.094  1.00  0.00     0.120 C 
BRANCH  29  30
HETATM   30  C24 UNL     1     -10.125  47.644 -27.940  1.00  0.00     0.112 C 
BRANCH  30  31
HETATM   31  C25 UNL     1      -9.963  47.974 -29.411  1.00  0.00     0.218 C 
HETATM   32  O7  UNL     1     -10.674  47.498 -30.288  1.00  0.00    -0.274 OA
HETATM   33  N1  UNL     1      -8.923  48.842 -29.657  1.00  0.00    -0.357 N 
HETATM   34  H34 UNL     1      -8.501  49.332 -28.880  1.00  0.00     0.162 HD
BRANCH  33  35
HETATM   35  C26 UNL     1      -8.663  49.351 -30.986  1.00  0.00     0.161 C 
BRANCH  35  36
HETATM   36  C27 UNL     1      -7.848  48.375 -31.789  1.00  0.00    -0.038 A 
HETATM   37  C28 UNL     1      -6.625  47.892 -31.315  1.00  0.00     0.025 A 
HETATM   38  C29 UNL     1      -5.906  47.011 -32.110  1.00  0.00     0.088 A 
HETATM   39  N2  UNL     1      -6.313  46.591 -33.327  1.00  0.00    -0.375 N 
HETATM   40  C30 UNL     1      -7.494  47.074 -33.771  1.00  0.00     0.088 A 
ATOM     41  H2  UNL     1      -5.757  45.942 -33.884  1.00  0.00     0.164 HD
HETATM   42  C31 UNL     1      -8.284  47.956 -33.051  1.00  0.00     0.025 A 
ENDBRANCH  35  36
ENDBRANCH  33  35
ENDBRANCH  30  31
ENDBRANCH  29  30
ENDBRANCH  27  29
ENDBRANCH  26  27
ENDBRANCH  25  26
ENDBRANCH  23  25
ENDBRANCH  20  23
BRANCH  13  43
HETATM   43  O2  UNL     1      -2.184  48.832 -22.907  1.00  0.00    -0.395 OA
HETATM   44  H16 UNL     1      -2.164  48.427 -22.026  1.00  0.00     0.210 HD
ENDBRANCH  13  43
TORSDOF 11
ENDMDL
MODEL 8
REMARK minimizedAffinity -7.4289403
REMARK CNNscore 0.411454678
REMARK CNNaffinity 6.48999023
REMARK  11 active torsions:
REMARK  status: ('A' for Active; 'I' for Inactive)
REMARK    1  A    between atoms: C12_13  and  O2_14 
REMARK    2  A    between atoms: C19_21  and  O3_22 
REMARK    3  A    between atoms: C19_21  and  C20_23 
REMARK    4  A    between atoms: C20_23  and  C21_25 
REMARK    5  A    between atoms: C21_25  and  O5_26 
REMARK    6  A    between atoms: O5_26  and  C22_27 
REMARK    7  A    between atoms: C22_27  and  C23_29 
REMARK    8  A    between atoms: C23_29  and  C24_30 
REMARK    9  A    between atoms: C24_30  and  C25_31 
REMARK       I    between atoms: C25_31  and  N1_33 
REMARK   10  A    between atoms: N1_33  and  C26_34 
REMARK   11  A    between atoms: C26_34  and  C27_35 
ROOT
HETATM    1  C1  UNL     1      -6.225  45.685 -21.755  1.00  0.00     0.020 C 
HETATM    2  C2  UNL     1      -6.786  47.115 -21.901  1.00  0.00    -0.014 C 
HETATM    3  C3  UNL     1      -7.718  47.420 -20.691  1.00  0.00     0.022 C 
HETATM    4  C4  UNL     1      -9.042  46.670 -20.730  1.00  0.00     0.084 C 
HETATM    5  C5  UNL     1      -9.758  46.936 -22.027  1.00  0.00     0.149 C 
HETATM    6  O1  UNL     1     -10.984  46.930 -22.114  1.00  0.00    -0.293 OA
HETATM    7  C6  UNL     1      -8.941  47.113 -23.251  1.00  0.00     0.053 C 
HETATM    8  C7  UNL     1      -7.598  47.145 -23.205  1.00  0.00    -0.068 C 
HETATM    9  C8  UNL     1      -6.804  47.163 -24.489  1.00  0.00     0.035 C 
HETATM   10  C9  UNL     1      -5.769  48.277 -24.501  1.00  0.00     0.010 C 
HETATM   11  C10 UNL     1      -4.839  48.214 -23.278  1.00  0.00    -0.002 C 
HETATM   12  C11 UNL     1      -5.674  48.239 -21.959  1.00  0.00     0.031 C 
HETATM   13  C12 UNL     1      -4.776  48.369 -20.692  1.00  0.00     0.124 C 
HETATM   14  C13 UNL     1      -3.705  49.476 -20.796  1.00  0.00     0.045 C 
HETATM   15  C14 UNL     1      -2.875  49.431 -22.098  1.00  0.00     0.001 C 
HETATM   16  C15 UNL     1      -1.913  48.213 -22.107  1.00  0.00     0.019 C 
HETATM   17  C16 UNL     1      -3.881  49.419 -23.276  1.00  0.00     0.002 C 
HETATM   18  C17 UNL     1      -3.000  49.654 -24.495  1.00  0.00     0.009 C 
HETATM   19  C18 UNL     1      -1.926  50.641 -23.998  1.00  0.00     0.047 C 
HETATM   20  C19 UNL     1      -2.074  50.731 -22.446  1.00  0.00     0.128 C 
ENDROOT
BRANCH  20  21
HETATM   21  O3  UNL     1      -2.881  51.884 -22.185  1.00  0.00    -0.381 OA
HETATM   22  H27 UNL     1      -2.350  52.667 -22.446  1.00  0.00     0.211 HD
ENDBRANCH  20  21
BRANCH  20  23
HETATM   23  C20 UNL     1      -0.701  50.853 -21.735  1.00  0.00     0.185 C 
HETATM   24  O4  UNL     1      -0.383  50.094 -20.813  1.00  0.00    -0.292 OA
BRANCH  23  25
HETATM   25  C21 UNL     1       0.237  52.003 -22.123  1.00  0.00     0.260 C 
BRANCH  25  26
HETATM   26  O5  UNL     1       1.369  52.310 -21.324  1.00  0.00    -0.314 OA
BRANCH  26  27
HETATM   27  C22 UNL     1       1.179  53.315 -20.430  1.00  0.00     0.259 C 
HETATM   28  O6  UNL     1       0.739  54.422 -20.719  1.00  0.00    -0.265 OA
BRANCH  27  29
HETATM   29  C23 UNL     1       1.453  52.875 -19.011  1.00  0.00     0.120 C 
BRANCH  29  30
HETATM   30  C24 UNL     1       0.260  52.266 -18.286  1.00  0.00     0.112 C 
BRANCH  30  31
HETATM   31  C25 UNL     1       0.675  51.424 -17.095  1.00  0.00     0.218 C 
HETATM   32  O7  UNL     1       0.203  50.319 -16.857  1.00  0.00    -0.274 OA
HETATM   33  N1  UNL     1       1.616  52.042 -16.301  1.00  0.00    -0.357 N 
HETATM   34  H34 UNL     1       2.089  52.862 -16.652  1.00  0.00     0.162 HD
BRANCH  33  35
HETATM   35  C26 UNL     1       2.207  51.365 -15.167  1.00  0.00     0.161 C 
BRANCH  35  36
HETATM   36  C27 UNL     1       1.585  51.825 -13.877  1.00  0.00    -0.038 A 
HETATM   37  C28 UNL     1       2.312  51.827 -12.684  1.00  0.00     0.025 A 
HETATM   38  C29 UNL     1       1.679  52.240 -11.521  1.00  0.00     0.088 A 
HETATM   39  N2  UNL     1       0.390  52.638 -11.467  1.00  0.00    -0.375 N 
HETATM   40  C30 UNL     1      -0.299  52.623 -12.629  1.00  0.00     0.088 A 
ATOM     41  H2  UNL     1      -0.042  52.935 -10.592  1.00  0.00     0.164 HD
HETATM   42  C31 UNL     1       0.246  52.229 -13.840  1.00  0.00     0.025 A 
ENDBRANCH  35  36
ENDBRANCH  33  35
ENDBRANCH  30  31
ENDBRANCH  29  30
ENDBRANCH  27  29
ENDBRANCH  26  27
ENDBRANCH  25  26
ENDBRANCH  23  25
ENDBRANCH  20  23
BRANCH  13  43
HETATM   43  O2  UNL     1      -4.146  47.153 -20.315  1.00  0.00    -0.395 OA
HETATM   44  H16 UNL     1      -3.882  46.667 -21.112  1.00  0.00     0.210 HD
ENDBRANCH  13  43
TORSDOF 11
ENDMDL
MODEL 9
REMARK minimizedAffinity -9.06095791
REMARK CNNscore 0.38703531
REMARK CNNaffinity 6.36181593
REMARK  11 active torsions:
REMARK  status: ('A' for Active; 'I' for Inactive)
REMARK    1  A    between atoms: C12_13  and  O2_14 
REMARK    2  A    between atoms: C19_21  and  O3_22 
REMARK    3  A    between atoms: C19_21  and  C20_23 
REMARK    4  A    between atoms: C20_23  and  C21_25 
REMARK    5  A    between atoms: C21_25  and  O5_26 
REMARK    6  A    between atoms: O5_26  and  C22_27 
REMARK    7  A    between atoms: C22_27  and  C23_29 
REMARK    8  A    between atoms: C23_29  and  C24_30 
REMARK    9  A    between atoms: C24_30  and  C25_31 
REMARK       I    between atoms: C25_31  and  N1_33 
REMARK   10  A    between atoms: N1_33  and  C26_34 
REMARK   11  A    between atoms: C26_34  and  C27_35 
ROOT
HETATM    1  C1  UNL     1      -0.244  49.798 -20.958  1.00  0.00     0.020 C 
HETATM    2  C2  UNL     1      -1.002  51.126 -21.172  1.00  0.00    -0.014 C 
HETATM    3  C3  UNL     1      -0.314  51.924 -22.319  1.00  0.00     0.022 C 
HETATM    4  C4  UNL     1       1.036  52.512 -21.934  1.00  0.00     0.084 C 
HETATM    5  C5  UNL     1       0.903  53.368 -20.702  1.00  0.00     0.149 C 
HETATM    6  O1  UNL     1       1.630  54.337 -20.495  1.00  0.00    -0.293 OA
HETATM    7  C6  UNL     1      -0.075  52.955 -19.669  1.00  0.00     0.053 C 
HETATM    8  C7  UNL     1      -0.904  51.913 -19.857  1.00  0.00    -0.068 C 
HETATM    9  C8  UNL     1      -1.768  51.428 -18.718  1.00  0.00     0.035 C 
HETATM   10  C9  UNL     1      -3.225  51.293 -19.129  1.00  0.00     0.010 C 
HETATM   11  C10 UNL     1      -3.395  50.400 -20.370  1.00  0.00    -0.002 C 
HETATM   12  C11 UNL     1      -2.528  50.940 -21.549  1.00  0.00     0.031 C 
HETATM   13  C12 UNL     1      -2.807  50.186 -22.884  1.00  0.00     0.124 C 
HETATM   14  C13 UNL     1      -4.308  50.028 -23.209  1.00  0.00     0.045 C 
HETATM   15  C14 UNL     1      -5.153  49.478 -22.039  1.00  0.00     0.001 C 
HETATM   16  C15 UNL     1      -4.840  47.979 -21.779  1.00  0.00     0.019 C 
HETATM   17  C16 UNL     1      -4.869  50.380 -20.812  1.00  0.00     0.002 C 
HETATM   18  C17 UNL     1      -5.928  49.951 -19.806  1.00  0.00     0.009 C 
HETATM   19  C18 UNL     1      -7.170  49.657 -20.670  1.00  0.00     0.047 C 
HETATM   20  C19 UNL     1      -6.702  49.674 -22.159  1.00  0.00     0.128 C 
ENDROOT
BRANCH  20  21
HETATM   21  O3  UNL     1      -6.989  50.984 -22.657  1.00  0.00    -0.381 OA
HETATM   22  H27 UNL     1      -7.966  51.069 -22.686  1.00  0.00     0.211 HD
ENDBRANCH  20  21
BRANCH  20  23
HETATM   23  C20 UNL     1      -7.425  48.596 -23.010  1.00  0.00     0.185 C 
HETATM   24  O4  UNL     1      -7.900  47.579 -22.493  1.00  0.00    -0.292 OA
BRANCH  23  25
HETATM   25  C21 UNL     1      -7.463  48.756 -24.535  1.00  0.00     0.260 C 
BRANCH  25  26
HETATM   26  O5  UNL     1      -6.542  48.055 -25.356  1.00  0.00    -0.314 OA
BRANCH  26  27
HETATM   27  C22 UNL     1      -7.103  47.155 -26.203  1.00  0.00     0.259 C 
HETATM   28  O6  UNL     1      -7.649  46.116 -25.846  1.00  0.00    -0.265 OA
BRANCH  27  29
HETATM   29  C23 UNL     1      -7.094  47.637 -27.635  1.00  0.00     0.120 C 
BRANCH  29  30
HETATM   30  C24 UNL     1      -5.715  47.717 -28.277  1.00  0.00     0.112 C 
BRANCH  30  31
HETATM   31  C25 UNL     1      -5.779  47.673 -29.791  1.00  0.00     0.218 C 
HETATM   32  O7  UNL     1      -4.789  47.541 -30.501  1.00  0.00    -0.274 OA
HETATM   33  N1  UNL     1      -7.057  47.820 -30.281  1.00  0.00    -0.357 N 
HETATM   34  H34 UNL     1      -7.836  47.741 -29.644  1.00  0.00     0.162 HD
BRANCH  33  35
HETATM   35  C26 UNL     1      -7.340  47.715 -31.696  1.00  0.00     0.161 C 
BRANCH  35  36
HETATM   36  C27 UNL     1      -8.756  47.267 -31.933  1.00  0.00    -0.038 A 
HETATM   37  C28 UNL     1      -9.711  47.319 -30.913  1.00  0.00     0.025 A 
HETATM   38  C29 UNL     1     -10.996  46.871 -31.182  1.00  0.00     0.088 A 
HETATM   39  N2  UNL     1     -11.385  46.376 -32.377  1.00  0.00    -0.375 N 
HETATM   40  C30 UNL     1     -10.447  46.327 -33.347  1.00  0.00     0.088 A 
ATOM     41  H2  UNL     1     -12.339  46.055 -32.538  1.00  0.00     0.164 HD
HETATM   42  C31 UNL     1      -9.139  46.751 -33.176  1.00  0.00     0.025 A 
ENDBRANCH  35  36
ENDBRANCH  33  35
ENDBRANCH  30  31
ENDBRANCH  29  30
ENDBRANCH  27  29
ENDBRANCH  26  27
ENDBRANCH  25  26
ENDBRANCH  23  25
ENDBRANCH  20  23
BRANCH  13  43
HETATM   43  O2  UNL     1      -2.183  48.912 -22.959  1.00  0.00    -0.395 OA
HETATM   44  H16 UNL     1      -2.213  48.489 -22.087  1.00  0.00     0.210 HD
ENDBRANCH  13  43
TORSDOF 11
ENDMDL
