MODEL 1
REMARK minimizedAffinity -7.90854836
REMARK CNNscore 0.728417337
REMARK CNNaffinity 6.2002883
REMARK  11 active torsions:
REMARK  status: ('A' for Active; 'I' for Inactive)
REMARK    1  A    between atoms: C12_13  and  O2_14 
REMARK    2  A    between atoms: C19_21  and  O3_22 
REMARK    3  A    between atoms: C19_21  and  C20_23 
REMARK    4  A    between atoms: C20_23  and  C21_25 
REMARK    5  A    between atoms: C21_25  and  O5_26 
REMARK    6  A    between atoms: O5_26  and  C22_27 
REMARK    7  A    between atoms: C22_27  and  C23_29 
REMARK    8  A    between atoms: C23_29  and  C24_30 
REMARK    9  A    between atoms: C24_30  and  C25_31 
REMARK       I    between atoms: C25_31  and  N1_33 
REMARK   10  A    between atoms: N1_33  and  C26_34 
REMARK   11  A    between atoms: C26_34  and  C27_35 
ROOT
HETATM    1  C1  UNL     1     -10.571  14.169  22.849  1.00  0.00     0.025 C 
HETATM    2  C2  UNL     1      -9.551  13.030  22.624  1.00  0.00     0.004 A 
HETATM    3  C3  UNL     1      -8.373  13.323  23.546  1.00  0.00    -0.009 A 
HETATM    4  C4  UNL     1      -7.123  13.587  23.144  1.00  0.00     0.052 A 
HETATM    5  C5  UNL     1      -6.777  13.611  21.711  1.00  0.00     0.172 A 
HETATM    6  O1  UNL     1      -5.635  13.847  21.335  1.00  0.00    -0.289 OA
HETATM    7  C6  UNL     1      -7.860  13.328  20.748  1.00  0.00     0.058 A 
HETATM    8  C7  UNL     1      -9.115  13.061  21.151  1.00  0.00    -0.064 A 
HETATM    9  C8  UNL     1     -10.180  12.712  20.144  1.00  0.00     0.036 C 
HETATM   10  C9  UNL     1     -10.737  11.322  20.432  1.00  0.00     0.010 C 
HETATM   11  C10 UNL     1     -11.234  11.178  21.882  1.00  0.00    -0.002 C 
HETATM   12  C11 UNL     1     -10.121  11.586  22.907  1.00  0.00     0.035 C 
HETATM   13  C12 UNL     1     -10.553  11.303  24.376  1.00  0.00     0.124 C 
HETATM   14  C13 UNL     1     -11.127   9.884  24.590  1.00  0.00     0.045 C 
HETATM   15  C14 UNL     1     -12.238   9.510  23.584  1.00  0.00     0.001 C 
HETATM   16  C15 UNL     1     -13.521  10.342  23.846  1.00  0.00     0.019 C 
HETATM   17  C16 UNL     1     -11.653   9.728  22.167  1.00  0.00     0.002 C 
HETATM   18  C17 UNL     1     -12.681   9.076  21.251  1.00  0.00     0.009 C 
HETATM   19  C18 UNL     1     -13.187   7.861  22.052  1.00  0.00     0.047 C 
HETATM   20  C19 UNL     1     -12.601   7.993  23.491  1.00  0.00     0.128 C 
ENDROOT
BRANCH  20  21
HETATM   21  O3  UNL     1     -11.406   7.204  23.518  1.00  0.00    -0.381 OA
HETATM   22  H25 UNL     1     -11.685   6.272  23.403  1.00  0.00     0.211 HD
ENDBRANCH  20  21
BRANCH  20  23
HETATM   23  C20 UNL     1     -13.598   7.487  24.568  1.00  0.00     0.185 C 
HETATM   24  O4  UNL     1     -13.640   7.985  25.698  1.00  0.00    -0.292 OA
BRANCH  23  25
HETATM   25  C21 UNL     1     -14.506   6.292  24.242  1.00  0.00     0.260 C 
BRANCH  25  26
HETATM   26  O5  UNL     1     -14.060   4.952  24.390  1.00  0.00    -0.314 OA
BRANCH  26  27
HETATM   27  C22 UNL     1     -14.003   4.233  23.235  1.00  0.00     0.259 C 
HETATM   28  O6  UNL     1     -14.113   4.711  22.116  1.00  0.00    -0.265 OA
BRANCH  27  29
HETATM   29  C23 UNL     1     -13.755   2.776  23.547  1.00  0.00     0.120 C 
BRANCH  29  30
HETATM   30  C24 UNL     1     -12.272   2.513  23.789  1.00  0.00     0.112 C 
BRANCH  30  31
HETATM   31  C25 UNL     1     -12.056   1.662  25.026  1.00  0.00     0.218 C 
HETATM   32  O7  UNL     1     -11.535   0.552  24.985  1.00  0.00    -0.274 OA
HETATM   33  N1  UNL     1     -12.528   2.247  26.180  1.00  0.00    -0.357 N 
HETATM   34  H32 UNL     1     -12.812   3.218  26.144  1.00  0.00     0.162 HD
BRANCH  33  35
HETATM   35  C26 UNL     1     -12.166   1.732  27.483  1.00  0.00     0.161 C 
BRANCH  35  36
HETATM   36  C27 UNL     1     -12.643   2.673  28.558  1.00  0.00    -0.038 A 
HETATM   37  C28 UNL     1     -13.400   3.806  28.244  1.00  0.00     0.025 A 
HETATM   38  C29 UNL     1     -13.768   4.662  29.272  1.00  0.00     0.088 A 
HETATM   39  N2  UNL     1     -13.432   4.476  30.565  1.00  0.00    -0.375 N 
HETATM   40  C30 UNL     1     -12.702   3.375  30.849  1.00  0.00     0.088 A 
ATOM     41  H2  UNL     1     -13.716   5.133  31.292  1.00  0.00     0.164 HD
HETATM   42  C31 UNL     1     -12.294   2.457  29.896  1.00  0.00     0.025 A 
ENDBRANCH  35  36
ENDBRANCH  33  35
ENDBRANCH  30  31
ENDBRANCH  29  30
ENDBRANCH  27  29
ENDBRANCH  26  27
ENDBRANCH  25  26
ENDBRANCH  23  25
ENDBRANCH  20  23
BRANCH  13  43
HETATM   43  O2  UNL     1     -11.501  12.262  24.825  1.00  0.00    -0.395 OA
HETATM   44  H14 UNL     1     -11.664  12.103  25.772  1.00  0.00     0.210 HD
ENDBRANCH  13  43
TORSDOF 11
ENDMDL
MODEL 2
REMARK minimizedAffinity -9.64663982
REMARK CNNscore 0.540620446
REMARK CNNaffinity 6.70540476
REMARK  11 active torsions:
REMARK  status: ('A' for Active; 'I' for Inactive)
REMARK    1  A    between atoms: C12_13  and  O2_14 
REMARK    2  A    between atoms: C19_21  and  O3_22 
REMARK    3  A    between atoms: C19_21  and  C20_23 
REMARK    4  A    between atoms: C20_23  and  C21_25 
REMARK    5  A    between atoms: C21_25  and  O5_26 
REMARK    6  A    between atoms: O5_26  and  C22_27 
REMARK    7  A    between atoms: C22_27  and  C23_29 
REMARK    8  A    between atoms: C23_29  and  C24_30 
REMARK    9  A    between atoms: C24_30  and  C25_31 
REMARK       I    between atoms: C25_31  and  N1_33 
REMARK   10  A    between atoms: N1_33  and  C26_34 
REMARK   11  A    between atoms: C26_34  and  C27_35 
ROOT
HETATM    1  C1  UNL     1       4.156   7.369   9.890  1.00  0.00     0.025 C 
HETATM    2  C2  UNL     1       3.023   6.382   9.531  1.00  0.00     0.004 A 
HETATM    3  C3  UNL     1       3.642   4.988   9.570  1.00  0.00    -0.009 A 
HETATM    4  C4  UNL     1       3.754   4.162   8.522  1.00  0.00     0.052 A 
HETATM    5  C5  UNL     1       3.259   4.556   7.190  1.00  0.00     0.172 A 
HETATM    6  O1  UNL     1       3.354   3.805   6.227  1.00  0.00    -0.289 OA
HETATM    7  C6  UNL     1       2.636   5.889   7.066  1.00  0.00     0.058 A 
HETATM    8  C7  UNL     1       2.521   6.719   8.119  1.00  0.00    -0.064 A 
HETATM    9  C8  UNL     1       1.820   8.044   7.970  1.00  0.00     0.036 C 
HETATM   10  C9  UNL     1       0.624   8.112   8.914  1.00  0.00     0.010 C 
HETATM   11  C10 UNL     1       1.012   7.816  10.375  1.00  0.00    -0.002 C 
HETATM   12  C11 UNL     1       1.775   6.452  10.494  1.00  0.00     0.035 C 
HETATM   13  C12 UNL     1       2.040   6.064  11.979  1.00  0.00     0.124 C 
HETATM   14  C13 UNL     1       0.790   6.176  12.880  1.00  0.00     0.045 C 
HETATM   15  C14 UNL     1       0.066   7.535  12.764  1.00  0.00     0.001 C 
HETATM   16  C15 UNL     1       0.924   8.671  13.382  1.00  0.00     0.019 C 
HETATM   17  C16 UNL     1      -0.240   7.755  11.263  1.00  0.00     0.002 C 
HETATM   18  C17 UNL     1      -1.190   8.945  11.261  1.00  0.00     0.009 C 
HETATM   19  C18 UNL     1      -2.036   8.759  12.534  1.00  0.00     0.047 C 
HETATM   20  C19 UNL     1      -1.386   7.595  13.343  1.00  0.00     0.128 C 
ENDROOT
BRANCH  20  21
HETATM   21  O3  UNL     1      -2.099   6.405  12.988  1.00  0.00    -0.381 OA
HETATM   22  H25 UNL     1      -3.012   6.516  13.325  1.00  0.00     0.211 HD
ENDBRANCH  20  21
BRANCH  20  23
HETATM   23  C20 UNL     1      -1.475   7.834  14.873  1.00  0.00     0.185 C 
HETATM   24  O4  UNL     1      -0.593   7.442  15.644  1.00  0.00    -0.292 OA
BRANCH  23  25
HETATM   25  C21 UNL     1      -2.726   8.514  15.450  1.00  0.00     0.260 C 
BRANCH  25  26
HETATM   26  O5  UNL     1      -4.027   8.225  14.959  1.00  0.00    -0.314 OA
BRANCH  26  27
HETATM   27  C22 UNL     1      -4.506   6.993  15.284  1.00  0.00     0.259 C 
HETATM   28  O6  UNL     1      -3.812   6.053  15.641  1.00  0.00    -0.265 OA
BRANCH  27  29
HETATM   29  C23 UNL     1      -6.012   6.978  15.166  1.00  0.00     0.120 C 
BRANCH  29  30
HETATM   30  C24 UNL     1      -6.456   6.204  13.929  1.00  0.00     0.112 C 
BRANCH  30  31
HETATM   31  C25 UNL     1      -7.966   6.213  13.784  1.00  0.00     0.218 C 
HETATM   32  O7  UNL     1      -8.555   5.542  12.943  1.00  0.00    -0.274 OA
HETATM   33  N1  UNL     1      -8.594   7.065  14.665  1.00  0.00    -0.357 N 
HETATM   34  H32 UNL     1      -8.046   7.468  15.415  1.00  0.00     0.162 HD
BRANCH  33  35
HETATM   35  C26 UNL     1     -10.024   7.003  14.877  1.00  0.00     0.161 C 
BRANCH  35  36
HETATM   36  C27 UNL     1     -10.692   8.186  14.225  1.00  0.00    -0.038 A 
HETATM   37  C28 UNL     1     -10.571   9.471  14.763  1.00  0.00     0.025 A 
HETATM   38  C29 UNL     1     -11.249  10.513  14.146  1.00  0.00     0.088 A 
HETATM   39  N2  UNL     1     -12.032  10.363  13.058  1.00  0.00    -0.375 N 
HETATM   40  C30 UNL     1     -12.135   9.114  12.553  1.00  0.00     0.088 A 
ATOM     41  H2  UNL     1     -12.521  11.154  12.638  1.00  0.00     0.164 HD
HETATM   42  C31 UNL     1     -11.491   8.012  13.090  1.00  0.00     0.025 A 
ENDBRANCH  35  36
ENDBRANCH  33  35
ENDBRANCH  30  31
ENDBRANCH  29  30
ENDBRANCH  27  29
ENDBRANCH  26  27
ENDBRANCH  25  26
ENDBRANCH  23  25
ENDBRANCH  20  23
BRANCH  13  43
HETATM   43  O2  UNL     1       3.087   6.848  12.534  1.00  0.00    -0.395 OA
HETATM   44  H14 UNL     1       3.281   6.503  13.424  1.00  0.00     0.210 HD
ENDBRANCH  13  43
TORSDOF 11
ENDMDL
MODEL 3
REMARK minimizedAffinity -7.77068996
REMARK CNNscore 0.529216886
REMARK CNNaffinity 6.19489527
REMARK  11 active torsions:
REMARK  status: ('A' for Active; 'I' for Inactive)
REMARK    1  A    between atoms: C12_13  and  O2_14 
REMARK    2  A    between atoms: C19_21  and  O3_22 
REMARK    3  A    between atoms: C19_21  and  C20_23 
REMARK    4  A    between atoms: C20_23  and  C21_25 
REMARK    5  A    between atoms: C21_25  and  O5_26 
REMARK    6  A    between atoms: O5_26  and  C22_27 
REMARK    7  A    between atoms: C22_27  and  C23_29 
REMARK    8  A    between atoms: C23_29  and  C24_30 
REMARK    9  A    between atoms: C24_30  and  C25_31 
REMARK       I    between atoms: C25_31  and  N1_33 
REMARK   10  A    between atoms: N1_33  and  C26_34 
REMARK   11  A    between atoms: C26_34  and  C27_35 
ROOT
HETATM    1  C1  UNL     1      -2.139   8.332  12.276  1.00  0.00     0.025 C 
HETATM    2  C2  UNL     1      -2.606   7.468  13.468  1.00  0.00     0.004 A 
HETATM    3  C3  UNL     1      -1.766   6.195  13.429  1.00  0.00    -0.009 A 
HETATM    4  C4  UNL     1      -2.244   4.959  13.239  1.00  0.00     0.052 A 
HETATM    5  C5  UNL     1      -3.688   4.725  13.047  1.00  0.00     0.172 A 
HETATM    6  O1  UNL     1      -4.133   3.597  12.877  1.00  0.00    -0.289 OA
HETATM    7  C6  UNL     1      -4.575   5.905  13.081  1.00  0.00     0.058 A 
HETATM    8  C7  UNL     1      -4.096   7.147  13.274  1.00  0.00    -0.064 A 
HETATM    9  C8  UNL     1      -5.038   8.319  13.368  1.00  0.00     0.036 C 
HETATM   10  C9  UNL     1      -4.886   9.005  14.721  1.00  0.00     0.010 C 
HETATM   11  C10 UNL     1      -3.427   9.401  15.018  1.00  0.00    -0.002 C 
HETATM   12  C11 UNL     1      -2.465   8.173  14.873  1.00  0.00     0.035 C 
HETATM   13  C12 UNL     1      -1.013   8.518  15.316  1.00  0.00     0.124 C 
HETATM   14  C13 UNL     1      -0.936   9.230  16.685  1.00  0.00     0.045 C 
HETATM   15  C14 UNL     1      -1.876  10.450  16.799  1.00  0.00     0.001 C 
HETATM   16  C15 UNL     1      -1.388  11.608  15.887  1.00  0.00     0.019 C 
HETATM   17  C16 UNL     1      -3.300   9.957  16.444  1.00  0.00     0.002 C 
HETATM   18  C17 UNL     1      -4.194  11.120  16.853  1.00  0.00     0.009 C 
HETATM   19  C18 UNL     1      -3.518  11.696  18.111  1.00  0.00     0.047 C 
HETATM   20  C19 UNL     1      -2.135  10.989  18.244  1.00  0.00     0.128 C 
ENDROOT
BRANCH  20  21
HETATM   21  O3  UNL     1      -2.323   9.892  19.145  1.00  0.00    -0.381 OA
HETATM   22  H25 UNL     1      -2.534  10.282  20.018  1.00  0.00     0.211 HD
ENDBRANCH  20  21
BRANCH  20  23
HETATM   23  C20 UNL     1      -1.046  11.950  18.793  1.00  0.00     0.185 C 
HETATM   24  O4  UNL     1      -1.247  13.164  18.900  1.00  0.00    -0.292 OA
BRANCH  23  25
HETATM   25  C21 UNL     1       0.338  11.386  19.145  1.00  0.00     0.260 C 
BRANCH  25  26
HETATM   26  O5  UNL     1       0.583  10.716  20.373  1.00  0.00    -0.314 OA
BRANCH  26  27
HETATM   27  C22 UNL     1       1.897  10.522  20.672  1.00  0.00     0.259 C 
HETATM   28  O6  UNL     1       2.581   9.612  20.226  1.00  0.00    -0.265 OA
BRANCH  27  29
HETATM   29  C23 UNL     1       2.380  11.609  21.603  1.00  0.00     0.120 C 
BRANCH  29  30
HETATM   30  C24 UNL     1       3.527  12.395  20.978  1.00  0.00     0.112 C 
BRANCH  30  31
HETATM   31  C25 UNL     1       4.873  11.825  21.381  1.00  0.00     0.218 C 
HETATM   32  O7  UNL     1       5.540  11.110  20.640  1.00  0.00    -0.274 OA
HETATM   33  N1  UNL     1       5.249  12.167  22.661  1.00  0.00    -0.357 N 
HETATM   34  H32 UNL     1       4.710  12.873  23.147  1.00  0.00     0.162 HD
BRANCH  33  35
HETATM   35  C26 UNL     1       6.606  11.965  23.123  1.00  0.00     0.161 C 
BRANCH  35  36
HETATM   36  C27 UNL     1       7.478  13.107  22.670  1.00  0.00    -0.038 A 
HETATM   37  C28 UNL     1       8.518  12.905  21.758  1.00  0.00     0.025 A 
HETATM   38  C29 UNL     1       9.318  13.986  21.416  1.00  0.00     0.088 A 
HETATM   39  N2  UNL     1       9.163  15.227  21.920  1.00  0.00    -0.375 N 
HETATM   40  C30 UNL     1       8.152  15.403  22.799  1.00  0.00     0.088 A 
ATOM     41  H2  UNL     1       9.778  15.995  21.649  1.00  0.00     0.164 HD
HETATM   42  C31 UNL     1       7.294  14.390  23.196  1.00  0.00     0.025 A 
ENDBRANCH  35  36
ENDBRANCH  33  35
ENDBRANCH  30  31
ENDBRANCH  29  30
ENDBRANCH  27  29
ENDBRANCH  26  27
ENDBRANCH  25  26
ENDBRANCH  23  25
ENDBRANCH  20  23
BRANCH  13  43
HETATM   43  O2  UNL     1      -0.355   9.314  14.339  1.00  0.00    -0.395 OA
HETATM   44  H14 UNL     1       0.573   9.420  14.613  1.00  0.00     0.210 HD
ENDBRANCH  13  43
TORSDOF 11
ENDMDL
MODEL 4
REMARK minimizedAffinity -10.3896446
REMARK CNNscore 0.469199657
REMARK CNNaffinity 7.09775496
REMARK  11 active torsions:
REMARK  status: ('A' for Active; 'I' for Inactive)
REMARK    1  A    between atoms: C12_13  and  O2_14 
REMARK    2  A    between atoms: C19_21  and  O3_22 
REMARK    3  A    between atoms: C19_21  and  C20_23 
REMARK    4  A    between atoms: C20_23  and  C21_25 
REMARK    5  A    between atoms: C21_25  and  O5_26 
REMARK    6  A    between atoms: O5_26  and  C22_27 
REMARK    7  A    between atoms: C22_27  and  C23_29 
REMARK    8  A    between atoms: C23_29  and  C24_30 
REMARK    9  A    between atoms: C24_30  and  C25_31 
REMARK       I    between atoms: C25_31  and  N1_33 
REMARK   10  A    between atoms: N1_33  and  C26_34 
REMARK   11  A    between atoms: C26_34  and  C27_35 
ROOT
HETATM    1  C1  UNL     1       4.095   7.381   9.890  1.00  0.00     0.025 C 
HETATM    2  C2  UNL     1       2.965   6.410   9.482  1.00  0.00     0.004 A 
HETATM    3  C3  UNL     1       3.578   5.013   9.490  1.00  0.00    -0.009 A 
HETATM    4  C4  UNL     1       3.705   4.219   8.419  1.00  0.00     0.052 A 
HETATM    5  C5  UNL     1       3.235   4.655   7.091  1.00  0.00     0.172 A 
HETATM    6  O1  UNL     1       3.343   3.933   6.108  1.00  0.00    -0.289 OA
HETATM    7  C6  UNL     1       2.618   5.994   6.998  1.00  0.00     0.058 A 
HETATM    8  C7  UNL     1       2.489   6.792   8.072  1.00  0.00    -0.064 A 
HETATM    9  C8  UNL     1       1.795   8.123   7.953  1.00  0.00     0.036 C 
HETATM   10  C9  UNL     1       0.584   8.167   8.877  1.00  0.00     0.010 C 
HETATM   11  C10 UNL     1       0.945   7.825  10.335  1.00  0.00    -0.002 C 
HETATM   12  C11 UNL     1       1.701   6.456  10.426  1.00  0.00     0.035 C 
HETATM   13  C12 UNL     1       1.940   6.022  11.902  1.00  0.00     0.124 C 
HETATM   14  C13 UNL     1       0.675   6.111  12.785  1.00  0.00     0.045 C 
HETATM   15  C14 UNL     1      -0.042   7.476  12.698  1.00  0.00     0.001 C 
HETATM   16  C15 UNL     1       0.809   8.590  13.365  1.00  0.00     0.019 C 
HETATM   17  C16 UNL     1      -0.322   7.743  11.199  1.00  0.00     0.002 C 
HETATM   18  C17 UNL     1      -1.267   8.937  11.218  1.00  0.00     0.009 C 
HETATM   19  C18 UNL     1      -2.136   8.715  12.470  1.00  0.00     0.047 C 
HETATM   20  C19 UNL     1      -1.503   7.524  13.253  1.00  0.00     0.128 C 
ENDROOT
BRANCH  20  21
HETATM   21  O3  UNL     1      -2.215   6.348  12.851  1.00  0.00    -0.381 OA
HETATM   22  H25 UNL     1      -3.133   6.453  13.176  1.00  0.00     0.211 HD
ENDBRANCH  20  21
BRANCH  20  23
HETATM   23  C20 UNL     1      -1.618   7.718  14.789  1.00  0.00     0.185 C 
HETATM   24  O4  UNL     1      -0.796   7.226  15.568  1.00  0.00    -0.292 OA
BRANCH  23  25
HETATM   25  C21 UNL     1      -2.824   8.481  15.357  1.00  0.00     0.260 C 
BRANCH  25  26
HETATM   26  O5  UNL     1      -4.086   8.476  14.705  1.00  0.00    -0.314 OA
BRANCH  26  27
HETATM   27  C22 UNL     1      -4.790   7.317  14.820  1.00  0.00     0.259 C 
HETATM   28  O6  UNL     1      -4.557   6.445  15.644  1.00  0.00    -0.265 OA
BRANCH  27  29
HETATM   29  C23 UNL     1      -5.909   7.290  13.806  1.00  0.00     0.120 C 
BRANCH  29  30
HETATM   30  C24 UNL     1      -7.264   7.143  14.489  1.00  0.00     0.112 C 
BRANCH  30  31
HETATM   31  C25 UNL     1      -8.024   5.942  13.960  1.00  0.00     0.218 C 
HETATM   32  O7  UNL     1      -9.118   6.037  13.414  1.00  0.00    -0.274 OA
HETATM   33  N1  UNL     1      -7.377   4.746  14.182  1.00  0.00    -0.357 N 
HETATM   34  H32 UNL     1      -6.419   4.773  14.508  1.00  0.00     0.162 HD
BRANCH  33  35
HETATM   35  C26 UNL     1      -7.793   3.534  13.510  1.00  0.00     0.161 C 
BRANCH  35  36
HETATM   36  C27 UNL     1      -6.692   3.044  12.605  1.00  0.00    -0.038 A 
HETATM   37  C28 UNL     1      -6.742   1.772  12.028  1.00  0.00     0.025 A 
HETATM   38  C29 UNL     1      -5.675   1.358  11.244  1.00  0.00     0.088 A 
HETATM   39  N2  UNL     1      -4.578   2.107  11.008  1.00  0.00    -0.375 N 
HETATM   40  C30 UNL     1      -4.549   3.334  11.573  1.00  0.00     0.088 A 
ATOM     41  H2  UNL     1      -3.810   1.764  10.431  1.00  0.00     0.164 HD
HETATM   42  C31 UNL     1      -5.567   3.840  12.364  1.00  0.00     0.025 A 
ENDBRANCH  35  36
ENDBRANCH  33  35
ENDBRANCH  30  31
ENDBRANCH  29  30
ENDBRANCH  27  29
ENDBRANCH  26  27
ENDBRANCH  25  26
ENDBRANCH  23  25
ENDBRANCH  20  23
BRANCH  13  43
HETATM   43  O2  UNL     1       2.980   6.784  12.498  1.00  0.00    -0.395 OA
HETATM   44  H14 UNL     1       3.157   6.412  13.380  1.00  0.00     0.210 HD
ENDBRANCH  13  43
TORSDOF 11
ENDMDL
MODEL 5
REMARK minimizedAffinity -9.72873402
REMARK CNNscore 0.438251525
REMARK CNNaffinity 6.93198776
REMARK  11 active torsions:
REMARK  status: ('A' for Active; 'I' for Inactive)
REMARK    1  A    between atoms: C12_13  and  O2_14 
REMARK    2  A    between atoms: C19_21  and  O3_22 
REMARK    3  A    between atoms: C19_21  and  C20_23 
REMARK    4  A    between atoms: C20_23  and  C21_25 
REMARK    5  A    between atoms: C21_25  and  O5_26 
REMARK    6  A    between atoms: O5_26  and  C22_27 
REMARK    7  A    between atoms: C22_27  and  C23_29 
REMARK    8  A    between atoms: C23_29  and  C24_30 
REMARK    9  A    between atoms: C24_30  and  C25_31 
REMARK       I    between atoms: C25_31  and  N1_33 
REMARK   10  A    between atoms: N1_33  and  C26_34 
REMARK   11  A    between atoms: C26_34  and  C27_35 
ROOT
HETATM    1  C1  UNL     1      -7.201   4.941  15.755  1.00  0.00     0.025 C 
HETATM    2  C2  UNL     1      -7.261   5.876  14.526  1.00  0.00     0.004 A 
HETATM    3  C3  UNL     1      -8.091   7.085  14.949  1.00  0.00    -0.009 A 
HETATM    4  C4  UNL     1      -9.265   7.443  14.413  1.00  0.00     0.052 A 
HETATM    5  C5  UNL     1      -9.869   6.660  13.319  1.00  0.00     0.172 A 
HETATM    6  O1  UNL     1     -10.940   6.983  12.821  1.00  0.00    -0.289 OA
HETATM    7  C6  UNL     1      -9.125   5.477  12.842  1.00  0.00     0.058 A 
HETATM    8  C7  UNL     1      -7.945   5.117  13.378  1.00  0.00    -0.064 A 
HETATM    9  C8  UNL     1      -7.183   3.943  12.822  1.00  0.00     0.036 C 
HETATM   10  C9  UNL     1      -5.814   4.396  12.326  1.00  0.00     0.010 C 
HETATM   11  C10 UNL     1      -5.018   5.151  13.407  1.00  0.00    -0.002 C 
HETATM   12  C11 UNL     1      -5.850   6.341  13.996  1.00  0.00     0.035 C 
HETATM   13  C12 UNL     1      -5.008   7.207  14.979  1.00  0.00     0.124 C 
HETATM   14  C13 UNL     1      -3.625   7.611  14.418  1.00  0.00     0.045 C 
HETATM   15  C14 UNL     1      -2.813   6.421  13.863  1.00  0.00     0.001 C 
HETATM   16  C15 UNL     1      -2.354   5.483  15.011  1.00  0.00     0.019 C 
HETATM   17  C16 UNL     1      -3.712   5.709  12.823  1.00  0.00     0.002 C 
HETATM   18  C17 UNL     1      -2.760   4.748  12.124  1.00  0.00     0.009 C 
HETATM   19  C18 UNL     1      -1.420   5.506  12.076  1.00  0.00     0.047 C 
HETATM   20  C19 UNL     1      -1.592   6.783  12.956  1.00  0.00     0.128 C 
ENDROOT
BRANCH  20  21
HETATM   21  O3  UNL     1      -1.947   7.846  12.065  1.00  0.00    -0.381 OA
HETATM   22  H25 UNL     1      -1.171   7.996  11.487  1.00  0.00     0.211 HD
ENDBRANCH  20  21
BRANCH  20  23
HETATM   23  C20 UNL     1      -0.288   7.138  13.718  1.00  0.00     0.185 C 
HETATM   24  O4  UNL     1       0.140   6.430  14.636  1.00  0.00    -0.292 OA
BRANCH  23  25
HETATM   25  C21 UNL     1       0.449   8.440  13.370  1.00  0.00     0.260 C 
BRANCH  25  26
HETATM   26  O5  UNL     1       0.857   8.736  12.042  1.00  0.00    -0.314 OA
BRANCH  26  27
HETATM   27  C22 UNL     1       1.583   7.760  11.431  1.00  0.00     0.259 C 
HETATM   28  O6  UNL     1       2.608   7.273  11.885  1.00  0.00    -0.265 OA
BRANCH  27  29
HETATM   29  C23 UNL     1       0.917   7.355  10.136  1.00  0.00     0.120 C 
BRANCH  29  30
HETATM   30  C24 UNL     1       0.989   8.480   9.109  1.00  0.00     0.112 C 
BRANCH  30  31
HETATM   31  C25 UNL     1       1.844   8.089   7.919  1.00  0.00     0.218 C 
HETATM   32  O7  UNL     1       2.728   8.812   7.472  1.00  0.00    -0.274 OA
HETATM   33  N1  UNL     1       1.507   6.865   7.384  1.00  0.00    -0.357 N 
HETATM   34  H32 UNL     1       0.866   6.277   7.900  1.00  0.00     0.162 HD
BRANCH  33  35
HETATM   35  C26 UNL     1       2.376   6.196   6.440  1.00  0.00     0.161 C 
BRANCH  35  36
HETATM   36  C27 UNL     1       3.126   5.087   7.131  1.00  0.00    -0.038 A 
HETATM   37  C28 UNL     1       3.272   5.069   8.521  1.00  0.00     0.025 A 
HETATM   38  C29 UNL     1       4.016   4.048   9.095  1.00  0.00     0.088 A 
HETATM   39  N2  UNL     1       4.621   3.068   8.392  1.00  0.00    -0.375 N 
HETATM   40  C30 UNL     1       4.467   3.102   7.050  1.00  0.00     0.088 A 
ATOM     41  H2  UNL     1       5.166   2.339   8.852  1.00  0.00     0.164 HD
HETATM   42  C31 UNL     1       3.738   4.073   6.385  1.00  0.00     0.025 A 
ENDBRANCH  35  36
ENDBRANCH  33  35
ENDBRANCH  30  31
ENDBRANCH  29  30
ENDBRANCH  27  29
ENDBRANCH  26  27
ENDBRANCH  25  26
ENDBRANCH  23  25
ENDBRANCH  20  23
BRANCH  13  43
HETATM   43  O2  UNL     1      -4.830   6.544  16.223  1.00  0.00    -0.395 OA
HETATM   44  H14 UNL     1      -4.386   7.160  16.832  1.00  0.00     0.210 HD
ENDBRANCH  13  43
TORSDOF 11
ENDMDL
MODEL 6
REMARK minimizedAffinity -9.4716959
REMARK CNNscore 0.433683813
REMARK CNNaffinity 6.92012167
REMARK  11 active torsions:
REMARK  status: ('A' for Active; 'I' for Inactive)
REMARK    1  A    between atoms: C12_13  and  O2_14 
REMARK    2  A    between atoms: C19_21  and  O3_22 
REMARK    3  A    between atoms: C19_21  and  C20_23 
REMARK    4  A    between atoms: C20_23  and  C21_25 
REMARK    5  A    between atoms: C21_25  and  O5_26 
REMARK    6  A    between atoms: O5_26  and  C22_27 
REMARK    7  A    between atoms: C22_27  and  C23_29 
REMARK    8  A    between atoms: C23_29  and  C24_30 
REMARK    9  A    between atoms: C24_30  and  C25_31 
REMARK       I    between atoms: C25_31  and  N1_33 
REMARK   10  A    between atoms: N1_33  and  C26_34 
REMARK   11  A    between atoms: C26_34  and  C27_35 
ROOT
HETATM    1  C1  UNL     1       4.060   7.683   9.897  1.00  0.00     0.025 C 
HETATM    2  C2  UNL     1       2.956   6.644   9.597  1.00  0.00     0.004 A 
HETATM    3  C3  UNL     1       3.652   5.288   9.528  1.00  0.00    -0.009 A 
HETATM    4  C4  UNL     1       3.718   4.508   8.442  1.00  0.00     0.052 A 
HETATM    5  C5  UNL     1       3.088   4.919   7.172  1.00  0.00     0.172 A 
HETATM    6  O1  UNL     1       3.140   4.208   6.176  1.00  0.00    -0.289 OA
HETATM    7  C6  UNL     1       2.384   6.216   7.156  1.00  0.00     0.058 A 
HETATM    8  C7  UNL     1       2.316   7.001   8.246  1.00  0.00    -0.064 A 
HETATM    9  C8  UNL     1       1.533   8.287   8.211  1.00  0.00     0.036 C 
HETATM   10  C9  UNL     1       0.422   8.252   9.255  1.00  0.00     0.010 C 
HETATM   11  C10 UNL     1       0.950   7.928  10.664  1.00  0.00    -0.002 C 
HETATM   12  C11 UNL     1       1.794   6.607  10.664  1.00  0.00     0.035 C 
HETATM   13  C12 UNL     1       2.209   6.184  12.104  1.00  0.00     0.124 C 
HETATM   14  C13 UNL     1       1.038   6.191  13.112  1.00  0.00     0.045 C 
HETATM   15  C14 UNL     1       0.233   7.509  13.112  1.00  0.00     0.001 C 
HETATM   16  C15 UNL     1       1.077   8.671  13.700  1.00  0.00     0.019 C 
HETATM   17  C16 UNL     1      -0.215   7.763  11.652  1.00  0.00     0.002 C 
HETATM   18  C17 UNL     1      -1.225   8.896  11.778  1.00  0.00     0.009 C 
HETATM   19  C18 UNL     1      -1.946   8.616  13.111  1.00  0.00     0.047 C 
HETATM   20  C19 UNL     1      -1.164   7.463  13.814  1.00  0.00     0.128 C 
ENDROOT
BRANCH  20  21
HETATM   21  O3  UNL     1      -1.839   6.247  13.473  1.00  0.00    -0.381 OA
HETATM   22  H25 UNL     1      -2.724   6.294  13.891  1.00  0.00     0.211 HD
ENDBRANCH  20  21
BRANCH  20  23
HETATM   23  C20 UNL     1      -1.133   7.644  15.355  1.00  0.00     0.185 C 
HETATM   24  O4  UNL     1      -0.190   7.232  16.037  1.00  0.00    -0.292 OA
BRANCH  23  25
HETATM   25  C21 UNL     1      -2.339   8.288  16.055  1.00  0.00     0.260 C 
BRANCH  25  26
HETATM   26  O5  UNL     1      -2.543   9.694  16.052  1.00  0.00    -0.314 OA
BRANCH  26  27
HETATM   27  C22 UNL     1      -3.606  10.123  16.786  1.00  0.00     0.259 C 
HETATM   28  O6  UNL     1      -3.574  10.341  17.988  1.00  0.00    -0.265 OA
BRANCH  27  29
HETATM   29  C23 UNL     1      -4.806  10.317  15.890  1.00  0.00     0.120 C 
BRANCH  29  30
HETATM   30  C24 UNL     1      -5.088   9.061  15.073  1.00  0.00     0.112 C 
BRANCH  30  31
HETATM   31  C25 UNL     1      -6.463   8.499  15.378  1.00  0.00     0.218 C 
HETATM   32  O7  UNL     1      -7.499   9.101  15.114  1.00  0.00    -0.274 OA
HETATM   33  N1  UNL     1      -6.425   7.272  16.002  1.00  0.00    -0.357 N 
HETATM   34  H32 UNL     1      -5.538   6.787  16.052  1.00  0.00     0.162 HD
BRANCH  33  35
HETATM   35  C26 UNL     1      -7.612   6.452  16.115  1.00  0.00     0.161 C 
BRANCH  35  36
HETATM   36  C27 UNL     1      -7.764   5.595  14.886  1.00  0.00    -0.038 A 
HETATM   37  C28 UNL     1      -8.425   6.070  13.750  1.00  0.00     0.025 A 
HETATM   38  C29 UNL     1      -8.577   5.216  12.667  1.00  0.00     0.088 A 
HETATM   39  N2  UNL     1      -8.131   3.943  12.642  1.00  0.00    -0.375 N 
HETATM   40  C30 UNL     1      -7.493   3.503  13.748  1.00  0.00     0.088 A 
ATOM     41  H2  UNL     1      -8.269   3.344  11.828  1.00  0.00     0.164 HD
HETATM   42  C31 UNL     1      -7.285   4.280  14.876  1.00  0.00     0.025 A 
ENDBRANCH  35  36
ENDBRANCH  33  35
ENDBRANCH  30  31
ENDBRANCH  29  30
ENDBRANCH  27  29
ENDBRANCH  26  27
ENDBRANCH  25  26
ENDBRANCH  23  25
ENDBRANCH  20  23
BRANCH  13  43
HETATM   43  O2  UNL     1       3.256   7.007  12.599  1.00  0.00    -0.395 OA
HETATM   44  H14 UNL     1       3.545   6.644  13.455  1.00  0.00     0.210 HD
ENDBRANCH  13  43
TORSDOF 11
ENDMDL
MODEL 7
REMARK minimizedAffinity -8.00043583
REMARK CNNscore 0.406145364
REMARK CNNaffinity 6.74065208
REMARK  11 active torsions:
REMARK  status: ('A' for Active; 'I' for Inactive)
REMARK    1  A    between atoms: C12_13  and  O2_14 
REMARK    2  A    between atoms: C19_21  and  O3_22 
REMARK    3  A    between atoms: C19_21  and  C20_23 
REMARK    4  A    between atoms: C20_23  and  C21_25 
REMARK    5  A    between atoms: C21_25  and  O5_26 
REMARK    6  A    between atoms: O5_26  and  C22_27 
REMARK    7  A    between atoms: C22_27  and  C23_29 
REMARK    8  A    between atoms: C23_29  and  C24_30 
REMARK    9  A    between atoms: C24_30  and  C25_31 
REMARK       I    between atoms: C25_31  and  N1_33 
REMARK   10  A    between atoms: N1_33  and  C26_34 
REMARK   11  A    between atoms: C26_34  and  C27_35 
ROOT
HETATM    1  C1  UNL     1       0.025   6.478  14.126  1.00  0.00     0.025 C 
HETATM    2  C2  UNL     1      -0.723   6.622  12.782  1.00  0.00     0.004 A 
HETATM    3  C3  UNL     1      -0.211   5.500  11.885  1.00  0.00    -0.009 A 
HETATM    4  C4  UNL     1       0.460   5.671  10.739  1.00  0.00     0.052 A 
HETATM    5  C5  UNL     1       0.764   7.022  10.232  1.00  0.00     0.172 A 
HETATM    6  O1  UNL     1       1.373   7.187   9.182  1.00  0.00    -0.289 OA
HETATM    7  C6  UNL     1       0.294   8.168  11.037  1.00  0.00     0.058 A 
HETATM    8  C7  UNL     1      -0.380   7.997  12.188  1.00  0.00    -0.064 A 
HETATM    9  C8  UNL     1      -0.901   9.189  12.948  1.00  0.00     0.036 C 
HETATM   10  C9  UNL     1      -2.418   9.105  13.077  1.00  0.00     0.010 C 
HETATM   11  C10 UNL     1      -2.883   7.771  13.690  1.00  0.00    -0.002 C 
HETATM   12  C11 UNL     1      -2.294   6.550  12.905  1.00  0.00     0.035 C 
HETATM   13  C12 UNL     1      -2.873   5.198  13.416  1.00  0.00     0.124 C 
HETATM   14  C13 UNL     1      -4.413   5.193  13.541  1.00  0.00     0.045 C 
HETATM   15  C14 UNL     1      -4.971   6.392  14.338  1.00  0.00     0.001 C 
HETATM   16  C15 UNL     1      -4.597   6.279  15.840  1.00  0.00     0.019 C 
HETATM   17  C16 UNL     1      -4.416   7.674  13.670  1.00  0.00     0.002 C 
HETATM   18  C17 UNL     1      -5.223   8.793  14.313  1.00  0.00     0.009 C 
HETATM   19  C18 UNL     1      -6.623   8.184  14.516  1.00  0.00     0.047 C 
HETATM   20  C19 UNL     1      -6.505   6.662  14.195  1.00  0.00     0.128 C 
ENDROOT
BRANCH  20  21
HETATM   21  O3  UNL     1      -6.900   6.503  12.828  1.00  0.00    -0.381 OA
HETATM   22  H25 UNL     1      -7.851   6.735  12.784  1.00  0.00     0.211 HD
ENDBRANCH  20  21
BRANCH  20  23
HETATM   23  C20 UNL     1      -7.413   5.806  15.117  1.00  0.00     0.185 C 
HETATM   24  O4  UNL     1      -7.247   4.588  15.241  1.00  0.00    -0.292 OA
BRANCH  23  25
HETATM   25  C21 UNL     1      -8.591   6.478  15.837  1.00  0.00     0.260 C 
BRANCH  25  26
HETATM   26  O5  UNL     1      -9.330   7.533  15.238  1.00  0.00    -0.314 OA
BRANCH  26  27
HETATM   27  C22 UNL     1     -10.177   7.150  14.244  1.00  0.00     0.259 C 
HETATM   28  O6  UNL     1      -9.914   6.312  13.394  1.00  0.00    -0.265 OA
BRANCH  27  29
HETATM   29  C23 UNL     1     -11.488   7.890  14.371  1.00  0.00     0.120 C 
BRANCH  29  30
HETATM   30  C24 UNL     1     -11.538   9.083  13.424  1.00  0.00     0.112 C 
BRANCH  30  31
HETATM   31  C25 UNL     1     -12.958   9.382  12.984  1.00  0.00     0.218 C 
HETATM   32  O7  UNL     1     -13.239   9.736  11.844  1.00  0.00    -0.274 OA
HETATM   33  N1  UNL     1     -13.883   9.245  13.996  1.00  0.00    -0.357 N 
HETATM   34  H32 UNL     1     -13.585   8.813  14.862  1.00  0.00     0.162 HD
BRANCH  33  35
HETATM   35  C26 UNL     1     -15.302   9.206  13.714  1.00  0.00     0.161 C 
BRANCH  35  36
HETATM   36  C27 UNL     1     -15.769   7.777  13.623  1.00  0.00    -0.038 A 
HETATM   37  C28 UNL     1     -16.664   7.370  12.630  1.00  0.00     0.025 A 
HETATM   38  C29 UNL     1     -17.097   6.052  12.628  1.00  0.00     0.088 A 
HETATM   39  N2  UNL     1     -16.713   5.131  13.536  1.00  0.00    -0.375 N 
HETATM   40  C30 UNL     1     -15.847   5.543  14.488  1.00  0.00     0.088 A 
ATOM     41  H2  UNL     1     -17.060   4.172  13.506  1.00  0.00     0.164 HD
HETATM   42  C31 UNL     1     -15.351   6.835  14.569  1.00  0.00     0.025 A 
ENDBRANCH  35  36
ENDBRANCH  33  35
ENDBRANCH  30  31
ENDBRANCH  29  30
ENDBRANCH  27  29
ENDBRANCH  26  27
ENDBRANCH  25  26
ENDBRANCH  23  25
ENDBRANCH  20  23
BRANCH  13  43
HETATM   43  O2  UNL     1      -2.302   4.836  14.666  1.00  0.00    -0.395 OA
HETATM   44  H14 UNL     1      -2.619   3.944  14.894  1.00  0.00     0.210 HD
ENDBRANCH  13  43
TORSDOF 11
ENDMDL
MODEL 8
REMARK minimizedAffinity -9.77512455
REMARK CNNscore 0.369144738
REMARK CNNaffinity 7.35076094
REMARK  11 active torsions:
REMARK  status: ('A' for Active; 'I' for Inactive)
REMARK    1  A    between atoms: C12_13  and  O2_14 
REMARK    2  A    between atoms: C19_21  and  O3_22 
REMARK    3  A    between atoms: C19_21  and  C20_23 
REMARK    4  A    between atoms: C20_23  and  C21_25 
REMARK    5  A    between atoms: C21_25  and  O5_26 
REMARK    6  A    between atoms: O5_26  and  C22_27 
REMARK    7  A    between atoms: C22_27  and  C23_29 
REMARK    8  A    between atoms: C23_29  and  C24_30 
REMARK    9  A    between atoms: C24_30  and  C25_31 
REMARK       I    between atoms: C25_31  and  N1_33 
REMARK   10  A    between atoms: N1_33  and  C26_34 
REMARK   11  A    between atoms: C26_34  and  C27_35 
ROOT
HETATM    1  C1  UNL     1      -0.142   7.882   9.913  1.00  0.00     0.025 C 
HETATM    2  C2  UNL     1       0.577   7.493  11.224  1.00  0.00     0.004 A 
HETATM    3  C3  UNL     1       1.776   8.427  11.348  1.00  0.00    -0.009 A 
HETATM    4  C4  UNL     1       3.059   8.043  11.343  1.00  0.00     0.052 A 
HETATM    5  C5  UNL     1       3.424   6.619  11.215  1.00  0.00     0.172 A 
HETATM    6  O1  UNL     1       4.594   6.259  11.214  1.00  0.00    -0.289 OA
HETATM    7  C6  UNL     1       2.320   5.646  11.100  1.00  0.00     0.058 A 
HETATM    8  C7  UNL     1       1.031   6.030  11.107  1.00  0.00    -0.064 A 
HETATM    9  C8  UNL     1      -0.070   5.003  11.054  1.00  0.00     0.036 C 
HETATM   10  C9  UNL     1      -0.950   5.116  12.294  1.00  0.00     0.010 C 
HETATM   11  C10 UNL     1      -1.491   6.543  12.502  1.00  0.00    -0.002 C 
HETATM   12  C11 UNL     1      -0.329   7.594  12.513  1.00  0.00     0.035 C 
HETATM   13  C12 UNL     1      -0.840   9.020  12.873  1.00  0.00     0.124 C 
HETATM   14  C13 UNL     1      -1.742   9.055  14.127  1.00  0.00     0.045 C 
HETATM   15  C14 UNL     1      -2.894   8.027  14.087  1.00  0.00     0.001 C 
HETATM   16  C15 UNL     1      -3.943   8.416  13.011  1.00  0.00     0.019 C 
HETATM   17  C16 UNL     1      -2.252   6.642  13.833  1.00  0.00     0.002 C 
HETATM   18  C17 UNL     1      -3.391   5.665  14.092  1.00  0.00     0.009 C 
HETATM   19  C18 UNL     1      -4.188   6.307  15.243  1.00  0.00     0.047 C 
HETATM   20  C19 UNL     1      -3.612   7.742  15.446  1.00  0.00     0.128 C 
ENDROOT
BRANCH  20  21
HETATM   21  O3  UNL     1      -2.642   7.646  16.496  1.00  0.00    -0.381 OA
HETATM   22  H25 UNL     1      -3.136   7.414  17.310  1.00  0.00     0.211 HD
ENDBRANCH  20  21
BRANCH  20  23
HETATM   23  C20 UNL     1      -4.718   8.759  15.833  1.00  0.00     0.185 C 
HETATM   24  O4  UNL     1      -4.460   9.793  16.456  1.00  0.00    -0.292 OA
BRANCH  23  25
HETATM   25  C21 UNL     1      -6.181   8.436  15.492  1.00  0.00     0.260 C 
BRANCH  25  26
HETATM   26  O5  UNL     1      -6.873   7.362  16.114  1.00  0.00    -0.314 OA
BRANCH  26  27
HETATM   27  C22 UNL     1      -8.230   7.476  16.115  1.00  0.00     0.259 C 
HETATM   28  O6  UNL     1      -8.901   7.744  17.100  1.00  0.00    -0.265 OA
BRANCH  27  29
HETATM   29  C23 UNL     1      -8.767   7.252  14.720  1.00  0.00     0.120 C 
BRANCH  29  30
HETATM   30  C24 UNL     1      -7.680   6.714  13.795  1.00  0.00     0.112 C 
BRANCH  30  31
HETATM   31  C25 UNL     1      -8.171   5.519  13.001  1.00  0.00     0.218 C 
HETATM   32  O7  UNL     1      -8.728   5.629  11.914  1.00  0.00    -0.274 OA
HETATM   33  N1  UNL     1      -7.954   4.316  13.636  1.00  0.00    -0.357 N 
HETATM   34  H32 UNL     1      -7.364   4.307  14.458  1.00  0.00     0.162 HD
BRANCH  33  35
HETATM   35  C26 UNL     1      -8.088   3.061  12.928  1.00  0.00     0.161 C 
BRANCH  35  36
HETATM   36  C27 UNL     1      -6.758   2.652  12.351  1.00  0.00    -0.038 A 
HETATM   37  C28 UNL     1      -5.671   3.531  12.347  1.00  0.00     0.025 A 
HETATM   38  C29 UNL     1      -4.486   3.116  11.757  1.00  0.00     0.088 A 
HETATM   39  N2  UNL     1      -4.316   1.912  11.173  1.00  0.00    -0.375 N 
HETATM   40  C30 UNL     1      -5.377   1.076  11.188  1.00  0.00     0.088 A 
ATOM     41  H2  UNL     1      -3.430   1.646  10.743  1.00  0.00     0.164 HD
HETATM   42  C31 UNL     1      -6.598   1.395  11.759  1.00  0.00     0.025 A 
ENDBRANCH  35  36
ENDBRANCH  33  35
ENDBRANCH  30  31
ENDBRANCH  29  30
ENDBRANCH  27  29
ENDBRANCH  26  27
ENDBRANCH  25  26
ENDBRANCH  23  25
ENDBRANCH  20  23
BRANCH  13  43
HETATM   43  O2  UNL     1      -1.536   9.606  11.781  1.00  0.00    -0.395 OA
HETATM   44  H14 UNL     1      -1.748  10.526  12.018  1.00  0.00     0.210 HD
ENDBRANCH  13  43
TORSDOF 11
ENDMDL
MODEL 9
REMARK minimizedAffinity -8.17098236
REMARK CNNscore 0.352515459
REMARK CNNaffinity 6.76171064
REMARK  11 active torsions:
REMARK  status: ('A' for Active; 'I' for Inactive)
REMARK    1  A    between atoms: C12_13  and  O2_14 
REMARK    2  A    between atoms: C19_21  and  O3_22 
REMARK    3  A    between atoms: C19_21  and  C20_23 
REMARK    4  A    between atoms: C20_23  and  C21_25 
REMARK    5  A    between atoms: C21_25  and  O5_26 
REMARK    6  A    between atoms: O5_26  and  C22_27 
REMARK    7  A    between atoms: C22_27  and  C23_29 
REMARK    8  A    between atoms: C23_29  and  C24_30 
REMARK    9  A    between atoms: C24_30  and  C25_31 
REMARK       I    between atoms: C25_31  and  N1_33 
REMARK   10  A    between atoms: N1_33  and  C26_34 
REMARK   11  A    between atoms: C26_34  and  C27_35 
ROOT
HETATM    1  C1  UNL     1       0.201   8.476  10.275  1.00  0.00     0.025 C 
HETATM    2  C2  UNL     1       0.772   7.875  11.579  1.00  0.00     0.004 A 
HETATM    3  C3  UNL     1       1.887   8.813  12.030  1.00  0.00    -0.009 A 
HETATM    4  C4  UNL     1       3.181   8.485  12.129  1.00  0.00     0.052 A 
HETATM    5  C5  UNL     1       3.647   7.125  11.796  1.00  0.00     0.172 A 
HETATM    6  O1  UNL     1       4.828   6.816  11.888  1.00  0.00    -0.289 OA
HETATM    7  C6  UNL     1       2.628   6.150  11.359  1.00  0.00     0.058 A 
HETATM    8  C7  UNL     1       1.327   6.478  11.261  1.00  0.00    -0.064 A 
HETATM    9  C8  UNL     1       0.307   5.439  10.875  1.00  0.00     0.036 C 
HETATM   10  C9  UNL     1      -0.728   5.284  11.985  1.00  0.00     0.010 C 
HETATM   11  C10 UNL     1      -1.377   6.625  12.373  1.00  0.00    -0.002 C 
HETATM   12  C11 UNL     1      -0.293   7.698  12.730  1.00  0.00     0.035 C 
HETATM   13  C12 UNL     1      -0.932   9.011  13.270  1.00  0.00     0.124 C 
HETATM   14  C13 UNL     1      -1.985   8.777  14.376  1.00  0.00     0.045 C 
HETATM   15  C14 UNL     1      -3.057   7.732  13.996  1.00  0.00     0.001 C 
HETATM   16  C15 UNL     1      -3.985   8.277  12.877  1.00  0.00     0.019 C 
HETATM   17  C16 UNL     1      -2.304   6.444  13.585  1.00  0.00     0.002 C 
HETATM   18  C17 UNL     1      -3.404   5.394  13.507  1.00  0.00     0.009 C 
HETATM   19  C18 UNL     1      -4.378   5.779  14.637  1.00  0.00     0.047 C 
HETATM   20  C19 UNL     1      -3.921   7.171  15.172  1.00  0.00     0.128 C 
ENDROOT
BRANCH  20  21
HETATM   21  O3  UNL     1      -3.087   6.916  16.308  1.00  0.00    -0.381 OA
HETATM   22  H25 UNL     1      -3.664   6.517  16.993  1.00  0.00     0.211 HD
ENDBRANCH  20  21
BRANCH  20  23
HETATM   23  C20 UNL     1      -5.128   8.056  15.583  1.00  0.00     0.185 C 
HETATM   24  O4  UNL     1      -4.992   9.252  15.856  1.00  0.00    -0.292 OA
BRANCH  23  25
HETATM   25  C21 UNL     1      -6.514   7.408  15.722  1.00  0.00     0.260 C 
BRANCH  25  26
HETATM   26  O5  UNL     1      -7.466   7.447  14.669  1.00  0.00    -0.314 OA
BRANCH  26  27
HETATM   27  C22 UNL     1      -8.111   6.272  14.431  1.00  0.00     0.259 C 
HETATM   28  O6  UNL     1      -7.740   5.183  14.843  1.00  0.00    -0.265 OA
BRANCH  27  29
HETATM   29  C23 UNL     1      -9.359   6.524  13.618  1.00  0.00     0.120 C 
BRANCH  29  30
HETATM   30  C24 UNL     1     -10.476   7.088  14.489  1.00  0.00     0.112 C 
BRANCH  30  31
HETATM   31  C25 UNL     1     -10.740   8.548  14.174  1.00  0.00     0.218 C 
HETATM   32  O7  UNL     1     -11.588   8.909  13.364  1.00  0.00    -0.274 OA
HETATM   33  N1  UNL     1      -9.918   9.412  14.862  1.00  0.00    -0.357 N 
HETATM   34  H32 UNL     1      -9.349   9.038  15.611  1.00  0.00     0.162 HD
BRANCH  33  35
HETATM   35  C26 UNL     1     -10.199  10.831  14.917  1.00  0.00     0.161 C 
BRANCH  35  36
HETATM   36  C27 UNL     1     -11.119  11.127  16.072  1.00  0.00    -0.038 A 
HETATM   37  C28 UNL     1     -12.451  11.495  15.861  1.00  0.00     0.025 A 
HETATM   38  C29 UNL     1     -13.235  11.805  16.963  1.00  0.00     0.088 A 
HETATM   39  N2  UNL     1     -12.790  11.782  18.235  1.00  0.00    -0.375 N 
HETATM   40  C30 UNL     1     -11.500  11.423  18.420  1.00  0.00     0.088 A 
ATOM     41  H2  UNL     1     -13.396  12.024  19.019  1.00  0.00     0.164 HD
HETATM   42  C31 UNL     1     -10.640  11.088  17.386  1.00  0.00     0.025 A 
ENDBRANCH  35  36
ENDBRANCH  33  35
ENDBRANCH  30  31
ENDBRANCH  29  30
ENDBRANCH  27  29
ENDBRANCH  26  27
ENDBRANCH  25  26
ENDBRANCH  23  25
ENDBRANCH  20  23
BRANCH  13  43
HETATM   43  O2  UNL     1      -1.520   9.765  12.219  1.00  0.00    -0.395 OA
HETATM   44  H14 UNL     1      -1.816  10.616  12.588  1.00  0.00     0.210 HD
ENDBRANCH  13  43
TORSDOF 11
ENDMDL
