MODEL 1
REMARK minimizedAffinity -8.34826088
REMARK CNNscore 0.481464386
REMARK CNNaffinity 6.86713076
REMARK  8 active torsions:
REMARK  status: ('A' for Active; 'I' for Inactive)
REMARK    1  A    between atoms: C4_5  and  C5_6 
REMARK    2  A    between atoms: C5_6  and  O2_7 
REMARK    3  A    between atoms: C5_6  and  C6_8 
REMARK    4  A    between atoms: C6_8  and  O3_10 
REMARK    5  A    between atoms: C6_8  and  C8_11 
REMARK    6  A    between atoms: C15_19  and  C16_20 
REMARK    7  A    between atoms: C38_44  and  C39_45 
REMARK    8  A    between atoms: C39_45  and  O7_46 
ROOT
HETATM    1  C8  UNL     1     -12.779 -12.698  22.956  1.00  0.00     0.034 C 
HETATM    2  C9  UNL     1     -14.070 -11.907  22.622  1.00  0.00     0.012 C 
HETATM    3  C10 UNL     1     -14.977 -11.974  23.860  1.00  0.00     0.044 C 
HETATM    4  C11 UNL     1     -14.032 -12.345  25.023  1.00  0.00     0.093 C 
HETATM    5  O4  UNL     1     -13.202 -11.207  25.361  1.00  0.00    -0.363 OA
HETATM    6  C12 UNL     1     -13.880 -10.007  25.752  1.00  0.00     0.263 C 
HETATM    7  C13 UNL     1     -13.457  -9.573  27.093  1.00  0.00    -0.080 C 
HETATM    8  C14 UNL     1     -13.181  -9.218  28.207  1.00  0.00    -0.093 C 
HETATM    9  C15 UNL     1     -12.855  -8.858  29.612  1.00  0.00     0.121 C 
HETATM   10  C22 UNL     1     -13.867  -9.503  30.601  1.00  0.00     0.190 C 
HETATM   11  O5  UNL     1     -13.488 -10.823  31.035  1.00  0.00    -0.384 OA
HETATM   12  C23 UNL     1     -13.691 -11.857  30.074  1.00  0.00     0.122 C 
HETATM   13  C24 UNL     1     -12.700 -12.983  30.363  1.00  0.00     0.033 C 
HETATM   14  C25 UNL     1     -13.039 -14.317  29.692  1.00  0.00     0.013 C 
HETATM   15  C26 UNL     1     -14.073 -14.232  28.538  1.00  0.00    -0.026 C 
HETATM   16  C27 UNL     1     -14.466 -15.691  28.175  1.00  0.00     0.016 C 
HETATM   17  C28 UNL     1     -15.351 -13.547  29.108  1.00  0.00     0.071 C 
HETATM   18  C29 UNL     1     -15.129 -12.357  30.061  1.00  0.00     0.045 C 
HETATM   19  C30 UNL     1     -16.337 -13.179  28.022  1.00  0.00     0.154 C 
HETATM   20  O6  UNL     1     -17.547 -13.151  28.233  1.00  0.00    -0.293 OA
HETATM   21  C31 UNL     1     -15.849 -12.807  26.680  1.00  0.00     0.057 C 
HETATM   22  C32 UNL     1     -14.553 -12.896  26.343  1.00  0.00    -0.036 C 
HETATM   23  C33 UNL     1     -13.477 -13.473  27.277  1.00  0.00     0.026 C 
HETATM   24  C34 UNL     1     -12.380 -14.303  26.548  1.00  0.00     0.011 C 
HETATM   25  C35 UNL     1     -11.927 -13.728  25.201  1.00  0.00     0.014 C 
HETATM   26  C36 UNL     1     -13.143 -13.428  24.302  1.00  0.00    -0.002 C 
HETATM   27  C37 UNL     1     -13.924 -14.750  24.046  1.00  0.00     0.019 C 
ENDROOT
BRANCH   1  28
HETATM   28  C6  UNL     1     -12.129 -13.488  21.760  1.00  0.00     0.087 C 
HETATM   29  C7  UNL     1     -12.816 -13.309  20.403  1.00  0.00     0.049 C 
BRANCH  28  30
HETATM   30  C5  UNL     1     -10.574 -13.282  21.621  1.00  0.00     0.181 C 
BRANCH  30  31
HETATM   31  C4  UNL     1      -9.713 -13.170  22.891  1.00  0.00     0.159 C 
HETATM   32  O1  UNL     1      -8.514 -13.976  22.706  1.00  0.00    -0.382 OA
HETATM   33  C3  UNL     1      -7.637 -13.640  23.795  1.00  0.00     0.173 C 
HETATM   34  C2  UNL     1      -8.028 -12.243  24.282  1.00  0.00     0.014 C 
HETATM   35  C1  UNL     1      -8.495 -12.251  25.743  1.00  0.00     0.012 C 
HETATM   36  C38 UNL     1      -9.139 -11.817  23.305  1.00  0.00     0.046 C 
BRANCH  36  37
HETATM   37  C39 UNL     1      -8.518 -11.027  22.152  1.00  0.00     0.172 C 
BRANCH  37  38
HETATM   38  O7  UNL     1      -7.106 -10.971  22.345  1.00  0.00    -0.400 OA
HETATM   39  H52 UNL     1      -6.689 -11.570  21.700  1.00  0.00     0.209 HD
ENDBRANCH  37  38
ENDBRANCH  36  37
ENDBRANCH  30  31
BRANCH  30  40
HETATM   40  O2  UNL     1     -10.049 -14.377  20.833  1.00  0.00    -0.390 OA
HETATM   41  H9  UNL     1      -9.077 -14.299  20.913  1.00  0.00     0.210 HD
ENDBRANCH  30  40
ENDBRANCH  28  30
BRANCH  28  42
HETATM   42  O3  UNL     1     -12.272 -14.891  22.074  1.00  0.00    -0.387 OA
HETATM   43  H13 UNL     1     -11.596 -15.064  22.763  1.00  0.00     0.210 HD
ENDBRANCH  28  42
ENDBRANCH   1  28
BRANCH   9  44
HETATM   44  C16 UNL     1     -12.778  -7.345  29.752  1.00  0.00    -0.040 A 
HETATM   45  C17 UNL     1     -13.380  -6.482  28.829  1.00  0.00     0.008 A 
HETATM   46  C18 UNL     1     -13.279  -5.096  28.971  1.00  0.00     0.001 A 
HETATM   47  C19 UNL     1     -12.549  -4.553  30.028  1.00  0.00     0.000 A 
HETATM   48  C20 UNL     1     -11.934  -5.395  30.951  1.00  0.00     0.001 A 
HETATM   49  C21 UNL     1     -12.050  -6.782  30.818  1.00  0.00     0.008 A 
ENDBRANCH   9  44
TORSDOF 8
ENDMDL
MODEL 2
REMARK minimizedAffinity -8.6640377
REMARK CNNscore 0.439847171
REMARK CNNaffinity 7.06333303
REMARK  8 active torsions:
REMARK  status: ('A' for Active; 'I' for Inactive)
REMARK    1  A    between atoms: C4_5  and  C5_6 
REMARK    2  A    between atoms: C5_6  and  O2_7 
REMARK    3  A    between atoms: C5_6  and  C6_8 
REMARK    4  A    between atoms: C6_8  and  O3_10 
REMARK    5  A    between atoms: C6_8  and  C8_11 
REMARK    6  A    between atoms: C15_19  and  C16_20 
REMARK    7  A    between atoms: C38_44  and  C39_45 
REMARK    8  A    between atoms: C39_45  and  O7_46 
ROOT
HETATM    1  C8  UNL     1     -10.142  -6.729  -4.289  1.00  0.00     0.034 C 
HETATM    2  C9  UNL     1     -11.533  -7.407  -4.189  1.00  0.00     0.012 C 
HETATM    3  C10 UNL     1     -11.320  -8.791  -3.555  1.00  0.00     0.044 C 
HETATM    4  C11 UNL     1      -9.948  -8.697  -2.854  1.00  0.00     0.093 C 
HETATM    5  O4  UNL     1     -10.059  -7.874  -1.668  1.00  0.00    -0.363 OA
HETATM    6  C12 UNL     1     -10.999  -8.300  -0.673  1.00  0.00     0.263 C 
HETATM    7  C13 UNL     1     -10.339  -8.506   0.626  1.00  0.00    -0.080 C 
HETATM    8  C14 UNL     1      -9.827  -8.741   1.687  1.00  0.00    -0.093 C 
HETATM    9  C15 UNL     1      -9.136  -9.078   2.959  1.00  0.00     0.121 C 
HETATM   10  C22 UNL     1      -8.736 -10.580   2.994  1.00  0.00     0.190 C 
HETATM   11  O5  UNL     1      -7.440 -10.846   2.424  1.00  0.00    -0.384 OA
HETATM   12  C23 UNL     1      -7.390 -10.814   0.999  1.00  0.00     0.122 C 
HETATM   13  C24 UNL     1      -5.967 -10.452   0.577  1.00  0.00     0.033 C 
HETATM   14  C25 UNL     1      -5.640 -10.758  -0.887  1.00  0.00     0.013 C 
HETATM   15  C26 UNL     1      -6.869 -11.006  -1.801  1.00  0.00    -0.026 C 
HETATM   16  C27 UNL     1      -6.326 -11.545  -3.153  1.00  0.00     0.016 C 
HETATM   17  C28 UNL     1      -7.702 -12.154  -1.158  1.00  0.00     0.071 C 
HETATM   18  C29 UNL     1      -7.849 -12.125   0.376  1.00  0.00     0.045 C 
HETATM   19  C30 UNL     1      -9.053 -12.321  -1.816  1.00  0.00     0.154 C 
HETATM   20  O6  UNL     1      -9.614 -13.412  -1.871  1.00  0.00    -0.293 OA
HETATM   21  C31 UNL     1      -9.747 -11.146  -2.379  1.00  0.00     0.057 C 
HETATM   22  C32 UNL     1      -9.167  -9.937  -2.439  1.00  0.00    -0.036 C 
HETATM   23  C33 UNL     1      -7.712  -9.678  -2.016  1.00  0.00     0.026 C 
HETATM   24  C34 UNL     1      -6.968  -8.638  -2.903  1.00  0.00     0.011 C 
HETATM   25  C35 UNL     1      -7.815  -7.434  -3.333  1.00  0.00     0.014 C 
HETATM   26  C36 UNL     1      -9.146  -7.902  -3.953  1.00  0.00    -0.002 C 
HETATM   27  C37 UNL     1      -8.845  -8.775  -5.205  1.00  0.00     0.019 C 
ENDROOT
BRANCH   1  28
HETATM   28  C6  UNL     1      -9.914  -5.812  -5.546  1.00  0.00     0.087 C 
HETATM   29  C7  UNL     1     -10.996  -5.896  -6.627  1.00  0.00     0.049 C 
BRANCH  28  30
HETATM   30  C5  UNL     1      -9.598  -4.309  -5.199  1.00  0.00     0.181 C 
BRANCH  30  31
HETATM   31  C4  UNL     1      -9.733  -3.239  -6.295  1.00  0.00     0.159 C 
HETATM   32  O1  UNL     1     -10.900  -2.421  -5.997  1.00  0.00    -0.382 OA
HETATM   33  C3  UNL     1     -10.836  -1.296  -6.891  1.00  0.00     0.173 C 
HETATM   34  C2  UNL     1      -9.372  -1.117  -7.298  1.00  0.00     0.014 C 
HETATM   35  C1  UNL     1      -9.168  -1.282  -8.808  1.00  0.00     0.012 C 
HETATM   36  C38 UNL     1      -8.635  -2.192  -6.477  1.00  0.00     0.046 C 
BRANCH  36  37
HETATM   37  C39 UNL     1      -8.144  -1.574  -5.167  1.00  0.00     0.172 C 
BRANCH  37  38
HETATM   38  O7  UNL     1      -7.011  -2.311  -4.711  1.00  0.00    -0.400 OA
HETATM   39  H52 UNL     1      -6.217  -1.768  -4.861  1.00  0.00     0.209 HD
ENDBRANCH  37  38
ENDBRANCH  36  37
ENDBRANCH  30  31
BRANCH  30  40
HETATM   40  O2  UNL     1     -10.453  -3.918  -4.098  1.00  0.00    -0.390 OA
HETATM   41  H9  UNL     1     -10.342  -2.948  -4.030  1.00  0.00     0.210 HD
ENDBRANCH  30  40
ENDBRANCH  28  30
BRANCH  28  42
HETATM   42  O3  UNL     1      -8.706  -6.288  -6.182  1.00  0.00    -0.387 OA
HETATM   43  H13 UNL     1      -7.978  -5.960  -5.614  1.00  0.00     0.210 HD
ENDBRANCH  28  42
ENDBRANCH   1  28
BRANCH   9  44
HETATM   44  C16 UNL     1     -10.004  -8.673   4.141  1.00  0.00    -0.040 A 
HETATM   45  C17 UNL     1     -11.160  -7.899   3.982  1.00  0.00     0.008 A 
HETATM   46  C18 UNL     1     -11.929  -7.525   5.087  1.00  0.00     0.001 A 
HETATM   47  C19 UNL     1     -11.537  -7.899   6.372  1.00  0.00     0.000 A 
HETATM   48  C20 UNL     1     -10.385  -8.659   6.551  1.00  0.00     0.001 A 
HETATM   49  C21 UNL     1      -9.624  -9.048   5.444  1.00  0.00     0.008 A 
ENDBRANCH   9  44
TORSDOF 8
ENDMDL
MODEL 3
REMARK minimizedAffinity -8.39115143
REMARK CNNscore 0.434134543
REMARK CNNaffinity 7.03730249
REMARK  8 active torsions:
REMARK  status: ('A' for Active; 'I' for Inactive)
REMARK    1  A    between atoms: C4_5  and  C5_6 
REMARK    2  A    between atoms: C5_6  and  O2_7 
REMARK    3  A    between atoms: C5_6  and  C6_8 
REMARK    4  A    between atoms: C6_8  and  O3_10 
REMARK    5  A    between atoms: C6_8  and  C8_11 
REMARK    6  A    between atoms: C15_19  and  C16_20 
REMARK    7  A    between atoms: C38_44  and  C39_45 
REMARK    8  A    between atoms: C39_45  and  O7_46 
ROOT
HETATM    1  C8  UNL     1      -9.430  -7.052  -4.333  1.00  0.00     0.034 C 
HETATM    2  C9  UNL     1     -10.486  -7.369  -3.243  1.00  0.00     0.012 C 
HETATM    3  C10 UNL     1     -10.358  -8.864  -2.907  1.00  0.00     0.044 C 
HETATM    4  C11 UNL     1      -8.952  -9.261  -3.406  1.00  0.00     0.093 C 
HETATM    5  O4  UNL     1      -7.945  -8.702  -2.528  1.00  0.00    -0.363 OA
HETATM    6  C12 UNL     1      -8.011  -9.080  -1.148  1.00  0.00     0.263 C 
HETATM    7  C13 UNL     1      -6.755  -9.709  -0.710  1.00  0.00    -0.080 C 
HETATM    8  C14 UNL     1      -5.767 -10.279  -0.330  1.00  0.00    -0.093 C 
HETATM    9  C15 UNL     1      -4.552 -11.035   0.071  1.00  0.00     0.121 C 
HETATM   10  C22 UNL     1      -4.751 -12.563  -0.139  1.00  0.00     0.190 C 
HETATM   11  O5  UNL     1      -4.384 -13.016  -1.456  1.00  0.00    -0.384 OA
HETATM   12  C23 UNL     1      -5.320 -12.701  -2.486  1.00  0.00     0.122 C 
HETATM   13  C24 UNL     1      -4.566 -12.622  -3.812  1.00  0.00     0.033 C 
HETATM   14  C25 UNL     1      -5.457 -12.687  -5.056  1.00  0.00     0.013 C 
HETATM   15  C26 UNL     1      -6.966 -12.427  -4.802  1.00  0.00    -0.026 C 
HETATM   16  C27 UNL     1      -7.714 -12.790  -6.114  1.00  0.00     0.016 C 
HETATM   17  C28 UNL     1      -7.436 -13.442  -3.717  1.00  0.00     0.071 C 
HETATM   18  C29 UNL     1      -6.469 -13.698  -2.546  1.00  0.00     0.045 C 
HETATM   19  C30 UNL     1      -8.822 -13.128  -3.201  1.00  0.00     0.154 C 
HETATM   20  O6  UNL     1      -9.576 -14.010  -2.800  1.00  0.00    -0.293 OA
HETATM   21  C31 UNL     1      -9.283 -11.727  -3.136  1.00  0.00     0.057 C 
HETATM   22  C32 UNL     1      -8.557 -10.714  -3.634  1.00  0.00    -0.036 C 
HETATM   23  C33 UNL     1      -7.235 -10.918  -4.392  1.00  0.00     0.026 C 
HETATM   24  C34 UNL     1      -7.025  -9.932  -5.579  1.00  0.00     0.011 C 
HETATM   25  C35 UNL     1      -7.484  -8.494  -5.312  1.00  0.00     0.014 C 
HETATM   26  C36 UNL     1      -8.929  -8.477  -4.773  1.00  0.00    -0.002 C 
HETATM   27  C37 UNL     1      -9.873  -9.118  -5.831  1.00  0.00     0.019 C 
ENDROOT
BRANCH   1  28
HETATM   28  C6  UNL     1      -9.850  -5.978  -5.403  1.00  0.00     0.087 C 
HETATM   29  C7  UNL     1     -11.301  -6.063  -5.886  1.00  0.00     0.049 C 
BRANCH  28  30
HETATM   30  C5  UNL     1      -9.488  -4.498  -5.007  1.00  0.00     0.181 C 
BRANCH  30  31
HETATM   31  C4  UNL     1      -9.925  -3.345  -5.927  1.00  0.00     0.159 C 
HETATM   32  O1  UNL     1     -11.048  -2.660  -5.303  1.00  0.00    -0.382 OA
HETATM   33  C3  UNL     1     -11.251  -1.455  -6.061  1.00  0.00     0.173 C 
HETATM   34  C2  UNL     1      -9.924  -1.115  -6.744  1.00  0.00     0.014 C 
HETATM   35  C1  UNL     1     -10.043  -1.121  -8.272  1.00  0.00     0.012 C 
HETATM   36  C38 UNL     1      -8.961  -2.196  -6.219  1.00  0.00     0.046 C 
BRANCH  36  37
HETATM   37  C39 UNL     1      -8.236  -1.664  -4.981  1.00  0.00     0.172 C 
BRANCH  37  38
HETATM   38  O7  UNL     1      -7.270  -2.629  -4.568  1.00  0.00    -0.400 OA
HETATM   39  H52 UNL     1      -6.387  -2.292  -4.802  1.00  0.00     0.209 HD
ENDBRANCH  37  38
ENDBRANCH  36  37
ENDBRANCH  30  31
BRANCH  30  40
HETATM   40  O2  UNL     1     -10.038  -4.241  -3.693  1.00  0.00    -0.390 OA
HETATM   41  H9  UNL     1      -9.934  -3.277  -3.564  1.00  0.00     0.210 HD
ENDBRANCH  30  40
ENDBRANCH  28  30
BRANCH  28  42
HETATM   42  O3  UNL     1      -9.045  -6.236  -6.575  1.00  0.00    -0.387 OA
HETATM   43  H13 UNL     1      -8.156  -5.894  -6.349  1.00  0.00     0.210 HD
ENDBRANCH  28  42
ENDBRANCH   1  28
BRANCH   9  44
HETATM   44  C16 UNL     1      -4.176 -10.683   1.503  1.00  0.00    -0.040 A 
HETATM   45  C17 UNL     1      -2.842 -10.564   1.912  1.00  0.00     0.008 A 
HETATM   46  C18 UNL     1      -2.523 -10.258   3.238  1.00  0.00     0.001 A 
HETATM   47  C19 UNL     1      -3.537 -10.093   4.181  1.00  0.00     0.000 A 
HETATM   48  C20 UNL     1      -4.869 -10.218   3.796  1.00  0.00     0.001 A 
HETATM   49  C21 UNL     1      -5.188 -10.507   2.466  1.00  0.00     0.008 A 
ENDBRANCH   9  44
TORSDOF 8
ENDMDL
MODEL 4
REMARK minimizedAffinity -10.4480057
REMARK CNNscore 0.415328443
REMARK CNNaffinity 7.20872164
REMARK  8 active torsions:
REMARK  status: ('A' for Active; 'I' for Inactive)
REMARK    1  A    between atoms: C4_5  and  C5_6 
REMARK    2  A    between atoms: C5_6  and  O2_7 
REMARK    3  A    between atoms: C5_6  and  C6_8 
REMARK    4  A    between atoms: C6_8  and  O3_10 
REMARK    5  A    between atoms: C6_8  and  C8_11 
REMARK    6  A    between atoms: C15_19  and  C16_20 
REMARK    7  A    between atoms: C38_44  and  C39_45 
REMARK    8  A    between atoms: C39_45  and  O7_46 
ROOT
HETATM    1  C8  UNL     1       1.715   6.751  10.176  1.00  0.00     0.034 C 
HETATM    2  C9  UNL     1       2.220   5.567  11.041  1.00  0.00     0.012 C 
HETATM    3  C10 UNL     1       1.510   5.662  12.401  1.00  0.00     0.044 C 
HETATM    4  C11 UNL     1       0.277   6.552  12.141  1.00  0.00     0.093 C 
HETATM    5  O4  UNL     1      -0.707   5.814  11.376  1.00  0.00    -0.363 OA
HETATM    6  C12 UNL     1      -1.195   4.598  11.957  1.00  0.00     0.263 C 
HETATM    7  C13 UNL     1      -2.658   4.633  12.108  1.00  0.00    -0.080 C 
HETATM    8  C14 UNL     1      -3.845   4.646  12.302  1.00  0.00    -0.093 C 
HETATM    9  C15 UNL     1      -5.301   4.738  12.579  1.00  0.00     0.121 C 
HETATM   10  C22 UNL     1      -5.563   5.281  14.013  1.00  0.00     0.190 C 
HETATM   11  O5  UNL     1      -5.637   6.718  14.082  1.00  0.00    -0.384 OA
HETATM   12  C23 UNL     1      -4.382   7.392  14.001  1.00  0.00     0.122 C 
HETATM   13  C24 UNL     1      -4.624   8.790  13.434  1.00  0.00     0.033 C 
HETATM   14  C25 UNL     1      -3.470   9.772  13.649  1.00  0.00     0.013 C 
HETATM   15  C26 UNL     1      -2.114   9.124  14.036  1.00  0.00    -0.026 C 
HETATM   16  C27 UNL     1      -1.164  10.279  14.455  1.00  0.00     0.016 C 
HETATM   17  C28 UNL     1      -2.360   8.256  15.306  1.00  0.00     0.071 C 
HETATM   18  C29 UNL     1      -3.666   7.441  15.343  1.00  0.00     0.045 C 
HETATM   19  C30 UNL     1      -1.176   7.375  15.637  1.00  0.00     0.154 C 
HETATM   20  O6  UNL     1      -0.916   7.051  16.792  1.00  0.00    -0.293 OA
HETATM   21  C31 UNL     1      -0.323   6.852  14.552  1.00  0.00     0.057 C 
HETATM   22  C32 UNL     1      -0.485   7.227  13.273  1.00  0.00    -0.036 C 
HETATM   23  C33 UNL     1      -1.501   8.292  12.831  1.00  0.00     0.026 C 
HETATM   24  C34 UNL     1      -1.002   9.205  11.672  1.00  0.00     0.011 C 
HETATM   25  C35 UNL     1      -0.199   8.482  10.584  1.00  0.00     0.014 C 
HETATM   26  C36 UNL     1       0.932   7.642  11.210  1.00  0.00    -0.002 C 
HETATM   27  C37 UNL     1       1.888   8.585  11.997  1.00  0.00     0.019 C 
ENDROOT
BRANCH   1  28
HETATM   28  C6  UNL     1       2.771   7.387   9.199  1.00  0.00     0.087 C 
HETATM   29  C7  UNL     1       2.196   8.016   7.927  1.00  0.00     0.049 C 
BRANCH  28  30
HETATM   30  C5  UNL     1       3.778   8.378   9.896  1.00  0.00     0.181 C 
BRANCH  30  31
HETATM   31  C4  UNL     1       4.805   7.825  10.898  1.00  0.00     0.159 C 
HETATM   32  O1  UNL     1       5.823   7.094  10.157  1.00  0.00    -0.382 OA
HETATM   33  C3  UNL     1       6.879   6.821  11.094  1.00  0.00     0.173 C 
HETATM   34  C2  UNL     1       6.787   7.869  12.205  1.00  0.00     0.014 C 
HETATM   35  C1  UNL     1       6.521   7.236  13.576  1.00  0.00     0.012 C 
HETATM   36  C38 UNL     1       5.640   8.787  11.742  1.00  0.00     0.046 C 
BRANCH  36  37
HETATM   37  C39 UNL     1       6.224   9.960  10.951  1.00  0.00     0.172 C 
BRANCH  37  38
HETATM   38  O7  UNL     1       5.685  11.173  11.470  1.00  0.00    -0.400 OA
HETATM   39  H52 UNL     1       6.384  11.621  11.980  1.00  0.00     0.209 HD
ENDBRANCH  37  38
ENDBRANCH  36  37
ENDBRANCH  30  31
BRANCH  30  40
HETATM   40  O2  UNL     1       4.511   9.071   8.857  1.00  0.00    -0.390 OA
HETATM   41  H9  UNL     1       5.226   9.543   9.329  1.00  0.00     0.210 HD
ENDBRANCH  30  40
ENDBRANCH  28  30
BRANCH  28  42
HETATM   42  O3  UNL     1       3.607   6.301   8.740  1.00  0.00    -0.387 OA
HETATM   43  H13 UNL     1       4.194   6.100   9.498  1.00  0.00     0.210 HD
ENDBRANCH  28  42
ENDBRANCH   1  28
BRANCH   9  44
HETATM   44  C16 UNL     1      -5.960   3.389  12.332  1.00  0.00    -0.040 A 
HETATM   45  C17 UNL     1      -7.157   3.021  12.958  1.00  0.00     0.008 A 
HETATM   46  C18 UNL     1      -7.730   1.768  12.728  1.00  0.00     0.001 A 
HETATM   47  C19 UNL     1      -7.099   0.853  11.886  1.00  0.00     0.000 A 
HETATM   48  C20 UNL     1      -5.902   1.196  11.263  1.00  0.00     0.001 A 
HETATM   49  C21 UNL     1      -5.337   2.457  11.480  1.00  0.00     0.008 A 
ENDBRANCH   9  44
TORSDOF 8
ENDMDL
MODEL 5
REMARK minimizedAffinity -7.42930984
REMARK CNNscore 0.413675904
REMARK CNNaffinity 6.77420807
REMARK  8 active torsions:
REMARK  status: ('A' for Active; 'I' for Inactive)
REMARK    1  A    between atoms: C4_5  and  C5_6 
REMARK    2  A    between atoms: C5_6  and  O2_7 
REMARK    3  A    between atoms: C5_6  and  C6_8 
REMARK    4  A    between atoms: C6_8  and  O3_10 
REMARK    5  A    between atoms: C6_8  and  C8_11 
REMARK    6  A    between atoms: C15_19  and  C16_20 
REMARK    7  A    between atoms: C38_44  and  C39_45 
REMARK    8  A    between atoms: C39_45  and  O7_46 
ROOT
HETATM    1  C8  UNL     1     -14.350 -11.175  27.669  1.00  0.00     0.034 C 
HETATM    2  C9  UNL     1     -15.828 -11.475  28.029  1.00  0.00     0.012 C 
HETATM    3  C10 UNL     1     -16.216 -10.533  29.181  1.00  0.00     0.044 C 
HETATM    4  C11 UNL     1     -15.171  -9.398  29.131  1.00  0.00     0.093 C 
HETATM    5  O4  UNL     1     -15.429  -8.545  27.990  1.00  0.00    -0.363 OA
HETATM    6  C12 UNL     1     -16.717  -7.918  27.931  1.00  0.00     0.263 C 
HETATM    7  C13 UNL     1     -16.591  -6.454  27.860  1.00  0.00    -0.080 C 
HETATM    8  C14 UNL     1     -16.532  -5.254  27.860  1.00  0.00    -0.093 C 
HETATM    9  C15 UNL     1     -16.405  -3.775  27.926  1.00  0.00     0.121 C 
HETATM   10  C22 UNL     1     -16.463  -3.276  29.398  1.00  0.00     0.190 C 
HETATM   11  O5  UNL     1     -15.176  -3.240  30.045  1.00  0.00    -0.384 OA
HETATM   12  C23 UNL     1     -14.664  -4.510  30.442  1.00  0.00     0.122 C 
HETATM   13  C24 UNL     1     -13.139  -4.422  30.478  1.00  0.00     0.033 C 
HETATM   14  C25 UNL     1     -12.455  -5.552  31.253  1.00  0.00     0.013 C 
HETATM   15  C26 UNL     1     -13.344  -6.792  31.537  1.00  0.00    -0.026 C 
HETATM   16  C27 UNL     1     -12.563  -7.689  32.536  1.00  0.00     0.016 C 
HETATM   17  C28 UNL     1     -14.618  -6.290  32.279  1.00  0.00     0.071 C 
HETATM   18  C29 UNL     1     -15.236  -4.972  31.775  1.00  0.00     0.045 C 
HETATM   19  C30 UNL     1     -15.678  -7.363  32.388  1.00  0.00     0.154 C 
HETATM   20  O6  UNL     1     -16.465  -7.399  33.330  1.00  0.00    -0.293 OA
HETATM   21  C31 UNL     1     -15.807  -8.381  31.327  1.00  0.00     0.057 C 
HETATM   22  C32 UNL     1     -14.933  -8.467  30.311  1.00  0.00    -0.036 C 
HETATM   23  C33 UNL     1     -13.679  -7.584  30.203  1.00  0.00     0.026 C 
HETATM   24  C34 UNL     1     -12.435  -8.317  29.618  1.00  0.00     0.011 C 
HETATM   25  C35 UNL     1     -12.739  -9.279  28.463  1.00  0.00     0.014 C 
HETATM   26  C36 UNL     1     -13.874 -10.248  28.848  1.00  0.00    -0.002 C 
HETATM   27  C37 UNL     1     -13.435 -11.077  30.090  1.00  0.00     0.019 C 
ENDROOT
BRANCH   1  28
HETATM   28  C6  UNL     1     -13.490 -12.412  27.217  1.00  0.00     0.087 C 
HETATM   29  C7  UNL     1     -14.145 -13.325  26.177  1.00  0.00     0.049 C 
BRANCH  28  30
HETATM   30  C5  UNL     1     -12.019 -12.051  26.783  1.00  0.00     0.181 C 
BRANCH  30  31
HETATM   31  C4  UNL     1     -10.913 -13.111  26.918  1.00  0.00     0.159 C 
HETATM   32  O1  UNL     1     -11.472 -14.407  26.558  1.00  0.00    -0.382 OA
HETATM   33  C3  UNL     1     -10.355 -15.306  26.453  1.00  0.00     0.173 C 
HETATM   34  C2  UNL     1      -9.114 -14.462  26.162  1.00  0.00     0.014 C 
HETATM   35  C1  UNL     1      -8.057 -14.588  27.266  1.00  0.00     0.012 C 
HETATM   36  C38 UNL     1      -9.671 -13.032  26.033  1.00  0.00     0.046 C 
BRANCH  36  37
HETATM   37  C39 UNL     1      -9.974 -12.741  24.562  1.00  0.00     0.172 C 
BRANCH  37  38
HETATM   38  O7  UNL     1      -9.382 -11.492  24.212  1.00  0.00    -0.400 OA
HETATM   39  H52 UNL     1      -8.603 -11.672  23.656  1.00  0.00     0.209 HD
ENDBRANCH  37  38
ENDBRANCH  36  37
ENDBRANCH  30  31
BRANCH  30  40
HETATM   40  O2  UNL     1     -12.055 -11.630  25.399  1.00  0.00    -0.390 OA
HETATM   41  H9  UNL     1     -11.115 -11.577  25.130  1.00  0.00     0.210 HD
ENDBRANCH  30  40
ENDBRANCH  28  30
BRANCH  28  42
HETATM   42  O3  UNL     1     -13.318 -13.238  28.390  1.00  0.00    -0.387 OA
HETATM   43  H13 UNL     1     -12.648 -12.769  28.931  1.00  0.00     0.210 HD
ENDBRANCH  28  42
ENDBRANCH   1  28
BRANCH   9  44
HETATM   44  C16 UNL     1     -17.463  -3.127  27.044  1.00  0.00    -0.040 A 
HETATM   45  C17 UNL     1     -18.086  -1.924  27.395  1.00  0.00     0.008 A 
HETATM   46  C18 UNL     1     -19.068  -1.360  26.576  1.00  0.00     0.001 A 
HETATM   47  C19 UNL     1     -19.459  -2.007  25.404  1.00  0.00     0.000 A 
HETATM   48  C20 UNL     1     -18.858  -3.211  25.044  1.00  0.00     0.001 A 
HETATM   49  C21 UNL     1     -17.864  -3.766  25.855  1.00  0.00     0.008 A 
ENDBRANCH   9  44
TORSDOF 8
ENDMDL
MODEL 6
REMARK minimizedAffinity -8.8185463
REMARK CNNscore 0.402304918
REMARK CNNaffinity 6.53864145
REMARK  8 active torsions:
REMARK  status: ('A' for Active; 'I' for Inactive)
REMARK    1  A    between atoms: C4_5  and  C5_6 
REMARK    2  A    between atoms: C5_6  and  O2_7 
REMARK    3  A    between atoms: C5_6  and  C6_8 
REMARK    4  A    between atoms: C6_8  and  O3_10 
REMARK    5  A    between atoms: C6_8  and  C8_11 
REMARK    6  A    between atoms: C15_19  and  C16_20 
REMARK    7  A    between atoms: C38_44  and  C39_45 
REMARK    8  A    between atoms: C39_45  and  O7_46 
ROOT
HETATM    1  C8  UNL     1      -2.838   9.435  15.373  1.00  0.00     0.034 C 
HETATM    2  C9  UNL     1      -1.505   9.209  14.615  1.00  0.00     0.012 C 
HETATM    3  C10 UNL     1      -0.658  10.479  14.797  1.00  0.00     0.044 C 
HETATM    4  C11 UNL     1      -1.265  11.185  16.027  1.00  0.00     0.093 C 
HETATM    5  O4  UNL     1      -0.918  10.458  17.231  1.00  0.00    -0.363 OA
HETATM    6  C12 UNL     1       0.479  10.291  17.503  1.00  0.00     0.263 C 
HETATM    7  C13 UNL     1       0.833  10.850  18.817  1.00  0.00    -0.080 C 
HETATM    8  C14 UNL     1       1.173  11.346  19.858  1.00  0.00    -0.093 C 
HETATM    9  C15 UNL     1       1.552  12.031  21.121  1.00  0.00     0.121 C 
HETATM   10  C22 UNL     1       1.995  13.496  20.849  1.00  0.00     0.190 C 
HETATM   11  O5  UNL     1       0.907  14.441  20.870  1.00  0.00    -0.384 OA
HETATM   12  C23 UNL     1       0.072  14.425  19.714  1.00  0.00     0.122 C 
HETATM   13  C24 UNL     1      -1.315  14.924  20.116  1.00  0.00     0.033 C 
HETATM   14  C25 UNL     1      -2.205  15.344  18.943  1.00  0.00     0.013 C 
HETATM   15  C26 UNL     1      -1.742  14.843  17.550  1.00  0.00    -0.026 C 
HETATM   16  C27 UNL     1      -2.612  15.578  16.493  1.00  0.00     0.016 C 
HETATM   17  C28 UNL     1      -0.276  15.328  17.345  1.00  0.00     0.071 C 
HETATM   18  C29 UNL     1       0.657  15.239  18.568  1.00  0.00     0.045 C 
HETATM   19  C30 UNL     1       0.375  14.693  16.137  1.00  0.00     0.154 C 
HETATM   20  O6  UNL     1       1.242  15.276  15.490  1.00  0.00    -0.293 OA
HETATM   21  C31 UNL     1      -0.002  13.325  15.731  1.00  0.00     0.057 C 
HETATM   22  C32 UNL     1      -1.000  12.654  16.328  1.00  0.00    -0.036 C 
HETATM   23  C33 UNL     1      -1.894  13.268  17.417  1.00  0.00     0.026 C 
HETATM   24  C34 UNL     1      -3.384  12.819  17.343  1.00  0.00     0.011 C 
HETATM   25  C35 UNL     1      -3.594  11.343  16.989  1.00  0.00     0.014 C 
HETATM   26  C36 UNL     1      -2.797  10.968  15.725  1.00  0.00    -0.002 C 
HETATM   27  C37 UNL     1      -3.288  11.844  14.536  1.00  0.00     0.019 C 
ENDROOT
BRANCH   1  28
HETATM   28  C6  UNL     1      -4.117   8.791  14.719  1.00  0.00     0.087 C 
HETATM   29  C7  UNL     1      -3.948   8.317  13.273  1.00  0.00     0.049 C 
BRANCH  28  30
HETATM   30  C5  UNL     1      -4.791   7.667  15.592  1.00  0.00     0.181 C 
BRANCH  30  31
HETATM   31  C4  UNL     1      -5.841   6.744  14.951  1.00  0.00     0.159 C 
HETATM   32  O1  UNL     1      -6.208   5.722  15.921  1.00  0.00    -0.382 OA
HETATM   33  C3  UNL     1      -7.359   5.053  15.377  1.00  0.00     0.173 C 
HETATM   34  C2  UNL     1      -8.036   6.022  14.407  1.00  0.00     0.014 C 
HETATM   35  C1  UNL     1      -8.066   5.479  12.974  1.00  0.00     0.012 C 
HETATM   36  C38 UNL     1      -7.199   7.308  14.538  1.00  0.00     0.046 C 
BRANCH  36  37
HETATM   37  C39 UNL     1      -7.838   8.219  15.588  1.00  0.00     0.172 C 
BRANCH  37  38
HETATM   38  O7  UNL     1      -8.837   7.479  16.287  1.00  0.00    -0.400 OA
HETATM   39  H52 UNL     1      -8.495   7.277  17.177  1.00  0.00     0.209 HD
ENDBRANCH  37  38
ENDBRANCH  36  37
ENDBRANCH  30  31
BRANCH  30  40
HETATM   40  O2  UNL     1      -3.738   6.827  16.125  1.00  0.00    -0.390 OA
HETATM   41  H9  UNL     1      -4.205   6.060  16.515  1.00  0.00     0.210 HD
ENDBRANCH  30  40
ENDBRANCH  28  30
BRANCH  28  42
HETATM   42  O3  UNL     1      -5.113   9.836  14.661  1.00  0.00    -0.387 OA
HETATM   43  H13 UNL     1      -5.436   9.926  15.582  1.00  0.00     0.210 HD
ENDBRANCH  28  42
ENDBRANCH   1  28
BRANCH   9  44
HETATM   44  C16 UNL     1       2.615  11.220  21.847  1.00  0.00    -0.040 A 
HETATM   45  C17 UNL     1       3.810  11.796  22.295  1.00  0.00     0.008 A 
HETATM   46  C18 UNL     1       4.779  11.025  22.943  1.00  0.00     0.001 A 
HETATM   47  C19 UNL     1       4.576   9.658  23.129  1.00  0.00     0.000 A 
HETATM   48  C20 UNL     1       3.399   9.065  22.681  1.00  0.00     0.001 A 
HETATM   49  C21 UNL     1       2.422   9.840  22.048  1.00  0.00     0.008 A 
ENDBRANCH   9  44
TORSDOF 8
ENDMDL
MODEL 7
REMARK minimizedAffinity -8.34008217
REMARK CNNscore 0.40172556
REMARK CNNaffinity 6.43189096
REMARK  8 active torsions:
REMARK  status: ('A' for Active; 'I' for Inactive)
REMARK    1  A    between atoms: C4_5  and  C5_6 
REMARK    2  A    between atoms: C5_6  and  O2_7 
REMARK    3  A    between atoms: C5_6  and  C6_8 
REMARK    4  A    between atoms: C6_8  and  O3_10 
REMARK    5  A    between atoms: C6_8  and  C8_11 
REMARK    6  A    between atoms: C15_19  and  C16_20 
REMARK    7  A    between atoms: C38_44  and  C39_45 
REMARK    8  A    between atoms: C39_45  and  O7_46 
ROOT
HETATM    1  C8  UNL     1     -14.843   9.310  25.210  1.00  0.00     0.034 C 
HETATM    2  C9  UNL     1     -16.314   9.219  25.693  1.00  0.00     0.012 C 
HETATM    3  C10 UNL     1     -16.776   7.769  25.472  1.00  0.00     0.044 C 
HETATM    4  C11 UNL     1     -15.471   6.953  25.352  1.00  0.00     0.093 C 
HETATM    5  O4  UNL     1     -14.844   6.838  26.652  1.00  0.00    -0.363 OA
HETATM    6  C12 UNL     1     -15.617   6.223  27.689  1.00  0.00     0.263 C 
HETATM    7  C13 UNL     1     -14.920   5.054  28.248  1.00  0.00    -0.080 C 
HETATM    8  C14 UNL     1     -14.409   4.060  28.690  1.00  0.00    -0.093 C 
HETATM    9  C15 UNL     1     -13.766   2.804  29.156  1.00  0.00     0.121 C 
HETATM   10  C22 UNL     1     -14.275   1.582  28.341  1.00  0.00     0.190 C 
HETATM   11  O5  UNL     1     -13.508   1.325  27.148  1.00  0.00    -0.384 OA
HETATM   12  C23 UNL     1     -13.760   2.217  26.064  1.00  0.00     0.122 C 
HETATM   13  C24 UNL     1     -12.510   2.273  25.189  1.00  0.00     0.033 C 
HETATM   14  C25 UNL     1     -12.736   2.859  23.792  1.00  0.00     0.013 C 
HETATM   15  C26 UNL     1     -14.059   3.651  23.615  1.00  0.00    -0.026 C 
HETATM   16  C27 UNL     1     -14.218   3.930  22.095  1.00  0.00     0.016 C 
HETATM   17  C28 UNL     1     -15.226   2.704  24.026  1.00  0.00     0.071 C 
HETATM   18  C29 UNL     1     -14.994   1.820  25.266  1.00  0.00     0.045 C 
HETATM   19  C30 UNL     1     -16.545   3.435  24.137  1.00  0.00     0.154 C 
HETATM   20  O6  UNL     1     -17.614   2.874  23.910  1.00  0.00    -0.293 OA
HETATM   21  C31 UNL     1     -16.570   4.848  24.562  1.00  0.00     0.057 C 
HETATM   22  C32 UNL     1     -15.445   5.558  24.744  1.00  0.00    -0.036 C 
HETATM   23  C33 UNL     1     -14.043   5.004  24.443  1.00  0.00     0.026 C 
HETATM   24  C34 UNL     1     -13.059   6.055  23.847  1.00  0.00     0.011 C 
HETATM   25  C35 UNL     1     -13.162   7.455  24.462  1.00  0.00     0.014 C 
HETATM   26  C36 UNL     1     -14.625   7.942  24.463  1.00  0.00    -0.002 C 
HETATM   27  C37 UNL     1     -15.142   7.999  22.996  1.00  0.00     0.019 C 
ENDROOT
BRANCH   1  28
HETATM   28  C6  UNL     1     -14.424  10.671  24.542  1.00  0.00     0.087 C 
HETATM   29  C7  UNL     1     -15.483  11.776  24.577  1.00  0.00     0.049 C 
BRANCH  28  30
HETATM   30  C5  UNL     1     -13.032  11.226  25.028  1.00  0.00     0.181 C 
BRANCH  30  31
HETATM   31  C4  UNL     1     -12.050  11.804  23.996  1.00  0.00     0.159 C 
HETATM   32  O1  UNL     1     -10.952  12.439  24.712  1.00  0.00    -0.382 OA
HETATM   33  C3  UNL     1      -9.950  12.733  23.724  1.00  0.00     0.173 C 
HETATM   34  C2  UNL     1     -10.164  11.769  22.555  1.00  0.00     0.014 C 
HETATM   35  C1  UNL     1     -10.491  12.507  21.251  1.00  0.00     0.012 C 
HETATM   36  C38 UNL     1     -11.319  10.870  23.034  1.00  0.00     0.046 C 
BRANCH  36  37
HETATM   37  C39 UNL     1     -10.739   9.622  23.702  1.00  0.00     0.172 C 
BRANCH  37  38
HETATM   38  O7  UNL     1     -10.657   9.851  25.107  1.00  0.00    -0.400 OA
HETATM   39  H52 UNL     1     -11.359   9.332  25.539  1.00  0.00     0.209 HD
ENDBRANCH  37  38
ENDBRANCH  36  37
ENDBRANCH  30  31
BRANCH  30  40
HETATM   40  O2  UNL     1     -13.285  12.254  26.015  1.00  0.00    -0.390 OA
HETATM   41  H9  UNL     1     -12.415  12.678  26.163  1.00  0.00     0.210 HD
ENDBRANCH  30  40
ENDBRANCH  28  30
BRANCH  28  42
HETATM   42  O3  UNL     1     -14.218  10.388  23.139  1.00  0.00    -0.387 OA
HETATM   43  H13 UNL     1     -13.357   9.921  23.101  1.00  0.00     0.210 HD
ENDBRANCH  28  42
ENDBRANCH   1  28
BRANCH   9  44
HETATM   44  C16 UNL     1     -13.979   2.641  30.654  1.00  0.00    -0.040 A 
HETATM   45  C17 UNL     1     -15.250   2.438  31.206  1.00  0.00     0.008 A 
HETATM   46  C18 UNL     1     -15.420   2.310  32.586  1.00  0.00     0.001 A 
HETATM   47  C19 UNL     1     -14.321   2.410  33.439  1.00  0.00     0.000 A 
HETATM   48  C20 UNL     1     -13.051   2.624  32.911  1.00  0.00     0.001 A 
HETATM   49  C21 UNL     1     -12.879   2.734  31.527  1.00  0.00     0.008 A 
ENDBRANCH   9  44
TORSDOF 8
ENDMDL
MODEL 8
REMARK minimizedAffinity -7.52284193
REMARK CNNscore 0.389227092
REMARK CNNaffinity 6.78674459
REMARK  8 active torsions:
REMARK  status: ('A' for Active; 'I' for Inactive)
REMARK    1  A    between atoms: C4_5  and  C5_6 
REMARK    2  A    between atoms: C5_6  and  O2_7 
REMARK    3  A    between atoms: C5_6  and  C6_8 
REMARK    4  A    between atoms: C6_8  and  O3_10 
REMARK    5  A    between atoms: C6_8  and  C8_11 
REMARK    6  A    between atoms: C15_19  and  C16_20 
REMARK    7  A    between atoms: C38_44  and  C39_45 
REMARK    8  A    between atoms: C39_45  and  O7_46 
ROOT
HETATM    1  C8  UNL     1       0.091  15.386   4.415  1.00  0.00     0.034 C 
HETATM    2  C9  UNL     1       0.550  16.795   4.871  1.00  0.00     0.012 C 
HETATM    3  C10 UNL     1      -0.460  17.808   4.308  1.00  0.00     0.044 C 
HETATM    4  C11 UNL     1      -1.716  16.973   3.984  1.00  0.00     0.093 C 
HETATM    5  O4  UNL     1      -2.380  16.589   5.212  1.00  0.00    -0.363 OA
HETATM    6  C12 UNL     1      -2.806  17.651   6.075  1.00  0.00     0.263 C 
HETATM    7  C13 UNL     1      -4.254  17.580   6.328  1.00  0.00    -0.080 C 
HETATM    8  C14 UNL     1      -5.441  17.591   6.511  1.00  0.00    -0.093 C 
HETATM    9  C15 UNL     1      -6.920  17.597   6.653  1.00  0.00     0.121 C 
HETATM   10  C22 UNL     1      -7.581  18.495   5.569  1.00  0.00     0.190 C 
HETATM   11  O5  UNL     1      -7.877  17.797   4.344  1.00  0.00    -0.384 OA
HETATM   12  C23 UNL     1      -6.750  17.533   3.511  1.00  0.00     0.122 C 
HETATM   13  C24 UNL     1      -7.056  16.297   2.667  1.00  0.00     0.033 C 
HETATM   14  C25 UNL     1      -6.137  16.110   1.456  1.00  0.00     0.013 C 
HETATM   15  C26 UNL     1      -4.828  16.942   1.486  1.00  0.00    -0.026 C 
HETATM   16  C27 UNL     1      -4.178  16.813   0.081  1.00  0.00     0.016 C 
HETATM   17  C28 UNL     1      -5.230  18.436   1.663  1.00  0.00     0.071 C 
HETATM   18  C29 UNL     1      -6.377  18.730   2.649  1.00  0.00     0.045 C 
HETATM   19  C30 UNL     1      -4.039  19.320   1.958  1.00  0.00     0.154 C 
HETATM   20  O6  UNL     1      -4.007  20.497   1.610  1.00  0.00    -0.293 OA
HETATM   21  C31 UNL     1      -2.892  18.781   2.714  1.00  0.00     0.057 C 
HETATM   22  C32 UNL     1      -2.808  17.485   3.055  1.00  0.00    -0.036 C 
HETATM   23  C33 UNL     1      -3.840  16.432   2.619  1.00  0.00     0.026 C 
HETATM   24  C34 UNL     1      -3.225  15.039   2.288  1.00  0.00     0.011 C 
HETATM   25  C35 UNL     1      -2.097  14.595   3.226  1.00  0.00     0.014 C 
HETATM   26  C36 UNL     1      -1.031  15.700   3.356  1.00  0.00    -0.002 C 
HETATM   27  C37 UNL     1      -0.429  15.993   1.951  1.00  0.00     0.019 C 
ENDROOT
BRANCH   1  28
HETATM   28  C6  UNL     1       1.239  14.360   4.094  1.00  0.00     0.087 C 
HETATM   29  C7  UNL     1       0.855  13.217   3.150  1.00  0.00     0.049 C 
BRANCH  28  30
HETATM   30  C5  UNL     1       2.588  15.027   3.629  1.00  0.00     0.181 C 
BRANCH  30  31
HETATM   31  C4  UNL     1       2.837  15.256   2.129  1.00  0.00     0.159 C 
HETATM   32  O1  UNL     1       3.300  16.624   1.944  1.00  0.00    -0.382 OA
HETATM   33  C3  UNL     1       3.757  16.709   0.582  1.00  0.00     0.173 C 
HETATM   34  C2  UNL     1       4.125  15.293   0.135  1.00  0.00     0.014 C 
HETATM   35  C1  UNL     1       3.270  14.820  -1.047  1.00  0.00     0.012 C 
HETATM   36  C38 UNL     1       3.908  14.445   1.402  1.00  0.00     0.046 C 
BRANCH  36  37
HETATM   37  C39 UNL     1       5.230  14.337   2.166  1.00  0.00     0.172 C 
BRANCH  37  38
HETATM   38  O7  UNL     1       5.927  13.180   1.710  1.00  0.00    -0.400 OA
HETATM   39  H52 UNL     1       6.672  13.475   1.156  1.00  0.00     0.209 HD
ENDBRANCH  37  38
ENDBRANCH  36  37
ENDBRANCH  30  31
BRANCH  30  40
HETATM   40  O2  UNL     1       2.701  16.309   4.292  1.00  0.00    -0.390 OA
HETATM   41  H9  UNL     1       3.457  16.751   3.853  1.00  0.00     0.210 HD
ENDBRANCH  30  40
ENDBRANCH  28  30
BRANCH  28  42
HETATM   42  O3  UNL     1       1.575  13.722   5.346  1.00  0.00    -0.387 OA
HETATM   43  H13 UNL     1       2.095  14.391   5.837  1.00  0.00     0.210 HD
ENDBRANCH  28  42
ENDBRANCH   1  28
BRANCH   9  44
HETATM   44  C16 UNL     1      -7.300  18.009   8.068  1.00  0.00    -0.040 A 
HETATM   45  C17 UNL     1      -8.634  18.072   8.490  1.00  0.00     0.008 A 
HETATM   46  C18 UNL     1      -8.956  18.471   9.790  1.00  0.00     0.001 A 
HETATM   47  C19 UNL     1      -7.948  18.838  10.680  1.00  0.00     0.000 A 
HETATM   48  C20 UNL     1      -6.616  18.792  10.276  1.00  0.00     0.001 A 
HETATM   49  C21 UNL     1      -6.293  18.377   8.980  1.00  0.00     0.008 A 
ENDBRANCH   9  44
TORSDOF 8
ENDMDL
MODEL 9
REMARK minimizedAffinity -10.1288481
REMARK CNNscore 0.372032493
REMARK CNNaffinity 6.74121046
REMARK  8 active torsions:
REMARK  status: ('A' for Active; 'I' for Inactive)
REMARK    1  A    between atoms: C4_5  and  C5_6 
REMARK    2  A    between atoms: C5_6  and  O2_7 
REMARK    3  A    between atoms: C5_6  and  C6_8 
REMARK    4  A    between atoms: C6_8  and  O3_10 
REMARK    5  A    between atoms: C6_8  and  C8_11 
REMARK    6  A    between atoms: C15_19  and  C16_20 
REMARK    7  A    between atoms: C38_44  and  C39_45 
REMARK    8  A    between atoms: C39_45  and  O7_46 
ROOT
HETATM    1  C8  UNL     1       0.971   7.344  13.490  1.00  0.00     0.034 C 
HETATM    2  C9  UNL     1       2.247   8.140  13.110  1.00  0.00     0.012 C 
HETATM    3  C10 UNL     1       2.021   9.596  13.546  1.00  0.00     0.044 C 
HETATM    4  C11 UNL     1       0.885   9.524  14.589  1.00  0.00     0.093 C 
HETATM    5  O4  UNL     1       1.386   8.951  15.821  1.00  0.00    -0.363 OA
HETATM    6  C12 UNL     1       2.477   9.632  16.452  1.00  0.00     0.263 C 
HETATM    7  C13 UNL     1       2.134  10.023  17.828  1.00  0.00    -0.080 C 
HETATM    8  C14 UNL     1       1.870  10.411  18.935  1.00  0.00    -0.093 C 
HETATM    9  C15 UNL     1       1.473  10.924  20.271  1.00  0.00     0.121 C 
HETATM   10  C22 UNL     1       0.907  12.368  20.168  1.00  0.00     0.190 C 
HETATM   11  O5  UNL     1      -0.512  12.415  19.923  1.00  0.00    -0.384 OA
HETATM   12  C23 UNL     1      -0.904  12.112  18.586  1.00  0.00     0.122 C 
HETATM   13  C24 UNL     1      -2.329  11.561  18.617  1.00  0.00     0.033 C 
HETATM   14  C25 UNL     1      -3.039  11.559  17.261  1.00  0.00     0.013 C 
HETATM   15  C26 UNL     1      -2.112  11.731  16.028  1.00  0.00    -0.026 C 
HETATM   16  C27 UNL     1      -3.033  11.960  14.798  1.00  0.00     0.016 C 
HETATM   17  C28 UNL     1      -1.300  13.044  16.237  1.00  0.00     0.071 C 
HETATM   18  C29 UNL     1      -0.781  13.315  17.662  1.00  0.00     0.045 C 
HETATM   19  C30 UNL     1      -0.183  13.193  15.229  1.00  0.00     0.154 C 
HETATM   20  O6  UNL     1       0.204  14.297  14.854  1.00  0.00    -0.293 OA
HETATM   21  C31 UNL     1       0.496  11.994  14.700  1.00  0.00     0.057 C 
HETATM   22  C32 UNL     1       0.078  10.752  14.990  1.00  0.00    -0.036 C 
HETATM   23  C33 UNL     1      -1.185  10.460  15.816  1.00  0.00     0.026 C 
HETATM   24  C34 UNL     1      -1.985   9.213  15.335  1.00  0.00     0.011 C 
HETATM   25  C35 UNL     1      -1.122   8.024  14.897  1.00  0.00     0.014 C 
HETATM   26  C36 UNL     1      -0.053   8.473  13.882  1.00  0.00    -0.002 C 
HETATM   27  C37 UNL     1      -0.760   9.069  12.629  1.00  0.00     0.019 C 
ENDROOT
BRANCH   1  28
HETATM   28  C6  UNL     1       0.562   6.191  12.501  1.00  0.00     0.087 C 
HETATM   29  C7  UNL     1      -0.775   6.387  11.779  1.00  0.00     0.049 C 
BRANCH  28  30
HETATM   30  C5  UNL     1       1.688   5.792  11.475  1.00  0.00     0.181 C 
BRANCH  30  31
HETATM   31  C4  UNL     1       1.642   6.363  10.047  1.00  0.00     0.159 C 
HETATM   32  O1  UNL     1       1.217   7.754  10.122  1.00  0.00    -0.382 OA
HETATM   33  C3  UNL     1       1.434   8.308   8.813  1.00  0.00     0.173 C 
HETATM   34  C2  UNL     1       2.513   7.464   8.133  1.00  0.00     0.014 C 
HETATM   35  C1  UNL     1       1.997   6.782   6.860  1.00  0.00     0.012 C 
HETATM   36  C38 UNL     1       2.924   6.455   9.222  1.00  0.00     0.046 C 
BRANCH  36  37
HETATM   37  C39 UNL     1       4.121   7.011   9.995  1.00  0.00     0.172 C 
BRANCH  37  38
HETATM   38  O7  UNL     1       5.060   5.958  10.202  1.00  0.00    -0.400 OA
HETATM   39  H52 UNL     1       5.817   6.107   9.608  1.00  0.00     0.209 HD
ENDBRANCH  37  38
ENDBRANCH  36  37
ENDBRANCH  30  31
BRANCH  30  40
HETATM   40  O2  UNL     1       2.964   6.158  12.051  1.00  0.00    -0.390 OA
HETATM   41  H9  UNL     1       3.608   6.046  11.322  1.00  0.00     0.210 HD
ENDBRANCH  30  40
ENDBRANCH  28  30
BRANCH  28  42
HETATM   42  O3  UNL     1       0.386   5.006  13.309  1.00  0.00    -0.387 OA
HETATM   43  H13 UNL     1       1.295   4.713  13.525  1.00  0.00     0.210 HD
ENDBRANCH  28  42
ENDBRANCH   1  28
BRANCH   9  44
HETATM   44  C16 UNL     1       2.648  10.820  21.233  1.00  0.00    -0.040 A 
HETATM   45  C17 UNL     1       3.029   9.604  21.812  1.00  0.00     0.008 A 
HETATM   46  C18 UNL     1       4.100   9.540  22.707  1.00  0.00     0.001 A 
HETATM   47  C19 UNL     1       4.791  10.700  23.056  1.00  0.00     0.000 A 
HETATM   48  C20 UNL     1       4.420  11.921  22.499  1.00  0.00     0.001 A 
HETATM   49  C21 UNL     1       3.359  11.982  21.591  1.00  0.00     0.008 A 
ENDBRANCH   9  44
TORSDOF 8
ENDMDL
