MODEL 1
REMARK minimizedAffinity -6.63238621
REMARK CNNscore 0.879142344
REMARK CNNaffinity 7.32355499
REMARK  9 active torsions:
REMARK  status: ('A' for Active; 'I' for Inactive)
REMARK    1  A    between atoms: C2_2  and  C30_33 
REMARK    2  A    between atoms: C3_3  and  C4_4 
REMARK    3  A    between atoms: C4_4  and  C5_5 
REMARK    4  A    between atoms: C5_5  and  C6_6 
REMARK    5  A    between atoms: C6_6  and  C8_8 
REMARK    6  A    between atoms: C10_10  and  O1_11 
REMARK    7  A    between atoms: C23_24  and  O2_25 
REMARK    8  A    between atoms: C29_31  and  O3_32 
REMARK    9  A    between atoms: C30_33  and  O4_34 
ROOT
HETATM    1  C8  UNL     1      -1.597  14.976   4.575  1.00  0.00     0.001 C 
HETATM    2  C9  UNL     1      -2.512  15.188   3.339  1.00  0.00     0.038 C 
HETATM    3  C10 UNL     1      -1.582  15.208   2.104  1.00  0.00     0.132 C 
HETATM    4  C11 UNL     1      -0.254  14.579   2.597  1.00  0.00     0.016 C 
HETATM    5  C12 UNL     1      -0.408  13.021   2.610  1.00  0.00     0.023 C 
HETATM    6  C13 UNL     1       1.034  14.859   1.825  1.00  0.00    -0.037 C 
HETATM    7  C14 UNL     1       2.223  14.810   2.484  1.00  0.00    -0.065 C 
HETATM    8  C15 UNL     1       2.296  14.568   3.999  1.00  0.00     0.036 C 
HETATM    9  C16 UNL     1       0.970  14.553   4.794  1.00  0.00     0.015 C 
HETATM   10  C17 UNL     1      -0.161  15.239   4.022  1.00  0.00    -0.026 C 
HETATM   11  C18 UNL     1       0.148  16.764   3.994  1.00  0.00     0.016 C 
HETATM   12  C19 UNL     1       3.573  15.060   1.750  1.00  0.00    -0.016 C 
HETATM   13  C20 UNL     1       3.924  16.533   2.041  1.00  0.00     0.020 C 
HETATM   14  C21 UNL     1       4.659  14.095   2.277  1.00  0.00     0.016 C 
HETATM   15  C22 UNL     1       6.000  14.090   1.545  1.00  0.00     0.033 C 
HETATM   16  C23 UNL     1       6.050  14.785   0.187  1.00  0.00     0.126 C 
HETATM   17  C24 UNL     1       4.731  14.787  -0.643  1.00  0.00    -0.017 C 
HETATM   18  C25 UNL     1       4.736  13.487  -1.501  1.00  0.00     0.018 C 
HETATM   19  C26 UNL     1       4.763  15.967  -1.646  1.00  0.00     0.018 C 
HETATM   20  C27 UNL     1       3.410  14.745   0.230  1.00  0.00     0.011 C 
HETATM   21  C28 UNL     1       2.225  15.541  -0.350  1.00  0.00     0.043 C 
HETATM   22  C29 UNL     1       0.909  15.177   0.350  1.00  0.00     0.148 C 
ENDROOT
BRANCH   1  23
HETATM   23  C6  UNL     1      -2.018  15.665   5.904  1.00  0.00    -0.013 C 
HETATM   24  C7  UNL     1      -3.082  16.735   5.598  1.00  0.00     0.010 C 
BRANCH  23  25
HETATM   25  C5  UNL     1      -0.874  16.313   6.716  1.00  0.00     0.008 C 
BRANCH  25  26
HETATM   26  C4  UNL     1      -1.219  17.727   7.201  1.00  0.00     0.028 C 
BRANCH  26  27
HETATM   27  C3  UNL     1      -1.242  17.802   8.702  1.00  0.00    -0.022 C 
HETATM   28  C2  UNL     1      -2.300  18.064   9.499  1.00  0.00    -0.064 C 
HETATM   29  C1  UNL     1      -3.673  18.407   8.981  1.00  0.00     0.045 C 
BRANCH  28  30
HETATM   30  C30 UNL     1      -2.212  18.083  11.013  1.00  0.00     0.197 C 
BRANCH  30  31
HETATM   31  O4  UNL     1      -1.606  16.908  11.534  1.00  0.00    -0.397 OA
HETATM   32  H50 UNL     1      -2.147  16.165  11.225  1.00  0.00     0.209 HD
ENDBRANCH  30  31
ENDBRANCH  28  30
ENDBRANCH  26  27
ENDBRANCH  25  26
ENDBRANCH  23  25
ENDBRANCH   1  23
BRANCH   3  33
HETATM   33  O1  UNL     1      -2.152  14.499   1.009  1.00  0.00    -0.394 OA
HETATM   34  H17 UNL     1      -3.048  14.869   0.862  1.00  0.00     0.210 HD
ENDBRANCH   3  33
BRANCH  22  35
HETATM   35  O3  UNL     1       0.374  14.043  -0.318  1.00  0.00    -0.391 OA
HETATM   36  H47 UNL     1      -0.573  13.995  -0.085  1.00  0.00     0.210 HD
ENDBRANCH  22  35
BRANCH  16  37
HETATM   37  O2  UNL     1       6.524  16.122   0.387  1.00  0.00    -0.395 OA
HETATM   38  H36 UNL     1       7.416  16.069   0.774  1.00  0.00     0.210 HD
ENDBRANCH  16  37
TORSDOF 9
ENDMDL
MODEL 2
REMARK minimizedAffinity -9.33848572
REMARK CNNscore 0.622444332
REMARK CNNaffinity 7.03219366
REMARK  9 active torsions:
REMARK  status: ('A' for Active; 'I' for Inactive)
REMARK    1  A    between atoms: C2_2  and  C30_33 
REMARK    2  A    between atoms: C3_3  and  C4_4 
REMARK    3  A    between atoms: C4_4  and  C5_5 
REMARK    4  A    between atoms: C5_5  and  C6_6 
REMARK    5  A    between atoms: C6_6  and  C8_8 
REMARK    6  A    between atoms: C10_10  and  O1_11 
REMARK    7  A    between atoms: C23_24  and  O2_25 
REMARK    8  A    between atoms: C29_31  and  O3_32 
REMARK    9  A    between atoms: C30_33  and  O4_34 
ROOT
HETATM    1  C8  UNL     1      -2.711   8.316  15.282  1.00  0.00     0.001 C 
HETATM    2  C9  UNL     1      -1.709   8.140  16.454  1.00  0.00     0.038 C 
HETATM    3  C10 UNL     1      -0.314   7.947  15.814  1.00  0.00     0.132 C 
HETATM    4  C11 UNL     1      -0.475   8.448  14.356  1.00  0.00     0.016 C 
HETATM    5  C12 UNL     1      -0.398  10.012  14.348  1.00  0.00     0.023 C 
HETATM    6  C13 UNL     1       0.520   7.981  13.295  1.00  0.00    -0.037 C 
HETATM    7  C14 UNL     1       0.124   7.932  11.994  1.00  0.00    -0.065 C 
HETATM    8  C15 UNL     1      -1.321   8.247  11.578  1.00  0.00     0.036 C 
HETATM    9  C16 UNL     1      -2.366   8.456  12.697  1.00  0.00     0.015 C 
HETATM   10  C17 UNL     1      -1.898   7.861  14.029  1.00  0.00    -0.026 C 
HETATM   11  C18 UNL     1      -1.926   6.311  13.886  1.00  0.00     0.016 C 
HETATM   12  C19 UNL     1       1.097   7.490  10.862  1.00  0.00    -0.016 C 
HETATM   13  C20 UNL     1       0.770   6.005  10.605  1.00  0.00     0.020 C 
HETATM   14  C21 UNL     1       0.880   8.354   9.599  1.00  0.00     0.016 C 
HETATM   15  C22 UNL     1       1.869   8.166   8.449  1.00  0.00     0.033 C 
HETATM   16  C23 UNL     1       3.150   7.396   8.758  1.00  0.00     0.126 C 
HETATM   17  C24 UNL     1       3.690   7.498  10.216  1.00  0.00    -0.017 C 
HETATM   18  C25 UNL     1       4.629   8.739  10.263  1.00  0.00     0.018 C 
HETATM   19  C26 UNL     1       4.583   6.268  10.514  1.00  0.00     0.018 C 
HETATM   20  C27 UNL     1       2.572   7.736  11.311  1.00  0.00     0.011 C 
HETATM   21  C28 UNL     1       2.833   7.049  12.665  1.00  0.00     0.043 C 
HETATM   22  C29 UNL     1       1.909   7.598  13.760  1.00  0.00     0.148 C 
ENDROOT
BRANCH   1  23
HETATM   23  C6  UNL     1      -4.148   7.753  15.478  1.00  0.00    -0.013 C 
HETATM   24  C7  UNL     1      -4.067   6.227  15.664  1.00  0.00     0.010 C 
BRANCH  23  25
HETATM   25  C5  UNL     1      -5.151   8.067  14.346  1.00  0.00     0.008 C 
BRANCH  25  26
HETATM   26  C4  UNL     1      -5.264   6.931  13.321  1.00  0.00     0.028 C 
BRANCH  26  27
HETATM   27  C3  UNL     1      -6.669   6.407  13.233  1.00  0.00    -0.022 C 
HETATM   28  C2  UNL     1      -7.065   5.148  12.946  1.00  0.00    -0.064 C 
HETATM   29  C1  UNL     1      -6.115   4.036  12.585  1.00  0.00     0.045 C 
BRANCH  28  30
HETATM   30  C30 UNL     1      -8.521   4.724  12.916  1.00  0.00     0.197 C 
BRANCH  30  31
HETATM   31  O4  UNL     1      -8.694   3.359  13.271  1.00  0.00    -0.397 OA
HETATM   32  H50 UNL     1      -8.167   2.846  12.639  1.00  0.00     0.209 HD
ENDBRANCH  30  31
ENDBRANCH  28  30
ENDBRANCH  26  27
ENDBRANCH  25  26
ENDBRANCH  23  25
ENDBRANCH   1  23
BRANCH   3  33
HETATM   33  O1  UNL     1       0.692   8.653  16.529  1.00  0.00    -0.394 OA
HETATM   34  H17 UNL     1       0.624   8.380  17.468  1.00  0.00     0.210 HD
ENDBRANCH   3  33
BRANCH  22  35
HETATM   35  O3  UNL     1       2.540   8.747  14.309  1.00  0.00    -0.391 OA
HETATM   36  H47 UNL     1       2.122   8.914  15.176  1.00  0.00     0.210 HD
ENDBRANCH  22  35
BRANCH  16  37
HETATM   37  O2  UNL     1       2.948   6.027   8.386  1.00  0.00    -0.395 OA
HETATM   38  H36 UNL     1       2.757   6.000   7.432  1.00  0.00     0.210 HD
ENDBRANCH  16  37
TORSDOF 9
ENDMDL
MODEL 3
REMARK minimizedAffinity -8.23244286
REMARK CNNscore 0.550330758
REMARK CNNaffinity 6.83606911
REMARK  9 active torsions:
REMARK  status: ('A' for Active; 'I' for Inactive)
REMARK    1  A    between atoms: C2_2  and  C30_33 
REMARK    2  A    between atoms: C3_3  and  C4_4 
REMARK    3  A    between atoms: C4_4  and  C5_5 
REMARK    4  A    between atoms: C5_5  and  C6_6 
REMARK    5  A    between atoms: C6_6  and  C8_8 
REMARK    6  A    between atoms: C10_10  and  O1_11 
REMARK    7  A    between atoms: C23_24  and  O2_25 
REMARK    8  A    between atoms: C29_31  and  O3_32 
REMARK    9  A    between atoms: C30_33  and  O4_34 
ROOT
HETATM    1  C8  UNL     1      -2.072   5.983  12.812  1.00  0.00     0.001 C 
HETATM    2  C9  UNL     1      -3.014   5.259  13.810  1.00  0.00     0.038 C 
HETATM    3  C10 UNL     1      -3.464   6.324  14.838  1.00  0.00     0.132 C 
HETATM    4  C11 UNL     1      -3.141   7.684  14.168  1.00  0.00     0.016 C 
HETATM    5  C12 UNL     1      -4.272   8.020  13.139  1.00  0.00     0.023 C 
HETATM    6  C13 UNL     1      -2.995   8.928  15.042  1.00  0.00    -0.037 C 
HETATM    7  C14 UNL     1      -2.210   9.951  14.609  1.00  0.00    -0.065 C 
HETATM    8  C15 UNL     1      -1.398   9.850  13.308  1.00  0.00     0.036 C 
HETATM    9  C16 UNL     1      -1.357   8.484  12.586  1.00  0.00     0.015 C 
HETATM   10  C17 UNL     1      -1.750   7.336  13.521  1.00  0.00    -0.026 C 
HETATM   11  C18 UNL     1      -0.598   7.157  14.552  1.00  0.00     0.016 C 
HETATM   12  C19 UNL     1      -2.040  11.257  15.439  1.00  0.00    -0.016 C 
HETATM   13  C20 UNL     1      -0.709  11.082  16.199  1.00  0.00     0.020 C 
HETATM   14  C21 UNL     1      -2.012  12.488  14.507  1.00  0.00     0.016 C 
HETATM   15  C22 UNL     1      -2.022  13.864  15.170  1.00  0.00     0.033 C 
HETATM   16  C23 UNL     1      -2.376  13.914  16.654  1.00  0.00     0.126 C 
HETATM   17  C24 UNL     1      -3.347  12.812  17.176  1.00  0.00    -0.017 C 
HETATM   18  C25 UNL     1      -4.793  13.359  16.987  1.00  0.00     0.018 C 
HETATM   19  C26 UNL     1      -3.145  12.638  18.701  1.00  0.00     0.018 C 
HETATM   20  C27 UNL     1      -3.274  11.447  16.377  1.00  0.00     0.011 C 
HETATM   21  C28 UNL     1      -3.487  10.183  17.232  1.00  0.00     0.043 C 
HETATM   22  C29 UNL     1      -3.746   8.951  16.356  1.00  0.00     0.148 C 
ENDROOT
BRANCH   1  23
HETATM   23  C6  UNL     1      -0.896   5.160  12.212  1.00  0.00    -0.013 C 
HETATM   24  C7  UNL     1       0.248   5.099  13.242  1.00  0.00     0.010 C 
BRANCH  23  25
HETATM   25  C5  UNL     1      -0.332   5.676  10.869  1.00  0.00     0.008 C 
BRANCH  25  26
HETATM   26  C4  UNL     1       0.996   6.426  11.031  1.00  0.00     0.028 C 
BRANCH  26  27
HETATM   27  C3  UNL     1       1.639   6.699   9.701  1.00  0.00    -0.022 C 
HETATM   28  C2  UNL     1       1.264   7.607   8.774  1.00  0.00    -0.064 C 
HETATM   29  C1  UNL     1       0.044   8.482   8.906  1.00  0.00     0.045 C 
BRANCH  28  30
HETATM   30  C30 UNL     1       2.012   7.818   7.472  1.00  0.00     0.197 C 
BRANCH  30  31
HETATM   31  O4  UNL     1       3.004   8.830   7.576  1.00  0.00    -0.397 OA
HETATM   32  H50 UNL     1       2.540   9.637   7.847  1.00  0.00     0.209 HD
ENDBRANCH  30  31
ENDBRANCH  28  30
ENDBRANCH  26  27
ENDBRANCH  25  26
ENDBRANCH  23  25
ENDBRANCH   1  23
BRANCH   3  33
HETATM   33  O1  UNL     1      -4.842   6.186  15.164  1.00  0.00    -0.394 OA
HETATM   34  H17 UNL     1      -4.982   5.256  15.440  1.00  0.00     0.210 HD
ENDBRANCH   3  33
BRANCH  22  35
HETATM   35  O3  UNL     1      -5.140   8.908  16.087  1.00  0.00    -0.391 OA
HETATM   36  H47 UNL     1      -5.348   7.998  15.800  1.00  0.00     0.210 HD
ENDBRANCH  22  35
BRANCH  16  37
HETATM   37  O2  UNL     1      -1.156  13.912  17.405  1.00  0.00    -0.395 OA
HETATM   38  H36 UNL     1      -0.647  14.702  17.151  1.00  0.00     0.210 HD
ENDBRANCH  16  37
TORSDOF 9
ENDMDL
MODEL 4
REMARK minimizedAffinity -6.56364822
REMARK CNNscore 0.546884477
REMARK CNNaffinity 6.69805002
REMARK  9 active torsions:
REMARK  status: ('A' for Active; 'I' for Inactive)
REMARK    1  A    between atoms: C2_2  and  C30_33 
REMARK    2  A    between atoms: C3_3  and  C4_4 
REMARK    3  A    between atoms: C4_4  and  C5_5 
REMARK    4  A    between atoms: C5_5  and  C6_6 
REMARK    5  A    between atoms: C6_6  and  C8_8 
REMARK    6  A    between atoms: C10_10  and  O1_11 
REMARK    7  A    between atoms: C23_24  and  O2_25 
REMARK    8  A    between atoms: C29_31  and  O3_32 
REMARK    9  A    between atoms: C30_33  and  O4_34 
ROOT
HETATM    1  C8  UNL     1      -7.343 -10.709   3.039  1.00  0.00     0.001 C 
HETATM    2  C9  UNL     1      -5.812 -10.457   3.023  1.00  0.00     0.038 C 
HETATM    3  C10 UNL     1      -5.380 -10.289   4.498  1.00  0.00     0.132 C 
HETATM    4  C11 UNL     1      -6.554 -10.875   5.324  1.00  0.00     0.016 C 
HETATM    5  C12 UNL     1      -6.430 -12.436   5.337  1.00  0.00     0.023 C 
HETATM    6  C13 UNL     1      -6.714 -10.463   6.786  1.00  0.00    -0.037 C 
HETATM    7  C14 UNL     1      -7.952 -10.493   7.349  1.00  0.00    -0.065 C 
HETATM    8  C15 UNL     1      -9.202 -10.845   6.528  1.00  0.00     0.036 C 
HETATM    9  C16 UNL     1      -9.044 -10.997   4.999  1.00  0.00     0.015 C 
HETATM   10  C17 UNL     1      -7.767 -10.321   4.490  1.00  0.00    -0.026 C 
HETATM   11  C18 UNL     1      -7.970  -8.783   4.613  1.00  0.00     0.016 C 
HETATM   12  C19 UNL     1      -8.179 -10.110   8.840  1.00  0.00    -0.016 C 
HETATM   13  C20 UNL     1      -8.661  -8.644   8.812  1.00  0.00     0.020 C 
HETATM   14  C21 UNL     1      -9.226 -11.047   9.484  1.00  0.00     0.016 C 
HETATM   15  C22 UNL     1      -9.443 -10.918  10.990  1.00  0.00     0.033 C 
HETATM   16  C23 UNL     1      -8.403 -10.120  11.773  1.00  0.00     0.126 C 
HETATM   17  C24 UNL     1      -6.949 -10.132  11.213  1.00  0.00    -0.017 C 
HETATM   18  C25 UNL     1      -6.232 -11.360  11.847  1.00  0.00     0.018 C 
HETATM   19  C26 UNL     1      -6.197  -8.879  11.726  1.00  0.00     0.018 C 
HETATM   20  C27 UNL     1      -6.856 -10.316   9.643  1.00  0.00     0.011 C 
HETATM   21  C28 UNL     1      -5.703  -9.549   8.968  1.00  0.00     0.043 C 
HETATM   22  C29 UNL     1      -5.467 -10.042   7.534  1.00  0.00     0.148 C 
ENDROOT
BRANCH   1  23
HETATM   23  C6  UNL     1      -8.174 -10.149   1.848  1.00  0.00    -0.013 C 
HETATM   24  C7  UNL     1      -8.982 -11.298   1.219  1.00  0.00     0.010 C 
BRANCH  23  25
HETATM   25  C5  UNL     1      -7.364  -9.440   0.740  1.00  0.00     0.008 C 
BRANCH  25  26
HETATM   26  C4  UNL     1      -7.914  -9.716  -0.666  1.00  0.00     0.028 C 
BRANCH  26  27
HETATM   27  C3  UNL     1      -8.486  -8.472  -1.286  1.00  0.00    -0.022 C 
HETATM   28  C2  UNL     1      -8.246  -7.980  -2.520  1.00  0.00    -0.064 C 
HETATM   29  C1  UNL     1      -7.269  -8.594  -3.490  1.00  0.00     0.045 C 
BRANCH  28  30
HETATM   30  C30 UNL     1      -8.908  -6.725  -3.054  1.00  0.00     0.197 C 
BRANCH  30  31
HETATM   31  O4  UNL     1      -7.965  -5.787  -3.555  1.00  0.00    -0.397 OA
HETATM   32  H50 UNL     1      -7.370  -5.582  -2.817  1.00  0.00     0.209 HD
ENDBRANCH  30  31
ENDBRANCH  28  30
ENDBRANCH  26  27
ENDBRANCH  25  26
ENDBRANCH  23  25
ENDBRANCH   1  23
BRANCH   3  33
HETATM   33  O1  UNL     1      -4.144 -10.944   4.759  1.00  0.00    -0.394 OA
HETATM   34  H17 UNL     1      -3.499 -10.617   4.097  1.00  0.00     0.210 HD
ENDBRANCH   3  33
BRANCH  22  35
HETATM   35  O3  UNL     1      -4.581 -11.150   7.608  1.00  0.00    -0.391 OA
HETATM   36  H47 UNL     1      -4.200 -11.271   6.717  1.00  0.00     0.210 HD
ENDBRANCH  22  35
BRANCH  16  37
HETATM   37  O2  UNL     1      -8.883  -8.777  11.910  1.00  0.00    -0.395 OA
HETATM   38  H36 UNL     1      -9.725  -8.807  12.397  1.00  0.00     0.210 HD
ENDBRANCH  16  37
TORSDOF 9
ENDMDL
MODEL 5
REMARK minimizedAffinity -7.88776112
REMARK CNNscore 0.489557713
REMARK CNNaffinity 6.47969675
REMARK  9 active torsions:
REMARK  status: ('A' for Active; 'I' for Inactive)
REMARK    1  A    between atoms: C2_2  and  C30_33 
REMARK    2  A    between atoms: C3_3  and  C4_4 
REMARK    3  A    between atoms: C4_4  and  C5_5 
REMARK    4  A    between atoms: C5_5  and  C6_6 
REMARK    5  A    between atoms: C6_6  and  C8_8 
REMARK    6  A    between atoms: C10_10  and  O1_11 
REMARK    7  A    between atoms: C23_24  and  O2_25 
REMARK    8  A    between atoms: C29_31  and  O3_32 
REMARK    9  A    between atoms: C30_33  and  O4_34 
ROOT
HETATM    1  C8  UNL     1       6.089  11.225  15.235  1.00  0.00     0.001 C 
HETATM    2  C9  UNL     1       7.394  11.097  14.406  1.00  0.00     0.038 C 
HETATM    3  C10 UNL     1       7.015  10.350  13.105  1.00  0.00     0.132 C 
HETATM    4  C11 UNL     1       5.472  10.461  13.020  1.00  0.00     0.016 C 
HETATM    5  C12 UNL     1       5.099  11.876  12.462  1.00  0.00     0.023 C 
HETATM    6  C13 UNL     1       4.700   9.463  12.159  1.00  0.00    -0.037 C 
HETATM    7  C14 UNL     1       3.408   9.177  12.475  1.00  0.00    -0.065 C 
HETATM    8  C15 UNL     1       2.736   9.765  13.725  1.00  0.00     0.036 C 
HETATM    9  C16 UNL     1       3.618  10.556  14.717  1.00  0.00     0.015 C 
HETATM   10  C17 UNL     1       5.105  10.237  14.532  1.00  0.00    -0.026 C 
HETATM   11  C18 UNL     1       5.337   8.780  15.031  1.00  0.00     0.016 C 
HETATM   12  C19 UNL     1       2.559   8.188  11.624  1.00  0.00    -0.016 C 
HETATM   13  C20 UNL     1       2.626   6.845  12.380  1.00  0.00     0.020 C 
HETATM   14  C21 UNL     1       1.108   8.702  11.490  1.00  0.00     0.016 C 
HETATM   15  C22 UNL     1       0.184   7.938  10.544  1.00  0.00     0.033 C 
HETATM   16  C23 UNL     1       0.840   6.949   9.584  1.00  0.00     0.126 C 
HETATM   17  C24 UNL     1       2.291   7.284   9.123  1.00  0.00    -0.017 C 
HETATM   18  C25 UNL     1       2.165   8.173   7.850  1.00  0.00     0.018 C 
HETATM   19  C26 UNL     1       2.995   5.980   8.673  1.00  0.00     0.018 C 
HETATM   20  C27 UNL     1       3.133   8.118  10.174  1.00  0.00     0.011 C 
HETATM   21  C28 UNL     1       4.635   7.778  10.215  1.00  0.00     0.043 C 
HETATM   22  C29 UNL     1       5.429   8.843  10.986  1.00  0.00     0.148 C 
ENDROOT
BRANCH   1  23
HETATM   23  C6  UNL     1       6.217  11.168  16.785  1.00  0.00    -0.013 C 
HETATM   24  C7  UNL     1       6.185  12.604  17.341  1.00  0.00     0.010 C 
BRANCH  23  25
HETATM   25  C5  UNL     1       7.470  10.447  17.329  1.00  0.00     0.008 C 
BRANCH  25  26
HETATM   26  C4  UNL     1       7.925  10.993  18.689  1.00  0.00     0.028 C 
BRANCH  26  27
HETATM   27  C3  UNL     1       9.423  11.023  18.795  1.00  0.00    -0.022 C 
HETATM   28  C2  UNL     1      10.170  11.529  19.801  1.00  0.00    -0.064 C 
HETATM   29  C1  UNL     1       9.590  12.236  20.998  1.00  0.00     0.045 C 
BRANCH  28  30
HETATM   30  C30 UNL     1      11.685  11.476  19.815  1.00  0.00     0.197 C 
BRANCH  30  31
HETATM   31  O4  UNL     1      12.192  10.322  19.157  1.00  0.00    -0.397 OA
HETATM   32  H50 UNL     1      11.811   9.559  19.618  1.00  0.00     0.209 HD
ENDBRANCH  30  31
ENDBRANCH  28  30
ENDBRANCH  26  27
ENDBRANCH  25  26
ENDBRANCH  23  25
ENDBRANCH   1  23
BRANCH   3  33
HETATM   33  O1  UNL     1       7.670  10.908  11.972  1.00  0.00    -0.394 OA
HETATM   34  H17 UNL     1       8.629  10.931  12.175  1.00  0.00     0.210 HD
ENDBRANCH   3  33
BRANCH  22  35
HETATM   35  O3  UNL     1       5.767   9.868  10.063  1.00  0.00    -0.391 OA
HETATM   36  H47 UNL     1       6.502  10.376  10.457  1.00  0.00     0.210 HD
ENDBRANCH  22  35
BRANCH  16  37
HETATM   37  O2  UNL     1       0.786   5.647  10.178  1.00  0.00    -0.395 OA
HETATM   38  H36 UNL     1      -0.151   5.418  10.313  1.00  0.00     0.210 HD
ENDBRANCH  16  37
TORSDOF 9
ENDMDL
MODEL 6
REMARK minimizedAffinity -6.88964081
REMARK CNNscore 0.472024053
REMARK CNNaffinity 6.41721916
REMARK  9 active torsions:
REMARK  status: ('A' for Active; 'I' for Inactive)
REMARK    1  A    between atoms: C2_2  and  C30_33 
REMARK    2  A    between atoms: C3_3  and  C4_4 
REMARK    3  A    between atoms: C4_4  and  C5_5 
REMARK    4  A    between atoms: C5_5  and  C6_6 
REMARK    5  A    between atoms: C6_6  and  C8_8 
REMARK    6  A    between atoms: C10_10  and  O1_11 
REMARK    7  A    between atoms: C23_24  and  O2_25 
REMARK    8  A    between atoms: C29_31  and  O3_32 
REMARK    9  A    between atoms: C30_33  and  O4_34 
ROOT
HETATM    1  C8  UNL     1       5.980  11.336  15.321  1.00  0.00     0.001 C 
HETATM    2  C9  UNL     1       7.311  11.206  14.533  1.00  0.00     0.038 C 
HETATM    3  C10 UNL     1       6.977  10.435  13.234  1.00  0.00     0.132 C 
HETATM    4  C11 UNL     1       5.436  10.532  13.101  1.00  0.00     0.016 C 
HETATM    5  C12 UNL     1       5.068  11.934  12.509  1.00  0.00     0.023 C 
HETATM    6  C13 UNL     1       4.698   9.513  12.234  1.00  0.00    -0.037 C 
HETATM    7  C14 UNL     1       3.400   9.222  12.516  1.00  0.00    -0.065 C 
HETATM    8  C15 UNL     1       2.686   9.823  13.736  1.00  0.00     0.036 C 
HETATM    9  C16 UNL     1       3.532  10.638  14.741  1.00  0.00     0.015 C 
HETATM   10  C17 UNL     1       5.026  10.328  14.606  1.00  0.00    -0.026 C 
HETATM   11  C18 UNL     1       5.255   8.882  15.135  1.00  0.00     0.016 C 
HETATM   12  C19 UNL     1       2.585   8.212  11.656  1.00  0.00    -0.016 C 
HETATM   13  C20 UNL     1       2.640   6.882  12.435  1.00  0.00     0.020 C 
HETATM   14  C21 UNL     1       1.134   8.711  11.471  1.00  0.00     0.016 C 
HETATM   15  C22 UNL     1       0.244   7.924  10.511  1.00  0.00     0.033 C 
HETATM   16  C23 UNL     1       0.937   6.926   9.587  1.00  0.00     0.126 C 
HETATM   17  C24 UNL     1       2.398   7.266   9.163  1.00  0.00    -0.017 C 
HETATM   18  C25 UNL     1       2.304   8.133   7.874  1.00  0.00     0.018 C 
HETATM   19  C26 UNL     1       3.126   5.961   8.756  1.00  0.00     0.018 C 
HETATM   20  C27 UNL     1       3.202   8.124  10.225  1.00  0.00     0.011 C 
HETATM   21  C28 UNL     1       4.705   7.798  10.317  1.00  0.00     0.043 C 
HETATM   22  C29 UNL     1       5.467   8.881  11.093  1.00  0.00     0.148 C 
ENDROOT
BRANCH   1  23
HETATM   23  C6  UNL     1       6.062  11.305  16.874  1.00  0.00    -0.013 C 
HETATM   24  C7  UNL     1       5.498  12.626  17.431  1.00  0.00     0.010 C 
BRANCH  23  25
HETATM   25  C5  UNL     1       7.470  11.072  17.468  1.00  0.00     0.008 C 
BRANCH  25  26
HETATM   26  C4  UNL     1       7.966  12.261  18.301  1.00  0.00     0.028 C 
BRANCH  26  27
HETATM   27  C3  UNL     1       8.231  11.861  19.725  1.00  0.00    -0.022 C 
HETATM   28  C2  UNL     1       8.890  12.563  20.672  1.00  0.00    -0.064 C 
HETATM   29  C1  UNL     1       9.554  13.892  20.416  1.00  0.00     0.045 C 
BRANCH  28  30
HETATM   30  C30 UNL     1       9.070  12.070  22.094  1.00  0.00     0.197 C 
BRANCH  30  31
HETATM   31  O4  UNL     1       8.508  12.958  23.051  1.00  0.00    -0.397 OA
HETATM   32  H50 UNL     1       8.948  13.812  22.918  1.00  0.00     0.209 HD
ENDBRANCH  30  31
ENDBRANCH  28  30
ENDBRANCH  26  27
ENDBRANCH  25  26
ENDBRANCH  23  25
ENDBRANCH   1  23
BRANCH   3  33
HETATM   33  O1  UNL     1       7.661  10.981  12.112  1.00  0.00    -0.394 OA
HETATM   34  H17 UNL     1       8.613  11.015  12.343  1.00  0.00     0.210 HD
ENDBRANCH   3  33
BRANCH  22  35
HETATM   35  O3  UNL     1       5.823   9.895  10.164  1.00  0.00    -0.391 OA
HETATM   36  H47 UNL     1       6.543  10.415  10.572  1.00  0.00     0.210 HD
ENDBRANCH  22  35
BRANCH  16  37
HETATM   37  O2  UNL     1       0.876   5.633  10.200  1.00  0.00    -0.395 OA
HETATM   38  H36 UNL     1      -0.062   5.398  10.311  1.00  0.00     0.210 HD
ENDBRANCH  16  37
TORSDOF 9
ENDMDL
MODEL 7
REMARK minimizedAffinity -6.7307086
REMARK CNNscore 0.453868896
REMARK CNNaffinity 6.69045687
REMARK  9 active torsions:
REMARK  status: ('A' for Active; 'I' for Inactive)
REMARK    1  A    between atoms: C2_2  and  C30_33 
REMARK    2  A    between atoms: C3_3  and  C4_4 
REMARK    3  A    between atoms: C4_4  and  C5_5 
REMARK    4  A    between atoms: C5_5  and  C6_6 
REMARK    5  A    between atoms: C6_6  and  C8_8 
REMARK    6  A    between atoms: C10_10  and  O1_11 
REMARK    7  A    between atoms: C23_24  and  O2_25 
REMARK    8  A    between atoms: C29_31  and  O3_32 
REMARK    9  A    between atoms: C30_33  and  O4_34 
ROOT
HETATM    1  C8  UNL     1      -8.731 -13.306  23.637  1.00  0.00     0.001 C 
HETATM    2  C9  UNL     1      -7.569 -14.062  24.336  1.00  0.00     0.038 C 
HETATM    3  C10 UNL     1      -8.104 -14.504  25.719  1.00  0.00     0.132 C 
HETATM    4  C11 UNL     1      -9.645 -14.388  25.603  1.00  0.00     0.016 C 
HETATM    5  C12 UNL     1     -10.190 -15.649  24.852  1.00  0.00     0.023 C 
HETATM    6  C13 UNL     1     -10.480 -14.275  26.877  1.00  0.00    -0.037 C 
HETATM    7  C14 UNL     1     -11.685 -13.644  26.824  1.00  0.00    -0.065 C 
HETATM    8  C15 UNL     1     -12.184 -12.967  25.538  1.00  0.00     0.036 C 
HETATM    9  C16 UNL     1     -11.206 -12.869  24.346  1.00  0.00     0.015 C 
HETATM   10  C17 UNL     1      -9.750 -13.046  24.791  1.00  0.00    -0.026 C 
HETATM   11  C18 UNL     1      -9.351 -11.780  25.604  1.00  0.00     0.016 C 
HETATM   12  C19 UNL     1     -12.595 -13.518  28.080  1.00  0.00    -0.016 C 
HETATM   13  C20 UNL     1     -12.325 -12.103  28.633  1.00  0.00     0.020 C 
HETATM   14  C21 UNL     1     -14.078 -13.709  27.691  1.00  0.00     0.016 C 
HETATM   15  C22 UNL     1     -15.093 -13.785  28.831  1.00  0.00     0.033 C 
HETATM   16  C23 UNL     1     -14.538 -13.985  30.239  1.00  0.00     0.126 C 
HETATM   17  C24 UNL     1     -13.203 -14.782  30.355  1.00  0.00    -0.017 C 
HETATM   18  C25 UNL     1     -13.586 -16.286  30.477  1.00  0.00     0.018 C 
HETATM   19  C26 UNL     1     -12.500 -14.404  31.682  1.00  0.00     0.018 C 
HETATM   20  C27 UNL     1     -12.258 -14.659  29.090  1.00  0.00     0.011 C 
HETATM   21  C28 UNL     1     -10.750 -14.655  29.407  1.00  0.00     0.043 C 
HETATM   22  C29 UNL     1      -9.911 -14.882  28.142  1.00  0.00     0.148 C 
ENDROOT
BRANCH   1  23
HETATM   23  C6  UNL     1      -8.354 -12.123  22.699  1.00  0.00    -0.013 C 
HETATM   24  C7  UNL     1      -7.113 -11.410  23.268  1.00  0.00     0.010 C 
BRANCH  23  25
HETATM   25  C5  UNL     1      -9.465 -11.078  22.458  1.00  0.00     0.008 C 
BRANCH  25  26
HETATM   26  C4  UNL     1      -9.824 -10.925  20.974  1.00  0.00     0.028 C 
BRANCH  26  27
HETATM   27  C3  UNL     1      -9.163  -9.718  20.370  1.00  0.00    -0.022 C 
HETATM   28  C2  UNL     1      -9.425  -9.145  19.176  1.00  0.00    -0.064 C 
HETATM   29  C1  UNL     1     -10.419  -9.693  18.185  1.00  0.00     0.045 C 
BRANCH  28  30
HETATM   30  C30 UNL     1      -8.711  -7.901  18.680  1.00  0.00     0.197 C 
BRANCH  30  31
HETATM   31  O4  UNL     1      -7.934  -7.282  19.697  1.00  0.00    -0.397 OA
HETATM   32  H50 UNL     1      -8.550  -7.069  20.416  1.00  0.00     0.209 HD
ENDBRANCH  30  31
ENDBRANCH  28  30
ENDBRANCH  26  27
ENDBRANCH  25  26
ENDBRANCH  23  25
ENDBRANCH   1  23
BRANCH   3  33
HETATM   33  O1  UNL     1      -7.675 -15.820  26.049  1.00  0.00    -0.394 OA
HETATM   34  H17 UNL     1      -6.699 -15.837  25.955  1.00  0.00     0.210 HD
ENDBRANCH   3  33
BRANCH  22  35
HETATM   35  O3  UNL     1      -9.790 -16.286  27.961  1.00  0.00    -0.391 OA
HETATM   36  H47 UNL     1      -9.035 -16.432  27.360  1.00  0.00     0.210 HD
ENDBRANCH  22  35
BRANCH  16  37
HETATM   37  O2  UNL     1     -14.415 -12.698  30.857  1.00  0.00    -0.395 OA
HETATM   38  H36 UNL     1     -15.302 -12.299  30.896  1.00  0.00     0.210 HD
ENDBRANCH  16  37
TORSDOF 9
ENDMDL
MODEL 8
REMARK minimizedAffinity -6.69178486
REMARK CNNscore 0.389884114
REMARK CNNaffinity 6.43832636
REMARK  9 active torsions:
REMARK  status: ('A' for Active; 'I' for Inactive)
REMARK    1  A    between atoms: C2_2  and  C30_33 
REMARK    2  A    between atoms: C3_3  and  C4_4 
REMARK    3  A    between atoms: C4_4  and  C5_5 
REMARK    4  A    between atoms: C5_5  and  C6_6 
REMARK    5  A    between atoms: C6_6  and  C8_8 
REMARK    6  A    between atoms: C10_10  and  O1_11 
REMARK    7  A    between atoms: C23_24  and  O2_25 
REMARK    8  A    between atoms: C29_31  and  O3_32 
REMARK    9  A    between atoms: C30_33  and  O4_34 
ROOT
HETATM    1  C8  UNL     1      -2.632   7.501  14.323  1.00  0.00     0.001 C 
HETATM    2  C9  UNL     1      -1.609   7.495  13.156  1.00  0.00     0.038 C 
HETATM    3  C10 UNL     1      -0.437   8.403  13.597  1.00  0.00     0.132 C 
HETATM    4  C11 UNL     1      -0.599   8.542  15.132  1.00  0.00     0.016 C 
HETATM    5  C12 UNL     1      -0.024   7.257  15.818  1.00  0.00     0.023 C 
HETATM    6  C13 UNL     1       0.061   9.720  15.846  1.00  0.00    -0.037 C 
HETATM    7  C14 UNL     1      -0.480  10.176  17.009  1.00  0.00    -0.065 C 
HETATM    8  C15 UNL     1      -1.786   9.593  17.573  1.00  0.00     0.036 C 
HETATM    9  C16 UNL     1      -2.568   8.590  16.696  1.00  0.00     0.015 C 
HETATM   10  C17 UNL     1      -2.163   8.688  15.221  1.00  0.00    -0.026 C 
HETATM   11  C18 UNL     1      -2.705  10.041  14.675  1.00  0.00     0.016 C 
HETATM   12  C19 UNL     1       0.158  11.355  17.798  1.00  0.00    -0.016 C 
HETATM   13  C20 UNL     1      -0.658  12.601  17.393  1.00  0.00     0.020 C 
HETATM   14  C21 UNL     1       0.083  11.088  19.319  1.00  0.00     0.016 C 
HETATM   15  C22 UNL     1       0.815  12.068  20.234  1.00  0.00     0.033 C 
HETATM   16  C23 UNL     1       1.808  13.022  19.574  1.00  0.00     0.126 C 
HETATM   17  C24 UNL     1       2.520  12.505  18.288  1.00  0.00    -0.017 C 
HETATM   18  C25 UNL     1       3.807  11.762  18.753  1.00  0.00     0.018 C 
HETATM   19  C26 UNL     1       2.999  13.717  17.451  1.00  0.00     0.018 C 
HETATM   20  C27 UNL     1       1.675  11.461  17.448  1.00  0.00     0.011 C 
HETATM   21  C28 UNL     1       1.860  11.557  15.921  1.00  0.00     0.043 C 
HETATM   22  C29 UNL     1       1.297  10.319  15.211  1.00  0.00     0.148 C 
ENDROOT
BRANCH   1  23
HETATM   23  C6  UNL     1      -4.140   7.401  13.954  1.00  0.00    -0.013 C 
HETATM   24  C7  UNL     1      -4.465   8.464  12.888  1.00  0.00     0.010 C 
BRANCH  23  25
HETATM   25  C5  UNL     1      -5.131   7.552  15.130  1.00  0.00     0.008 C 
BRANCH  25  26
HETATM   26  C4  UNL     1      -5.803   6.228  15.514  1.00  0.00     0.028 C 
BRANCH  26  27
HETATM   27  C3  UNL     1      -6.318   5.502  14.303  1.00  0.00    -0.022 C 
HETATM   28  C2  UNL     1      -7.524   5.638  13.710  1.00  0.00    -0.064 C 
HETATM   29  C1  UNL     1      -8.619   6.529  14.236  1.00  0.00     0.045 C 
BRANCH  28  30
HETATM   30  C30 UNL     1      -7.925   4.870  12.465  1.00  0.00     0.197 C 
BRANCH  30  31
HETATM   31  O4  UNL     1      -7.060   3.773  12.204  1.00  0.00    -0.397 OA
HETATM   32  H50 UNL     1      -6.170   4.147  12.112  1.00  0.00     0.209 HD
ENDBRANCH  30  31
ENDBRANCH  28  30
ENDBRANCH  26  27
ENDBRANCH  25  26
ENDBRANCH  23  25
ENDBRANCH   1  23
BRANCH   3  33
HETATM   33  O1  UNL     1       0.821   7.850  13.225  1.00  0.00    -0.394 OA
HETATM   34  H17 UNL     1       0.779   7.660  12.265  1.00  0.00     0.210 HD
ENDBRANCH   3  33
BRANCH  22  35
HETATM   35  O3  UNL     1       2.324   9.337  15.194  1.00  0.00    -0.391 OA
HETATM   36  H47 UNL     1       2.088   8.689  14.504  1.00  0.00     0.210 HD
ENDBRANCH  22  35
BRANCH  16  37
HETATM   37  O2  UNL     1       1.134  14.260  19.318  1.00  0.00    -0.395 OA
HETATM   38  H36 UNL     1       0.833  14.619  20.171  1.00  0.00     0.210 HD
ENDBRANCH  16  37
TORSDOF 9
ENDMDL
MODEL 9
REMARK minimizedAffinity -8.76251221
REMARK CNNscore 0.35626182
REMARK CNNaffinity 6.5284543
REMARK  9 active torsions:
REMARK  status: ('A' for Active; 'I' for Inactive)
REMARK    1  A    between atoms: C2_2  and  C30_33 
REMARK    2  A    between atoms: C3_3  and  C4_4 
REMARK    3  A    between atoms: C4_4  and  C5_5 
REMARK    4  A    between atoms: C5_5  and  C6_6 
REMARK    5  A    between atoms: C6_6  and  C8_8 
REMARK    6  A    between atoms: C10_10  and  O1_11 
REMARK    7  A    between atoms: C23_24  and  O2_25 
REMARK    8  A    between atoms: C29_31  and  O3_32 
REMARK    9  A    between atoms: C30_33  and  O4_34 
ROOT
HETATM    1  C8  UNL     1      -1.239   5.326  12.817  1.00  0.00     0.001 C 
HETATM    2  C9  UNL     1      -0.435   6.110  11.746  1.00  0.00     0.038 C 
HETATM    3  C10 UNL     1      -0.430   7.590  12.199  1.00  0.00     0.132 C 
HETATM    4  C11 UNL     1      -0.832   7.548  13.695  1.00  0.00     0.016 C 
HETATM    5  C12 UNL     1       0.424   7.156  14.544  1.00  0.00     0.023 C 
HETATM    6  C13 UNL     1      -1.395   8.808  14.350  1.00  0.00    -0.037 C 
HETATM    7  C14 UNL     1      -2.232   8.682  15.414  1.00  0.00    -0.065 C 
HETATM    8  C15 UNL     1      -2.695   7.306  15.917  1.00  0.00     0.036 C 
HETATM    9  C16 UNL     1      -2.324   6.065  15.074  1.00  0.00     0.015 C 
HETATM   10  C17 UNL     1      -1.953   6.446  13.637  1.00  0.00    -0.026 C 
HETATM   11  C18 UNL     1      -3.258   6.906  12.923  1.00  0.00     0.016 C 
HETATM   12  C19 UNL     1      -2.819   9.927  16.142  1.00  0.00    -0.016 C 
HETATM   13  C20 UNL     1      -4.234  10.108  15.555  1.00  0.00     0.020 C 
HETATM   14  C21 UNL     1      -2.856   9.690  17.669  1.00  0.00     0.016 C 
HETATM   15  C22 UNL     1      -3.246  10.877  18.548  1.00  0.00     0.033 C 
HETATM   16  C23 UNL     1      -3.252  12.253  17.889  1.00  0.00     0.126 C 
HETATM   17  C24 UNL     1      -2.243  12.472  16.721  1.00  0.00    -0.017 C 
HETATM   18  C25 UNL     1      -0.915  12.974  17.361  1.00  0.00     0.018 C 
HETATM   19  C26 UNL     1      -2.752  13.623  15.819  1.00  0.00     0.018 C 
HETATM   20  C27 UNL     1      -1.886  11.157  15.914  1.00  0.00     0.011 C 
HETATM   21  C28 UNL     1      -1.648  11.367  14.406  1.00  0.00     0.043 C 
HETATM   22  C29 UNL     1      -0.979  10.142  13.768  1.00  0.00     0.148 C 
ENDROOT
BRANCH   1  23
HETATM   23  C6  UNL     1      -2.081   4.111  12.332  1.00  0.00    -0.013 C 
HETATM   24  C7  UNL     1      -2.110   4.105  10.792  1.00  0.00     0.010 C 
BRANCH  23  25
HETATM   25  C5  UNL     1      -3.532   4.045  12.860  1.00  0.00     0.008 C 
BRANCH  25  26
HETATM   26  C4  UNL     1      -4.570   3.966  11.733  1.00  0.00     0.028 C 
BRANCH  26  27
HETATM   27  C3  UNL     1      -5.931   3.616  12.265  1.00  0.00    -0.022 C 
HETATM   28  C2  UNL     1      -6.589   2.443  12.142  1.00  0.00    -0.064 C 
HETATM   29  C1  UNL     1      -6.065   1.269  11.357  1.00  0.00     0.045 C 
BRANCH  28  30
HETATM   30  C30 UNL     1      -7.955   2.192  12.751  1.00  0.00     0.197 C 
BRANCH  30  31
HETATM   31  O4  UNL     1      -8.640   3.399  13.061  1.00  0.00    -0.397 OA
HETATM   32  H50 UNL     1      -8.067   3.885  13.675  1.00  0.00     0.209 HD
ENDBRANCH  30  31
ENDBRANCH  28  30
ENDBRANCH  26  27
ENDBRANCH  25  26
ENDBRANCH  23  25
ENDBRANCH   1  23
BRANCH   3  33
HETATM   33  O1  UNL     1       0.840   8.197  11.988  1.00  0.00    -0.394 OA
HETATM   34  H17 UNL     1       1.078   8.047  11.049  1.00  0.00     0.210 HD
ENDBRANCH   3  33
BRANCH  22  35
HETATM   35  O3  UNL     1       0.424  10.295  13.930  1.00  0.00    -0.391 OA
HETATM   36  H47 UNL     1       0.852   9.699  13.286  1.00  0.00     0.210 HD
ENDBRANCH  22  35
BRANCH  16  37
HETATM   37  O2  UNL     1      -4.590  12.537  17.462  1.00  0.00    -0.395 OA
HETATM   38  H36 UNL     1      -5.162  12.535  18.249  1.00  0.00     0.210 HD
ENDBRANCH  16  37
TORSDOF 9
ENDMDL
