MODEL 1
REMARK minimizedAffinity -9.87626171
REMARK  9 active torsions:
REMARK  status: ('A' for Active; 'I' for Inactive)
REMARK    1  A    between atoms: C2_2  and  C3_3 
REMARK    2  A    between atoms: C2_2  and  C9_12 
REMARK    3  A    between atoms: C3_3  and  C4_4 
REMARK    4  A    between atoms: C4_4  and  C5_5 
REMARK    5  A    between atoms: C5_5  and  O1_6 
REMARK    6  A    between atoms: C5_5  and  C6_7 
REMARK    7  A    between atoms: C6_7  and  O2_9 
REMARK    8  A    between atoms: C6_7  and  C8_10 
REMARK    9  A    between atoms: C8_10  and  O3_11 
ROOT
HETATM    1  C9  UNL     1      -0.839  50.430 -22.021  1.00  0.00    -0.002 C 
HETATM    2  C10 UNL     1      -0.953  50.096 -20.508  1.00  0.00     0.007 C 
HETATM    3  C11 UNL     1      -2.292  49.354 -20.307  1.00  0.00     0.015 C 
HETATM    4  C12 UNL     1      -2.724  48.915 -21.723  1.00  0.00    -0.005 C 
HETATM    5  C13 UNL     1      -1.932  47.609 -22.046  1.00  0.00     0.021 C 
HETATM    6  C14 UNL     1      -4.171  48.547 -22.037  1.00  0.00    -0.000 C 
HETATM    7  C15 UNL     1      -4.702  48.745 -23.275  1.00  0.00    -0.060 C 
HETATM    8  C16 UNL     1      -3.892  49.448 -24.370  1.00  0.00     0.036 C 
HETATM    9  C17 UNL     1      -2.442  49.849 -24.037  1.00  0.00     0.015 C 
HETATM   10  C18 UNL     1      -2.291  50.195 -22.549  1.00  0.00    -0.028 C 
HETATM   11  C19 UNL     1      -3.179  51.437 -22.246  1.00  0.00     0.016 C 
HETATM   12  C20 UNL     1      -6.161  48.340 -23.626  1.00  0.00    -0.014 C 
HETATM   13  C21 UNL     1      -7.034  49.568 -23.291  1.00  0.00     0.020 C 
HETATM   14  C22 UNL     1      -6.327  47.993 -25.131  1.00  0.00     0.021 C 
HETATM   15  C23 UNL     1      -7.695  47.414 -25.468  1.00  0.00     0.080 C 
HETATM   16  C24 UNL     1      -7.877  46.142 -24.690  1.00  0.00     0.135 C 
HETATM   17  O4  UNL     1      -8.079  45.079 -25.271  1.00  0.00    -0.297 OA
HETATM   18  C25 UNL     1      -7.795  46.251 -23.161  1.00  0.00     0.018 C 
HETATM   19  C26 UNL     1      -7.691  44.813 -22.588  1.00  0.00     0.023 C 
HETATM   20  C27 UNL     1      -9.107  46.845 -22.636  1.00  0.00     0.023 C 
HETATM   21  C28 UNL     1      -6.494  47.049 -22.790  1.00  0.00     0.020 C 
HETATM   22  C29 UNL     1      -6.364  47.356 -21.295  1.00  0.00     0.090 C 
HETATM   23  C30 UNL     1      -4.997  47.901 -20.957  1.00  0.00     0.157 C 
HETATM   24  O5  UNL     1      -4.588  47.828 -19.800  1.00  0.00    -0.293 OA
ENDROOT
BRANCH   1  25
HETATM   25  C2  UNL     1      -0.012  51.724 -22.311  1.00  0.00    -0.014 C 
HETATM   26  C1  UNL     1       0.074  52.749 -21.178  1.00  0.00     0.010 C 
BRANCH  25  27
HETATM   27  C3  UNL     1      -0.457  52.385 -23.638  1.00  0.00     0.007 C 
BRANCH  27  28
HETATM   28  C4  UNL     1       0.659  53.087 -24.444  1.00  0.00     0.035 C 
BRANCH  28  29
HETATM   29  C5  UNL     1       0.432  53.111 -25.964  1.00  0.00     0.154 C 
BRANCH  29  30
HETATM   30  O1  UNL     1      -0.977  53.237 -26.222  1.00  0.00    -0.392 OA
HETATM   31  H10 UNL     1      -1.059  53.092 -27.188  1.00  0.00     0.210 HD
ENDBRANCH  29  30
BRANCH  29  32
HETATM   32  C6  UNL     1       0.952  51.868 -26.740  1.00  0.00     0.101 C 
HETATM   33  C7  UNL     1      -0.015  50.671 -26.687  1.00  0.00     0.051 C 
BRANCH  32  34
HETATM   34  O2  UNL     1       1.018  52.273 -28.128  1.00  0.00    -0.385 OA
HETATM   35  H14 UNL     1       1.437  51.525 -28.608  1.00  0.00     0.210 HD
ENDBRANCH  32  34
BRANCH  32  36
HETATM   36  C8  UNL     1       2.372  51.467 -26.299  1.00  0.00     0.204 C 
BRANCH  36  37
HETATM   37  O3  UNL     1       3.262  51.501 -27.420  1.00  0.00    -0.398 OA
HETATM   38  H17 UNL     1       3.359  50.586 -27.749  1.00  0.00     0.209 HD
ENDBRANCH  36  37
ENDBRANCH  32  36
ENDBRANCH  29  32
ENDBRANCH  28  29
ENDBRANCH  27  28
ENDBRANCH  25  27
ENDBRANCH   1  25
TORSDOF 9
ENDMDL
MODEL 2
REMARK minimizedAffinity -9.67594051
REMARK  9 active torsions:
REMARK  status: ('A' for Active; 'I' for Inactive)
REMARK    1  A    between atoms: C2_2  and  C3_3 
REMARK    2  A    between atoms: C2_2  and  C9_12 
REMARK    3  A    between atoms: C3_3  and  C4_4 
REMARK    4  A    between atoms: C4_4  and  C5_5 
REMARK    5  A    between atoms: C5_5  and  O1_6 
REMARK    6  A    between atoms: C5_5  and  C6_7 
REMARK    7  A    between atoms: C6_7  and  O2_9 
REMARK    8  A    between atoms: C6_7  and  C8_10 
REMARK    9  A    between atoms: C8_10  and  O3_11 
ROOT
HETATM    1  C9  UNL     1      -1.230  50.536 -23.078  1.00  0.00    -0.002 C 
HETATM    2  C10 UNL     1      -0.858  52.033 -23.262  1.00  0.00     0.007 C 
HETATM    3  C11 UNL     1      -0.413  52.563 -21.882  1.00  0.00     0.015 C 
HETATM    4  C12 UNL     1      -0.143  51.300 -21.035  1.00  0.00    -0.005 C 
HETATM    5  C13 UNL     1       1.286  50.802 -21.419  1.00  0.00     0.021 C 
HETATM    6  C14 UNL     1      -0.110  51.354 -19.511  1.00  0.00    -0.000 C 
HETATM    7  C15 UNL     1      -0.474  50.282 -18.754  1.00  0.00    -0.060 C 
HETATM    8  C16 UNL     1      -1.036  49.016 -19.410  1.00  0.00     0.036 C 
HETATM    9  C17 UNL     1      -1.101  48.980 -20.949  1.00  0.00     0.015 C 
HETATM   10  C18 UNL     1      -1.337  50.382 -21.527  1.00  0.00    -0.028 C 
HETATM   11  C19 UNL     1      -2.726  50.884 -21.032  1.00  0.00     0.016 C 
HETATM   12  C20 UNL     1      -0.408  50.304 -17.202  1.00  0.00    -0.014 C 
HETATM   13  C21 UNL     1      -1.779  50.832 -16.726  1.00  0.00     0.020 C 
HETATM   14  C22 UNL     1      -0.176  48.888 -16.605  1.00  0.00     0.021 C 
HETATM   15  C23 UNL     1       0.080  48.901 -15.104  1.00  0.00     0.080 C 
HETATM   16  C24 UNL     1       1.318  49.711 -14.840  1.00  0.00     0.135 C 
HETATM   17  O4  UNL     1       2.284  49.205 -14.275  1.00  0.00    -0.297 OA
HETATM   18  C25 UNL     1       1.301  51.172 -15.310  1.00  0.00     0.018 C 
HETATM   19  C26 UNL     1       2.752  51.714 -15.231  1.00  0.00     0.023 C 
HETATM   20  C27 UNL     1       0.464  51.998 -14.327  1.00  0.00     0.023 C 
HETATM   21  C28 UNL     1       0.818  51.205 -16.804  1.00  0.00     0.020 C 
HETATM   22  C29 UNL     1       0.616  52.620 -17.355  1.00  0.00     0.090 C 
HETATM   23  C30 UNL     1       0.393  52.609 -18.849  1.00  0.00     0.157 C 
HETATM   24  O5  UNL     1       0.606  53.630 -19.498  1.00  0.00    -0.293 OA
ENDROOT
BRANCH   1  25
HETATM   25  C2  UNL     1      -2.328  50.041 -24.074  1.00  0.00    -0.014 C 
HETATM   26  C1  UNL     1      -3.183  48.857 -23.617  1.00  0.00     0.010 C 
BRANCH  25  27
HETATM   27  C3  UNL     1      -1.737  49.799 -25.483  1.00  0.00     0.007 C 
BRANCH  27  28
HETATM   28  C4  UNL     1      -2.191  50.788 -26.580  1.00  0.00     0.035 C 
BRANCH  28  29
HETATM   29  C5  UNL     1      -1.894  52.264 -26.274  1.00  0.00     0.154 C 
BRANCH  29  30
HETATM   30  O1  UNL     1      -3.134  52.989 -26.224  1.00  0.00    -0.392 OA
HETATM   31  H10 UNL     1      -2.862  53.930 -26.181  1.00  0.00     0.210 HD
ENDBRANCH  29  30
BRANCH  29  32
HETATM   32  C6  UNL     1      -0.959  52.984 -27.287  1.00  0.00     0.101 C 
HETATM   33  C7  UNL     1      -0.180  52.011 -28.191  1.00  0.00     0.051 C 
BRANCH  32  34
HETATM   34  O2  UNL     1      -1.834  53.735 -28.162  1.00  0.00    -0.385 OA
HETATM   35  H14 UNL     1      -1.245  54.267 -28.742  1.00  0.00     0.210 HD
ENDBRANCH  32  34
BRANCH  32  36
HETATM   36  C8  UNL     1      -0.018  53.985 -26.590  1.00  0.00     0.204 C 
BRANCH  36  37
HETATM   37  O3  UNL     1      -0.149  55.279 -27.188  1.00  0.00    -0.398 OA
HETATM   38  H17 UNL     1       0.587  55.388 -27.823  1.00  0.00     0.209 HD
ENDBRANCH  36  37
ENDBRANCH  32  36
ENDBRANCH  29  32
ENDBRANCH  28  29
ENDBRANCH  27  28
ENDBRANCH  25  27
ENDBRANCH   1  25
TORSDOF 9
ENDMDL
MODEL 3
REMARK minimizedAffinity -9.31328678
REMARK  9 active torsions:
REMARK  status: ('A' for Active; 'I' for Inactive)
REMARK    1  A    between atoms: C2_2  and  C3_3 
REMARK    2  A    between atoms: C2_2  and  C9_12 
REMARK    3  A    between atoms: C3_3  and  C4_4 
REMARK    4  A    between atoms: C4_4  and  C5_5 
REMARK    5  A    between atoms: C5_5  and  O1_6 
REMARK    6  A    between atoms: C5_5  and  C6_7 
REMARK    7  A    between atoms: C6_7  and  O2_9 
REMARK    8  A    between atoms: C6_7  and  C8_10 
REMARK    9  A    between atoms: C8_10  and  O3_11 
ROOT
HETATM    1  C9  UNL     1      -1.892  48.964 -18.324  1.00  0.00    -0.002 C 
HETATM    2  C10 UNL     1      -2.780  47.828 -18.902  1.00  0.00     0.007 C 
HETATM    3  C11 UNL     1      -2.895  48.072 -20.423  1.00  0.00     0.015 C 
HETATM    4  C12 UNL     1      -1.768  49.074 -20.755  1.00  0.00    -0.005 C 
HETATM    5  C13 UNL     1      -0.454  48.240 -20.886  1.00  0.00     0.021 C 
HETATM    6  C14 UNL     1      -1.794  49.909 -22.031  1.00  0.00    -0.000 C 
HETATM    7  C15 UNL     1      -1.226  51.145 -22.083  1.00  0.00    -0.060 C 
HETATM    8  C16 UNL     1      -0.633  51.788 -20.824  1.00  0.00     0.036 C 
HETATM    9  C17 UNL     1      -0.641  50.953 -19.528  1.00  0.00     0.015 C 
HETATM   10  C18 UNL     1      -1.853  50.012 -19.482  1.00  0.00    -0.028 C 
HETATM   11  C19 UNL     1      -3.144  50.883 -19.461  1.00  0.00     0.016 C 
HETATM   12  C20 UNL     1      -1.206  51.994 -23.385  1.00  0.00    -0.014 C 
HETATM   13  C21 UNL     1      -2.505  52.829 -23.366  1.00  0.00     0.020 C 
HETATM   14  C22 UNL     1       0.014  52.955 -23.439  1.00  0.00     0.021 C 
HETATM   15  C23 UNL     1       0.163  53.662 -24.780  1.00  0.00     0.080 C 
HETATM   16  C24 UNL     1       0.360  52.622 -25.846  1.00  0.00     0.135 C 
HETATM   17  O4  UNL     1       1.372  52.627 -26.542  1.00  0.00    -0.297 OA
HETATM   18  C25 UNL     1      -0.754  51.579 -26.006  1.00  0.00     0.018 C 
HETATM   19  C26 UNL     1      -0.213  50.443 -26.916  1.00  0.00     0.023 C 
HETATM   20  C27 UNL     1      -1.931  52.221 -26.749  1.00  0.00     0.023 C 
HETATM   21  C28 UNL     1      -1.087  50.989 -24.589  1.00  0.00     0.020 C 
HETATM   22  C29 UNL     1      -2.287  50.037 -24.585  1.00  0.00     0.090 C 
HETATM   23  C30 UNL     1      -2.417  49.313 -23.265  1.00  0.00     0.157 C 
HETATM   24  O5  UNL     1      -3.046  48.259 -23.215  1.00  0.00    -0.293 OA
ENDROOT
BRANCH   1  25
HETATM   25  C2  UNL     1      -2.232  49.325 -16.841  1.00  0.00    -0.014 C 
HETATM   26  C1  UNL     1      -2.773  50.734 -16.588  1.00  0.00     0.010 C 
BRANCH  25  27
HETATM   27  C3  UNL     1      -1.048  48.998 -15.901  1.00  0.00     0.007 C 
BRANCH  27  28
HETATM   28  C4  UNL     1       0.290  49.692 -16.242  1.00  0.00     0.035 C 
BRANCH  28  29
HETATM   29  C5  UNL     1       0.988  50.359 -15.047  1.00  0.00     0.154 C 
BRANCH  29  30
HETATM   30  O1  UNL     1       0.057  50.450 -13.955  1.00  0.00    -0.392 OA
HETATM   31  H10 UNL     1       0.514  51.014 -13.296  1.00  0.00     0.210 HD
ENDBRANCH  29  30
BRANCH  29  32
HETATM   32  C6  UNL     1       1.557  51.781 -15.311  1.00  0.00     0.101 C 
HETATM   33  C7  UNL     1       1.412  52.231 -16.776  1.00  0.00     0.051 C 
BRANCH  32  34
HETATM   34  O2  UNL     1       0.738  52.683 -14.529  1.00  0.00    -0.385 OA
HETATM   35  H14 UNL     1       1.152  53.570 -14.616  1.00  0.00     0.210 HD
ENDBRANCH  32  34
BRANCH  32  36
HETATM   36  C8  UNL     1       3.010  51.921 -14.818  1.00  0.00     0.204 C 
BRANCH  36  37
HETATM   37  O3  UNL     1       3.683  52.946 -15.557  1.00  0.00    -0.398 OA
HETATM   38  H17 UNL     1       4.209  52.510 -16.257  1.00  0.00     0.209 HD
ENDBRANCH  36  37
ENDBRANCH  32  36
ENDBRANCH  29  32
ENDBRANCH  28  29
ENDBRANCH  27  28
ENDBRANCH  25  27
ENDBRANCH   1  25
TORSDOF 9
ENDMDL
MODEL 4
REMARK minimizedAffinity -9.2488308
REMARK  9 active torsions:
REMARK  status: ('A' for Active; 'I' for Inactive)
REMARK    1  A    between atoms: C2_2  and  C3_3 
REMARK    2  A    between atoms: C2_2  and  C9_12 
REMARK    3  A    between atoms: C3_3  and  C4_4 
REMARK    4  A    between atoms: C4_4  and  C5_5 
REMARK    5  A    between atoms: C5_5  and  O1_6 
REMARK    6  A    between atoms: C5_5  and  C6_7 
REMARK    7  A    between atoms: C6_7  and  O2_9 
REMARK    8  A    between atoms: C6_7  and  C8_10 
REMARK    9  A    between atoms: C8_10  and  O3_11 
ROOT
HETATM    1  C9  UNL     1      -3.963  50.151 -24.377  1.00  0.00    -0.002 C 
HETATM    2  C10 UNL     1      -5.467  49.972 -24.031  1.00  0.00     0.007 C 
HETATM    3  C11 UNL     1      -5.560  49.774 -22.502  1.00  0.00     0.015 C 
HETATM    4  C12 UNL     1      -4.195  50.241 -21.953  1.00  0.00    -0.005 C 
HETATM    5  C13 UNL     1      -4.263  51.799 -21.857  1.00  0.00     0.021 C 
HETATM    6  C14 UNL     1      -3.702  49.816 -20.573  1.00  0.00    -0.000 C 
HETATM    7  C15 UNL     1      -2.375  49.677 -20.304  1.00  0.00    -0.060 C 
HETATM    8  C16 UNL     1      -1.330  49.841 -21.414  1.00  0.00     0.036 C 
HETATM    9  C17 UNL     1      -1.836  50.237 -22.815  1.00  0.00     0.015 C 
HETATM   10  C18 UNL     1      -3.238  49.671 -23.079  1.00  0.00    -0.028 C 
HETATM   11  C19 UNL     1      -3.145  48.116 -23.059  1.00  0.00     0.016 C 
HETATM   12  C20 UNL     1      -1.852  49.285 -18.895  1.00  0.00    -0.014 C 
HETATM   13  C21 UNL     1      -1.794  47.742 -18.879  1.00  0.00     0.020 C 
HETATM   14  C22 UNL     1      -0.430  49.848 -18.619  1.00  0.00     0.021 C 
HETATM   15  C23 UNL     1       0.032  49.640 -17.183  1.00  0.00     0.080 C 
HETATM   16  C24 UNL     1      -0.922  50.355 -16.269  1.00  0.00     0.135 C 
HETATM   17  O4  UNL     1      -0.519  51.236 -15.513  1.00  0.00    -0.297 OA
HETATM   18  C25 UNL     1      -2.394  49.929 -16.337  1.00  0.00     0.018 C 
HETATM   19  C26 UNL     1      -3.231  50.985 -15.568  1.00  0.00     0.023 C 
HETATM   20  C27 UNL     1      -2.560  48.601 -15.589  1.00  0.00     0.023 C 
HETATM   21  C28 UNL     1      -2.837  49.917 -17.844  1.00  0.00     0.020 C 
HETATM   22  C29 UNL     1      -4.249  49.368 -18.067  1.00  0.00     0.090 C 
HETATM   23  C30 UNL     1      -4.719  49.602 -19.484  1.00  0.00     0.157 C 
HETATM   24  O5  UNL     1      -5.923  49.594 -19.729  1.00  0.00    -0.293 OA
ENDROOT
BRANCH   1  25
HETATM   25  C2  UNL     1      -3.592  49.650 -25.810  1.00  0.00    -0.014 C 
HETATM   26  C1  UNL     1      -4.264  48.358 -26.279  1.00  0.00     0.010 C 
BRANCH  25  27
HETATM   27  C3  UNL     1      -2.057  49.589 -26.000  1.00  0.00     0.007 C 
BRANCH  27  28
HETATM   28  C4  UNL     1      -1.416  50.821 -26.677  1.00  0.00     0.035 C 
BRANCH  28  29
HETATM   29  C5  UNL     1      -0.227  51.425 -25.912  1.00  0.00     0.154 C 
BRANCH  29  30
HETATM   30  O1  UNL     1      -0.709  52.471 -25.053  1.00  0.00    -0.392 OA
HETATM   31  H10 UNL     1       0.106  52.905 -24.721  1.00  0.00     0.210 HD
ENDBRANCH  29  30
BRANCH  29  32
HETATM   32  C6  UNL     1       0.908  52.015 -26.795  1.00  0.00     0.101 C 
HETATM   33  C7  UNL     1       0.639  51.874 -28.305  1.00  0.00     0.051 C 
BRANCH  32  34
HETATM   34  O2  UNL     1       0.920  53.436 -26.519  1.00  0.00    -0.385 OA
HETATM   35  H14 UNL     1       1.697  53.798 -27.000  1.00  0.00     0.210 HD
ENDBRANCH  32  34
BRANCH  32  36
HETATM   36  C8  UNL     1       2.289  51.449 -26.411  1.00  0.00     0.204 C 
BRANCH  36  37
HETATM   37  O3  UNL     1       3.289  51.945 -27.308  1.00  0.00    -0.398 OA
HETATM   38  H17 UNL     1       3.453  51.253 -27.980  1.00  0.00     0.209 HD
ENDBRANCH  36  37
ENDBRANCH  32  36
ENDBRANCH  29  32
ENDBRANCH  28  29
ENDBRANCH  27  28
ENDBRANCH  25  27
ENDBRANCH   1  25
TORSDOF 9
ENDMDL
MODEL 5
REMARK minimizedAffinity -9.23823166
REMARK  9 active torsions:
REMARK  status: ('A' for Active; 'I' for Inactive)
REMARK    1  A    between atoms: C2_2  and  C3_3 
REMARK    2  A    between atoms: C2_2  and  C9_12 
REMARK    3  A    between atoms: C3_3  and  C4_4 
REMARK    4  A    between atoms: C4_4  and  C5_5 
REMARK    5  A    between atoms: C5_5  and  O1_6 
REMARK    6  A    between atoms: C5_5  and  C6_7 
REMARK    7  A    between atoms: C6_7  and  O2_9 
REMARK    8  A    between atoms: C6_7  and  C8_10 
REMARK    9  A    between atoms: C8_10  and  O3_11 
ROOT
HETATM    1  C9  UNL     1      -0.119  51.449 -22.095  1.00  0.00    -0.002 C 
HETATM    2  C10 UNL     1      -0.219  51.862 -20.601  1.00  0.00     0.007 C 
HETATM    3  C11 UNL     1      -1.567  51.325 -20.071  1.00  0.00     0.015 C 
HETATM    4  C12 UNL     1      -2.023  50.284 -21.116  1.00  0.00    -0.005 C 
HETATM    5  C13 UNL     1      -1.254  48.963 -20.795  1.00  0.00     0.021 C 
HETATM    6  C14 UNL     1      -3.478  49.839 -21.216  1.00  0.00    -0.000 C 
HETATM    7  C15 UNL     1      -4.022  49.446 -22.401  1.00  0.00    -0.060 C 
HETATM    8  C16 UNL     1      -3.215  49.540 -23.701  1.00  0.00     0.036 C 
HETATM    9  C17 UNL     1      -1.755  50.024 -23.600  1.00  0.00     0.015 C 
HETATM   10  C18 UNL     1      -1.580  51.021 -22.446  1.00  0.00    -0.028 C 
HETATM   11  C19 UNL     1      -2.447  52.278 -22.755  1.00  0.00     0.016 C 
HETATM   12  C20 UNL     1      -5.490  48.950 -22.516  1.00  0.00    -0.014 C 
HETATM   13  C21 UNL     1      -6.341  50.209 -22.791  1.00  0.00     0.020 C 
HETATM   14  C22 UNL     1      -5.680  47.944 -23.685  1.00  0.00     0.021 C 
HETATM   15  C23 UNL     1      -7.059  47.300 -23.707  1.00  0.00     0.080 C 
HETATM   16  C24 UNL     1      -7.250  46.542 -22.423  1.00  0.00     0.135 C 
HETATM   17  O4  UNL     1      -7.475  45.335 -22.440  1.00  0.00    -0.297 OA
HETATM   18  C25 UNL     1      -7.149  47.351 -21.123  1.00  0.00     0.018 C 
HETATM   19  C26 UNL     1      -7.059  46.345 -19.945  1.00  0.00     0.023 C 
HETATM   20  C27 UNL     1      -8.446  48.145 -20.931  1.00  0.00     0.023 C 
HETATM   21  C28 UNL     1      -5.832  48.205 -21.173  1.00  0.00     0.020 C 
HETATM   22  C29 UNL     1      -5.679  49.172 -19.995  1.00  0.00     0.090 C 
HETATM   23  C30 UNL     1      -4.300  49.788 -19.956  1.00  0.00     0.157 C 
HETATM   24  O5  UNL     1      -3.879  50.255 -18.901  1.00  0.00    -0.293 OA
ENDROOT
BRANCH   1  25
HETATM   25  C2  UNL     1       0.723  52.442 -22.959  1.00  0.00    -0.014 C 
HETATM   26  C1  UNL     1       0.548  53.932 -22.655  1.00  0.00     0.010 C 
BRANCH  25  27
HETATM   27  C3  UNL     1       0.553  52.151 -24.469  1.00  0.00     0.007 C 
BRANCH  27  28
HETATM   28  C4  UNL     1      -0.093  53.282 -25.301  1.00  0.00     0.035 C 
BRANCH  28  29
HETATM   29  C5  UNL     1       0.475  53.436 -26.721  1.00  0.00     0.154 C 
BRANCH  29  30
HETATM   30  O1  UNL     1      -0.323  54.389 -27.441  1.00  0.00    -0.392 OA
HETATM   31  H10 UNL     1      -0.004  54.321 -28.366  1.00  0.00     0.210 HD
ENDBRANCH  29  30
BRANCH  29  32
HETATM   32  C6  UNL     1       0.538  52.130 -27.563  1.00  0.00     0.101 C 
HETATM   33  C7  UNL     1      -0.037  50.905 -26.829  1.00  0.00     0.051 C 
BRANCH  32  34
HETATM   34  O2  UNL     1      -0.324  52.358 -28.703  1.00  0.00    -0.385 OA
HETATM   35  H14 UNL     1      -0.212  51.575 -29.288  1.00  0.00     0.210 HD
ENDBRANCH  32  34
BRANCH  32  36
HETATM   36  C8  UNL     1       1.958  51.856 -28.094  1.00  0.00     0.204 C 
BRANCH  36  37
HETATM   37  O3  UNL     1       2.913  51.990 -27.035  1.00  0.00    -0.398 OA
HETATM   38  H17 UNL     1       3.311  52.880 -27.106  1.00  0.00     0.209 HD
ENDBRANCH  36  37
ENDBRANCH  32  36
ENDBRANCH  29  32
ENDBRANCH  28  29
ENDBRANCH  27  28
ENDBRANCH  25  27
ENDBRANCH   1  25
TORSDOF 9
ENDMDL
MODEL 6
REMARK minimizedAffinity -9.03204346
REMARK  9 active torsions:
REMARK  status: ('A' for Active; 'I' for Inactive)
REMARK    1  A    between atoms: C2_2  and  C3_3 
REMARK    2  A    between atoms: C2_2  and  C9_12 
REMARK    3  A    between atoms: C3_3  and  C4_4 
REMARK    4  A    between atoms: C4_4  and  C5_5 
REMARK    5  A    between atoms: C5_5  and  O1_6 
REMARK    6  A    between atoms: C5_5  and  C6_7 
REMARK    7  A    between atoms: C6_7  and  O2_9 
REMARK    8  A    between atoms: C6_7  and  C8_10 
REMARK    9  A    between atoms: C8_10  and  O3_11 
ROOT
HETATM    1  C9  UNL     1      -6.049  49.379 -21.857  1.00  0.00    -0.002 C 
HETATM    2  C10 UNL     1      -5.148  48.962 -20.662  1.00  0.00     0.007 C 
HETATM    3  C11 UNL     1      -3.709  49.408 -21.002  1.00  0.00     0.015 C 
HETATM    4  C12 UNL     1      -3.864  50.414 -22.163  1.00  0.00    -0.005 C 
HETATM    5  C13 UNL     1      -4.245  51.784 -21.517  1.00  0.00     0.021 C 
HETATM    6  C14 UNL     1      -2.696  50.760 -23.080  1.00  0.00    -0.000 C 
HETATM    7  C15 UNL     1      -2.893  51.114 -24.380  1.00  0.00    -0.060 C 
HETATM    8  C16 UNL     1      -4.295  51.072 -24.998  1.00  0.00     0.036 C 
HETATM    9  C17 UNL     1      -5.469  50.688 -24.075  1.00  0.00     0.015 C 
HETATM   10  C18 UNL     1      -5.018  49.706 -22.985  1.00  0.00    -0.028 C 
HETATM   11  C19 UNL     1      -4.546  48.394 -23.678  1.00  0.00     0.016 C 
HETATM   12  C20 UNL     1      -1.720  51.509 -25.319  1.00  0.00    -0.014 C 
HETATM   13  C21 UNL     1      -1.241  50.195 -25.975  1.00  0.00     0.020 C 
HETATM   14  C22 UNL     1      -2.166  52.498 -26.431  1.00  0.00     0.021 C 
HETATM   15  C23 UNL     1      -1.005  53.047 -27.249  1.00  0.00     0.080 C 
HETATM   16  C24 UNL     1      -0.083  53.792 -26.325  1.00  0.00     0.135 C 
HETATM   17  O4  UNL     1       0.160  54.982 -26.513  1.00  0.00    -0.297 OA
HETATM   18  C25 UNL     1       0.521  52.994 -25.162  1.00  0.00     0.018 C 
HETATM   19  C26 UNL     1       1.165  54.005 -24.177  1.00  0.00     0.023 C 
HETATM   20  C27 UNL     1       1.655  52.114 -25.700  1.00  0.00     0.023 C 
HETATM   21  C28 UNL     1      -0.640  52.231 -24.430  1.00  0.00     0.020 C 
HETATM   22  C29 UNL     1      -0.156  51.278 -23.333  1.00  0.00     0.090 C 
HETATM   23  C30 UNL     1      -1.306  50.757 -22.502  1.00  0.00     0.157 C 
HETATM   24  O5  UNL     1      -1.085  50.321 -21.375  1.00  0.00    -0.293 OA
ENDROOT
BRANCH   1  25
HETATM   25  C2  UNL     1      -7.285  48.444 -22.060  1.00  0.00    -0.014 C 
HETATM   26  C1  UNL     1      -7.004  46.940 -22.106  1.00  0.00     0.010 C 
BRANCH  25  27
HETATM   27  C3  UNL     1      -8.135  48.897 -23.270  1.00  0.00     0.007 C 
BRANCH  27  28
HETATM   28  C4  UNL     1      -8.820  47.765 -24.069  1.00  0.00     0.035 C 
BRANCH  28  29
HETATM   29  C5  UNL     1      -8.541  47.788 -25.580  1.00  0.00     0.154 C 
BRANCH  29  30
HETATM   30  O1  UNL     1      -7.325  48.516 -25.818  1.00  0.00    -0.392 OA
HETATM   31  H10 UNL     1      -7.293  48.622 -26.792  1.00  0.00     0.210 HD
ENDBRANCH  29  30
BRANCH  29  32
HETATM   32  C6  UNL     1      -9.657  48.421 -26.458  1.00  0.00     0.101 C 
HETATM   33  C7  UNL     1     -11.070  47.938 -26.085  1.00  0.00     0.051 C 
BRANCH  32  34
HETATM   34  O2  UNL     1      -9.627  49.839 -26.168  1.00  0.00    -0.385 OA
HETATM   35  H14 UNL     1     -10.263  50.256 -26.791  1.00  0.00     0.210 HD
ENDBRANCH  32  34
BRANCH  32  36
HETATM   36  C8  UNL     1      -9.377  48.242 -27.962  1.00  0.00     0.204 C 
BRANCH  36  37
HETATM   37  O3  UNL     1      -8.562  49.318 -28.441  1.00  0.00    -0.398 OA
HETATM   38  H17 UNL     1      -9.153  49.970 -28.867  1.00  0.00     0.209 HD
ENDBRANCH  36  37
ENDBRANCH  32  36
ENDBRANCH  29  32
ENDBRANCH  28  29
ENDBRANCH  27  28
ENDBRANCH  25  27
ENDBRANCH   1  25
TORSDOF 9
ENDMDL
MODEL 7
REMARK minimizedAffinity -8.86303616
REMARK  9 active torsions:
REMARK  status: ('A' for Active; 'I' for Inactive)
REMARK    1  A    between atoms: C2_2  and  C3_3 
REMARK    2  A    between atoms: C2_2  and  C9_12 
REMARK    3  A    between atoms: C3_3  and  C4_4 
REMARK    4  A    between atoms: C4_4  and  C5_5 
REMARK    5  A    between atoms: C5_5  and  O1_6 
REMARK    6  A    between atoms: C5_5  and  C6_7 
REMARK    7  A    between atoms: C6_7  and  O2_9 
REMARK    8  A    between atoms: C6_7  and  C8_10 
REMARK    9  A    between atoms: C8_10  and  O3_11 
ROOT
HETATM    1  C9  UNL     1      -1.180  49.742 -17.670  1.00  0.00    -0.002 C 
HETATM    2  C10 UNL     1      -2.502  48.929 -17.617  1.00  0.00     0.007 C 
HETATM    3  C11 UNL     1      -3.091  48.927 -19.044  1.00  0.00     0.015 C 
HETATM    4  C12 UNL     1      -1.929  49.370 -19.959  1.00  0.00    -0.005 C 
HETATM    5  C13 UNL     1      -1.051  48.103 -20.210  1.00  0.00     0.021 C 
HETATM    6  C14 UNL     1      -2.180  49.919 -21.360  1.00  0.00    -0.000 C 
HETATM    7  C15 UNL     1      -1.344  50.831 -21.927  1.00  0.00    -0.060 C 
HETATM    8  C16 UNL     1      -0.174  51.421 -21.130  1.00  0.00     0.036 C 
HETATM    9  C17 UNL     1       0.055  50.889 -19.702  1.00  0.00     0.015 C 
HETATM   10  C18 UNL     1      -1.270  50.482 -19.043  1.00  0.00    -0.028 C 
HETATM   11  C19 UNL     1      -2.157  51.755 -18.909  1.00  0.00     0.016 C 
HETATM   12  C20 UNL     1      -1.560  51.371 -23.368  1.00  0.00    -0.014 C 
HETATM   13  C21 UNL     1      -2.466  52.613 -23.223  1.00  0.00     0.020 C 
HETATM   14  C22 UNL     1      -0.225  51.792 -24.043  1.00  0.00     0.021 C 
HETATM   15  C23 UNL     1      -0.382  52.148 -25.515  1.00  0.00     0.080 C 
HETATM   16  C24 UNL     1      -0.894  50.938 -26.244  1.00  0.00     0.135 C 
HETATM   17  O4  UNL     1      -0.251  50.449 -27.170  1.00  0.00    -0.297 OA
HETATM   18  C25 UNL     1      -2.238  50.365 -25.772  1.00  0.00     0.018 C 
HETATM   19  C26 UNL     1      -2.416  48.970 -26.428  1.00  0.00     0.023 C 
HETATM   20  C27 UNL     1      -3.369  51.254 -26.302  1.00  0.00     0.023 C 
HETATM   21  C28 UNL     1      -2.183  50.198 -24.211  1.00  0.00     0.020 C 
HETATM   22  C29 UNL     1      -3.515  49.768 -23.590  1.00  0.00     0.090 C 
HETATM   23  C30 UNL     1      -3.354  49.386 -22.137  1.00  0.00     0.157 C 
HETATM   24  O5  UNL     1      -4.194  48.663 -21.608  1.00  0.00    -0.293 OA
ENDROOT
BRANCH   1  25
HETATM   25  C2  UNL     1      -0.836  50.457 -16.323  1.00  0.00    -0.014 C 
HETATM   26  C1  UNL     1       0.339  49.885 -15.526  1.00  0.00     0.010 C 
BRANCH  25  27
HETATM   27  C3  UNL     1      -2.094  50.615 -15.437  1.00  0.00     0.007 C 
BRANCH  27  28
HETATM   28  C4  UNL     1      -1.912  51.464 -14.159  1.00  0.00     0.035 C 
BRANCH  28  29
HETATM   29  C5  UNL     1      -3.221  51.818 -13.435  1.00  0.00     0.154 C 
BRANCH  29  30
HETATM   30  O1  UNL     1      -3.786  52.991 -14.043  1.00  0.00    -0.392 OA
HETATM   31  H10 UNL     1      -4.520  53.244 -13.443  1.00  0.00     0.210 HD
ENDBRANCH  29  30
BRANCH  29  32
HETATM   32  C6  UNL     1      -3.091  52.084 -11.909  1.00  0.00     0.101 C 
HETATM   33  C7  UNL     1      -4.137  53.080 -11.375  1.00  0.00     0.051 C 
BRANCH  32  34
HETATM   34  O2  UNL     1      -3.374  50.819 -11.265  1.00  0.00    -0.385 OA
HETATM   35  H14 UNL     1      -3.199  50.957 -10.308  1.00  0.00     0.210 HD
ENDBRANCH  32  34
BRANCH  32  36
HETATM   36  C8  UNL     1      -1.661  52.502 -11.516  1.00  0.00     0.204 C 
BRANCH  36  37
HETATM   37  O3  UNL     1      -1.633  53.890 -11.167  1.00  0.00    -0.398 OA
HETATM   38  H17 UNL     1      -1.312  54.385 -11.947  1.00  0.00     0.209 HD
ENDBRANCH  36  37
ENDBRANCH  32  36
ENDBRANCH  29  32
ENDBRANCH  28  29
ENDBRANCH  27  28
ENDBRANCH  25  27
ENDBRANCH   1  25
TORSDOF 9
ENDMDL
MODEL 8
REMARK minimizedAffinity -8.84530926
REMARK  9 active torsions:
REMARK  status: ('A' for Active; 'I' for Inactive)
REMARK    1  A    between atoms: C2_2  and  C3_3 
REMARK    2  A    between atoms: C2_2  and  C9_12 
REMARK    3  A    between atoms: C3_3  and  C4_4 
REMARK    4  A    between atoms: C4_4  and  C5_5 
REMARK    5  A    between atoms: C5_5  and  O1_6 
REMARK    6  A    between atoms: C5_5  and  C6_7 
REMARK    7  A    between atoms: C6_7  and  O2_9 
REMARK    8  A    between atoms: C6_7  and  C8_10 
REMARK    9  A    between atoms: C8_10  and  O3_11 
ROOT
HETATM    1  C9  UNL     1      -3.636  47.973 -19.500  1.00  0.00    -0.002 C 
HETATM    2  C10 UNL     1      -4.453  47.102 -20.493  1.00  0.00     0.007 C 
HETATM    3  C11 UNL     1      -4.148  47.626 -21.914  1.00  0.00     0.015 C 
HETATM    4  C12 UNL     1      -2.880  48.492 -21.758  1.00  0.00    -0.005 C 
HETATM    5  C13 UNL     1      -1.667  47.509 -21.750  1.00  0.00     0.021 C 
HETATM    6  C14 UNL     1      -2.494  49.535 -22.802  1.00  0.00    -0.000 C 
HETATM    7  C15 UNL     1      -1.812  50.663 -22.461  1.00  0.00    -0.060 C 
HETATM    8  C16 UNL     1      -1.502  50.977 -20.993  1.00  0.00     0.036 C 
HETATM    9  C17 UNL     1      -1.926  49.936 -19.938  1.00  0.00     0.015 C 
HETATM   10  C18 UNL     1      -3.196  49.192 -20.373  1.00  0.00    -0.028 C 
HETATM   11  C19 UNL     1      -4.356  50.227 -20.471  1.00  0.00     0.016 C 
HETATM   12  C20 UNL     1      -1.373  51.717 -23.516  1.00  0.00    -0.014 C 
HETATM   13  C21 UNL     1      -2.544  52.718 -23.627  1.00  0.00     0.020 C 
HETATM   14  C22 UNL     1      -0.091  52.481 -23.083  1.00  0.00     0.021 C 
HETATM   15  C23 UNL     1       0.468  53.385 -24.174  1.00  0.00     0.080 C 
HETATM   16  C24 UNL     1       0.828  52.532 -25.358  1.00  0.00     0.135 C 
HETATM   17  O4  UNL     1       1.981  52.511 -25.783  1.00  0.00    -0.297 OA
HETATM   18  C25 UNL     1      -0.305  51.711 -25.988  1.00  0.00     0.018 C 
HETATM   19  C26 UNL     1       0.336  50.688 -26.963  1.00  0.00     0.023 C 
HETATM   20  C27 UNL     1      -1.181  52.642 -26.833  1.00  0.00     0.023 C 
HETATM   21  C28 UNL     1      -1.049  50.935 -24.842  1.00  0.00     0.020 C 
HETATM   22  C29 UNL     1      -2.297  50.185 -25.316  1.00  0.00     0.090 C 
HETATM   23  C30 UNL     1      -2.834  49.266 -24.243  1.00  0.00     0.157 C 
HETATM   24  O5  UNL     1      -3.557  48.325 -24.563  1.00  0.00    -0.293 OA
ENDROOT
BRANCH   1  25
HETATM   25  C2  UNL     1      -4.308  48.111 -18.096  1.00  0.00    -0.014 C 
HETATM   26  C1  UNL     1      -3.473  47.672 -16.891  1.00  0.00     0.010 C 
BRANCH  25  27
HETATM   27  C3  UNL     1      -5.709  47.455 -18.081  1.00  0.00     0.007 C 
BRANCH  27  28
HETATM   28  C4  UNL     1      -6.897  48.405 -18.352  1.00  0.00     0.035 C 
BRANCH  28  29
HETATM   29  C5  UNL     1      -8.116  48.182 -17.443  1.00  0.00     0.154 C 
BRANCH  29  30
HETATM   30  O1  UNL     1      -7.719  47.373 -16.323  1.00  0.00    -0.392 OA
HETATM   31  H10 UNL     1      -8.563  47.146 -15.878  1.00  0.00     0.210 HD
ENDBRANCH  29  30
BRANCH  29  32
HETATM   32  C6  UNL     1      -9.339  47.499 -18.117  1.00  0.00     0.101 C 
HETATM   33  C7  UNL     1      -9.583  47.977 -19.560  1.00  0.00     0.051 C 
BRANCH  32  34
HETATM   34  O2  UNL     1      -9.003  46.094 -18.208  1.00  0.00    -0.385 OA
HETATM   35  H14 UNL     1      -9.809  45.644 -18.544  1.00  0.00     0.210 HD
ENDBRANCH  32  34
BRANCH  32  36
HETATM   36  C8  UNL     1     -10.612  47.623 -17.258  1.00  0.00     0.204 C 
BRANCH  36  37
HETATM   37  O3  UNL     1     -10.297  48.219 -15.995  1.00  0.00    -0.398 OA
HETATM   38  H17 UNL     1     -10.208  47.497 -15.341  1.00  0.00     0.209 HD
ENDBRANCH  36  37
ENDBRANCH  32  36
ENDBRANCH  29  32
ENDBRANCH  28  29
ENDBRANCH  27  28
ENDBRANCH  25  27
ENDBRANCH   1  25
TORSDOF 9
ENDMDL
MODEL 9
REMARK minimizedAffinity -8.66829586
REMARK  9 active torsions:
REMARK  status: ('A' for Active; 'I' for Inactive)
REMARK    1  A    between atoms: C2_2  and  C3_3 
REMARK    2  A    between atoms: C2_2  and  C9_12 
REMARK    3  A    between atoms: C3_3  and  C4_4 
REMARK    4  A    between atoms: C4_4  and  C5_5 
REMARK    5  A    between atoms: C5_5  and  O1_6 
REMARK    6  A    between atoms: C5_5  and  C6_7 
REMARK    7  A    between atoms: C6_7  and  O2_9 
REMARK    8  A    between atoms: C6_7  and  C8_10 
REMARK    9  A    between atoms: C8_10  and  O3_11 
ROOT
HETATM    1  C9  UNL     1      -1.726  51.664 -22.003  1.00  0.00    -0.002 C 
HETATM    2  C10 UNL     1      -2.607  52.359 -23.077  1.00  0.00     0.007 C 
HETATM    3  C11 UNL     1      -3.969  51.632 -23.086  1.00  0.00     0.015 C 
HETATM    4  C12 UNL     1      -4.001  50.823 -21.771  1.00  0.00    -0.005 C 
HETATM    5  C13 UNL     1      -4.425  51.818 -20.645  1.00  0.00     0.021 C 
HETATM    6  C14 UNL     1      -4.948  49.641 -21.585  1.00  0.00    -0.000 C 
HETATM    7  C15 UNL     1      -4.623  48.590 -20.782  1.00  0.00    -0.060 C 
HETATM    8  C16 UNL     1      -3.243  48.509 -20.120  1.00  0.00     0.036 C 
HETATM    9  C17 UNL     1      -2.277  49.689 -20.340  1.00  0.00     0.015 C 
HETATM   10  C18 UNL     1      -2.495  50.335 -21.715  1.00  0.00    -0.028 C 
HETATM   11  C19 UNL     1      -2.164  49.275 -22.808  1.00  0.00     0.016 C 
HETATM   12  C20 UNL     1      -5.591  47.398 -20.546  1.00  0.00    -0.014 C 
HETATM   13  C21 UNL     1      -5.274  46.370 -21.654  1.00  0.00     0.020 C 
HETATM   14  C22 UNL     1      -5.375  46.732 -19.159  1.00  0.00     0.021 C 
HETATM   15  C23 UNL     1      -6.428  45.684 -18.823  1.00  0.00     0.080 C 
HETATM   16  C24 UNL     1      -7.773  46.354 -18.798  1.00  0.00     0.135 C 
HETATM   17  O4  UNL     1      -8.460  46.332 -17.780  1.00  0.00    -0.297 OA
HETATM   18  C25 UNL     1      -8.222  47.049 -20.090  1.00  0.00     0.018 C 
HETATM   19  C26 UNL     1      -9.458  47.925 -19.752  1.00  0.00     0.023 C 
HETATM   20  C27 UNL     1      -8.691  45.985 -21.088  1.00  0.00     0.023 C 
HETATM   21  C28 UNL     1      -7.054  47.975 -20.585  1.00  0.00     0.020 C 
HETATM   22  C29 UNL     1      -7.316  48.622 -21.949  1.00  0.00     0.090 C 
HETATM   23  C30 UNL     1      -6.288  49.683 -22.268  1.00  0.00     0.157 C 
HETATM   24  O5  UNL     1      -6.556  50.550 -23.095  1.00  0.00    -0.293 OA
ENDROOT
BRANCH   1  25
HETATM   25  C2  UNL     1      -0.196  51.727 -22.319  1.00  0.00    -0.014 C 
HETATM   26  C1  UNL     1       0.743  51.892 -21.122  1.00  0.00     0.010 C 
BRANCH  25  27
HETATM   27  C3  UNL     1       0.104  52.772 -23.419  1.00  0.00     0.007 C 
BRANCH  27  28
HETATM   28  C4  UNL     1       0.530  52.199 -24.790  1.00  0.00     0.035 C 
BRANCH  28  29
HETATM   29  C5  UNL     1       0.421  53.190 -25.959  1.00  0.00     0.154 C 
BRANCH  29  30
HETATM   30  O1  UNL     1       0.102  54.491 -25.440  1.00  0.00    -0.392 OA
HETATM   31  H10 UNL     1      -0.101  55.026 -26.236  1.00  0.00     0.210 HD
ENDBRANCH  29  30
BRANCH  29  32
HETATM   32  C6  UNL     1      -0.636  52.834 -27.043  1.00  0.00     0.101 C 
HETATM   33  C7  UNL     1      -0.551  51.372 -27.518  1.00  0.00     0.051 C 
BRANCH  32  34
HETATM   34  O2  UNL     1      -1.923  52.973 -26.395  1.00  0.00    -0.385 OA
HETATM   35  H14 UNL     1      -2.596  52.845 -27.100  1.00  0.00     0.210 HD
ENDBRANCH  32  34
BRANCH  32  36
HETATM   36  C8  UNL     1      -0.597  53.817 -28.229  1.00  0.00     0.204 C 
BRANCH  36  37
HETATM   37  O3  UNL     1      -1.914  54.309 -28.502  1.00  0.00    -0.398 OA
HETATM   38  H17 UNL     1      -2.275  53.789 -29.247  1.00  0.00     0.209 HD
ENDBRANCH  36  37
ENDBRANCH  32  36
ENDBRANCH  29  32
ENDBRANCH  28  29
ENDBRANCH  27  28
ENDBRANCH  25  27
ENDBRANCH   1  25
TORSDOF 9
ENDMDL
