MODEL 1
REMARK minimizedAffinity -8.51040268
REMARK CNNscore 0.752507508
REMARK CNNaffinity 6.39363527
REMARK  13 active torsions:
REMARK  status: ('A' for Active; 'I' for Inactive)
REMARK    1  A    between atoms: C19_21  and  O3_22 
REMARK    2  A    between atoms: C19_21  and  C20_23 
REMARK    3  A    between atoms: C20_23  and  C21_25 
REMARK    4  A    between atoms: C21_25  and  O5_26 
REMARK    5  A    between atoms: O5_26  and  C22_27 
REMARK    6  A    between atoms: C22_27  and  C23_29 
REMARK    7  A    between atoms: C23_29  and  C24_30 
REMARK    8  A    between atoms: C24_30  and  C25_31 
REMARK       I    between atoms: C25_31  and  N1_33 
REMARK    9  A    between atoms: N1_33  and  C26_34 
REMARK   10  A    between atoms: C26_34  and  C27_35 
REMARK   11  A    between atoms: C27_35  and  C28_36 
REMARK   12  A    between atoms: C31_39  and  O8_40 
REMARK   13  A    between atoms: C32_41  and  O9_42 
ROOT
HETATM    1  C20 UNL     1      -1.422  12.917  17.822  1.00  0.00     0.185 C 
HETATM    2  O4  UNL     1      -2.128  12.750  18.820  1.00  0.00    -0.292 OA
ENDROOT
BRANCH   1   3
HETATM    3  C19 UNL     1       0.121  12.636  17.836  1.00  0.00     0.128 C 
HETATM    4  C14 UNL     1       0.671  11.978  19.151  1.00  0.00     0.005 C 
HETATM    5  C13 UNL     1       2.034  11.281  18.910  1.00  0.00     0.091 C 
HETATM    6  C15 UNL     1      -0.299  10.905  19.703  1.00  0.00     0.019 C 
HETATM    7  C16 UNL     1       0.856  13.172  20.139  1.00  0.00     0.002 C 
HETATM    8  C12 UNL     1       2.622  10.792  20.214  1.00  0.00     0.133 C 
HETATM    9  C11 UNL     1       2.674  11.777  21.379  1.00  0.00     0.072 C 
HETATM   10  O2  UNL     1       3.022   9.634  20.327  1.00  0.00    -0.297 OA
HETATM   11  C2  UNL     1       4.103  11.846  22.051  1.00  0.00    -0.009 C 
HETATM   12  C10 UNL     1       2.186  13.176  20.941  1.00  0.00     0.003 C 
HETATM   13  C1  UNL     1       4.240  10.686  23.066  1.00  0.00     0.021 C 
HETATM   14  C3  UNL     1       5.248  11.771  21.003  1.00  0.00     0.022 C 
HETATM   15  C7  UNL     1       4.252  13.168  22.817  1.00  0.00    -0.067 C 
HETATM   16  C4  UNL     1       6.634  12.023  21.596  1.00  0.00     0.084 C 
HETATM   17  C5  UNL     1       6.677  13.305  22.388  1.00  0.00     0.149 C 
HETATM   18  O1  UNL     1       7.725  13.913  22.593  1.00  0.00    -0.293 OA
HETATM   19  C6  UNL     1       5.415  13.824  22.963  1.00  0.00     0.053 C 
HETATM   20  C8  UNL     1       2.970  13.755  23.335  1.00  0.00     0.035 C 
HETATM   21  C9  UNL     1       2.065  14.129  22.161  1.00  0.00     0.010 C 
HETATM   22  C17 UNL     1       0.762  14.455  19.278  1.00  0.00     0.009 C 
HETATM   23  C18 UNL     1       0.827  13.995  17.827  1.00  0.00     0.047 C 
BRANCH   3  24
HETATM   24  O3  UNL     1       0.558  11.866  16.725  1.00  0.00    -0.381 OA
HETATM   25  H25 UNL     1       0.378  12.358  15.903  1.00  0.00     0.211 HD
ENDBRANCH   3  24
ENDBRANCH   1   3
BRANCH   1  26
HETATM   26  C21 UNL     1      -2.008  13.615  16.592  1.00  0.00     0.260 C 
BRANCH  26  27
HETATM   27  O5  UNL     1      -3.186  13.028  16.055  1.00  0.00    -0.314 OA
BRANCH  27  28
HETATM   28  C22 UNL     1      -2.981  11.831  15.437  1.00  0.00     0.259 C 
HETATM   29  O6  UNL     1      -1.961  11.519  14.838  1.00  0.00    -0.265 OA
BRANCH  28  30
HETATM   30  C23 UNL     1      -4.203  10.954  15.554  1.00  0.00     0.120 C 
BRANCH  30  31
HETATM   31  C24 UNL     1      -3.813   9.571  16.063  1.00  0.00     0.112 C 
BRANCH  31  32
HETATM   32  C25 UNL     1      -4.833   8.530  15.644  1.00  0.00     0.218 C 
HETATM   33  O7  UNL     1      -6.025   8.779  15.511  1.00  0.00    -0.274 OA
HETATM   34  N1  UNL     1      -4.281   7.293  15.398  1.00  0.00    -0.361 N 
HETATM   35  H32 UNL     1      -3.355   7.103  15.760  1.00  0.00     0.162 HD
BRANCH  34  36
HETATM   36  C26 UNL     1      -5.122   6.143  15.115  1.00  0.00     0.127 C 
BRANCH  36  37
HETATM   37  C27 UNL     1      -5.736   6.176  13.710  1.00  0.00     0.058 C 
BRANCH  37  38
HETATM   38  C28 UNL     1      -5.857   4.799  13.095  1.00  0.00    -0.054 A 
HETATM   39  C29 UNL     1      -4.770   4.236  12.404  1.00  0.00     0.010 A 
HETATM   40  C30 UNL     1      -4.881   2.980  11.806  1.00  0.00     0.040 A 
HETATM   41  C31 UNL     1      -6.079   2.288  11.903  1.00  0.00     0.098 A 
HETATM   42  C32 UNL     1      -7.161   2.830  12.590  1.00  0.00     0.099 A 
HETATM   43  C33 UNL     1      -7.062   4.083  13.185  1.00  0.00     0.046 A 
BRANCH  41  44
HETATM   44  O8  UNL     1      -6.192   1.060  11.315  1.00  0.00    -0.358 OA
HETATM   45  H39 UNL     1      -7.098   0.768  11.532  1.00  0.00     0.217 HD
ENDBRANCH  41  44
BRANCH  42  46
HETATM   46  O9  UNL     1      -8.310   2.088  12.653  1.00  0.00    -0.358 OA
HETATM   47  H40 UNL     1      -8.954   2.573  13.197  1.00  0.00     0.217 HD
ENDBRANCH  42  46
ENDBRANCH  37  38
ENDBRANCH  36  37
ENDBRANCH  34  36
ENDBRANCH  31  32
ENDBRANCH  30  31
ENDBRANCH  28  30
ENDBRANCH  27  28
ENDBRANCH  26  27
ENDBRANCH   1  26
TORSDOF 13
ENDMDL
MODEL 2
REMARK minimizedAffinity -9.28317738
REMARK CNNscore 0.564400256
REMARK CNNaffinity 7.48476076
REMARK  13 active torsions:
REMARK  status: ('A' for Active; 'I' for Inactive)
REMARK    1  A    between atoms: C19_21  and  O3_22 
REMARK    2  A    between atoms: C19_21  and  C20_23 
REMARK    3  A    between atoms: C20_23  and  C21_25 
REMARK    4  A    between atoms: C21_25  and  O5_26 
REMARK    5  A    between atoms: O5_26  and  C22_27 
REMARK    6  A    between atoms: C22_27  and  C23_29 
REMARK    7  A    between atoms: C23_29  and  C24_30 
REMARK    8  A    between atoms: C24_30  and  C25_31 
REMARK       I    between atoms: C25_31  and  N1_33 
REMARK    9  A    between atoms: N1_33  and  C26_34 
REMARK   10  A    between atoms: C26_34  and  C27_35 
REMARK   11  A    between atoms: C27_35  and  C28_36 
REMARK   12  A    between atoms: C31_39  and  O8_40 
REMARK   13  A    between atoms: C32_41  and  O9_42 
ROOT
HETATM    1  C20 UNL     1      -2.340   6.730  14.048  1.00  0.00     0.185 C 
HETATM    2  O4  UNL     1      -2.680   6.589  12.870  1.00  0.00    -0.292 OA
ENDROOT
BRANCH   1   3
HETATM    3  C19 UNL     1      -0.839   6.654  14.498  1.00  0.00     0.128 C 
HETATM    4  C14 UNL     1       0.086   7.794  13.942  1.00  0.00     0.005 C 
HETATM    5  C13 UNL     1       1.367   7.952  14.799  1.00  0.00     0.091 C 
HETATM    6  C15 UNL     1      -0.633   9.164  13.937  1.00  0.00     0.019 C 
HETATM    7  C16 UNL     1       0.469   7.321  12.504  1.00  0.00     0.002 C 
HETATM    8  C12 UNL     1       2.317   8.941  14.161  1.00  0.00     0.133 C 
HETATM    9  C11 UNL     1       2.632   8.762  12.679  1.00  0.00     0.072 C 
HETATM   10  O2  UNL     1       2.797   9.864  14.818  1.00  0.00    -0.297 OA
HETATM   11  C2  UNL     1       4.185   8.782  12.382  1.00  0.00    -0.009 C 
HETATM   12  C10 UNL     1       1.965   7.485  12.123  1.00  0.00     0.003 C 
HETATM   13  C1  UNL     1       4.659  10.251  12.274  1.00  0.00     0.021 C 
HETATM   14  C3  UNL     1       5.000   8.041  13.477  1.00  0.00     0.022 C 
HETATM   15  C7  UNL     1       4.464   8.092  11.039  1.00  0.00    -0.067 C 
HETATM   16  C4  UNL     1       6.479   7.876  13.130  1.00  0.00     0.084 C 
HETATM   17  C5  UNL     1       6.666   7.255  11.769  1.00  0.00     0.149 C 
HETATM   18  O1  UNL     1       7.695   6.659  11.457  1.00  0.00    -0.293 OA
HETATM   19  C6  UNL     1       5.584   7.402  10.769  1.00  0.00     0.053 C 
HETATM   20  C8  UNL     1       3.343   8.156  10.042  1.00  0.00     0.035 C 
HETATM   21  C9  UNL     1       2.131   7.397  10.581  1.00  0.00     0.010 C 
HETATM   22  C17 UNL     1       0.070   5.827  12.427  1.00  0.00     0.009 C 
HETATM   23  C18 UNL     1      -0.240   5.399  13.856  1.00  0.00     0.047 C 
BRANCH   3  24
HETATM   24  O3  UNL     1      -0.682   6.588  15.908  1.00  0.00    -0.381 OA
HETATM   25  H25 UNL     1      -1.108   5.777  16.240  1.00  0.00     0.211 HD
ENDBRANCH   3  24
ENDBRANCH   1   3
BRANCH   1  26
HETATM   26  C21 UNL     1      -3.410   6.773  15.141  1.00  0.00     0.260 C 
BRANCH  26  27
HETATM   27  O5  UNL     1      -4.690   6.277  14.769  1.00  0.00    -0.314 OA
BRANCH  27  28
HETATM   28  C22 UNL     1      -5.605   7.247  14.492  1.00  0.00     0.259 C 
HETATM   29  O6  UNL     1      -5.798   7.730  13.385  1.00  0.00    -0.265 OA
BRANCH  28  30
HETATM   30  C23 UNL     1      -6.322   7.679  15.747  1.00  0.00     0.120 C 
BRANCH  30  31
HETATM   31  C24 UNL     1      -7.827   7.495  15.585  1.00  0.00     0.112 C 
BRANCH  31  32
HETATM   32  C25 UNL     1      -8.136   6.372  14.614  1.00  0.00     0.218 C 
HETATM   33  O7  UNL     1      -8.869   6.513  13.642  1.00  0.00    -0.274 OA
HETATM   34  N1  UNL     1      -7.487   5.196  14.914  1.00  0.00    -0.361 N 
HETATM   35  H32 UNL     1      -7.107   5.085  15.846  1.00  0.00     0.162 HD
BRANCH  34  36
HETATM   36  C26 UNL     1      -7.766   3.979  14.171  1.00  0.00     0.127 C 
BRANCH  36  37
HETATM   37  C27 UNL     1      -7.448   4.099  12.676  1.00  0.00     0.058 C 
BRANCH  37  38
HETATM   38  C28 UNL     1      -6.220   3.312  12.277  1.00  0.00    -0.054 A 
HETATM   39  C29 UNL     1      -6.352   2.015  11.750  1.00  0.00     0.010 A 
HETATM   40  C30 UNL     1      -5.224   1.267  11.408  1.00  0.00     0.040 A 
HETATM   41  C31 UNL     1      -3.965   1.819  11.591  1.00  0.00     0.098 A 
HETATM   42  C32 UNL     1      -3.819   3.105  12.105  1.00  0.00     0.099 A 
HETATM   43  C33 UNL     1      -4.937   3.856  12.454  1.00  0.00     0.046 A 
BRANCH  41  44
HETATM   44  O8  UNL     1      -2.859   1.088  11.262  1.00  0.00    -0.358 OA
HETATM   45  H39 UNL     1      -2.108   1.682  11.455  1.00  0.00     0.217 HD
ENDBRANCH  41  44
BRANCH  42  46
HETATM   46  O9  UNL     1      -2.547   3.590  12.252  1.00  0.00    -0.358 OA
HETATM   47  H40 UNL     1      -2.607   4.505  12.576  1.00  0.00     0.217 HD
ENDBRANCH  42  46
ENDBRANCH  37  38
ENDBRANCH  36  37
ENDBRANCH  34  36
ENDBRANCH  31  32
ENDBRANCH  30  31
ENDBRANCH  28  30
ENDBRANCH  27  28
ENDBRANCH  26  27
ENDBRANCH   1  26
TORSDOF 13
ENDMDL
MODEL 3
REMARK minimizedAffinity -8.85639763
REMARK CNNscore 0.48939231
REMARK CNNaffinity 6.46089029
REMARK  13 active torsions:
REMARK  status: ('A' for Active; 'I' for Inactive)
REMARK    1  A    between atoms: C19_21  and  O3_22 
REMARK    2  A    between atoms: C19_21  and  C20_23 
REMARK    3  A    between atoms: C20_23  and  C21_25 
REMARK    4  A    between atoms: C21_25  and  O5_26 
REMARK    5  A    between atoms: O5_26  and  C22_27 
REMARK    6  A    between atoms: C22_27  and  C23_29 
REMARK    7  A    between atoms: C23_29  and  C24_30 
REMARK    8  A    between atoms: C24_30  and  C25_31 
REMARK       I    between atoms: C25_31  and  N1_33 
REMARK    9  A    between atoms: N1_33  and  C26_34 
REMARK   10  A    between atoms: C26_34  and  C27_35 
REMARK   11  A    between atoms: C27_35  and  C28_36 
REMARK   12  A    between atoms: C31_39  and  O8_40 
REMARK   13  A    between atoms: C32_41  and  O9_42 
ROOT
HETATM    1  C20 UNL     1       7.072   8.073  13.545  1.00  0.00     0.185 C 
HETATM    2  O4  UNL     1       7.959   8.033  12.687  1.00  0.00    -0.292 OA
ENDROOT
BRANCH   1   3
HETATM    3  C19 UNL     1       7.389   8.313  15.062  1.00  0.00     0.128 C 
HETATM    4  C14 UNL     1       7.688   9.804  15.456  1.00  0.00     0.005 C 
HETATM    5  C13 UNL     1       7.486  10.040  16.974  1.00  0.00     0.091 C 
HETATM    6  C15 UNL     1       6.757  10.791  14.712  1.00  0.00     0.019 C 
HETATM    7  C16 UNL     1       9.190  10.012  15.085  1.00  0.00     0.002 C 
HETATM    8  C12 UNL     1       7.929  11.433  17.361  1.00  0.00     0.133 C 
HETATM    9  C11 UNL     1       9.302  11.896  16.882  1.00  0.00     0.072 C 
HETATM   10  O2  UNL     1       7.194  12.165  18.022  1.00  0.00    -0.297 OA
HETATM   11  C2  UNL     1      10.180  12.501  18.048  1.00  0.00    -0.009 C 
HETATM   12  C10 UNL     1      10.043  10.757  16.147  1.00  0.00     0.003 C 
HETATM   13  C1  UNL     1       9.787  13.983  18.259  1.00  0.00     0.021 C 
HETATM   14  C3  UNL     1      10.010  11.714  19.378  1.00  0.00     0.022 C 
HETATM   15  C7  UNL     1      11.664  12.453  17.659  1.00  0.00    -0.067 C 
HETATM   16  C4  UNL     1      10.982  12.152  20.473  1.00  0.00     0.084 C 
HETATM   17  C5  UNL     1      12.409  12.142  19.990  1.00  0.00     0.149 C 
HETATM   18  O1  UNL     1      13.361  12.046  20.760  1.00  0.00    -0.293 OA
HETATM   19  C6  UNL     1      12.666  12.287  18.538  1.00  0.00     0.053 C 
HETATM   20  C8  UNL     1      11.940  12.512  16.184  1.00  0.00     0.035 C 
HETATM   21  C9  UNL     1      11.358  11.275  15.501  1.00  0.00     0.010 C 
HETATM   22  C17 UNL     1       9.770   8.597  14.846  1.00  0.00     0.009 C 
HETATM   23  C18 UNL     1       8.721   7.619  15.359  1.00  0.00     0.047 C 
BRANCH   3  24
HETATM   24  O3  UNL     1       6.384   7.807  15.929  1.00  0.00    -0.381 OA
HETATM   25  H25 UNL     1       6.319   6.841  15.814  1.00  0.00     0.211 HD
ENDBRANCH   3  24
ENDBRANCH   1   3
BRANCH   1  26
HETATM   26  C21 UNL     1       5.643   7.672  13.170  1.00  0.00     0.260 C 
BRANCH  26  27
HETATM   27  O5  UNL     1       5.259   7.944  11.828  1.00  0.00    -0.314 OA
BRANCH  27  28
HETATM   28  C22 UNL     1       4.882   6.841  11.122  1.00  0.00     0.259 C 
HETATM   29  O6  UNL     1       5.621   6.190  10.396  1.00  0.00    -0.265 OA
BRANCH  28  30
HETATM   30  C23 UNL     1       3.415   6.556  11.321  1.00  0.00     0.120 C 
BRANCH  30  31
HETATM   31  C24 UNL     1       2.590   7.805  11.033  1.00  0.00     0.112 C 
BRANCH  31  32
HETATM   32  C25 UNL     1       1.112   7.544  11.254  1.00  0.00     0.218 C 
HETATM   33  O7  UNL     1       0.247   8.389  11.052  1.00  0.00    -0.274 OA
HETATM   34  N1  UNL     1       0.840   6.260  11.670  1.00  0.00    -0.361 N 
HETATM   35  H32 UNL     1       1.602   5.709  12.046  1.00  0.00     0.162 HD
BRANCH  34  36
HETATM   36  C26 UNL     1      -0.504   5.870  12.057  1.00  0.00     0.127 C 
BRANCH  36  37
HETATM   37  C27 UNL     1      -1.086   4.756  11.178  1.00  0.00     0.058 C 
BRANCH  37  38
HETATM   38  C28 UNL     1      -2.517   4.421  11.534  1.00  0.00    -0.054 A 
HETATM   39  C29 UNL     1      -3.107   4.974  12.684  1.00  0.00     0.010 A 
HETATM   40  C30 UNL     1      -4.416   4.647  13.041  1.00  0.00     0.040 A 
HETATM   41  C31 UNL     1      -5.135   3.769  12.244  1.00  0.00     0.098 A 
HETATM   42  C32 UNL     1      -4.566   3.218  11.098  1.00  0.00     0.099 A 
HETATM   43  C33 UNL     1      -3.260   3.534  10.738  1.00  0.00     0.046 A 
BRANCH  41  44
HETATM   44  O8  UNL     1      -6.415   3.443  12.592  1.00  0.00    -0.358 OA
HETATM   45  H39 UNL     1      -6.715   2.840  11.883  1.00  0.00     0.217 HD
ENDBRANCH  41  44
BRANCH  42  46
HETATM   46  O9  UNL     1      -5.335   2.365  10.354  1.00  0.00    -0.358 OA
HETATM   47  H40 UNL     1      -4.823   2.100   9.571  1.00  0.00     0.217 HD
ENDBRANCH  42  46
ENDBRANCH  37  38
ENDBRANCH  36  37
ENDBRANCH  34  36
ENDBRANCH  31  32
ENDBRANCH  30  31
ENDBRANCH  28  30
ENDBRANCH  27  28
ENDBRANCH  26  27
ENDBRANCH   1  26
TORSDOF 13
ENDMDL
MODEL 4
REMARK minimizedAffinity -9.04043198
REMARK CNNscore 0.470082164
REMARK CNNaffinity 6.34354353
REMARK  13 active torsions:
REMARK  status: ('A' for Active; 'I' for Inactive)
REMARK    1  A    between atoms: C19_21  and  O3_22 
REMARK    2  A    between atoms: C19_21  and  C20_23 
REMARK    3  A    between atoms: C20_23  and  C21_25 
REMARK    4  A    between atoms: C21_25  and  O5_26 
REMARK    5  A    between atoms: O5_26  and  C22_27 
REMARK    6  A    between atoms: C22_27  and  C23_29 
REMARK    7  A    between atoms: C23_29  and  C24_30 
REMARK    8  A    between atoms: C24_30  and  C25_31 
REMARK       I    between atoms: C25_31  and  N1_33 
REMARK    9  A    between atoms: N1_33  and  C26_34 
REMARK   10  A    between atoms: C26_34  and  C27_35 
REMARK   11  A    between atoms: C27_35  and  C28_36 
REMARK   12  A    between atoms: C31_39  and  O8_40 
REMARK   13  A    between atoms: C32_41  and  O9_42 
ROOT
HETATM    1  C20 UNL     1      -1.552   6.192  12.628  1.00  0.00     0.185 C 
HETATM    2  O4  UNL     1      -1.490   5.449  11.644  1.00  0.00    -0.292 OA
ENDROOT
BRANCH   1   3
HETATM    3  C19 UNL     1      -0.291   6.537  13.493  1.00  0.00     0.128 C 
HETATM    4  C14 UNL     1       0.599   7.708  12.944  1.00  0.00     0.005 C 
HETATM    5  C13 UNL     1       1.488   8.315  14.058  1.00  0.00     0.091 C 
HETATM    6  C15 UNL     1      -0.260   8.858  12.368  1.00  0.00     0.019 C 
HETATM    7  C16 UNL     1       1.499   7.040  11.857  1.00  0.00     0.002 C 
HETATM    8  C12 UNL     1       2.449   9.331  13.481  1.00  0.00     0.133 C 
HETATM    9  C11 UNL     1       3.260   8.919  12.255  1.00  0.00     0.072 C 
HETATM   10  O2  UNL     1       2.551  10.452  13.977  1.00  0.00    -0.297 OA
HETATM   11  C2  UNL     1       4.804   9.211  12.423  1.00  0.00    -0.009 C 
HETATM   12  C10 UNL     1       2.999   7.440  11.893  1.00  0.00     0.003 C 
HETATM   13  C1  UNL     1       5.078  10.692  12.069  1.00  0.00     0.021 C 
HETATM   14  C3  UNL     1       5.305   8.909  13.863  1.00  0.00     0.022 C 
HETATM   15  C7  UNL     1       5.606   8.333  11.452  1.00  0.00    -0.067 C 
HETATM   16  C4  UNL     1       6.823   8.999  14.012  1.00  0.00     0.084 C 
HETATM   17  C5  UNL     1       7.535   8.163  12.979  1.00  0.00     0.149 C 
HETATM   18  O1  UNL     1       8.681   7.751  13.147  1.00  0.00    -0.293 OA
HETATM   19  C6  UNL     1       6.836   7.860  11.709  1.00  0.00     0.053 C 
HETATM   20  C8  UNL     1       4.882   7.943  10.195  1.00  0.00     0.035 C 
HETATM   21  C9  UNL     1       3.677   7.070  10.546  1.00  0.00     0.010 C 
HETATM   22  C17 UNL     1       1.360   5.513  12.070  1.00  0.00     0.009 C 
HETATM   23  C18 UNL     1       0.655   5.336  13.409  1.00  0.00     0.047 C 
BRANCH   3  24
HETATM   24  O3  UNL     1      -0.603   6.803  14.853  1.00  0.00    -0.381 OA
HETATM   25  H25 UNL     1      -0.998   6.007  15.253  1.00  0.00     0.211 HD
ENDBRANCH   3  24
ENDBRANCH   1   3
BRANCH   1  26
HETATM   26  C21 UNL     1      -2.920   6.629  13.157  1.00  0.00     0.260 C 
BRANCH  26  27
HETATM   27  O5  UNL     1      -2.933   7.837  13.908  1.00  0.00    -0.314 OA
BRANCH  27  28
HETATM   28  C22 UNL     1      -3.954   8.681  13.591  1.00  0.00     0.259 C 
HETATM   29  O6  UNL     1      -4.583   8.654  12.542  1.00  0.00    -0.265 OA
BRANCH  28  30
HETATM   30  C23 UNL     1      -4.178   9.685  14.694  1.00  0.00     0.120 C 
BRANCH  30  31
HETATM   31  C24 UNL     1      -4.710   8.989  15.941  1.00  0.00     0.112 C 
BRANCH  31  32
HETATM   32  C25 UNL     1      -6.018   8.278  15.652  1.00  0.00     0.218 C 
HETATM   33  O7  UNL     1      -7.006   8.852  15.207  1.00  0.00    -0.274 OA
HETATM   34  N1  UNL     1      -5.973   6.926  15.905  1.00  0.00    -0.361 N 
HETATM   35  H32 UNL     1      -5.224   6.575  16.490  1.00  0.00     0.162 HD
BRANCH  34  36
HETATM   36  C26 UNL     1      -7.169   6.108  15.811  1.00  0.00     0.127 C 
BRANCH  36  37
HETATM   37  C27 UNL     1      -7.724   6.012  14.384  1.00  0.00     0.058 C 
BRANCH  37  38
HETATM   38  C28 UNL     1      -7.136   4.854  13.608  1.00  0.00    -0.054 A 
HETATM   39  C29 UNL     1      -5.882   4.984  12.987  1.00  0.00     0.010 A 
HETATM   40  C30 UNL     1      -5.344   3.934  12.242  1.00  0.00     0.040 A 
HETATM   41  C31 UNL     1      -6.061   2.753  12.122  1.00  0.00     0.098 A 
HETATM   42  C32 UNL     1      -7.302   2.607  12.738  1.00  0.00     0.099 A 
HETATM   43  C33 UNL     1      -7.848   3.650  13.478  1.00  0.00     0.046 A 
BRANCH  41  44
HETATM   44  O8  UNL     1      -5.540   1.724  11.390  1.00  0.00    -0.358 OA
HETATM   45  H39 UNL     1      -6.201   1.009  11.469  1.00  0.00     0.217 HD
ENDBRANCH  41  44
BRANCH  42  46
HETATM   46  O9  UNL     1      -7.951   1.411  12.585  1.00  0.00    -0.358 OA
HETATM   47  H40 UNL     1      -8.773   1.445  13.103  1.00  0.00     0.217 HD
ENDBRANCH  42  46
ENDBRANCH  37  38
ENDBRANCH  36  37
ENDBRANCH  34  36
ENDBRANCH  31  32
ENDBRANCH  30  31
ENDBRANCH  28  30
ENDBRANCH  27  28
ENDBRANCH  26  27
ENDBRANCH   1  26
TORSDOF 13
ENDMDL
MODEL 5
REMARK minimizedAffinity -9.24310589
REMARK CNNscore 0.462195158
REMARK CNNaffinity 6.67227507
REMARK  13 active torsions:
REMARK  status: ('A' for Active; 'I' for Inactive)
REMARK    1  A    between atoms: C19_21  and  O3_22 
REMARK    2  A    between atoms: C19_21  and  C20_23 
REMARK    3  A    between atoms: C20_23  and  C21_25 
REMARK    4  A    between atoms: C21_25  and  O5_26 
REMARK    5  A    between atoms: O5_26  and  C22_27 
REMARK    6  A    between atoms: C22_27  and  C23_29 
REMARK    7  A    between atoms: C23_29  and  C24_30 
REMARK    8  A    between atoms: C24_30  and  C25_31 
REMARK       I    between atoms: C25_31  and  N1_33 
REMARK    9  A    between atoms: N1_33  and  C26_34 
REMARK   10  A    between atoms: C26_34  and  C27_35 
REMARK   11  A    between atoms: C27_35  and  C28_36 
REMARK   12  A    between atoms: C31_39  and  O8_40 
REMARK   13  A    between atoms: C32_41  and  O9_42 
ROOT
HETATM    1  C20 UNL     1      -2.204   6.008  13.022  1.00  0.00     0.185 C 
HETATM    2  O4  UNL     1      -2.822   7.000  12.625  1.00  0.00    -0.292 OA
ENDROOT
BRANCH   1   3
HETATM    3  C19 UNL     1      -0.791   6.120  13.695  1.00  0.00     0.128 C 
HETATM    4  C14 UNL     1       0.099   7.311  13.191  1.00  0.00     0.005 C 
HETATM    5  C13 UNL     1       1.209   7.661  14.213  1.00  0.00     0.091 C 
HETATM    6  C15 UNL     1      -0.736   8.594  12.967  1.00  0.00     0.019 C 
HETATM    7  C16 UNL     1       0.744   6.786  11.870  1.00  0.00     0.002 C 
HETATM    8  C12 UNL     1       2.151   8.699  13.645  1.00  0.00     0.133 C 
HETATM    9  C11 UNL     1       2.709   8.456  12.245  1.00  0.00     0.072 C 
HETATM   10  O2  UNL     1       2.433   9.709  14.288  1.00  0.00    -0.297 OA
HETATM   11  C2  UNL     1       4.279   8.619  12.182  1.00  0.00    -0.009 C 
HETATM   12  C10 UNL     1       2.259   7.081  11.704  1.00  0.00     0.003 C 
HETATM   13  C1  UNL     1       4.625  10.119  12.026  1.00  0.00     0.021 C 
HETATM   14  C3  UNL     1       4.980   8.042  13.444  1.00  0.00     0.022 C 
HETATM   15  C7  UNL     1       4.829   7.874  10.957  1.00  0.00    -0.067 C 
HETATM   16  C4  UNL     1       6.504   8.011  13.335  1.00  0.00     0.084 C 
HETATM   17  C5  UNL     1       6.959   7.324  12.073  1.00  0.00     0.149 C 
HETATM   18  O1  UNL     1       8.074   6.820  11.967  1.00  0.00    -0.293 OA
HETATM   19  C6  UNL     1       6.037   7.289  10.914  1.00  0.00     0.053 C 
HETATM   20  C8  UNL     1       3.876   7.753   9.802  1.00  0.00     0.035 C 
HETATM   21  C9  UNL     1       2.671   6.908  10.216  1.00  0.00     0.010 C 
HETATM   22  C17 UNL     1       0.504   5.257  11.858  1.00  0.00     0.009 C 
HETATM   23  C18 UNL     1       0.015   4.895  13.255  1.00  0.00     0.047 C 
BRANCH   3  24
HETATM   24  O3  UNL     1      -0.851   6.165  15.114  1.00  0.00    -0.381 OA
HETATM   25  H25 UNL     1      -1.246   5.338  15.444  1.00  0.00     0.211 HD
ENDBRANCH   3  24
ENDBRANCH   1   3
BRANCH   1  26
HETATM   26  C21 UNL     1      -2.716   4.609  12.670  1.00  0.00     0.260 C 
BRANCH  26  27
HETATM   27  O5  UNL     1      -4.063   4.543  12.218  1.00  0.00    -0.314 OA
BRANCH  27  28
HETATM   28  C22 UNL     1      -4.242   3.766  11.113  1.00  0.00     0.259 C 
HETATM   29  O6  UNL     1      -3.410   3.600  10.232  1.00  0.00    -0.265 OA
BRANCH  28  30
HETATM   30  C23 UNL     1      -5.628   3.168  11.101  1.00  0.00     0.120 C 
BRANCH  30  31
HETATM   31  C24 UNL     1      -6.072   2.837  12.521  1.00  0.00     0.112 C 
BRANCH  31  32
HETATM   32  C25 UNL     1      -7.379   3.528  12.858  1.00  0.00     0.218 C 
HETATM   33  O7  UNL     1      -8.467   2.968  12.791  1.00  0.00    -0.274 OA
HETATM   34  N1  UNL     1      -7.217   4.830  13.276  1.00  0.00    -0.361 N 
HETATM   35  H32 UNL     1      -6.338   5.290  13.073  1.00  0.00     0.162 HD
BRANCH  34  36
HETATM   36  C26 UNL     1      -8.365   5.686  13.514  1.00  0.00     0.127 C 
BRANCH  36  37
HETATM   37  C27 UNL     1      -8.231   6.536  14.784  1.00  0.00     0.058 C 
BRANCH  37  38
HETATM   38  C28 UNL     1      -6.824   7.049  14.995  1.00  0.00    -0.054 A 
HETATM   39  C29 UNL     1      -6.469   8.339  14.562  1.00  0.00     0.010 A 
HETATM   40  C30 UNL     1      -5.166   8.810  14.723  1.00  0.00     0.040 A 
HETATM   41  C31 UNL     1      -4.219   7.992  15.320  1.00  0.00     0.098 A 
HETATM   42  C32 UNL     1      -4.558   6.715  15.759  1.00  0.00     0.099 A 
HETATM   43  C33 UNL     1      -5.852   6.234  15.599  1.00  0.00     0.046 A 
BRANCH  41  44
HETATM   44  O8  UNL     1      -2.941   8.449  15.475  1.00  0.00    -0.358 OA
HETATM   45  H39 UNL     1      -2.475   7.720  15.928  1.00  0.00     0.217 HD
ENDBRANCH  41  44
BRANCH  42  46
HETATM   46  O9  UNL     1      -3.574   5.964  16.347  1.00  0.00    -0.358 OA
HETATM   47  H40 UNL     1      -3.968   5.124  16.638  1.00  0.00     0.217 HD
ENDBRANCH  42  46
ENDBRANCH  37  38
ENDBRANCH  36  37
ENDBRANCH  34  36
ENDBRANCH  31  32
ENDBRANCH  30  31
ENDBRANCH  28  30
ENDBRANCH  27  28
ENDBRANCH  26  27
ENDBRANCH   1  26
TORSDOF 13
ENDMDL
MODEL 6
REMARK minimizedAffinity -9.63639545
REMARK CNNscore 0.424349576
REMARK CNNaffinity 7.39188004
REMARK  13 active torsions:
REMARK  status: ('A' for Active; 'I' for Inactive)
REMARK    1  A    between atoms: C19_21  and  O3_22 
REMARK    2  A    between atoms: C19_21  and  C20_23 
REMARK    3  A    between atoms: C20_23  and  C21_25 
REMARK    4  A    between atoms: C21_25  and  O5_26 
REMARK    5  A    between atoms: O5_26  and  C22_27 
REMARK    6  A    between atoms: C22_27  and  C23_29 
REMARK    7  A    between atoms: C23_29  and  C24_30 
REMARK    8  A    between atoms: C24_30  and  C25_31 
REMARK       I    between atoms: C25_31  and  N1_33 
REMARK    9  A    between atoms: N1_33  and  C26_34 
REMARK   10  A    between atoms: C26_34  and  C27_35 
REMARK   11  A    between atoms: C27_35  and  C28_36 
REMARK   12  A    between atoms: C31_39  and  O8_40 
REMARK   13  A    between atoms: C32_41  and  O9_42 
ROOT
HETATM    1  C20 UNL     1      -1.821   8.414  15.303  1.00  0.00     0.185 C 
HETATM    2  O4  UNL     1      -1.586   9.625  15.354  1.00  0.00    -0.292 OA
ENDROOT
BRANCH   1   3
HETATM    3  C19 UNL     1      -0.768   7.382  14.768  1.00  0.00     0.128 C 
HETATM    4  C14 UNL     1       0.372   7.989  13.876  1.00  0.00     0.005 C 
HETATM    5  C13 UNL     1       1.605   7.053  13.817  1.00  0.00     0.091 C 
HETATM    6  C15 UNL     1       0.859   9.353  14.419  1.00  0.00     0.019 C 
HETATM    7  C16 UNL     1      -0.265   8.111  12.456  1.00  0.00     0.002 C 
HETATM    8  C12 UNL     1       2.626   7.576  12.832  1.00  0.00     0.133 C 
HETATM    9  C11 UNL     1       2.131   7.966  11.442  1.00  0.00     0.072 C 
HETATM   10  O2  UNL     1       3.807   7.696  13.156  1.00  0.00    -0.297 OA
HETATM   11  C2  UNL     1       2.995   7.321  10.287  1.00  0.00    -0.009 C 
HETATM   12  C10 UNL     1       0.630   7.638  11.279  1.00  0.00     0.003 C 
HETATM   13  C1  UNL     1       4.252   8.191  10.050  1.00  0.00     0.021 C 
HETATM   14  C3  UNL     1       3.416   5.861  10.615  1.00  0.00     0.022 C 
HETATM   15  C7  UNL     1       2.182   7.295   8.984  1.00  0.00    -0.067 C 
HETATM   16  C4  UNL     1       4.089   5.143   9.446  1.00  0.00     0.084 C 
HETATM   17  C5  UNL     1       3.259   5.222   8.190  1.00  0.00     0.149 C 
HETATM   18  O1  UNL     1       3.370   4.406   7.279  1.00  0.00    -0.293 OA
HETATM   19  C6  UNL     1       2.302   6.343   8.044  1.00  0.00     0.053 C 
HETATM   20  C8  UNL     1       1.146   8.374   8.856  1.00  0.00     0.035 C 
HETATM   21  C9  UNL     1       0.082   8.197   9.938  1.00  0.00     0.010 C 
HETATM   22  C17 UNL     1      -1.563   7.268  12.497  1.00  0.00     0.009 C 
HETATM   23  C18 UNL     1      -1.499   6.460  13.788  1.00  0.00     0.047 C 
BRANCH   3  24
HETATM   24  O3  UNL     1      -0.175   6.605  15.798  1.00  0.00    -0.381 OA
HETATM   25  H25 UNL     1      -0.866   6.083  16.245  1.00  0.00     0.211 HD
ENDBRANCH   3  24
ENDBRANCH   1   3
BRANCH   1  26
HETATM   26  C21 UNL     1      -3.242   7.910  15.567  1.00  0.00     0.260 C 
BRANCH  26  27
HETATM   27  O5  UNL     1      -4.286   8.677  14.979  1.00  0.00    -0.314 OA
BRANCH  27  28
HETATM   28  C22 UNL     1      -5.423   7.971  14.726  1.00  0.00     0.259 C 
HETATM   29  O6  UNL     1      -6.490   8.462  14.385  1.00  0.00    -0.265 OA
BRANCH  28  30
HETATM   30  C23 UNL     1      -5.200   6.498  14.967  1.00  0.00     0.120 C 
BRANCH  30  31
HETATM   31  C24 UNL     1      -6.506   5.828  15.380  1.00  0.00     0.112 C 
BRANCH  31  32
HETATM   32  C25 UNL     1      -6.899   4.748  14.390  1.00  0.00     0.218 C 
HETATM   33  O7  UNL     1      -7.982   4.175  14.422  1.00  0.00    -0.274 OA
HETATM   34  N1  UNL     1      -5.935   4.502  13.438  1.00  0.00    -0.361 N 
HETATM   35  H32 UNL     1      -4.993   4.826  13.619  1.00  0.00     0.162 HD
BRANCH  34  36
HETATM   36  C26 UNL     1      -6.083   3.411  12.491  1.00  0.00     0.127 C 
BRANCH  36  37
HETATM   37  C27 UNL     1      -5.365   3.666  11.160  1.00  0.00     0.058 C 
BRANCH  37  38
HETATM   38  C28 UNL     1      -3.938   3.164  11.163  1.00  0.00    -0.054 A 
HETATM   39  C29 UNL     1      -3.669   1.802  11.385  1.00  0.00     0.010 A 
HETATM   40  C30 UNL     1      -2.355   1.333  11.422  1.00  0.00     0.040 A 
HETATM   41  C31 UNL     1      -1.312   2.227  11.233  1.00  0.00     0.098 A 
HETATM   42  C32 UNL     1      -1.564   3.577  11.005  1.00  0.00     0.099 A 
HETATM   43  C33 UNL     1      -2.869   4.055  10.972  1.00  0.00     0.046 A 
BRANCH  41  44
HETATM   44  O8  UNL     1      -0.025   1.772  11.272  1.00  0.00    -0.358 OA
HETATM   45  H39 UNL     1       0.520   2.563  11.095  1.00  0.00     0.217 HD
ENDBRANCH  41  44
BRANCH  42  46
HETATM   46  O9  UNL     1      -0.487   4.401  10.819  1.00  0.00    -0.358 OA
HETATM   47  H40 UNL     1      -0.819   5.296  10.629  1.00  0.00     0.217 HD
ENDBRANCH  42  46
ENDBRANCH  37  38
ENDBRANCH  36  37
ENDBRANCH  34  36
ENDBRANCH  31  32
ENDBRANCH  30  31
ENDBRANCH  28  30
ENDBRANCH  27  28
ENDBRANCH  26  27
ENDBRANCH   1  26
TORSDOF 13
ENDMDL
MODEL 7
REMARK minimizedAffinity -9.23030186
REMARK CNNscore 0.404363722
REMARK CNNaffinity 7.16444778
REMARK  13 active torsions:
REMARK  status: ('A' for Active; 'I' for Inactive)
REMARK    1  A    between atoms: C19_21  and  O3_22 
REMARK    2  A    between atoms: C19_21  and  C20_23 
REMARK    3  A    between atoms: C20_23  and  C21_25 
REMARK    4  A    between atoms: C21_25  and  O5_26 
REMARK    5  A    between atoms: O5_26  and  C22_27 
REMARK    6  A    between atoms: C22_27  and  C23_29 
REMARK    7  A    between atoms: C23_29  and  C24_30 
REMARK    8  A    between atoms: C24_30  and  C25_31 
REMARK       I    between atoms: C25_31  and  N1_33 
REMARK    9  A    between atoms: N1_33  and  C26_34 
REMARK   10  A    between atoms: C26_34  and  C27_35 
REMARK   11  A    between atoms: C27_35  and  C28_36 
REMARK   12  A    between atoms: C31_39  and  O8_40 
REMARK   13  A    between atoms: C32_41  and  O9_42 
ROOT
HETATM    1  C20 UNL     1      -2.552   7.872  15.086  1.00  0.00     0.185 C 
HETATM    2  O4  UNL     1      -2.300   8.912  15.701  1.00  0.00    -0.292 OA
ENDROOT
BRANCH   1   3
HETATM    3  C19 UNL     1      -1.424   6.910  14.575  1.00  0.00     0.128 C 
HETATM    4  C14 UNL     1      -0.237   7.609  13.821  1.00  0.00     0.005 C 
HETATM    5  C13 UNL     1       1.029   6.716  13.805  1.00  0.00     0.091 C 
HETATM    6  C15 UNL     1       0.156   8.948  14.490  1.00  0.00     0.019 C 
HETATM    7  C16 UNL     1      -0.761   7.807  12.364  1.00  0.00     0.002 C 
HETATM    8  C12 UNL     1       2.107   7.334  12.944  1.00  0.00     0.133 C 
HETATM    9  C11 UNL     1       1.712   7.801  11.545  1.00  0.00     0.072 C 
HETATM   10  O2  UNL     1       3.253   7.468  13.371  1.00  0.00    -0.297 OA
HETATM   11  C2  UNL     1       2.689   7.261  10.427  1.00  0.00    -0.009 C 
HETATM   12  C10 UNL     1       0.242   7.440  11.237  1.00  0.00     0.003 C 
HETATM   13  C1  UNL     1       3.929   8.182  10.352  1.00  0.00     0.021 C 
HETATM   14  C3  UNL     1       3.133   5.795  10.695  1.00  0.00     0.022 C 
HETATM   15  C7  UNL     1       1.986   7.297   9.063  1.00  0.00    -0.067 C 
HETATM   16  C4  UNL     1       3.924   5.178   9.542  1.00  0.00     0.084 C 
HETATM   17  C5  UNL     1       3.196   5.316   8.229  1.00  0.00     0.149 C 
HETATM   18  O1  UNL     1       3.410   4.566   7.280  1.00  0.00    -0.293 OA
HETATM   19  C6  UNL     1       2.216   6.415   8.076  1.00  0.00     0.053 C 
HETATM   20  C8  UNL     1       0.926   8.352   8.918  1.00  0.00     0.035 C 
HETATM   21  C9  UNL     1      -0.216   8.071   9.895  1.00  0.00     0.010 C 
HETATM   22  C17 UNL     1      -2.028   6.924  12.243  1.00  0.00     0.009 C 
HETATM   23  C18 UNL     1      -2.040   6.034  13.480  1.00  0.00     0.047 C 
BRANCH   3  24
HETATM   24  O3  UNL     1      -0.889   6.084  15.599  1.00  0.00    -0.381 OA
HETATM   25  H25 UNL     1      -1.595   5.513  15.952  1.00  0.00     0.211 HD
ENDBRANCH   3  24
ENDBRANCH   1   3
BRANCH   1  26
HETATM   26  C21 UNL     1      -3.984   7.603  14.617  1.00  0.00     0.260 C 
BRANCH  26  27
HETATM   27  O5  UNL     1      -5.000   7.807  15.592  1.00  0.00    -0.314 OA
BRANCH  27  28
HETATM   28  C22 UNL     1      -6.177   7.181  15.310  1.00  0.00     0.259 C 
HETATM   29  O6  UNL     1      -7.027   6.885  16.138  1.00  0.00    -0.265 OA
BRANCH  28  30
HETATM   30  C23 UNL     1      -6.273   6.864  13.839  1.00  0.00     0.120 C 
BRANCH  30  31
HETATM   31  C24 UNL     1      -7.092   5.596  13.625  1.00  0.00     0.112 C 
BRANCH  31  32
HETATM   32  C25 UNL     1      -8.460   5.921  13.055  1.00  0.00     0.218 C 
HETATM   33  O7  UNL     1      -8.762   5.717  11.885  1.00  0.00    -0.274 OA
HETATM   34  N1  UNL     1      -9.332   6.435  13.988  1.00  0.00    -0.361 N 
HETATM   35  H32 UNL     1      -8.947   6.799  14.851  1.00  0.00     0.162 HD
BRANCH  34  36
HETATM   36  C26 UNL     1     -10.641   6.926  13.595  1.00  0.00     0.127 C 
BRANCH  36  37
HETATM   37  C27 UNL     1     -11.750   6.546  14.584  1.00  0.00     0.058 C 
BRANCH  37  38
HETATM   38  C28 UNL     1     -13.135   6.730  14.004  1.00  0.00    -0.054 A 
HETATM   39  C29 UNL     1     -14.166   5.835  14.339  1.00  0.00     0.010 A 
HETATM   40  C30 UNL     1     -15.440   5.976  13.786  1.00  0.00     0.040 A 
HETATM   41  C31 UNL     1     -15.681   7.016  12.900  1.00  0.00     0.098 A 
HETATM   42  C32 UNL     1     -14.671   7.914  12.565  1.00  0.00     0.099 A 
HETATM   43  C33 UNL     1     -13.398   7.779  13.107  1.00  0.00     0.046 A 
BRANCH  41  44
HETATM   44  O8  UNL     1     -16.925   7.155  12.354  1.00  0.00    -0.358 OA
HETATM   45  H39 UNL     1     -16.857   7.952  11.792  1.00  0.00     0.217 HD
ENDBRANCH  41  44
BRANCH  42  46
HETATM   46  O9  UNL     1     -14.982   8.922  11.691  1.00  0.00    -0.358 OA
HETATM   47  H40 UNL     1     -14.197   9.487  11.590  1.00  0.00     0.217 HD
ENDBRANCH  42  46
ENDBRANCH  37  38
ENDBRANCH  36  37
ENDBRANCH  34  36
ENDBRANCH  31  32
ENDBRANCH  30  31
ENDBRANCH  28  30
ENDBRANCH  27  28
ENDBRANCH  26  27
ENDBRANCH   1  26
TORSDOF 13
ENDMDL
MODEL 8
REMARK minimizedAffinity -8.47669697
REMARK CNNscore 0.39763552
REMARK CNNaffinity 7.53948593
REMARK  13 active torsions:
REMARK  status: ('A' for Active; 'I' for Inactive)
REMARK    1  A    between atoms: C19_21  and  O3_22 
REMARK    2  A    between atoms: C19_21  and  C20_23 
REMARK    3  A    between atoms: C20_23  and  C21_25 
REMARK    4  A    between atoms: C21_25  and  O5_26 
REMARK    5  A    between atoms: O5_26  and  C22_27 
REMARK    6  A    between atoms: C22_27  and  C23_29 
REMARK    7  A    between atoms: C23_29  and  C24_30 
REMARK    8  A    between atoms: C24_30  and  C25_31 
REMARK       I    between atoms: C25_31  and  N1_33 
REMARK    9  A    between atoms: N1_33  and  C26_34 
REMARK   10  A    between atoms: C26_34  and  C27_35 
REMARK   11  A    between atoms: C27_35  and  C28_36 
REMARK   12  A    between atoms: C31_39  and  O8_40 
REMARK   13  A    between atoms: C32_41  and  O9_42 
ROOT
HETATM    1  C20 UNL     1      -6.939   3.408  12.807  1.00  0.00     0.185 C 
HETATM    2  O4  UNL     1      -8.013   2.867  12.527  1.00  0.00    -0.292 OA
ENDROOT
BRANCH   1   3
HETATM    3  C19 UNL     1      -6.823   4.954  13.048  1.00  0.00     0.128 C 
HETATM    4  C14 UNL     1      -7.653   5.507  14.261  1.00  0.00     0.005 C 
HETATM    5  C13 UNL     1      -7.110   6.876  14.742  1.00  0.00     0.091 C 
HETATM    6  C15 UNL     1      -7.605   4.546  15.473  1.00  0.00     0.019 C 
HETATM    7  C16 UNL     1      -9.099   5.680  13.700  1.00  0.00     0.002 C 
HETATM    8  C12 UNL     1      -8.013   7.466  15.802  1.00  0.00     0.133 C 
HETATM    9  C11 UNL     1      -9.511   7.508  15.511  1.00  0.00     0.072 C 
HETATM   10  O2  UNL     1      -7.548   7.876  16.864  1.00  0.00    -0.297 OA
HETATM   11  C2  UNL     1     -10.139   8.934  15.769  1.00  0.00    -0.009 C 
HETATM   12  C10 UNL     1      -9.809   7.007  14.080  1.00  0.00     0.003 C 
HETATM   13  C1  UNL     1     -10.459   9.079  17.276  1.00  0.00     0.021 C 
HETATM   14  C3  UNL     1      -9.195  10.082  15.315  1.00  0.00     0.022 C 
HETATM   15  C7  UNL     1     -11.454   9.070  14.989  1.00  0.00    -0.067 C 
HETATM   16  C4  UNL     1      -9.843  11.464  15.375  1.00  0.00     0.084 C 
HETATM   17  C5  UNL     1     -11.161  11.495  14.643  1.00  0.00     0.149 C 
HETATM   18  O1  UNL     1     -11.643  12.537  14.205  1.00  0.00    -0.293 OA
HETATM   19  C6  UNL     1     -11.909  10.227  14.480  1.00  0.00     0.053 C 
HETATM   20  C8  UNL     1     -12.185   7.782  14.737  1.00  0.00     0.035 C 
HETATM   21  C9  UNL     1     -11.338   6.876  13.844  1.00  0.00     0.010 C 
HETATM   22  C17 UNL     1      -8.974   5.576  12.161  1.00  0.00     0.009 C 
HETATM   23  C18 UNL     1      -7.483   5.647  11.853  1.00  0.00     0.047 C 
BRANCH   3  24
HETATM   24  O3  UNL     1      -5.480   5.399  13.175  1.00  0.00    -0.381 OA
HETATM   25  H25 UNL     1      -5.002   5.216  12.346  1.00  0.00     0.211 HD
ENDBRANCH   3  24
ENDBRANCH   1   3
BRANCH   1  26
HETATM   26  C21 UNL     1      -5.642   2.602  12.713  1.00  0.00     0.260 C 
BRANCH  26  27
HETATM   27  O5  UNL     1      -4.681   3.088  11.785  1.00  0.00    -0.314 OA
BRANCH  27  28
HETATM   28  C22 UNL     1      -3.722   2.180  11.448  1.00  0.00     0.259 C 
HETATM   29  O6  UNL     1      -3.831   0.969  11.574  1.00  0.00    -0.265 OA
BRANCH  28  30
HETATM   30  C23 UNL     1      -2.485   2.876  10.936  1.00  0.00     0.120 C 
BRANCH  30  31
HETATM   31  C24 UNL     1      -2.424   4.303  11.469  1.00  0.00     0.112 C 
BRANCH  31  32
HETATM   32  C25 UNL     1      -0.988   4.753  11.657  1.00  0.00     0.218 C 
HETATM   33  O7  UNL     1      -0.134   4.646  10.784  1.00  0.00    -0.274 OA
HETATM   34  N1  UNL     1      -0.750   5.320  12.889  1.00  0.00    -0.361 N 
HETATM   35  H32 UNL     1      -1.420   5.152  13.629  1.00  0.00     0.162 HD
BRANCH  34  36
HETATM   36  C26 UNL     1       0.596   5.687  13.294  1.00  0.00     0.127 C 
BRANCH  36  37
HETATM   37  C27 UNL     1       1.049   7.038  12.726  1.00  0.00     0.058 C 
BRANCH  37  38
HETATM   38  C28 UNL     1       2.451   6.989  12.159  1.00  0.00    -0.054 A 
HETATM   39  C29 UNL     1       3.418   7.918  12.583  1.00  0.00     0.010 A 
HETATM   40  C30 UNL     1       4.705   7.902  12.043  1.00  0.00     0.040 A 
HETATM   41  C31 UNL     1       5.023   6.956  11.082  1.00  0.00     0.098 A 
HETATM   42  C32 UNL     1       4.078   6.026  10.657  1.00  0.00     0.099 A 
HETATM   43  C33 UNL     1       2.792   6.036  11.185  1.00  0.00     0.046 A 
BRANCH  41  44
HETATM   44  O8  UNL     1       6.281   6.941  10.548  1.00  0.00    -0.358 OA
HETATM   45  H39 UNL     1       6.272   6.190   9.923  1.00  0.00     0.217 HD
ENDBRANCH  41  44
BRANCH  42  46
HETATM   46  O9  UNL     1       4.464   5.115   9.710  1.00  0.00    -0.358 OA
HETATM   47  H40 UNL     1       3.719   4.511   9.549  1.00  0.00     0.217 HD
ENDBRANCH  42  46
ENDBRANCH  37  38
ENDBRANCH  36  37
ENDBRANCH  34  36
ENDBRANCH  31  32
ENDBRANCH  30  31
ENDBRANCH  28  30
ENDBRANCH  27  28
ENDBRANCH  26  27
ENDBRANCH   1  26
TORSDOF 13
ENDMDL
MODEL 9
REMARK minimizedAffinity -9.50706863
REMARK CNNscore 0.353278071
REMARK CNNaffinity 6.76267195
REMARK  13 active torsions:
REMARK  status: ('A' for Active; 'I' for Inactive)
REMARK    1  A    between atoms: C19_21  and  O3_22 
REMARK    2  A    between atoms: C19_21  and  C20_23 
REMARK    3  A    between atoms: C20_23  and  C21_25 
REMARK    4  A    between atoms: C21_25  and  O5_26 
REMARK    5  A    between atoms: O5_26  and  C22_27 
REMARK    6  A    between atoms: C22_27  and  C23_29 
REMARK    7  A    between atoms: C23_29  and  C24_30 
REMARK    8  A    between atoms: C24_30  and  C25_31 
REMARK       I    between atoms: C25_31  and  N1_33 
REMARK    9  A    between atoms: N1_33  and  C26_34 
REMARK   10  A    between atoms: C26_34  and  C27_35 
REMARK   11  A    between atoms: C27_35  and  C28_36 
REMARK   12  A    between atoms: C31_39  and  O8_40 
REMARK   13  A    between atoms: C32_41  and  O9_42 
ROOT
HETATM    1  C20 UNL     1      -2.240   5.765  13.241  1.00  0.00     0.185 C 
HETATM    2  O4  UNL     1      -2.820   6.793  12.879  1.00  0.00    -0.292 OA
ENDROOT
BRANCH   1   3
HETATM    3  C19 UNL     1      -0.783   5.790  13.821  1.00  0.00     0.128 C 
HETATM    4  C14 UNL     1       0.072   7.048  13.431  1.00  0.00     0.005 C 
HETATM    5  C13 UNL     1       1.254   7.255  14.411  1.00  0.00     0.091 C 
HETATM    6  C15 UNL     1      -0.773   8.344  13.455  1.00  0.00     0.019 C 
HETATM    7  C16 UNL     1       0.619   6.723  12.006  1.00  0.00     0.002 C 
HETATM    8  C12 UNL     1       2.155   8.371  13.933  1.00  0.00     0.133 C 
HETATM    9  C11 UNL     1       2.611   8.336  12.477  1.00  0.00     0.072 C 
HETATM   10  O2  UNL     1       2.486   9.280  14.693  1.00  0.00    -0.297 OA
HETATM   11  C2  UNL     1       4.173   8.519  12.326  1.00  0.00    -0.009 C 
HETATM   12  C10 UNL     1       2.119   7.050  11.776  1.00  0.00     0.003 C 
HETATM   13  C1  UNL     1       4.511  10.028  12.364  1.00  0.00     0.021 C 
HETATM   14  C3  UNL     1       4.961   7.771  13.438  1.00  0.00     0.022 C 
HETATM   15  C7  UNL     1       4.631   7.963  10.970  1.00  0.00    -0.067 C 
HETATM   16  C4  UNL     1       6.473   7.768  13.217  1.00  0.00     0.084 C 
HETATM   17  C5  UNL     1       6.834   7.273  11.840  1.00  0.00     0.149 C 
HETATM   18  O1  UNL     1       7.938   6.798  11.583  1.00  0.00    -0.293 OA
HETATM   19  C6  UNL     1       5.831   7.398  10.757  1.00  0.00     0.053 C 
HETATM   20  C8  UNL     1       3.598   8.001   9.881  1.00  0.00     0.035 C 
HETATM   21  C9  UNL     1       2.423   7.097  10.254  1.00  0.00     0.010 C 
HETATM   22  C17 UNL     1       0.375   5.210  11.790  1.00  0.00     0.009 C 
HETATM   23  C18 UNL     1      -0.013   4.647  13.152  1.00  0.00     0.047 C 
BRANCH   3  24
HETATM   24  O3  UNL     1      -0.741   5.629  15.231  1.00  0.00    -0.381 OA
HETATM   25  H25 UNL     1      -1.113   4.760  15.467  1.00  0.00     0.211 HD
ENDBRANCH   3  24
ENDBRANCH   1   3
BRANCH   1  26
HETATM   26  C21 UNL     1      -2.861   4.401  12.931  1.00  0.00     0.260 C 
BRANCH  26  27
HETATM   27  O5  UNL     1      -3.740   4.364  11.814  1.00  0.00    -0.314 OA
BRANCH  27  28
HETATM   28  C22 UNL     1      -3.836   3.142  11.219  1.00  0.00     0.259 C 
HETATM   29  O6  UNL     1      -2.921   2.335  11.128  1.00  0.00    -0.265 OA
BRANCH  28  30
HETATM   30  C23 UNL     1      -5.216   2.934  10.646  1.00  0.00     0.120 C 
BRANCH  30  31
HETATM   31  C24 UNL     1      -5.985   1.916  11.480  1.00  0.00     0.112 C 
BRANCH  31  32
HETATM   32  C25 UNL     1      -6.946   2.605  12.429  1.00  0.00     0.218 C 
HETATM   33  O7  UNL     1      -7.993   2.092  12.808  1.00  0.00    -0.274 OA
HETATM   34  N1  UNL     1      -6.510   3.842  12.846  1.00  0.00    -0.361 N 
HETATM   35  H32 UNL     1      -5.778   4.294  12.312  1.00  0.00     0.162 HD
BRANCH  34  36
HETATM   36  C26 UNL     1      -7.360   4.701  13.652  1.00  0.00     0.127 C 
BRANCH  36  37
HETATM   37  C27 UNL     1      -8.183   5.689  12.816  1.00  0.00     0.058 C 
BRANCH  37  38
HETATM   38  C28 UNL     1      -9.144   6.502  13.655  1.00  0.00    -0.054 A 
HETATM   39  C29 UNL     1      -8.778   6.916  14.948  1.00  0.00     0.010 A 
HETATM   40  C30 UNL     1      -9.668   7.639  15.743  1.00  0.00     0.040 A 
HETATM   41  C31 UNL     1     -10.923   7.950  15.242  1.00  0.00     0.098 A 
HETATM   42  C32 UNL     1     -11.297   7.553  13.961  1.00  0.00     0.099 A 
HETATM   43  C33 UNL     1     -10.419   6.827  13.163  1.00  0.00     0.046 A 
BRANCH  41  44
HETATM   44  O8  UNL     1     -11.798   8.654  16.019  1.00  0.00    -0.358 OA
HETATM   45  H39 UNL     1     -12.589   8.767  15.456  1.00  0.00     0.217 HD
ENDBRANCH  41  44
BRANCH  42  46
HETATM   46  O9  UNL     1     -12.549   7.901  13.528  1.00  0.00    -0.358 OA
HETATM   47  H40 UNL     1     -12.647   7.596  12.610  1.00  0.00     0.217 HD
ENDBRANCH  42  46
ENDBRANCH  37  38
ENDBRANCH  36  37
ENDBRANCH  34  36
ENDBRANCH  31  32
ENDBRANCH  30  31
ENDBRANCH  28  30
ENDBRANCH  27  28
ENDBRANCH  26  27
ENDBRANCH   1  26
TORSDOF 13
ENDMDL
