MODEL 1
REMARK minimizedAffinity -9.8973484
REMARK CNNscore 0.648936689
REMARK CNNaffinity 7.47334623
REMARK  12 active torsions:
REMARK  status: ('A' for Active; 'I' for Inactive)
REMARK    1  A    between atoms: C19_21  and  O3_22 
REMARK    2  A    between atoms: C19_21  and  C20_23 
REMARK    3  A    between atoms: C20_23  and  C21_25 
REMARK    4  A    between atoms: C21_25  and  O5_26 
REMARK    5  A    between atoms: O5_26  and  C22_27 
REMARK    6  A    between atoms: C22_27  and  C23_29 
REMARK    7  A    between atoms: C23_29  and  C24_30 
REMARK    8  A    between atoms: C24_30  and  C25_31 
REMARK       I    between atoms: C25_31  and  N1_33 
REMARK    9  A    between atoms: N1_33  and  C26_34 
REMARK   10  A    between atoms: C26_34  and  C27_35 
REMARK   11  A    between atoms: C30_38  and  C31_39 
REMARK   12  A    between atoms: C31_39  and  O9_41 
ROOT
HETATM    1  C1  UNL     1      -4.259  50.831 -24.765  1.00  0.00     0.021 C 
HETATM    2  C2  UNL     1      -3.929  49.342 -24.508  1.00  0.00    -0.009 C 
HETATM    3  C3  UNL     1      -2.764  48.895 -25.433  1.00  0.00     0.022 C 
HETATM    4  C4  UNL     1      -3.118  48.956 -26.917  1.00  0.00     0.084 C 
HETATM    5  C5  UNL     1      -4.431  48.277 -27.221  1.00  0.00     0.149 C 
HETATM    6  O1  UNL     1      -4.745  47.943 -28.363  1.00  0.00    -0.293 OA
HETATM    7  C6  UNL     1      -5.375  48.016 -26.109  1.00  0.00     0.053 C 
HETATM    8  C7  UNL     1      -5.153  48.480 -24.865  1.00  0.00    -0.067 C 
HETATM    9  C8  UNL     1      -6.072  48.047 -23.743  1.00  0.00     0.035 C 
HETATM   10  C9  UNL     1      -6.137  49.032 -22.582  1.00  0.00     0.010 C 
HETATM   11  C10 UNL     1      -4.758  49.473 -22.057  1.00  0.00     0.003 C 
HETATM   12  C11 UNL     1      -3.594  49.069 -23.012  1.00  0.00     0.072 C 
HETATM   13  C12 UNL     1      -2.300  49.671 -22.452  1.00  0.00     0.133 C 
HETATM   14  O2  UNL     1      -1.573  50.438 -23.078  1.00  0.00    -0.297 OA
HETATM   15  C13 UNL     1      -1.939  49.234 -21.034  1.00  0.00     0.091 C 
HETATM   16  C14 UNL     1      -3.100  49.573 -20.084  1.00  0.00     0.005 C 
HETATM   17  C15 UNL     1      -3.177  51.120 -19.943  1.00  0.00     0.019 C 
HETATM   18  C16 UNL     1      -4.406  48.939 -20.657  1.00  0.00     0.002 C 
HETATM   19  C17 UNL     1      -5.402  49.106 -19.517  1.00  0.00     0.009 C 
HETATM   20  C18 UNL     1      -4.558  48.914 -18.241  1.00  0.00     0.047 C 
HETATM   21  C19 UNL     1      -3.067  48.886 -18.684  1.00  0.00     0.128 C 
ENDROOT
BRANCH  21  22
HETATM   22  O3  UNL     1      -2.707  47.513 -18.865  1.00  0.00    -0.381 OA
HETATM   23  H25 UNL     1      -2.728  47.075 -17.995  1.00  0.00     0.211 HD
ENDBRANCH  21  22
BRANCH  21  24
HETATM   24  C20 UNL     1      -2.145  49.588 -17.654  1.00  0.00     0.185 C 
HETATM   25  O4  UNL     1      -2.564  49.962 -16.557  1.00  0.00    -0.292 OA
BRANCH  24  26
HETATM   26  C21 UNL     1      -0.699  49.844 -18.063  1.00  0.00     0.260 C 
BRANCH  26  27
HETATM   27  O5  UNL     1      -0.107  50.902 -17.306  1.00  0.00    -0.314 OA
BRANCH  27  28
HETATM   28  C22 UNL     1       0.630  51.799 -18.020  1.00  0.00     0.259 C 
HETATM   29  O6  UNL     1       1.450  52.571 -17.547  1.00  0.00    -0.265 OA
BRANCH  28  30
HETATM   30  C23 UNL     1       0.283  51.683 -19.480  1.00  0.00     0.120 C 
BRANCH  30  31
HETATM   31  C24 UNL     1      -0.141  53.030 -20.055  1.00  0.00     0.112 C 
BRANCH  31  32
HETATM   32  C25 UNL     1       0.722  53.422 -21.233  1.00  0.00     0.218 C 
HETATM   33  O7  UNL     1       1.672  54.191 -21.147  1.00  0.00    -0.274 OA
HETATM   34  N1  UNL     1       0.318  52.833 -22.412  1.00  0.00    -0.361 N 
HETATM   35  H32 UNL     1      -0.289  52.025 -22.355  1.00  0.00     0.162 HD
BRANCH  34  36
HETATM   36  C26 UNL     1       1.094  53.010 -23.625  1.00  0.00     0.127 C 
BRANCH  36  37
HETATM   37  C27 UNL     1       0.275  52.706 -24.888  1.00  0.00     0.003 C 
HETATM   38  C28 UNL     1       0.181  53.935 -25.812  1.00  0.00     0.007 C 
HETATM   39  C29 UNL     1       0.104  53.593 -27.305  1.00  0.00     0.015 C 
HETATM   40  C30 UNL     1      -0.625  52.281 -27.591  1.00  0.00     0.084 C 
HETATM   41  C32 UNL     1      -0.012  51.095 -26.826  1.00  0.00     0.015 C 
HETATM   42  C33 UNL     1       0.857  51.502 -25.632  1.00  0.00     0.007 C 
BRANCH  40  43
HETATM   43  C31 UNL     1      -2.105  52.439 -27.308  1.00  0.00     0.143 C 
HETATM   44  O8  UNL     1      -2.621  53.032 -26.377  1.00  0.00    -0.650 OA
BRANCH  43  45
HETATM   45  O9  UNL     1      -2.870  51.851 -28.250  1.00  0.00    -0.776 OA
HETATM   46  H41 UNL     1      -3.789  52.035 -27.962  1.00  0.00     0.167 HD
ENDBRANCH  43  45
ENDBRANCH  40  43
ENDBRANCH  36  37
ENDBRANCH  34  36
ENDBRANCH  31  32
ENDBRANCH  30  31
ENDBRANCH  28  30
ENDBRANCH  27  28
ENDBRANCH  26  27
ENDBRANCH  24  26
ENDBRANCH  21  24
TORSDOF 12
ENDMDL
MODEL 2
REMARK minimizedAffinity -8.98710537
REMARK CNNscore 0.507883966
REMARK CNNaffinity 7.03415108
REMARK  12 active torsions:
REMARK  status: ('A' for Active; 'I' for Inactive)
REMARK    1  A    between atoms: C19_21  and  O3_22 
REMARK    2  A    between atoms: C19_21  and  C20_23 
REMARK    3  A    between atoms: C20_23  and  C21_25 
REMARK    4  A    between atoms: C21_25  and  O5_26 
REMARK    5  A    between atoms: O5_26  and  C22_27 
REMARK    6  A    between atoms: C22_27  and  C23_29 
REMARK    7  A    between atoms: C23_29  and  C24_30 
REMARK    8  A    between atoms: C24_30  and  C25_31 
REMARK       I    between atoms: C25_31  and  N1_33 
REMARK    9  A    between atoms: N1_33  and  C26_34 
REMARK   10  A    between atoms: C26_34  and  C27_35 
REMARK   11  A    between atoms: C30_38  and  C31_39 
REMARK   12  A    between atoms: C31_39  and  O9_41 
ROOT
HETATM    1  C1  UNL     1      -1.881  52.803 -24.388  1.00  0.00     0.021 C 
HETATM    2  C2  UNL     1      -0.999  51.532 -24.413  1.00  0.00    -0.009 C 
HETATM    3  C3  UNL     1       0.478  51.925 -24.688  1.00  0.00     0.022 C 
HETATM    4  C4  UNL     1       0.686  52.560 -26.061  1.00  0.00     0.084 C 
HETATM    5  C5  UNL     1       0.055  51.751 -27.168  1.00  0.00     0.149 C 
HETATM    6  O1  UNL     1       0.362  51.909 -28.349  1.00  0.00    -0.293 OA
HETATM    7  C6  UNL     1      -0.974  50.744 -26.819  1.00  0.00     0.053 C 
HETATM    8  C7  UNL     1      -1.452  50.621 -25.567  1.00  0.00    -0.067 C 
HETATM    9  C8  UNL     1      -2.384  49.472 -25.245  1.00  0.00     0.035 C 
HETATM   10  C9  UNL     1      -3.312  49.741 -24.066  1.00  0.00     0.010 C 
HETATM   11  C10 UNL     1      -2.594  50.267 -22.810  1.00  0.00     0.003 C 
HETATM   12  C11 UNL     1      -1.126  50.708 -23.099  1.00  0.00     0.072 C 
HETATM   13  C12 UNL     1      -0.564  51.329 -21.814  1.00  0.00     0.133 C 
HETATM   14  O2  UNL     1      -0.120  52.472 -21.741  1.00  0.00    -0.297 OA
HETATM   15  C13 UNL     1      -0.565  50.411 -20.593  1.00  0.00     0.091 C 
HETATM   16  C14 UNL     1      -1.997  49.919 -20.325  1.00  0.00     0.005 C 
HETATM   17  C15 UNL     1      -2.842  51.126 -19.830  1.00  0.00     0.019 C 
HETATM   18  C16 UNL     1      -2.548  49.274 -21.636  1.00  0.00     0.002 C 
HETATM   19  C17 UNL     1      -3.833  48.597 -21.175  1.00  0.00     0.009 C 
HETATM   20  C18 UNL     1      -3.510  48.091 -19.754  1.00  0.00     0.047 C 
HETATM   21  C19 UNL     1      -2.137  48.705 -19.356  1.00  0.00     0.128 C 
ENDROOT
BRANCH  21  22
HETATM   22  O3  UNL     1      -1.132  47.743 -19.691  1.00  0.00    -0.381 OA
HETATM   23  H25 UNL     1      -1.247  46.967 -19.113  1.00  0.00     0.211 HD
ENDBRANCH  21  22
BRANCH  21  24
HETATM   24  C20 UNL     1      -2.088  49.083 -17.853  1.00  0.00     0.185 C 
HETATM   25  O4  UNL     1      -3.110  49.347 -17.216  1.00  0.00    -0.292 OA
BRANCH  24  26
HETATM   26  C21 UNL     1      -0.717  49.165 -17.192  1.00  0.00     0.260 C 
BRANCH  26  27
HETATM   27  O5  UNL     1      -0.582  50.332 -16.378  1.00  0.00    -0.314 OA
BRANCH  27  28
HETATM   28  C22 UNL     1       0.643  50.927 -16.397  1.00  0.00     0.259 C 
HETATM   29  O6  UNL     1       1.065  51.643 -17.292  1.00  0.00    -0.265 OA
BRANCH  28  30
HETATM   30  C23 UNL     1       1.391  50.573 -15.140  1.00  0.00     0.120 C 
BRANCH  30  31
HETATM   31  C24 UNL     1       1.874  51.823 -14.413  1.00  0.00     0.112 C 
BRANCH  31  32
HETATM   32  C25 UNL     1       1.644  51.717 -12.922  1.00  0.00     0.218 C 
HETATM   33  O7  UNL     1       1.556  50.649 -12.328  1.00  0.00    -0.274 OA
HETATM   34  N1  UNL     1       1.532  52.946 -12.309  1.00  0.00    -0.361 N 
HETATM   35  H32 UNL     1       1.874  53.758 -12.807  1.00  0.00     0.162 HD
BRANCH  34  36
HETATM   36  C26 UNL     1       1.416  53.039 -10.866  1.00  0.00     0.127 C 
BRANCH  36  37
HETATM   37  C27 UNL     1       2.523  53.905 -10.249  1.00  0.00     0.003 C 
HETATM   38  C28 UNL     1       3.569  54.322 -11.301  1.00  0.00     0.007 C 
HETATM   39  C29 UNL     1       4.206  55.693 -11.044  1.00  0.00     0.015 C 
HETATM   40  C30 UNL     1       4.339  56.033  -9.560  1.00  0.00     0.084 C 
HETATM   41  C32 UNL     1       2.993  55.948  -8.819  1.00  0.00     0.015 C 
HETATM   42  C33 UNL     1       1.925  55.131  -9.553  1.00  0.00     0.007 C 
BRANCH  40  43
HETATM   43  C31 UNL     1       5.398  55.157  -8.922  1.00  0.00     0.143 C 
HETATM   44  O8  UNL     1       5.276  54.443  -7.941  1.00  0.00    -0.650 OA
BRANCH  43  45
HETATM   45  O9  UNL     1       6.571  55.208  -9.586  1.00  0.00    -0.776 OA
HETATM   46  H41 UNL     1       7.154  54.598  -9.089  1.00  0.00     0.167 HD
ENDBRANCH  43  45
ENDBRANCH  40  43
ENDBRANCH  36  37
ENDBRANCH  34  36
ENDBRANCH  31  32
ENDBRANCH  30  31
ENDBRANCH  28  30
ENDBRANCH  27  28
ENDBRANCH  26  27
ENDBRANCH  24  26
ENDBRANCH  21  24
TORSDOF 12
ENDMDL
MODEL 3
REMARK minimizedAffinity -9.39895916
REMARK CNNscore 0.459756225
REMARK CNNaffinity 6.7701993
REMARK  12 active torsions:
REMARK  status: ('A' for Active; 'I' for Inactive)
REMARK    1  A    between atoms: C19_21  and  O3_22 
REMARK    2  A    between atoms: C19_21  and  C20_23 
REMARK    3  A    between atoms: C20_23  and  C21_25 
REMARK    4  A    between atoms: C21_25  and  O5_26 
REMARK    5  A    between atoms: O5_26  and  C22_27 
REMARK    6  A    between atoms: C22_27  and  C23_29 
REMARK    7  A    between atoms: C23_29  and  C24_30 
REMARK    8  A    between atoms: C24_30  and  C25_31 
REMARK       I    between atoms: C25_31  and  N1_33 
REMARK    9  A    between atoms: N1_33  and  C26_34 
REMARK   10  A    between atoms: C26_34  and  C27_35 
REMARK   11  A    between atoms: C30_38  and  C31_39 
REMARK   12  A    between atoms: C31_39  and  O9_41 
ROOT
HETATM    1  C1  UNL     1      -7.958  48.837 -24.379  1.00  0.00     0.021 C 
HETATM    2  C2  UNL     1      -7.073  47.617 -24.727  1.00  0.00    -0.009 C 
HETATM    3  C3  UNL     1      -6.769  47.606 -26.250  1.00  0.00     0.022 C 
HETATM    4  C4  UNL     1      -8.018  47.430 -27.111  1.00  0.00     0.084 C 
HETATM    5  C5  UNL     1      -8.871  46.271 -26.652  1.00  0.00     0.149 C 
HETATM    6  O1  UNL     1      -9.733  45.770 -27.372  1.00  0.00    -0.293 OA
HETATM    7  C6  UNL     1      -8.668  45.732 -25.287  1.00  0.00     0.053 C 
HETATM    8  C7  UNL     1      -7.842  46.323 -24.405  1.00  0.00    -0.067 C 
HETATM    9  C8  UNL     1      -7.560  45.635 -23.086  1.00  0.00     0.035 C 
HETATM   10  C9  UNL     1      -7.152  46.588 -21.968  1.00  0.00     0.010 C 
HETATM   11  C10 UNL     1      -6.029  47.566 -22.356  1.00  0.00     0.003 C 
HETATM   12  C11 UNL     1      -5.760  47.592 -23.892  1.00  0.00     0.072 C 
HETATM   13  C12 UNL     1      -4.723  48.688 -24.166  1.00  0.00     0.133 C 
HETATM   14  O2  UNL     1      -4.912  49.638 -24.922  1.00  0.00    -0.297 OA
HETATM   15  C13 UNL     1      -3.389  48.519 -23.441  1.00  0.00     0.091 C 
HETATM   16  C14 UNL     1      -3.638  48.434 -21.926  1.00  0.00     0.005 C 
HETATM   17  C15 UNL     1      -4.107  49.831 -21.431  1.00  0.00     0.019 C 
HETATM   18  C16 UNL     1      -4.681  47.302 -21.662  1.00  0.00     0.002 C 
HETATM   19  C17 UNL     1      -4.636  47.137 -20.148  1.00  0.00     0.009 C 
HETATM   20  C18 UNL     1      -3.157  47.373 -19.781  1.00  0.00     0.047 C 
HETATM   21  C19 UNL     1      -2.452  47.904 -21.062  1.00  0.00     0.128 C 
ENDROOT
BRANCH  21  22
HETATM   22  O3  UNL     1      -1.880  46.775 -21.727  1.00  0.00    -0.381 OA
HETATM   23  H25 UNL     1      -1.166  46.420 -21.167  1.00  0.00     0.211 HD
ENDBRANCH  21  22
BRANCH  21  24
HETATM   24  C20 UNL     1      -1.381  48.976 -20.730  1.00  0.00     0.185 C 
HETATM   25  O4  UNL     1      -0.628  49.429 -21.593  1.00  0.00    -0.292 OA
BRANCH  24  26
HETATM   26  C21 UNL     1      -1.257  49.420 -19.277  1.00  0.00     0.260 C 
BRANCH  26  27
HETATM   27  O5  UNL     1      -0.152  50.305 -19.080  1.00  0.00    -0.314 OA
BRANCH  27  28
HETATM   28  C22 UNL     1      -0.454  51.513 -18.528  1.00  0.00     0.259 C 
HETATM   29  O6  UNL     1      -0.776  51.695 -17.364  1.00  0.00    -0.265 OA
BRANCH  28  30
HETATM   30  C23 UNL     1      -0.321  52.589 -19.573  1.00  0.00     0.120 C 
BRANCH  30  31
HETATM   31  C24 UNL     1       1.137  52.805 -19.960  1.00  0.00     0.112 C 
BRANCH  31  32
HETATM   32  C25 UNL     1       1.255  53.606 -21.237  1.00  0.00     0.218 C 
HETATM   33  O7  UNL     1       1.758  54.723 -21.288  1.00  0.00    -0.274 OA
HETATM   34  N1  UNL     1       0.726  52.955 -22.330  1.00  0.00    -0.361 N 
HETATM   35  H32 UNL     1       0.577  51.955 -22.259  1.00  0.00     0.162 HD
BRANCH  34  36
HETATM   36  C26 UNL     1       0.847  53.527 -23.657  1.00  0.00     0.127 C 
BRANCH  36  37
HETATM   37  C27 UNL     1       0.089  52.711 -24.713  1.00  0.00     0.003 C 
HETATM   38  C28 UNL     1       1.014  52.276 -25.866  1.00  0.00     0.007 C 
HETATM   39  C29 UNL     1       0.638  50.931 -26.498  1.00  0.00     0.015 C 
HETATM   40  C30 UNL     1      -0.865  50.654 -26.490  1.00  0.00     0.084 C 
HETATM   41  C32 UNL     1      -1.465  50.739 -25.076  1.00  0.00     0.015 C 
HETATM   42  C33 UNL     1      -0.596  51.502 -24.072  1.00  0.00     0.007 C 
BRANCH  40  43
HETATM   43  C31 UNL     1      -1.566  51.578 -27.464  1.00  0.00     0.143 C 
HETATM   44  O8  UNL     1      -2.766  51.772 -27.569  1.00  0.00    -0.650 OA
BRANCH  43  45
HETATM   45  O9  UNL     1      -0.698  52.243 -28.253  1.00  0.00    -0.776 OA
HETATM   46  H41 UNL     1      -1.268  52.807 -28.816  1.00  0.00     0.167 HD
ENDBRANCH  43  45
ENDBRANCH  40  43
ENDBRANCH  36  37
ENDBRANCH  34  36
ENDBRANCH  31  32
ENDBRANCH  30  31
ENDBRANCH  28  30
ENDBRANCH  27  28
ENDBRANCH  26  27
ENDBRANCH  24  26
ENDBRANCH  21  24
TORSDOF 12
ENDMDL
MODEL 4
REMARK minimizedAffinity -8.95092678
REMARK CNNscore 0.459404469
REMARK CNNaffinity 6.07462358
REMARK  12 active torsions:
REMARK  status: ('A' for Active; 'I' for Inactive)
REMARK    1  A    between atoms: C19_21  and  O3_22 
REMARK    2  A    between atoms: C19_21  and  C20_23 
REMARK    3  A    between atoms: C20_23  and  C21_25 
REMARK    4  A    between atoms: C21_25  and  O5_26 
REMARK    5  A    between atoms: O5_26  and  C22_27 
REMARK    6  A    between atoms: C22_27  and  C23_29 
REMARK    7  A    between atoms: C23_29  and  C24_30 
REMARK    8  A    between atoms: C24_30  and  C25_31 
REMARK       I    between atoms: C25_31  and  N1_33 
REMARK    9  A    between atoms: N1_33  and  C26_34 
REMARK   10  A    between atoms: C26_34  and  C27_35 
REMARK   11  A    between atoms: C30_38  and  C31_39 
REMARK   12  A    between atoms: C31_39  and  O9_41 
ROOT
HETATM    1  C1  UNL     1      -0.457  49.857 -21.090  1.00  0.00     0.021 C 
HETATM    2  C2  UNL     1      -1.303  51.145 -21.222  1.00  0.00    -0.009 C 
HETATM    3  C3  UNL     1      -0.649  52.099 -22.258  1.00  0.00     0.022 C 
HETATM    4  C4  UNL     1       0.732  52.593 -21.833  1.00  0.00     0.084 C 
HETATM    5  C5  UNL     1       0.739  53.130 -20.423  1.00  0.00     0.149 C 
HETATM    6  O1  UNL     1       1.646  53.846 -20.002  1.00  0.00    -0.293 OA
HETATM    7  C6  UNL     1      -0.377  52.771 -19.516  1.00  0.00     0.053 C 
HETATM    8  C7  UNL     1      -1.322  51.882 -19.871  1.00  0.00    -0.067 C 
HETATM    9  C8  UNL     1      -2.518  51.678 -18.964  1.00  0.00     0.035 C 
HETATM   10  C9  UNL     1      -3.173  50.308 -19.105  1.00  0.00     0.010 C 
HETATM   11  C10 UNL     1      -3.480  49.906 -20.559  1.00  0.00     0.003 C 
HETATM   12  C11 UNL     1      -2.781  50.835 -21.598  1.00  0.00     0.072 C 
HETATM   13  C12 UNL     1      -3.054  50.260 -22.994  1.00  0.00     0.133 C 
HETATM   14  O2  UNL     1      -2.173  49.933 -23.785  1.00  0.00    -0.297 OA
HETATM   15  C13 UNL     1      -4.528  50.133 -23.370  1.00  0.00     0.091 C 
HETATM   16  C14 UNL     1      -5.249  49.267 -22.323  1.00  0.00     0.005 C 
HETATM   17  C15 UNL     1      -4.744  47.803 -22.472  1.00  0.00     0.019 C 
HETATM   18  C16 UNL     1      -4.978  49.874 -20.911  1.00  0.00     0.002 C 
HETATM   19  C17 UNL     1      -5.944  49.110 -20.014  1.00  0.00     0.009 C 
HETATM   20  C18 UNL     1      -7.192  48.892 -20.894  1.00  0.00     0.047 C 
HETATM   21  C19 UNL     1      -6.808  49.323 -22.338  1.00  0.00     0.128 C 
ENDROOT
BRANCH  21  22
HETATM   22  O3  UNL     1      -7.207  50.688 -22.491  1.00  0.00    -0.381 OA
HETATM   23  H25 UNL     1      -8.180  50.727 -22.458  1.00  0.00     0.211 HD
ENDBRANCH  21  22
BRANCH  21  24
HETATM   24  C20 UNL     1      -7.466  48.412 -23.407  1.00  0.00     0.185 C 
HETATM   25  O4  UNL     1      -7.377  48.657 -24.611  1.00  0.00    -0.292 OA
BRANCH  24  26
HETATM   26  C21 UNL     1      -8.273  47.217 -22.913  1.00  0.00     0.260 C 
BRANCH  26  27
HETATM   27  O5  UNL     1      -9.628  47.262 -23.364  1.00  0.00    -0.314 OA
BRANCH  27  28
HETATM   28  C22 UNL     1      -9.984  46.301 -24.263  1.00  0.00     0.259 C 
HETATM   29  O6  UNL     1      -9.485  45.189 -24.340  1.00  0.00    -0.265 OA
BRANCH  28  30
HETATM   30  C23 UNL     1     -11.092  46.821 -25.139  1.00  0.00     0.120 C 
BRANCH  30  31
HETATM   31  C24 UNL     1     -12.447  46.688 -24.452  1.00  0.00     0.112 C 
BRANCH  31  32
HETATM   32  C25 UNL     1     -13.580  46.773 -25.450  1.00  0.00     0.218 C 
HETATM   33  O7  UNL     1     -13.643  47.625 -26.328  1.00  0.00    -0.274 OA
HETATM   34  N1  UNL     1     -14.538  45.801 -25.257  1.00  0.00    -0.361 N 
HETATM   35  H32 UNL     1     -14.288  44.993 -24.699  1.00  0.00     0.162 HD
BRANCH  34  36
HETATM   36  C26 UNL     1     -15.643  45.663 -26.187  1.00  0.00     0.127 C 
BRANCH  36  37
HETATM   37  C27 UNL     1     -17.000  45.610 -25.471  1.00  0.00     0.003 C 
HETATM   38  C28 UNL     1     -17.267  46.896 -24.666  1.00  0.00     0.007 C 
HETATM   39  C29 UNL     1     -18.747  47.285 -24.578  1.00  0.00     0.015 C 
HETATM   40  C30 UNL     1     -19.693  46.085 -24.563  1.00  0.00     0.084 C 
HETATM   41  C32 UNL     1     -19.479  45.159 -25.773  1.00  0.00     0.015 C 
HETATM   42  C33 UNL     1     -18.128  45.344 -26.472  1.00  0.00     0.007 C 
BRANCH  40  43
HETATM   43  C31 UNL     1     -19.565  45.343 -23.248  1.00  0.00     0.143 C 
HETATM   44  O8  UNL     1     -19.978  44.227 -22.984  1.00  0.00    -0.650 OA
BRANCH  43  45
HETATM   45  O9  UNL     1     -18.885  46.053 -22.325  1.00  0.00    -0.776 OA
HETATM   46  H41 UNL     1     -18.861  45.466 -21.541  1.00  0.00     0.167 HD
ENDBRANCH  43  45
ENDBRANCH  40  43
ENDBRANCH  36  37
ENDBRANCH  34  36
ENDBRANCH  31  32
ENDBRANCH  30  31
ENDBRANCH  28  30
ENDBRANCH  27  28
ENDBRANCH  26  27
ENDBRANCH  24  26
ENDBRANCH  21  24
TORSDOF 12
ENDMDL
MODEL 5
REMARK minimizedAffinity -8.96477509
REMARK CNNscore 0.453442395
REMARK CNNaffinity 6.83114481
REMARK  12 active torsions:
REMARK  status: ('A' for Active; 'I' for Inactive)
REMARK    1  A    between atoms: C19_21  and  O3_22 
REMARK    2  A    between atoms: C19_21  and  C20_23 
REMARK    3  A    between atoms: C20_23  and  C21_25 
REMARK    4  A    between atoms: C21_25  and  O5_26 
REMARK    5  A    between atoms: O5_26  and  C22_27 
REMARK    6  A    between atoms: C22_27  and  C23_29 
REMARK    7  A    between atoms: C23_29  and  C24_30 
REMARK    8  A    between atoms: C24_30  and  C25_31 
REMARK       I    between atoms: C25_31  and  N1_33 
REMARK    9  A    between atoms: N1_33  and  C26_34 
REMARK   10  A    between atoms: C26_34  and  C27_35 
REMARK   11  A    between atoms: C30_38  and  C31_39 
REMARK   12  A    between atoms: C31_39  and  O9_41 
ROOT
HETATM    1  C1  UNL     1      -3.979  51.299 -24.500  1.00  0.00     0.021 C 
HETATM    2  C2  UNL     1      -3.248  49.945 -24.342  1.00  0.00    -0.009 C 
HETATM    3  C3  UNL     1      -2.049  49.878 -25.328  1.00  0.00     0.022 C 
HETATM    4  C4  UNL     1      -2.474  49.913 -26.794  1.00  0.00     0.084 C 
HETATM    5  C5  UNL     1      -3.568  48.917 -27.097  1.00  0.00     0.149 C 
HETATM    6  O1  UNL     1      -3.832  48.567 -28.246  1.00  0.00    -0.293 OA
HETATM    7  C6  UNL     1      -4.354  48.355 -25.974  1.00  0.00     0.053 C 
HETATM    8  C7  UNL     1      -4.208  48.801 -24.712  1.00  0.00    -0.067 C 
HETATM    9  C8  UNL     1      -4.924  48.080 -23.590  1.00  0.00     0.035 C 
HETATM   10  C9  UNL     1      -5.199  48.953 -22.371  1.00  0.00     0.010 C 
HETATM   11  C10 UNL     1      -3.968  49.726 -21.863  1.00  0.00     0.003 C 
HETATM   12  C11 UNL     1      -2.783  49.701 -22.877  1.00  0.00     0.072 C 
HETATM   13  C12 UNL     1      -1.676  50.604 -22.322  1.00  0.00     0.133 C 
HETATM   14  O2  UNL     1      -1.212  51.570 -22.924  1.00  0.00    -0.297 OA
HETATM   15  C13 UNL     1      -1.145  50.214 -20.944  1.00  0.00     0.091 C 
HETATM   16  C14 UNL     1      -2.310  50.177 -19.941  1.00  0.00     0.005 C 
HETATM   17  C15 UNL     1      -2.795  51.636 -19.705  1.00  0.00     0.019 C 
HETATM   18  C16 UNL     1      -3.421  49.240 -20.510  1.00  0.00     0.002 C 
HETATM   19  C17 UNL     1      -4.372  49.074 -19.331  1.00  0.00     0.009 C 
HETATM   20  C18 UNL     1      -3.449  49.058 -18.095  1.00  0.00     0.047 C 
HETATM   21  C19 UNL     1      -2.028  49.458 -18.585  1.00  0.00     0.128 C 
ENDROOT
BRANCH  21  22
HETATM   22  O3  UNL     1      -1.320  48.245 -18.859  1.00  0.00    -0.381 OA
HETATM   23  H25 UNL     1      -1.181  47.776 -18.016  1.00  0.00     0.211 HD
ENDBRANCH  21  22
BRANCH  21  24
HETATM   24  C20 UNL     1      -1.283  50.333 -17.544  1.00  0.00     0.185 C 
HETATM   25  O4  UNL     1      -1.867  50.834 -16.582  1.00  0.00    -0.292 OA
BRANCH  24  26
HETATM   26  C21 UNL     1       0.200  50.595 -17.777  1.00  0.00     0.260 C 
BRANCH  26  27
HETATM   27  O5  UNL     1       0.543  51.965 -17.563  1.00  0.00    -0.314 OA
BRANCH  27  28
HETATM   28  C22 UNL     1       1.581  52.188 -16.708  1.00  0.00     0.259 C 
HETATM   29  O6  UNL     1       2.750  52.312 -17.037  1.00  0.00    -0.265 OA
BRANCH  28  30
HETATM   30  C23 UNL     1       1.059  52.267 -15.298  1.00  0.00     0.120 C 
BRANCH  30  31
HETATM   31  C24 UNL     1       2.135  51.882 -14.289  1.00  0.00     0.112 C 
BRANCH  31  32
HETATM   32  C25 UNL     1       1.580  51.835 -12.883  1.00  0.00     0.218 C 
HETATM   33  O7  UNL     1       1.855  50.952 -12.079  1.00  0.00    -0.274 OA
HETATM   34  N1  UNL     1       0.725  52.881 -12.609  1.00  0.00    -0.361 N 
HETATM   35  H32 UNL     1       0.759  53.691 -13.215  1.00  0.00     0.162 HD
BRANCH  34  36
HETATM   36  C26 UNL     1       0.183  53.057 -11.275  1.00  0.00     0.127 C 
BRANCH  36  37
HETATM   37  C27 UNL     1      -1.281  52.605 -11.179  1.00  0.00     0.003 C 
HETATM   38  C28 UNL     1      -2.122  53.584 -10.337  1.00  0.00     0.007 C 
HETATM   39  C29 UNL     1      -3.586  53.694 -10.779  1.00  0.00     0.015 C 
HETATM   40  C30 UNL     1      -4.149  52.392 -11.349  1.00  0.00     0.084 C 
HETATM   41  C32 UNL     1      -3.302  51.852 -12.514  1.00  0.00     0.015 C 
HETATM   42  C33 UNL     1      -1.883  52.424 -12.575  1.00  0.00     0.007 C 
BRANCH  40  43
HETATM   43  C31 UNL     1      -4.313  51.372 -10.241  1.00  0.00     0.143 C 
HETATM   44  O8  UNL     1      -3.525  51.117  -9.346  1.00  0.00    -0.650 OA
BRANCH  43  45
HETATM   45  O9  UNL     1      -5.498  50.733 -10.306  1.00  0.00    -0.776 OA
HETATM   46  H41 UNL     1      -5.484  50.122  -9.541  1.00  0.00     0.167 HD
ENDBRANCH  43  45
ENDBRANCH  40  43
ENDBRANCH  36  37
ENDBRANCH  34  36
ENDBRANCH  31  32
ENDBRANCH  30  31
ENDBRANCH  28  30
ENDBRANCH  27  28
ENDBRANCH  26  27
ENDBRANCH  24  26
ENDBRANCH  21  24
TORSDOF 12
ENDMDL
MODEL 6
REMARK minimizedAffinity -8.30827618
REMARK CNNscore 0.453055143
REMARK CNNaffinity 6.22435045
REMARK  12 active torsions:
REMARK  status: ('A' for Active; 'I' for Inactive)
REMARK    1  A    between atoms: C19_21  and  O3_22 
REMARK    2  A    between atoms: C19_21  and  C20_23 
REMARK    3  A    between atoms: C20_23  and  C21_25 
REMARK    4  A    between atoms: C21_25  and  O5_26 
REMARK    5  A    between atoms: O5_26  and  C22_27 
REMARK    6  A    between atoms: C22_27  and  C23_29 
REMARK    7  A    between atoms: C23_29  and  C24_30 
REMARK    8  A    between atoms: C24_30  and  C25_31 
REMARK       I    between atoms: C25_31  and  N1_33 
REMARK    9  A    between atoms: N1_33  and  C26_34 
REMARK   10  A    between atoms: C26_34  and  C27_35 
REMARK   11  A    between atoms: C30_38  and  C31_39 
REMARK   12  A    between atoms: C31_39  and  O9_41 
ROOT
HETATM    1  C1  UNL     1      -0.547  49.783 -21.120  1.00  0.00     0.021 C 
HETATM    2  C2  UNL     1      -1.340  51.110 -21.185  1.00  0.00    -0.009 C 
HETATM    3  C3  UNL     1      -0.588  52.127 -22.086  1.00  0.00     0.022 C 
HETATM    4  C4  UNL     1       0.778  52.526 -21.531  1.00  0.00     0.084 C 
HETATM    5  C5  UNL     1       0.709  52.934 -20.079  1.00  0.00     0.149 C 
HETATM    6  O1  UNL     1       1.609  53.574 -19.537  1.00  0.00    -0.293 OA
HETATM    7  C6  UNL     1      -0.476  52.538 -19.282  1.00  0.00     0.053 C 
HETATM    8  C7  UNL     1      -1.424  51.722 -19.776  1.00  0.00    -0.067 C 
HETATM    9  C8  UNL     1      -2.684  51.484 -18.969  1.00  0.00     0.035 C 
HETATM   10  C9  UNL     1      -3.372  50.159 -19.277  1.00  0.00     0.010 C 
HETATM   11  C10 UNL     1      -3.596  49.902 -20.778  1.00  0.00     0.003 C 
HETATM   12  C11 UNL     1      -2.799  50.892 -21.681  1.00  0.00     0.072 C 
HETATM   13  C12 UNL     1      -2.998  50.457 -23.138  1.00  0.00     0.133 C 
HETATM   14  O2  UNL     1      -2.077  50.169 -23.900  1.00  0.00    -0.297 OA
HETATM   15  C13 UNL     1      -4.447  50.422 -23.616  1.00  0.00     0.091 C 
HETATM   16  C14 UNL     1      -5.264  49.493 -22.702  1.00  0.00     0.005 C 
HETATM   17  C15 UNL     1      -4.798  48.031 -22.954  1.00  0.00     0.019 C 
HETATM   18  C16 UNL     1      -5.067  49.959 -21.225  1.00  0.00     0.002 C 
HETATM   19  C17 UNL     1      -6.115  49.156 -20.466  1.00  0.00     0.009 C 
HETATM   20  C18 UNL     1      -7.308  49.067 -21.438  1.00  0.00     0.047 C 
HETATM   21  C19 UNL     1      -6.816  49.611 -22.810  1.00  0.00     0.128 C 
ENDROOT
BRANCH  21  22
HETATM   22  O3  UNL     1      -7.159  50.998 -22.860  1.00  0.00    -0.381 OA
HETATM   23  H25 UNL     1      -8.130  51.072 -22.886  1.00  0.00     0.211 HD
ENDBRANCH  21  22
BRANCH  21  24
HETATM   24  C20 UNL     1      -7.431  48.826 -23.997  1.00  0.00     0.185 C 
HETATM   25  O4  UNL     1      -8.404  49.252 -24.622  1.00  0.00    -0.292 OA
BRANCH  24  26
HETATM   26  C21 UNL     1      -6.816  47.474 -24.342  1.00  0.00     0.260 C 
BRANCH  26  27
HETATM   27  O5  UNL     1      -7.197  47.029 -25.645  1.00  0.00    -0.314 OA
BRANCH  27  28
HETATM   28  C22 UNL     1      -8.088  45.998 -25.681  1.00  0.00     0.259 C 
HETATM   29  O6  UNL     1      -8.213  45.145 -24.815  1.00  0.00    -0.265 OA
BRANCH  28  30
HETATM   30  C23 UNL     1      -8.898  46.080 -26.947  1.00  0.00     0.120 C 
BRANCH  30  31
HETATM   31  C24 UNL     1      -9.039  44.710 -27.601  1.00  0.00     0.112 C 
BRANCH  31  32
HETATM   32  C25 UNL     1      -8.134  44.579 -28.806  1.00  0.00     0.218 C 
HETATM   33  O7  UNL     1      -7.070  43.972 -28.787  1.00  0.00    -0.274 OA
HETATM   34  N1  UNL     1      -8.627  45.225 -29.919  1.00  0.00    -0.361 N 
HETATM   35  H32 UNL     1      -9.610  45.468 -29.930  1.00  0.00     0.162 HD
BRANCH  34  36
HETATM   36  C26 UNL     1      -7.945  45.116 -31.194  1.00  0.00     0.127 C 
BRANCH  36  37
HETATM   37  C27 UNL     1      -8.917  44.851 -32.352  1.00  0.00     0.003 C 
HETATM   38  C28 UNL     1      -9.609  46.147 -32.818  1.00  0.00     0.007 C 
HETATM   39  C29 UNL     1      -9.945  46.176 -34.314  1.00  0.00     0.015 C 
HETATM   40  C30 UNL     1     -10.284  44.801 -34.888  1.00  0.00     0.084 C 
HETATM   41  C32 UNL     1      -9.167  43.773 -34.635  1.00  0.00     0.015 C 
HETATM   42  C33 UNL     1      -8.198  44.164 -33.516  1.00  0.00     0.007 C 
BRANCH  40  43
HETATM   43  C31 UNL     1     -11.622  44.333 -34.354  1.00  0.00     0.143 C 
HETATM   44  O8  UNL     1     -12.340  43.462 -34.815  1.00  0.00    -0.650 OA
BRANCH  43  45
HETATM   45  O9  UNL     1     -11.978  44.983 -33.228  1.00  0.00    -0.776 OA
HETATM   46  H41 UNL     1     -12.839  44.585 -32.982  1.00  0.00     0.167 HD
ENDBRANCH  43  45
ENDBRANCH  40  43
ENDBRANCH  36  37
ENDBRANCH  34  36
ENDBRANCH  31  32
ENDBRANCH  30  31
ENDBRANCH  28  30
ENDBRANCH  27  28
ENDBRANCH  26  27
ENDBRANCH  24  26
ENDBRANCH  21  24
TORSDOF 12
ENDMDL
MODEL 7
REMARK minimizedAffinity -8.89335251
REMARK CNNscore 0.415440321
REMARK CNNaffinity 6.89308882
REMARK  12 active torsions:
REMARK  status: ('A' for Active; 'I' for Inactive)
REMARK    1  A    between atoms: C19_21  and  O3_22 
REMARK    2  A    between atoms: C19_21  and  C20_23 
REMARK    3  A    between atoms: C20_23  and  C21_25 
REMARK    4  A    between atoms: C21_25  and  O5_26 
REMARK    5  A    between atoms: O5_26  and  C22_27 
REMARK    6  A    between atoms: C22_27  and  C23_29 
REMARK    7  A    between atoms: C23_29  and  C24_30 
REMARK    8  A    between atoms: C24_30  and  C25_31 
REMARK       I    between atoms: C25_31  and  N1_33 
REMARK    9  A    between atoms: N1_33  and  C26_34 
REMARK   10  A    between atoms: C26_34  and  C27_35 
REMARK   11  A    between atoms: C30_38  and  C31_39 
REMARK   12  A    between atoms: C31_39  and  O9_41 
ROOT
HETATM    1  C1  UNL     1      -6.209  46.259 -22.288  1.00  0.00     0.021 C 
HETATM    2  C2  UNL     1      -6.328  47.792 -22.462  1.00  0.00    -0.009 C 
HETATM    3  C3  UNL     1      -7.772  48.249 -22.117  1.00  0.00     0.022 C 
HETATM    4  C4  UNL     1      -8.826  47.675 -23.062  1.00  0.00     0.084 C 
HETATM    5  C5  UNL     1      -8.457  47.866 -24.513  1.00  0.00     0.149 C 
HETATM    6  O1  UNL     1      -9.287  47.764 -25.416  1.00  0.00    -0.293 OA
HETATM    7  C6  UNL     1      -7.050  48.172 -24.859  1.00  0.00     0.053 C 
HETATM    8  C7  UNL     1      -6.072  48.158 -23.934  1.00  0.00    -0.067 C 
HETATM    9  C8  UNL     1      -4.687  48.633 -24.320  1.00  0.00     0.035 C 
HETATM   10  C9  UNL     1      -3.571  48.039 -23.468  1.00  0.00     0.010 C 
HETATM   11  C10 UNL     1      -3.813  48.149 -21.952  1.00  0.00     0.003 C 
HETATM   12  C11 UNL     1      -5.277  48.558 -21.606  1.00  0.00     0.072 C 
HETATM   13  C12 UNL     1      -5.428  48.507 -20.081  1.00  0.00     0.133 C 
HETATM   14  O2  UNL     1      -6.259  47.815 -19.497  1.00  0.00    -0.297 OA
HETATM   15  C13 UNL     1      -4.475  49.409 -19.301  1.00  0.00     0.091 C 
HETATM   16  C14 UNL     1      -3.024  49.059 -19.672  1.00  0.00     0.005 C 
HETATM   17  C15 UNL     1      -2.698  47.655 -19.090  1.00  0.00     0.019 C 
HETATM   18  C16 UNL     1      -2.880  49.134 -21.225  1.00  0.00     0.002 C 
HETATM   19  C17 UNL     1      -1.375  49.040 -21.439  1.00  0.00     0.009 C 
HETATM   20  C18 UNL     1      -0.771  49.805 -20.244  1.00  0.00     0.047 C 
HETATM   21  C19 UNL     1      -1.937  50.100 -19.259  1.00  0.00     0.128 C 
ENDROOT
BRANCH  21  22
HETATM   22  O3  UNL     1      -2.427  51.408 -19.567  1.00  0.00    -0.381 OA
HETATM   23  H25 UNL     1      -1.732  52.054 -19.347  1.00  0.00     0.211 HD
ENDBRANCH  21  22
BRANCH  21  24
HETATM   24  C20 UNL     1      -1.485  49.992 -17.779  1.00  0.00     0.185 C 
HETATM   25  O4  UNL     1      -2.192  49.459 -16.922  1.00  0.00    -0.292 OA
BRANCH  24  26
HETATM   26  C21 UNL     1      -0.145  50.615 -17.405  1.00  0.00     0.260 C 
BRANCH  26  27
HETATM   27  O5  UNL     1      -0.151  52.035 -17.565  1.00  0.00    -0.314 OA
BRANCH  27  28
HETATM   28  C22 UNL     1       0.946  52.565 -18.175  1.00  0.00     0.259 C 
HETATM   29  O6  UNL     1       2.026  52.761 -17.638  1.00  0.00    -0.265 OA
BRANCH  28  30
HETATM   30  C23 UNL     1       0.623  52.864 -19.615  1.00  0.00     0.120 C 
BRANCH  30  31
HETATM   31  C24 UNL     1       1.876  53.250 -20.393  1.00  0.00     0.112 C 
BRANCH  31  32
HETATM   32  C25 UNL     1       1.527  53.984 -21.669  1.00  0.00     0.218 C 
HETATM   33  O7  UNL     1       1.596  55.201 -21.786  1.00  0.00    -0.274 OA
HETATM   34  N1  UNL     1       1.113  53.140 -22.676  1.00  0.00    -0.361 N 
HETATM   35  H32 UNL     1       1.334  52.156 -22.591  1.00  0.00     0.162 HD
BRANCH  34  36
HETATM   36  C26 UNL     1       0.841  53.658 -24.004  1.00  0.00     0.127 C 
BRANCH  36  37
HETATM   37  C27 UNL     1      -0.061  52.721 -24.819  1.00  0.00     0.003 C 
HETATM   38  C28 UNL     1       0.687  52.123 -26.026  1.00  0.00     0.007 C 
HETATM   39  C29 UNL     1       0.227  50.712 -26.412  1.00  0.00     0.015 C 
HETATM   40  C30 UNL     1      -1.257  50.462 -26.148  1.00  0.00     0.084 C 
HETATM   41  C32 UNL     1      -1.643  50.743 -24.685  1.00  0.00     0.015 C 
HETATM   42  C33 UNL     1      -0.639  51.618 -23.929  1.00  0.00     0.007 C 
BRANCH  40  43
HETATM   43  C31 UNL     1      -2.098  51.260 -27.123  1.00  0.00     0.143 C 
HETATM   44  O8  UNL     1      -3.235  51.668 -26.959  1.00  0.00    -0.650 OA
BRANCH  43  45
HETATM   45  O9  UNL     1      -1.436  51.529 -28.266  1.00  0.00    -0.776 OA
HETATM   46  H41 UNL     1      -2.074  52.052 -28.796  1.00  0.00     0.167 HD
ENDBRANCH  43  45
ENDBRANCH  40  43
ENDBRANCH  36  37
ENDBRANCH  34  36
ENDBRANCH  31  32
ENDBRANCH  30  31
ENDBRANCH  28  30
ENDBRANCH  27  28
ENDBRANCH  26  27
ENDBRANCH  24  26
ENDBRANCH  21  24
TORSDOF 12
ENDMDL
MODEL 8
REMARK minimizedAffinity -8.80791283
REMARK CNNscore 0.400829047
REMARK CNNaffinity 6.53912973
REMARK  12 active torsions:
REMARK  status: ('A' for Active; 'I' for Inactive)
REMARK    1  A    between atoms: C19_21  and  O3_22 
REMARK    2  A    between atoms: C19_21  and  C20_23 
REMARK    3  A    between atoms: C20_23  and  C21_25 
REMARK    4  A    between atoms: C21_25  and  O5_26 
REMARK    5  A    between atoms: O5_26  and  C22_27 
REMARK    6  A    between atoms: C22_27  and  C23_29 
REMARK    7  A    between atoms: C23_29  and  C24_30 
REMARK    8  A    between atoms: C24_30  and  C25_31 
REMARK       I    between atoms: C25_31  and  N1_33 
REMARK    9  A    between atoms: N1_33  and  C26_34 
REMARK   10  A    between atoms: C26_34  and  C27_35 
REMARK   11  A    between atoms: C30_38  and  C31_39 
REMARK   12  A    between atoms: C31_39  and  O9_41 
ROOT
HETATM    1  C1  UNL     1       0.481  51.088 -25.300  1.00  0.00     0.021 C 
HETATM    2  C2  UNL     1      -0.556  52.161 -24.892  1.00  0.00    -0.009 C 
HETATM    3  C3  UNL     1      -1.815  52.044 -25.795  1.00  0.00     0.022 C 
HETATM    4  C4  UNL     1      -1.528  52.331 -27.267  1.00  0.00     0.084 C 
HETATM    5  C5  UNL     1      -0.758  53.615 -27.459  1.00  0.00     0.149 C 
HETATM    6  O1  UNL     1      -0.697  54.182 -28.550  1.00  0.00    -0.293 OA
HETATM    7  C6  UNL     1      -0.045  54.202 -26.301  1.00  0.00     0.053 C 
HETATM    8  C7  UNL     1       0.042  53.560 -25.121  1.00  0.00    -0.067 C 
HETATM    9  C8  UNL     1       0.646  54.280 -23.934  1.00  0.00     0.035 C 
HETATM   10  C9  UNL     1       1.244  53.349 -22.886  1.00  0.00     0.010 C 
HETATM   11  C10 UNL     1       0.303  52.211 -22.448  1.00  0.00     0.003 C 
HETATM   12  C11 UNL     1      -0.934  52.062 -23.385  1.00  0.00     0.072 C 
HETATM   13  C12 UNL     1      -1.719  50.826 -22.929  1.00  0.00     0.133 C 
HETATM   14  O2  UNL     1      -1.971  49.867 -23.654  1.00  0.00    -0.297 OA
HETATM   15  C13 UNL     1      -2.207  50.862 -21.482  1.00  0.00     0.091 C 
HETATM   16  C14 UNL     1      -1.005  51.067 -20.544  1.00  0.00     0.005 C 
HETATM   17  C15 UNL     1      -0.143  49.773 -20.568  1.00  0.00     0.019 C 
HETATM   18  C16 UNL     1      -0.227  52.337 -21.009  1.00  0.00     0.002 C 
HETATM   19  C17 UNL     1       0.750  52.583 -19.867  1.00  0.00     0.009 C 
HETATM   20  C18 UNL     1      -0.031  52.178 -18.601  1.00  0.00     0.047 C 
HETATM   21  C19 UNL     1      -1.340  51.486 -19.079  1.00  0.00     0.128 C 
ENDROOT
BRANCH  21  22
HETATM   22  O3  UNL     1      -2.357  52.491 -19.119  1.00  0.00    -0.381 OA
HETATM   23  H25 UNL     1      -2.535  52.782 -18.207  1.00  0.00     0.211 HD
ENDBRANCH  21  22
BRANCH  21  24
HETATM   24  C20 UNL     1      -1.739  50.305 -18.156  1.00  0.00     0.185 C 
HETATM   25  O4  UNL     1      -1.363  49.153 -18.377  1.00  0.00    -0.292 OA
BRANCH  24  26
HETATM   26  C21 UNL     1      -2.660  50.611 -16.980  1.00  0.00     0.260 C 
BRANCH  26  27
HETATM   27  O5  UNL     1      -1.929  50.951 -15.801  1.00  0.00    -0.314 OA
BRANCH  27  28
HETATM   28  C22 UNL     1      -1.880  49.989 -14.837  1.00  0.00     0.259 C 
HETATM   29  O6  UNL     1      -1.097  49.053 -14.815  1.00  0.00    -0.265 OA
BRANCH  28  30
HETATM   30  C23 UNL     1      -2.936  50.266 -13.800  1.00  0.00     0.120 C 
BRANCH  30  31
HETATM   31  C24 UNL     1      -3.103  51.764 -13.569  1.00  0.00     0.112 C 
BRANCH  31  32
HETATM   32  C25 UNL     1      -3.426  52.065 -12.122  1.00  0.00     0.218 C 
HETATM   33  O7  UNL     1      -4.101  51.327 -11.415  1.00  0.00    -0.274 OA
HETATM   34  N1  UNL     1      -2.894  53.261 -11.692  1.00  0.00    -0.361 N 
HETATM   35  H32 UNL     1      -2.146  53.671 -12.238  1.00  0.00     0.162 HD
BRANCH  34  36
HETATM   36  C26 UNL     1      -3.012  53.661 -10.302  1.00  0.00     0.127 C 
BRANCH  36  37
HETATM   37  C27 UNL     1      -1.718  54.288  -9.766  1.00  0.00     0.003 C 
HETATM   38  C28 UNL     1      -1.260  53.613  -8.459  1.00  0.00     0.007 C 
HETATM   39  C29 UNL     1       0.261  53.582  -8.269  1.00  0.00     0.015 C 
HETATM   40  C30 UNL     1       0.975  54.789  -8.874  1.00  0.00     0.084 C 
HETATM   41  C32 UNL     1       0.651  54.970 -10.368  1.00  0.00     0.015 C 
HETATM   42  C33 UNL     1      -0.614  54.238 -10.826  1.00  0.00     0.007 C 
BRANCH  40  43
HETATM   43  C31 UNL     1       0.662  56.033  -8.068  1.00  0.00     0.143 C 
HETATM   44  O8  UNL     1      -0.422  56.576  -7.935  1.00  0.00    -0.650 OA
BRANCH  43  45
HETATM   45  O9  UNL     1       1.749  56.520  -7.437  1.00  0.00    -0.776 OA
HETATM   46  H41 UNL     1       1.414  57.301  -6.949  1.00  0.00     0.167 HD
ENDBRANCH  43  45
ENDBRANCH  40  43
ENDBRANCH  36  37
ENDBRANCH  34  36
ENDBRANCH  31  32
ENDBRANCH  30  31
ENDBRANCH  28  30
ENDBRANCH  27  28
ENDBRANCH  26  27
ENDBRANCH  24  26
ENDBRANCH  21  24
TORSDOF 12
ENDMDL
MODEL 9
REMARK minimizedAffinity -9.0845089
REMARK CNNscore 0.398470163
REMARK CNNaffinity 6.43205786
REMARK  12 active torsions:
REMARK  status: ('A' for Active; 'I' for Inactive)
REMARK    1  A    between atoms: C19_21  and  O3_22 
REMARK    2  A    between atoms: C19_21  and  C20_23 
REMARK    3  A    between atoms: C20_23  and  C21_25 
REMARK    4  A    between atoms: C21_25  and  O5_26 
REMARK    5  A    between atoms: O5_26  and  C22_27 
REMARK    6  A    between atoms: C22_27  and  C23_29 
REMARK    7  A    between atoms: C23_29  and  C24_30 
REMARK    8  A    between atoms: C24_30  and  C25_31 
REMARK       I    between atoms: C25_31  and  N1_33 
REMARK    9  A    between atoms: N1_33  and  C26_34 
REMARK   10  A    between atoms: C26_34  and  C27_35 
REMARK   11  A    between atoms: C30_38  and  C31_39 
REMARK   12  A    between atoms: C31_39  and  O9_41 
ROOT
HETATM    1  C1  UNL     1      -0.207  49.997 -20.944  1.00  0.00     0.021 C 
HETATM    2  C2  UNL     1      -1.128  51.231 -21.098  1.00  0.00    -0.009 C 
HETATM    3  C3  UNL     1      -0.564  52.173 -22.197  1.00  0.00     0.022 C 
HETATM    4  C4  UNL     1       0.802  52.758 -21.844  1.00  0.00     0.084 C 
HETATM    5  C5  UNL     1       0.828  53.355 -20.458  1.00  0.00     0.149 C 
HETATM    6  O1  UNL     1       1.708  54.137 -20.101  1.00  0.00    -0.293 OA
HETATM    7  C6  UNL     1      -0.234  52.977 -19.497  1.00  0.00     0.053 C 
HETATM    8  C7  UNL     1      -1.140  52.023 -19.779  1.00  0.00    -0.067 C 
HETATM    9  C8  UNL     1      -2.291  51.795 -18.821  1.00  0.00     0.035 C 
HETATM   10  C9  UNL     1      -2.873  50.388 -18.880  1.00  0.00     0.010 C 
HETATM   11  C10 UNL     1      -3.208  49.907 -20.304  1.00  0.00     0.003 C 
HETATM   12  C11 UNL     1      -2.599  50.825 -21.406  1.00  0.00     0.072 C 
HETATM   13  C12 UNL     1      -2.887  50.177 -22.766  1.00  0.00     0.133 C 
HETATM   14  O2  UNL     1      -2.017  49.863 -23.575  1.00  0.00    -0.297 OA
HETATM   15  C13 UNL     1      -4.365  49.954 -23.081  1.00  0.00     0.091 C 
HETATM   16  C14 UNL     1      -4.999  49.097 -21.973  1.00  0.00     0.005 C 
HETATM   17  C15 UNL     1      -4.420  47.658 -22.080  1.00  0.00     0.019 C 
HETATM   18  C16 UNL     1      -4.713  49.778 -20.598  1.00  0.00     0.002 C 
HETATM   19  C17 UNL     1      -5.603  49.003 -19.635  1.00  0.00     0.009 C 
HETATM   20  C18 UNL     1      -6.867  48.681 -20.458  1.00  0.00     0.047 C 
HETATM   21  C19 UNL     1      -6.559  49.068 -21.932  1.00  0.00     0.128 C 
ENDROOT
BRANCH  21  22
HETATM   22  O3  UNL     1      -7.038  50.402 -22.127  1.00  0.00    -0.381 OA
HETATM   23  H25 UNL     1      -8.010  50.390 -22.059  1.00  0.00     0.211 HD
ENDBRANCH  21  22
BRANCH  21  24
HETATM   24  C20 UNL     1      -7.202  48.078 -22.937  1.00  0.00     0.185 C 
HETATM   25  O4  UNL     1      -7.662  46.993 -22.574  1.00  0.00    -0.292 OA
BRANCH  24  26
HETATM   26  C21 UNL     1      -7.206  48.471 -24.410  1.00  0.00     0.260 C 
BRANCH  26  27
HETATM   27  O5  UNL     1      -8.403  49.157 -24.778  1.00  0.00    -0.314 OA
BRANCH  27  28
HETATM   28  C22 UNL     1      -9.343  48.405 -25.417  1.00  0.00     0.259 C 
HETATM   29  O6  UNL     1     -10.226  47.765 -24.866  1.00  0.00    -0.265 OA
BRANCH  28  30
HETATM   30  C23 UNL     1      -9.129  48.493 -26.904  1.00  0.00     0.120 C 
BRANCH  30  31
HETATM   31  C24 UNL     1     -10.179  47.689 -27.662  1.00  0.00     0.112 C 
BRANCH  31  32
HETATM   32  C25 UNL     1     -10.154  48.005 -29.141  1.00  0.00     0.218 C 
HETATM   33  O7  UNL     1     -10.965  47.554 -29.940  1.00  0.00    -0.274 OA
HETATM   34  N1  UNL     1      -9.115  48.839 -29.493  1.00  0.00    -0.361 N 
HETATM   35  H32 UNL     1      -8.662  49.368 -28.757  1.00  0.00     0.162 HD
BRANCH  34  36
HETATM   36  C26 UNL     1      -8.998  49.334 -30.851  1.00  0.00     0.127 C 
BRANCH  36  37
HETATM   37  C27 UNL     1      -7.882  48.626 -31.633  1.00  0.00     0.003 C 
HETATM   38  C28 UNL     1      -6.681  48.289 -30.728  1.00  0.00     0.007 C 
HETATM   39  C29 UNL     1      -5.933  47.013 -31.127  1.00  0.00     0.015 C 
HETATM   40  C30 UNL     1      -5.937  46.751 -32.633  1.00  0.00     0.084 C 
HETATM   41  C32 UNL     1      -7.362  46.711 -33.213  1.00  0.00     0.015 C 
HETATM   42  C33 UNL     1      -8.419  47.370 -32.322  1.00  0.00     0.007 C 
BRANCH  40  43
HETATM   43  C31 UNL     1      -5.062  47.767 -33.337  1.00  0.00     0.143 C 
HETATM   44  O8  UNL     1      -5.184  48.187 -34.475  1.00  0.00    -0.650 OA
BRANCH  43  45
HETATM   45  O9  UNL     1      -4.077  48.230 -32.542  1.00  0.00    -0.776 OA
HETATM   46  H41 UNL     1      -3.601  48.879 -33.102  1.00  0.00     0.167 HD
ENDBRANCH  43  45
ENDBRANCH  40  43
ENDBRANCH  36  37
ENDBRANCH  34  36
ENDBRANCH  31  32
ENDBRANCH  30  31
ENDBRANCH  28  30
ENDBRANCH  27  28
ENDBRANCH  26  27
ENDBRANCH  24  26
ENDBRANCH  21  24
TORSDOF 12
ENDMDL
