MODEL 1
REMARK minimizedAffinity -11.0849552
REMARK CNNscore 0.668860435
REMARK CNNaffinity 7.28410912
REMARK  4 active torsions:
REMARK  status: ('A' for Active; 'I' for Inactive)
REMARK    1  A    between atoms: C2_2  and  C3_3 
REMARK    2  A    between atoms: C6_6  and  C7_7 
REMARK    3  A    between atoms: C7_7  and  O1_9 
REMARK    4  A    between atoms: C23_29  and  O6_30 
ROOT
HETATM    1  C3  UNL     1      -1.605  51.775 -26.161  1.00  0.00     0.008 C 
HETATM    2  C4  UNL     1      -1.185  50.372 -26.514  1.00  0.00    -0.023 C 
HETATM    3  C5  UNL     1      -1.893  49.232 -26.447  1.00  0.00     0.004 C 
HETATM    4  C6  UNL     1      -3.314  48.915 -26.018  1.00  0.00     0.182 C 
HETATM    5  O2  UNL     1      -3.911  49.914 -25.174  1.00  0.00    -0.308 OA
HETATM    6  C9  UNL     1      -3.655  49.802 -23.842  1.00  0.00     0.276 C 
HETATM    7  O3  UNL     1      -2.809  49.054 -23.359  1.00  0.00    -0.264 OA
HETATM    8  C10 UNL     1      -4.669  50.609 -22.982  1.00  0.00     0.095 C 
HETATM    9  C11 UNL     1      -5.284  51.819 -23.722  1.00  0.00     0.036 C 
HETATM   10  C12 UNL     1      -5.807  49.619 -22.811  1.00  0.00     0.003 C 
HETATM   11  C13 UNL     1      -6.417  49.105 -21.744  1.00  0.00     0.072 C 
HETATM   12  C14 UNL     1      -6.179  49.323 -20.316  1.00  0.00     0.245 C 
HETATM   13  O4  UNL     1      -6.955  48.810 -19.511  1.00  0.00    -0.268 OA
HETATM   14  N1  UNL     1      -5.127  50.032 -19.870  1.00  0.00    -0.320 N 
HETATM   15  C15 UNL     1      -4.100  50.741 -20.438  1.00  0.00     0.098 C 
HETATM   16  C16 UNL     1      -3.890  51.033 -21.733  1.00  0.00     0.045 C 
HETATM   17  C17 UNL     1      -2.704  51.916 -22.035  1.00  0.00     0.194 C 
HETATM   18  O5  UNL     1      -2.688  52.631 -23.027  1.00  0.00    -0.287 OA
HETATM   19  C18 UNL     1      -1.555  51.954 -21.121  1.00  0.00     0.046 A 
HETATM   20  C19 UNL     1      -1.807  51.661 -19.786  1.00  0.00     0.032 A 
HETATM   21  C20 UNL     1      -0.810  51.808 -18.812  1.00  0.00     0.026 A 
HETATM   22  C21 UNL     1       0.462  52.267 -19.165  1.00  0.00    -0.027 A 
HETATM   23  C22 UNL     1       1.517  52.472 -18.112  1.00  0.00     0.051 C 
HETATM   24  C23 UNL     1       0.713  52.574 -20.508  1.00  0.00     0.086 A 
HETATM   25  C24 UNL     1      -0.275  52.396 -21.502  1.00  0.00     0.059 A 
HETATM   26  C25 UNL     1       0.132  52.709 -22.900  1.00  0.00     0.163 C 
HETATM   27  O7  UNL     1       0.844  53.702 -23.070  1.00  0.00    -0.292 OA
HETATM   28  C26 UNL     1      -0.164  51.739 -24.024  1.00  0.00     0.084 C 
HETATM   29  C27 UNL     1      -0.533  52.490 -25.312  1.00  0.00     0.016 C 
HETATM   30  C28 UNL     1      -3.143  51.219 -19.379  1.00  0.00     0.210 C 
HETATM   31  O8  UNL     1      -3.458  51.171 -18.193  1.00  0.00    -0.285 OA
HETATM   32  H20 UNL     1      -5.100  50.020 -18.846  1.00  0.00     0.169 HD
ENDROOT
BRANCH   4  33
HETATM   33  C7  UNL     1      -4.208  48.738 -27.276  1.00  0.00     0.147 C 
HETATM   34  C8  UNL     1      -5.488  47.963 -26.976  1.00  0.00     0.042 C 
BRANCH  33  35
HETATM   35  O1  UNL     1      -3.500  48.024 -28.298  1.00  0.00    -0.393 OA
HETATM   36  H14 UNL     1      -3.888  48.285 -29.152  1.00  0.00     0.210 HD
ENDBRANCH  33  35
ENDBRANCH   4  33
BRANCH   1  37
HETATM   37  C2  UNL     1      -1.982  52.584 -27.422  1.00  0.00     0.004 C 
HETATM   38  C1  UNL     1      -0.917  53.542 -27.945  1.00  0.00     0.006 C 
ENDBRANCH   1  37
BRANCH  24  39
HETATM   39  O6  UNL     1       1.960  53.070 -20.806  1.00  0.00    -0.359 OA
HETATM   40  H25 UNL     1       1.908  53.545 -21.666  1.00  0.00     0.217 HD
ENDBRANCH  24  39
TORSDOF 4
ENDMDL
MODEL 2
REMARK minimizedAffinity -10.0643082
REMARK CNNscore 0.629424453
REMARK CNNaffinity 6.93915129
REMARK  4 active torsions:
REMARK  status: ('A' for Active; 'I' for Inactive)
REMARK    1  A    between atoms: C2_2  and  C3_3 
REMARK    2  A    between atoms: C6_6  and  C7_7 
REMARK    3  A    between atoms: C7_7  and  O1_9 
REMARK    4  A    between atoms: C23_29  and  O6_30 
ROOT
HETATM    1  C3  UNL     1      -4.414  48.039 -19.469  1.00  0.00     0.008 C 
HETATM    2  C4  UNL     1      -5.536  49.041 -19.553  1.00  0.00    -0.023 C 
HETATM    3  C5  UNL     1      -5.612  50.171 -20.276  1.00  0.00     0.004 C 
HETATM    4  C6  UNL     1      -4.661  50.852 -21.243  1.00  0.00     0.182 C 
HETATM    5  O2  UNL     1      -3.287  50.456 -21.094  1.00  0.00    -0.308 OA
HETATM    6  C9  UNL     1      -2.567  51.135 -20.160  1.00  0.00     0.276 C 
HETATM    7  O3  UNL     1      -3.055  51.890 -19.323  1.00  0.00    -0.264 OA
HETATM    8  C10 UNL     1      -1.034  50.974 -20.372  1.00  0.00     0.095 C 
HETATM    9  C11 UNL     1      -0.643  49.662 -21.090  1.00  0.00     0.036 C 
HETATM   10  C12 UNL     1      -0.728  52.084 -21.362  1.00  0.00     0.003 C 
HETATM   11  C13 UNL     1       0.114  53.116 -21.345  1.00  0.00     0.072 C 
HETATM   12  C14 UNL     1       1.061  53.552 -20.318  1.00  0.00     0.245 C 
HETATM   13  O4  UNL     1       1.817  54.486 -20.582  1.00  0.00    -0.268 OA
HETATM   14  N1  UNL     1       1.098  52.988 -19.098  1.00  0.00    -0.320 N 
HETATM   15  C15 UNL     1       0.453  51.956 -18.466  1.00  0.00     0.098 C 
HETATM   16  C16 UNL     1      -0.422  51.070 -18.971  1.00  0.00     0.045 C 
HETATM   17  C17 UNL     1      -0.894  49.987 -18.033  1.00  0.00     0.194 C 
HETATM   18  O5  UNL     1      -1.258  48.900 -18.458  1.00  0.00    -0.287 OA
HETATM   19  C18 UNL     1      -0.897  50.212 -16.582  1.00  0.00     0.046 A 
HETATM   20  C19 UNL     1       0.029  51.123 -16.087  1.00  0.00     0.032 A 
HETATM   21  C20 UNL     1       0.203  51.302 -14.708  1.00  0.00     0.026 A 
HETATM   22  C21 UNL     1      -0.548  50.554 -13.797  1.00  0.00    -0.027 A 
HETATM   23  C22 UNL     1      -0.325  50.711 -12.317  1.00  0.00     0.051 C 
HETATM   24  C23 UNL     1      -1.471  49.626 -14.295  1.00  0.00     0.086 A 
HETATM   25  C24 UNL     1      -1.679  49.464 -15.682  1.00  0.00     0.059 A 
HETATM   26  C25 UNL     1      -2.725  48.483 -16.083  1.00  0.00     0.163 C 
HETATM   27  O7  UNL     1      -2.790  47.434 -15.437  1.00  0.00    -0.292 OA
HETATM   28  C26 UNL     1      -3.775  48.853 -17.109  1.00  0.00     0.084 C 
HETATM   29  C27 UNL     1      -4.108  47.652 -18.007  1.00  0.00     0.016 C 
HETATM   30  C28 UNL     1       0.860  51.891 -17.018  1.00  0.00     0.210 C 
HETATM   31  O8  UNL     1       1.831  52.528 -16.618  1.00  0.00    -0.285 OA
HETATM   32  H20 UNL     1       1.781  53.469 -18.505  1.00  0.00     0.169 HD
ENDROOT
BRANCH   4  33
HETATM   33  C7  UNL     1      -5.103  50.552 -22.702  1.00  0.00     0.147 C 
HETATM   34  C8  UNL     1      -4.174  51.189 -23.733  1.00  0.00     0.042 C 
BRANCH  33  35
HETATM   35  O1  UNL     1      -6.423  51.057 -22.940  1.00  0.00    -0.393 OA
HETATM   36  H14 UNL     1      -6.810  50.522 -23.656  1.00  0.00     0.210 HD
ENDBRANCH  33  35
ENDBRANCH   4  33
BRANCH   1  37
HETATM   37  C2  UNL     1      -4.698  46.802 -20.350  1.00  0.00     0.004 C 
HETATM   38  C1  UNL     1      -3.477  46.114 -20.951  1.00  0.00     0.006 C 
ENDBRANCH   1  37
BRANCH  24  39
HETATM   39  O6  UNL     1      -2.152  48.875 -13.366  1.00  0.00    -0.359 OA
HETATM   40  H25 UNL     1      -2.497  48.068 -13.813  1.00  0.00     0.217 HD
ENDBRANCH  24  39
TORSDOF 4
ENDMDL
MODEL 3
REMARK minimizedAffinity -8.26165867
REMARK CNNscore 0.61366725
REMARK CNNaffinity 6.98655558
REMARK  4 active torsions:
REMARK  status: ('A' for Active; 'I' for Inactive)
REMARK    1  A    between atoms: C2_2  and  C3_3 
REMARK    2  A    between atoms: C6_6  and  C7_7 
REMARK    3  A    between atoms: C7_7  and  O1_9 
REMARK    4  A    between atoms: C23_29  and  O6_30 
ROOT
HETATM    1  C3  UNL     1       0.388  51.150 -13.846  1.00  0.00     0.008 C 
HETATM    2  C4  UNL     1      -0.666  52.084 -13.309  1.00  0.00    -0.023 C 
HETATM    3  C5  UNL     1      -1.989  51.887 -13.184  1.00  0.00     0.004 C 
HETATM    4  C6  UNL     1      -2.902  50.719 -13.507  1.00  0.00     0.182 C 
HETATM    5  O2  UNL     1      -2.357  49.795 -14.464  1.00  0.00    -0.308 OA
HETATM    6  C9  UNL     1      -2.555  50.104 -15.775  1.00  0.00     0.276 C 
HETATM    7  O3  UNL     1      -2.970  51.189 -16.176  1.00  0.00    -0.264 OA
HETATM    8  C10 UNL     1      -2.351  48.873 -16.704  1.00  0.00     0.095 C 
HETATM    9  C11 UNL     1      -1.388  47.812 -16.124  1.00  0.00     0.036 C 
HETATM   10  C12 UNL     1      -3.724  48.226 -16.686  1.00  0.00     0.003 C 
HETATM   11  C13 UNL     1      -4.590  47.894 -17.643  1.00  0.00     0.072 C 
HETATM   12  C14 UNL     1      -4.509  48.059 -19.095  1.00  0.00     0.245 C 
HETATM   13  O4  UNL     1      -5.400  47.568 -19.788  1.00  0.00    -0.268 OA
HETATM   14  N1  UNL     1      -3.517  48.754 -19.679  1.00  0.00    -0.320 N 
HETATM   15  C15 UNL     1      -2.383  49.402 -19.259  1.00  0.00     0.098 C 
HETATM   16  C16 UNL     1      -1.844  49.449 -18.030  1.00  0.00     0.045 C 
HETATM   17  C17 UNL     1      -0.530  50.180 -17.903  1.00  0.00     0.194 C 
HETATM   18  O5  UNL     1       0.271  49.889 -17.027  1.00  0.00    -0.287 OA
HETATM   19  C18 UNL     1      -0.177  51.240 -18.856  1.00  0.00     0.046 A 
HETATM   20  C19 UNL     1      -0.739  51.156 -20.124  1.00  0.00     0.032 A 
HETATM   21  C20 UNL     1      -0.356  52.035 -21.146  1.00  0.00     0.026 A 
HETATM   22  C21 UNL     1       0.615  53.013 -20.912  1.00  0.00    -0.027 A 
HETATM   23  C22 UNL     1       1.062  53.924 -22.023  1.00  0.00     0.051 C 
HETATM   24  C23 UNL     1       1.192  53.090 -19.638  1.00  0.00     0.086 A 
HETATM   25  C24 UNL     1       0.787  52.232 -18.592  1.00  0.00     0.059 A 
HETATM   26  C25 UNL     1       1.438  52.448 -17.271  1.00  0.00     0.163 C 
HETATM   27  O7  UNL     1       2.646  52.705 -17.274  1.00  0.00    -0.292 OA
HETATM   28  C26 UNL     1       0.608  52.536 -16.007  1.00  0.00     0.084 C 
HETATM   29  C27 UNL     1       1.334  51.870 -14.829  1.00  0.00     0.016 C 
HETATM   30  C28 UNL     1      -1.729  50.115 -20.412  1.00  0.00     0.210 C 
HETATM   31  O8  UNL     1      -2.072  49.872 -21.566  1.00  0.00    -0.285 OA
HETATM   32  H20 UNL     1      -3.668  48.807 -20.691  1.00  0.00     0.169 HD
ENDROOT
BRANCH   4  33
HETATM   33  C7  UNL     1      -3.229  49.940 -12.204  1.00  0.00     0.147 C 
HETATM   34  C8  UNL     1      -3.817  48.559 -12.484  1.00  0.00     0.042 C 
BRANCH  33  35
HETATM   35  O1  UNL     1      -4.182  50.663 -11.414  1.00  0.00    -0.393 OA
HETATM   36  H14 UNL     1      -4.051  50.392 -10.488  1.00  0.00     0.210 HD
ENDBRANCH  33  35
ENDBRANCH   4  33
BRANCH   1  37
HETATM   37  C2  UNL     1       1.158  50.454 -12.702  1.00  0.00     0.004 C 
HETATM   38  C1  UNL     1       2.282  51.264 -12.063  1.00  0.00     0.006 C 
ENDBRANCH   1  37
BRANCH  24  39
HETATM   39  O6  UNL     1       2.179  54.031 -19.463  1.00  0.00    -0.359 OA
HETATM   40  H25 UNL     1       2.716  53.775 -18.679  1.00  0.00     0.217 HD
ENDBRANCH  24  39
TORSDOF 4
ENDMDL
MODEL 4
REMARK minimizedAffinity -11.0637465
REMARK CNNscore 0.598993301
REMARK CNNaffinity 6.92811918
REMARK  4 active torsions:
REMARK  status: ('A' for Active; 'I' for Inactive)
REMARK    1  A    between atoms: C2_2  and  C3_3 
REMARK    2  A    between atoms: C6_6  and  C7_7 
REMARK    3  A    between atoms: C7_7  and  O1_9 
REMARK    4  A    between atoms: C23_29  and  O6_30 
ROOT
HETATM    1  C3  UNL     1      -4.537  48.132 -21.760  1.00  0.00     0.008 C 
HETATM    2  C4  UNL     1      -3.780  46.851 -21.525  1.00  0.00    -0.023 C 
HETATM    3  C5  UNL     1      -2.991  46.509 -20.493  1.00  0.00     0.004 C 
HETATM    4  C6  UNL     1      -2.571  47.227 -19.223  1.00  0.00     0.182 C 
HETATM    5  O2  UNL     1      -2.709  48.657 -19.283  1.00  0.00    -0.308 OA
HETATM    6  C9  UNL     1      -1.661  49.337 -19.824  1.00  0.00     0.276 C 
HETATM    7  O3  UNL     1      -0.732  48.811 -20.431  1.00  0.00    -0.264 OA
HETATM    8  C10 UNL     1      -1.686  50.846 -19.445  1.00  0.00     0.095 C 
HETATM    9  C11 UNL     1      -3.103  51.386 -19.145  1.00  0.00     0.036 C 
HETATM   10  C12 UNL     1      -0.959  50.856 -18.112  1.00  0.00     0.003 C 
HETATM   11  C13 UNL     1       0.114  51.504 -17.663  1.00  0.00     0.072 C 
HETATM   12  C14 UNL     1       0.999  52.458 -18.334  1.00  0.00     0.245 C 
HETATM   13  O4  UNL     1       1.872  53.011 -17.668  1.00  0.00    -0.268 OA
HETATM   14  N1  UNL     1       0.902  52.713 -19.651  1.00  0.00    -0.320 N 
HETATM   15  C15 UNL     1       0.080  52.322 -20.676  1.00  0.00     0.098 C 
HETATM   16  C16 UNL     1      -1.032  51.568 -20.627  1.00  0.00     0.045 C 
HETATM   17  C17 UNL     1      -1.773  51.385 -21.928  1.00  0.00     0.194 C 
HETATM   18  O5  UNL     1      -2.977  51.175 -21.943  1.00  0.00    -0.287 OA
HETATM   19  C18 UNL     1      -1.062  51.488 -23.209  1.00  0.00     0.046 A 
HETATM   20  C19 UNL     1       0.076  52.286 -23.231  1.00  0.00     0.032 A 
HETATM   21  C20 UNL     1       0.743  52.562 -24.433  1.00  0.00     0.026 A 
HETATM   22  C21 UNL     1       0.267  52.046 -25.641  1.00  0.00    -0.027 A 
HETATM   23  C22 UNL     1       0.955  52.383 -26.936  1.00  0.00     0.051 C 
HETATM   24  C23 UNL     1      -0.887  51.252 -25.621  1.00  0.00     0.086 A 
HETATM   25  C24 UNL     1      -1.546  50.940 -24.412  1.00  0.00     0.059 A 
HETATM   26  C25 UNL     1      -2.731  50.044 -24.518  1.00  0.00     0.163 C 
HETATM   27  O7  UNL     1      -3.490  50.227 -25.473  1.00  0.00    -0.292 OA
HETATM   28  C26 UNL     1      -2.879  48.850 -23.599  1.00  0.00     0.084 C 
HETATM   29  C27 UNL     1      -4.349  48.643 -23.205  1.00  0.00     0.016 C 
HETATM   30  C28 UNL     1       0.575  52.875 -21.986  1.00  0.00     0.210 C 
HETATM   31  O8  UNL     1       1.430  53.755 -22.003  1.00  0.00    -0.285 OA
HETATM   32  H20 UNL     1       1.643  53.357 -19.943  1.00  0.00     0.169 HD
ENDROOT
BRANCH   4  33
HETATM   33  C7  UNL     1      -3.412  46.702 -18.028  1.00  0.00     0.147 C 
HETATM   34  C8  UNL     1      -3.855  47.824 -17.092  1.00  0.00     0.042 C 
BRANCH  33  35
HETATM   35  O1  UNL     1      -2.652  45.767 -17.252  1.00  0.00    -0.393 OA
HETATM   36  H14 UNL     1      -3.288  45.179 -16.808  1.00  0.00     0.210 HD
ENDBRANCH  33  35
ENDBRANCH   4  33
BRANCH   1  37
HETATM   37  C2  UNL     1      -6.028  47.981 -21.387  1.00  0.00     0.004 C 
HETATM   38  C1  UNL     1      -6.818  49.278 -21.250  1.00  0.00     0.006 C 
ENDBRANCH   1  37
BRANCH  24  39
HETATM   39  O6  UNL     1      -1.351  50.807 -26.836  1.00  0.00    -0.359 OA
HETATM   40  H25 UNL     1      -2.300  50.564 -26.736  1.00  0.00     0.217 HD
ENDBRANCH  24  39
TORSDOF 4
ENDMDL
MODEL 5
REMARK minimizedAffinity -9.13789654
REMARK CNNscore 0.476329625
REMARK CNNaffinity 6.34829664
REMARK  4 active torsions:
REMARK  status: ('A' for Active; 'I' for Inactive)
REMARK    1  A    between atoms: C2_2  and  C3_3 
REMARK    2  A    between atoms: C6_6  and  C7_7 
REMARK    3  A    between atoms: C7_7  and  O1_9 
REMARK    4  A    between atoms: C23_29  and  O6_30 
ROOT
HETATM    1  C3  UNL     1      -2.279  51.586 -21.951  1.00  0.00     0.008 C 
HETATM    2  C4  UNL     1      -1.510  50.685 -22.882  1.00  0.00    -0.023 C 
HETATM    3  C5  UNL     1      -1.644  49.365 -23.088  1.00  0.00     0.004 C 
HETATM    4  C6  UNL     1      -2.569  48.311 -22.507  1.00  0.00     0.182 C 
HETATM    5  O2  UNL     1      -3.152  48.673 -21.244  1.00  0.00    -0.308 OA
HETATM    6  C9  UNL     1      -2.406  48.396 -20.139  1.00  0.00     0.276 C 
HETATM    7  O3  UNL     1      -1.224  48.064 -20.167  1.00  0.00    -0.264 OA
HETATM    8  C10 UNL     1      -3.264  48.390 -18.841  1.00  0.00     0.095 C 
HETATM    9  C11 UNL     1      -4.522  49.284 -18.926  1.00  0.00     0.036 C 
HETATM   10  C12 UNL     1      -3.782  46.964 -18.804  1.00  0.00     0.003 C 
HETATM   11  C13 UNL     1      -3.711  45.990 -17.898  1.00  0.00     0.072 C 
HETATM   12  C14 UNL     1      -3.073  45.963 -16.581  1.00  0.00     0.245 C 
HETATM   13  O4  UNL     1      -3.238  44.970 -15.874  1.00  0.00    -0.268 OA
HETATM   14  N1  UNL     1      -2.293  46.968 -16.147  1.00  0.00    -0.320 N 
HETATM   15  C15 UNL     1      -1.904  48.195 -16.622  1.00  0.00     0.098 C 
HETATM   16  C16 UNL     1      -2.312  48.840 -17.728  1.00  0.00     0.045 C 
HETATM   17  C17 UNL     1      -1.759  50.228 -17.935  1.00  0.00     0.194 C 
HETATM   18  O5  UNL     1      -2.383  51.067 -18.568  1.00  0.00    -0.287 OA
HETATM   19  C18 UNL     1      -0.467  50.607 -17.348  1.00  0.00     0.046 A 
HETATM   20  C19 UNL     1      -0.080  49.932 -16.196  1.00  0.00     0.032 A 
HETATM   21  C20 UNL     1       1.063  50.316 -15.482  1.00  0.00     0.026 A 
HETATM   22  C21 UNL     1       1.835  51.400 -15.910  1.00  0.00    -0.027 A 
HETATM   23  C22 UNL     1       3.033  51.843 -15.115  1.00  0.00     0.051 C 
HETATM   24  C23 UNL     1       1.438  52.089 -17.063  1.00  0.00     0.086 A 
HETATM   25  C24 UNL     1       0.308  51.688 -17.809  1.00  0.00     0.059 A 
HETATM   26  C25 UNL     1       0.021  52.469 -19.044  1.00  0.00     0.163 C 
HETATM   27  O7  UNL     1       0.178  53.692 -18.986  1.00  0.00    -0.292 OA
HETATM   28  C26 UNL     1      -0.265  51.764 -20.353  1.00  0.00     0.084 C 
HETATM   29  C27 UNL     1      -1.338  52.515 -21.156  1.00  0.00     0.016 C 
HETATM   30  C28 UNL     1      -0.892  48.819 -15.699  1.00  0.00     0.210 C 
HETATM   31  O8  UNL     1      -0.708  48.355 -14.578  1.00  0.00    -0.285 OA
HETATM   32  H20 UNL     1      -1.892  46.737 -15.233  1.00  0.00     0.169 HD
ENDROOT
BRANCH   4  33
HETATM   33  C7  UNL     1      -3.716  48.017 -23.512  1.00  0.00     0.147 C 
HETATM   34  C8  UNL     1      -3.415  48.547 -24.911  1.00  0.00     0.042 C 
BRANCH  33  35
HETATM   35  O1  UNL     1      -4.936  48.626 -23.072  1.00  0.00    -0.393 OA
HETATM   36  H14 UNL     1      -5.669  48.111 -23.453  1.00  0.00     0.210 HD
ENDBRANCH  33  35
ENDBRANCH   4  33
BRANCH   1  37
HETATM   37  C2  UNL     1      -3.371  52.375 -22.706  1.00  0.00     0.004 C 
HETATM   38  C1  UNL     1      -3.197  52.478 -24.218  1.00  0.00     0.006 C 
ENDBRANCH   1  37
BRANCH  24  39
HETATM   39  O6  UNL     1       2.194  53.180 -17.422  1.00  0.00    -0.359 OA
HETATM   40  H25 UNL     1       1.652  53.752 -18.011  1.00  0.00     0.217 HD
ENDBRANCH  24  39
TORSDOF 4
ENDMDL
MODEL 6
REMARK minimizedAffinity -10.3379002
REMARK CNNscore 0.384532839
REMARK CNNaffinity 6.64670038
REMARK  4 active torsions:
REMARK  status: ('A' for Active; 'I' for Inactive)
REMARK    1  A    between atoms: C2_2  and  C3_3 
REMARK    2  A    between atoms: C6_6  and  C7_7 
REMARK    3  A    between atoms: C7_7  and  O1_9 
REMARK    4  A    between atoms: C23_29  and  O6_30 
ROOT
HETATM    1  C3  UNL     1       0.261  53.324 -24.369  1.00  0.00     0.008 C 
HETATM    2  C4  UNL     1       1.137  52.305 -25.053  1.00  0.00    -0.023 C 
HETATM    3  C5  UNL     1       0.788  51.304 -25.877  1.00  0.00     0.004 C 
HETATM    4  C6  UNL     1      -0.543  50.822 -26.423  1.00  0.00     0.182 C 
HETATM    5  O2  UNL     1      -1.681  51.242 -25.651  1.00  0.00    -0.308 OA
HETATM    6  C9  UNL     1      -2.012  50.450 -24.594  1.00  0.00     0.276 C 
HETATM    7  O3  UNL     1      -1.299  49.553 -24.151  1.00  0.00    -0.264 OA
HETATM    8  C10 UNL     1      -3.468  50.701 -24.108  1.00  0.00     0.095 C 
HETATM    9  C11 UNL     1      -3.987  52.125 -24.414  1.00  0.00     0.036 C 
HETATM   10  C12 UNL     1      -4.271  49.777 -25.005  1.00  0.00     0.003 C 
HETATM   11  C13 UNL     1      -5.130  48.788 -24.762  1.00  0.00     0.072 C 
HETATM   12  C14 UNL     1      -5.601  48.229 -23.494  1.00  0.00     0.245 C 
HETATM   13  O4  UNL     1      -6.490  47.379 -23.526  1.00  0.00    -0.268 OA
HETATM   14  N1  UNL     1      -5.068  48.593 -22.314  1.00  0.00    -0.320 N 
HETATM   15  C15 UNL     1      -4.116  49.485 -21.892  1.00  0.00     0.098 C 
HETATM   16  C16 UNL     1      -3.447  50.406 -22.604  1.00  0.00     0.045 C 
HETATM   17  C17 UNL     1      -2.517  51.307 -21.829  1.00  0.00     0.194 C 
HETATM   18  O5  UNL     1      -2.255  52.433 -22.225  1.00  0.00    -0.287 OA
HETATM   19  C18 UNL     1      -1.933  50.853 -20.560  1.00  0.00     0.046 A 
HETATM   20  C19 UNL     1      -2.656  49.911 -19.838  1.00  0.00     0.032 A 
HETATM   21  C20 UNL     1      -2.257  49.521 -18.553  1.00  0.00     0.026 A 
HETATM   22  C21 UNL     1      -1.122  50.085 -17.963  1.00  0.00    -0.027 A 
HETATM   23  C22 UNL     1      -0.722  49.702 -16.563  1.00  0.00     0.051 C 
HETATM   24  C23 UNL     1      -0.400  51.044 -18.684  1.00  0.00     0.086 A 
HETATM   25  C24 UNL     1      -0.775  51.418 -19.993  1.00  0.00     0.059 A 
HETATM   26  C25 UNL     1       0.104  52.409 -20.674  1.00  0.00     0.163 C 
HETATM   27  O7  UNL     1       0.539  53.339 -19.989  1.00  0.00    -0.292 OA
HETATM   28  C26 UNL     1       0.586  52.168 -22.089  1.00  0.00     0.084 C 
HETATM   29  C27 UNL     1       0.635  53.483 -22.881  1.00  0.00     0.016 C 
HETATM   30  C28 UNL     1      -3.873  49.333 -20.414  1.00  0.00     0.210 C 
HETATM   31  O8  UNL     1      -4.648  48.678 -19.723  1.00  0.00    -0.285 OA
HETATM   32  H20 UNL     1      -5.487  48.050 -21.553  1.00  0.00     0.169 HD
ENDROOT
BRANCH   4  33
HETATM   33  C7  UNL     1      -0.722  51.334 -27.879  1.00  0.00     0.147 C 
HETATM   34  C8  UNL     1       0.564  51.925 -28.450  1.00  0.00     0.042 C 
BRANCH  33  35
HETATM   35  O1  UNL     1      -1.728  52.353 -27.932  1.00  0.00    -0.393 OA
HETATM   36  H14 UNL     1      -2.096  52.347 -28.834  1.00  0.00     0.210 HD
ENDBRANCH  33  35
ENDBRANCH   4  33
BRANCH   1  37
HETATM   37  C2  UNL     1       0.277  54.673 -25.120  1.00  0.00     0.004 C 
HETATM   38  C1  UNL     1      -0.039  54.614 -26.610  1.00  0.00     0.006 C 
ENDBRANCH   1  37
BRANCH  24  39
HETATM   39  O6  UNL     1       0.679  51.611 -18.049  1.00  0.00    -0.359 OA
HETATM   40  H25 UNL     1       0.887  52.465 -18.492  1.00  0.00     0.217 HD
ENDBRANCH  24  39
TORSDOF 4
ENDMDL
MODEL 7
REMARK minimizedAffinity -7.81796408
REMARK CNNscore 0.365812004
REMARK CNNaffinity 6.53893995
REMARK  4 active torsions:
REMARK  status: ('A' for Active; 'I' for Inactive)
REMARK    1  A    between atoms: C2_2  and  C3_3 
REMARK    2  A    between atoms: C6_6  and  C7_7 
REMARK    3  A    between atoms: C7_7  and  O1_9 
REMARK    4  A    between atoms: C23_29  and  O6_30 
ROOT
HETATM    1  C3  UNL     1      -3.228  52.124 -10.836  1.00  0.00     0.008 C 
HETATM    2  C4  UNL     1      -3.492  52.754 -12.179  1.00  0.00    -0.023 C 
HETATM    3  C5  UNL     1      -3.054  52.379 -13.393  1.00  0.00     0.004 C 
HETATM    4  C6  UNL     1      -2.175  51.240 -13.874  1.00  0.00     0.182 C 
HETATM    5  O2  UNL     1      -1.338  50.672 -12.853  1.00  0.00    -0.308 OA
HETATM    6  C9  UNL     1      -0.144  51.291 -12.644  1.00  0.00     0.276 C 
HETATM    7  O3  UNL     1       0.159  52.388 -13.108  1.00  0.00    -0.264 OA
HETATM    8  C10 UNL     1       0.862  50.382 -11.881  1.00  0.00     0.095 C 
HETATM    9  C11 UNL     1       0.181  49.325 -10.981  1.00  0.00     0.036 C 
HETATM   10  C12 UNL     1       1.507  49.598 -13.009  1.00  0.00     0.003 C 
HETATM   11  C13 UNL     1       2.770  49.433 -13.400  1.00  0.00     0.072 C 
HETATM   12  C14 UNL     1       4.012  49.983 -12.857  1.00  0.00     0.245 C 
HETATM   13  O4  UNL     1       5.079  49.594 -13.331  1.00  0.00    -0.268 OA
HETATM   14  N1  UNL     1       4.014  50.919 -11.891  1.00  0.00    -0.320 N 
HETATM   15  C15 UNL     1       3.067  51.560 -11.133  1.00  0.00     0.098 C 
HETATM   16  C16 UNL     1       1.742  51.343 -11.076  1.00  0.00     0.045 C 
HETATM   17  C17 UNL     1       0.974  52.162 -10.069  1.00  0.00     0.194 C 
HETATM   18  O5  UNL     1      -0.066  51.745  -9.579  1.00  0.00    -0.287 OA
HETATM   19  C18 UNL     1       1.481  53.470  -9.635  1.00  0.00     0.046 A 
HETATM   20  C19 UNL     1       2.857  53.659  -9.692  1.00  0.00     0.032 A 
HETATM   21  C20 UNL     1       3.451  54.816  -9.169  1.00  0.00     0.026 A 
HETATM   22  C21 UNL     1       2.668  55.803  -8.564  1.00  0.00    -0.027 A 
HETATM   23  C22 UNL     1       3.311  57.020  -7.959  1.00  0.00     0.051 C 
HETATM   24  C23 UNL     1       1.283  55.607  -8.494  1.00  0.00     0.086 A 
HETATM   25  C24 UNL     1       0.671  54.461  -9.050  1.00  0.00     0.059 A 
HETATM   26  C25 UNL     1      -0.814  54.395  -8.957  1.00  0.00     0.163 C 
HETATM   27  O7  UNL     1      -1.329  54.782  -7.904  1.00  0.00    -0.292 OA
HETATM   28  C26 UNL     1      -1.647  54.049 -10.172  1.00  0.00     0.084 C 
HETATM   29  C27 UNL     1      -2.854  53.184  -9.778  1.00  0.00     0.016 C 
HETATM   30  C28 UNL     1       3.708  52.623 -10.282  1.00  0.00     0.210 C 
HETATM   31  O8  UNL     1       4.928  52.656 -10.146  1.00  0.00    -0.285 OA
HETATM   32  H20 UNL     1       4.972  51.219 -11.690  1.00  0.00     0.169 HD
ENDROOT
BRANCH   4  33
HETATM   33  C7  UNL     1      -3.064  50.112 -14.465  1.00  0.00     0.147 C 
HETATM   34  C8  UNL     1      -2.353  48.761 -14.484  1.00  0.00     0.042 C 
BRANCH  33  35
HETATM   35  O1  UNL     1      -3.439  50.423 -15.813  1.00  0.00    -0.393 OA
HETATM   36  H14 UNL     1      -4.275  49.957 -15.993  1.00  0.00     0.210 HD
ENDBRANCH  33  35
ENDBRANCH   4  33
BRANCH   1  37
HETATM   37  C2  UNL     1      -4.415  51.246 -10.384  1.00  0.00     0.004 C 
HETATM   38  C1  UNL     1      -4.472  49.842 -10.975  1.00  0.00     0.006 C 
ENDBRANCH   1  37
BRANCH  24  39
HETATM   39  O6  UNL     1       0.554  56.576  -7.847  1.00  0.00    -0.359 OA
HETATM   40  H25 UNL     1      -0.308  56.186  -7.574  1.00  0.00     0.217 HD
ENDBRANCH  24  39
TORSDOF 4
ENDMDL
MODEL 8
REMARK minimizedAffinity -8.0815134
REMARK CNNscore 0.356821001
REMARK CNNaffinity 5.40162516
REMARK  4 active torsions:
REMARK  status: ('A' for Active; 'I' for Inactive)
REMARK    1  A    between atoms: C2_2  and  C3_3 
REMARK    2  A    between atoms: C6_6  and  C7_7 
REMARK    3  A    between atoms: C7_7  and  O1_9 
REMARK    4  A    between atoms: C23_29  and  O6_30 
ROOT
HETATM    1  C3  UNL     1     -11.509  45.727 -24.828  1.00  0.00     0.008 C 
HETATM    2  C4  UNL     1     -11.208  44.275 -24.557  1.00  0.00    -0.023 C 
HETATM    3  C5  UNL     1     -11.484  43.197 -25.310  1.00  0.00     0.004 C 
HETATM    4  C6  UNL     1     -12.162  43.014 -26.655  1.00  0.00     0.182 C 
HETATM    5  O2  UNL     1     -13.008  44.112 -27.041  1.00  0.00    -0.308 OA
HETATM    6  C9  UNL     1     -14.285  44.076 -26.572  1.00  0.00     0.276 C 
HETATM    7  O3  UNL     1     -14.683  43.305 -25.703  1.00  0.00    -0.264 OA
HETATM    8  C10 UNL     1     -15.230  45.014 -27.378  1.00  0.00     0.095 C 
HETATM    9  C11 UNL     1     -14.503  46.209 -28.036  1.00  0.00     0.036 C 
HETATM   10  C12 UNL     1     -15.665  44.122 -28.527  1.00  0.00     0.003 C 
HETATM   11  C13 UNL     1     -16.855  43.731 -28.979  1.00  0.00     0.072 C 
HETATM   12  C14 UNL     1     -18.202  44.032 -28.492  1.00  0.00     0.245 C 
HETATM   13  O4  UNL     1     -19.162  43.635 -29.151  1.00  0.00    -0.268 OA
HETATM   14  N1  UNL     1     -18.411  44.693 -27.339  1.00  0.00    -0.320 N 
HETATM   15  C15 UNL     1     -17.627  45.284 -26.382  1.00  0.00     0.098 C 
HETATM   16  C16 UNL     1     -16.296  45.468 -26.376  1.00  0.00     0.045 C 
HETATM   17  C17 UNL     1     -15.733  46.239 -25.208  1.00  0.00     0.194 C 
HETATM   18  O5  UNL     1     -14.697  46.878 -25.315  1.00  0.00    -0.287 OA
HETATM   19  C18 UNL     1     -16.442  46.259 -23.921  1.00  0.00     0.046 A 
HETATM   20  C19 UNL     1     -17.819  46.080 -23.962  1.00  0.00     0.032 A 
HETATM   21  C20 UNL     1     -18.602  46.224 -22.808  1.00  0.00     0.026 A 
HETATM   22  C21 UNL     1     -18.010  46.563 -21.588  1.00  0.00    -0.027 A 
HETATM   23  C22 UNL     1     -18.857  46.766 -20.361  1.00  0.00     0.051 C 
HETATM   24  C23 UNL     1     -16.623  46.756 -21.550  1.00  0.00     0.086 A 
HETATM   25  C24 UNL     1     -15.822  46.579 -22.699  1.00  0.00     0.059 A 
HETATM   26  C25 UNL     1     -14.355  46.762 -22.515  1.00  0.00     0.163 C 
HETATM   27  O7  UNL     1     -13.991  47.686 -21.784  1.00  0.00    -0.292 OA
HETATM   28  C26 UNL     1     -13.378  45.738 -23.053  1.00  0.00     0.084 C 
HETATM   29  C27 UNL     1     -12.110  46.421 -23.587  1.00  0.00     0.016 C 
HETATM   30  C28 UNL     1     -18.474  45.766 -25.234  1.00  0.00     0.210 C 
HETATM   31  O8  UNL     1     -19.694  45.825 -25.348  1.00  0.00    -0.285 OA
HETATM   32  H20 UNL     1     -19.415  44.752 -27.142  1.00  0.00     0.169 HD
ENDROOT
BRANCH   4  33
HETATM   33  C7  UNL     1     -11.085  42.813 -27.756  1.00  0.00     0.147 C 
HETATM   34  C8  UNL     1     -11.631  43.076 -29.158  1.00  0.00     0.042 C 
BRANCH  33  35
HETATM   35  O1  UNL     1     -10.587  41.470 -27.731  1.00  0.00    -0.393 OA
HETATM   36  H14 UNL     1      -9.689  41.490 -28.105  1.00  0.00     0.210 HD
ENDBRANCH  33  35
ENDBRANCH   4  33
BRANCH   1  37
HETATM   37  C2  UNL     1     -10.265  46.469 -25.363  1.00  0.00     0.004 C 
HETATM   38  C1  UNL     1     -10.535  47.740 -26.161  1.00  0.00     0.006 C 
ENDBRANCH   1  37
BRANCH  24  39
HETATM   39  O6  UNL     1     -16.087  47.138 -20.343  1.00  0.00    -0.359 OA
HETATM   40  H25 UNL     1     -15.210  47.553 -20.511  1.00  0.00     0.217 HD
ENDBRANCH  24  39
TORSDOF 4
ENDMDL
MODEL 9
REMARK minimizedAffinity -9.85784245
REMARK CNNscore 0.34896192
REMARK CNNaffinity 6.61374617
REMARK  4 active torsions:
REMARK  status: ('A' for Active; 'I' for Inactive)
REMARK    1  A    between atoms: C2_2  and  C3_3 
REMARK    2  A    between atoms: C6_6  and  C7_7 
REMARK    3  A    between atoms: C7_7  and  O1_9 
REMARK    4  A    between atoms: C23_29  and  O6_30 
ROOT
HETATM    1  C3  UNL     1      -3.502  48.772 -18.789  1.00  0.00     0.008 C 
HETATM    2  C4  UNL     1      -4.798  49.538 -18.719  1.00  0.00    -0.023 C 
HETATM    3  C5  UNL     1      -5.805  49.583 -19.608  1.00  0.00     0.004 C 
HETATM    4  C6  UNL     1      -6.033  48.922 -20.954  1.00  0.00     0.182 C 
HETATM    5  O2  UNL     1      -4.831  48.467 -21.598  1.00  0.00    -0.308 OA
HETATM    6  C9  UNL     1      -4.166  49.391 -22.345  1.00  0.00     0.276 C 
HETATM    7  O3  UNL     1      -4.407  50.596 -22.332  1.00  0.00    -0.264 OA
HETATM    8  C10 UNL     1      -3.172  48.731 -23.343  1.00  0.00     0.095 C 
HETATM    9  C11 UNL     1      -2.656  47.349 -22.880  1.00  0.00     0.036 C 
HETATM   10  C12 UNL     1      -4.059  48.450 -24.543  1.00  0.00     0.003 C 
HETATM   11  C13 UNL     1      -3.992  48.795 -25.828  1.00  0.00     0.072 C 
HETATM   12  C14 UNL     1      -3.004  49.604 -26.544  1.00  0.00     0.245 C 
HETATM   13  O4  UNL     1      -3.101  49.694 -27.768  1.00  0.00    -0.268 OA
HETATM   14  N1  UNL     1      -2.029  50.271 -25.902  1.00  0.00    -0.320 N 
HETATM   15  C15 UNL     1      -1.606  50.395 -24.603  1.00  0.00     0.098 C 
HETATM   16  C16 UNL     1      -2.036  49.745 -23.509  1.00  0.00     0.045 C 
HETATM   17  C17 UNL     1      -1.303  50.042 -22.224  1.00  0.00     0.194 C 
HETATM   18  O5  UNL     1      -1.246  49.214 -21.326  1.00  0.00    -0.287 OA
HETATM   19  C18 UNL     1      -0.616  51.327 -22.041  1.00  0.00     0.046 A 
HETATM   20  C19 UNL     1      -0.171  51.968 -23.191  1.00  0.00     0.032 A 
HETATM   21  C20 UNL     1       0.618  53.124 -23.116  1.00  0.00     0.026 A 
HETATM   22  C21 UNL     1       0.983  53.652 -21.874  1.00  0.00    -0.027 A 
HETATM   23  C22 UNL     1       1.871  54.865 -21.794  1.00  0.00     0.051 C 
HETATM   24  C23 UNL     1       0.546  52.999 -20.716  1.00  0.00     0.086 A 
HETATM   25  C24 UNL     1      -0.278  51.854 -20.781  1.00  0.00     0.059 A 
HETATM   26  C25 UNL     1      -0.719  51.283 -19.478  1.00  0.00     0.163 C 
HETATM   27  O7  UNL     1       0.111  51.255 -18.566  1.00  0.00    -0.292 OA
HETATM   28  C26 UNL     1      -2.174  50.934 -19.243  1.00  0.00     0.084 C 
HETATM   29  C27 UNL     1      -2.300  49.658 -18.397  1.00  0.00     0.016 C 
HETATM   30  C28 UNL     1      -0.503  51.415 -24.506  1.00  0.00     0.210 C 
HETATM   31  O8  UNL     1       0.056  51.820 -25.521  1.00  0.00    -0.285 OA
HETATM   32  H20 UNL     1      -1.480  50.824 -26.567  1.00  0.00     0.169 HD
ENDROOT
BRANCH   4  33
HETATM   33  C7  UNL     1      -6.986  47.707 -20.780  1.00  0.00     0.147 C 
HETATM   34  C8  UNL     1      -6.461  46.452 -21.473  1.00  0.00     0.042 C 
BRANCH  33  35
HETATM   35  O1  UNL     1      -8.276  47.999 -21.334  1.00  0.00    -0.393 OA
HETATM   36  H14 UNL     1      -8.921  47.440 -20.867  1.00  0.00     0.210 HD
ENDBRANCH  33  35
ENDBRANCH   4  33
BRANCH   1  37
HETATM   37  C2  UNL     1      -3.567  47.478 -17.948  1.00  0.00     0.004 C 
HETATM   38  C1  UNL     1      -3.697  46.177 -18.732  1.00  0.00     0.006 C 
ENDBRANCH   1  37
BRANCH  24  39
HETATM   39  O6  UNL     1       0.969  53.520 -19.516  1.00  0.00    -0.359 OA
HETATM   40  H25 UNL     1       0.889  52.821 -18.828  1.00  0.00     0.217 HD
ENDBRANCH  24  39
TORSDOF 4
ENDMDL
