MODEL 1
REMARK minimizedAffinity -7.31032944
REMARK CNNscore 0.443322629
REMARK CNNaffinity 6.22869253
REMARK  13 active torsions:
REMARK  status: ('A' for Active; 'I' for Inactive)
REMARK    1  A    between atoms: C3_3  and  O1_4 
REMARK    2  A    between atoms: N1_14  and  O2_16 
REMARK    3  A    between atoms: O2_16  and  C13_17 
REMARK    4  A    between atoms: C13_17  and  C14_18 
REMARK       I    between atoms: C14_18  and  N2_20 
REMARK    5  A    between atoms: N2_20  and  C15_21 
REMARK    6  A    between atoms: C15_21  and  C16_22 
REMARK    7  A    between atoms: C15_21  and  C21_33 
REMARK       I    between atoms: C16_22  and  N3_24 
REMARK    8  A    between atoms: N3_24  and  C17_25 
REMARK    9  A    between atoms: C17_25  and  C18_26 
REMARK   10  A    between atoms: C17_25  and  C20_30 
REMARK   11  A    between atoms: C18_26  and  C19_27 
REMARK   12  A    between atoms: C19_27  and  O6_29 
REMARK   13  A    between atoms: C20_30  and  O8_32 
ROOT
HETATM    1  C1  UNL     1      -0.533  51.941 -20.470  1.00  0.00     0.015 C 
HETATM    2  C2  UNL     1      -1.609  51.408 -20.417  1.00  0.00    -0.078 C 
HETATM    3  C3  UNL     1      -2.938  50.776 -20.337  1.00  0.00     0.128 C 
HETATM    4  C4  UNL     1      -3.905  51.385 -21.358  1.00  0.00     0.052 C 
HETATM    5  C5  UNL     1      -5.008  50.341 -21.457  1.00  0.00     0.010 C 
HETATM    6  C6  UNL     1      -4.225  49.031 -21.555  1.00  0.00     0.002 C 
HETATM    7  C7  UNL     1      -5.021  47.736 -21.298  1.00  0.00    -0.004 C 
HETATM    8  C8  UNL     1      -6.173  47.539 -22.292  1.00  0.00     0.010 C 
HETATM    9  C9  UNL     1      -7.147  46.474 -21.813  1.00  0.00     0.035 C 
HETATM   10  C10 UNL     1      -7.812  47.022 -20.583  1.00  0.00    -0.069 C 
HETATM   11  C11 UNL     1      -9.126  47.312 -20.603  1.00  0.00     0.030 C 
HETATM   12  C12 UNL     1      -9.791  47.990 -19.454  1.00  0.00     0.032 C 
HETATM   13  N1  UNL     1     -11.074  48.127 -19.296  1.00  0.00    -0.271 N 
ATOM     14  H1  UNL     1     -11.506  48.612 -18.509  1.00  0.00     0.194 HD
HETATM   15  C24 UNL     1      -8.911  48.564 -18.359  1.00  0.00     0.060 C 
HETATM   16  C25 UNL     1      -7.434  48.629 -18.737  1.00  0.00     0.020 C 
HETATM   17  C26 UNL     1      -6.902  47.333 -19.398  1.00  0.00    -0.016 C 
HETATM   18  C27 UNL     1      -7.034  46.160 -18.385  1.00  0.00     0.020 C 
HETATM   19  C28 UNL     1      -5.372  47.423 -19.813  1.00  0.00     0.002 C 
HETATM   20  C29 UNL     1      -4.484  48.206 -18.827  1.00  0.00     0.007 C 
HETATM   21  C30 UNL     1      -3.057  48.358 -19.351  1.00  0.00     0.014 C 
HETATM   22  C31 UNL     1      -2.968  49.224 -20.634  1.00  0.00     0.003 C 
HETATM   23  C32 UNL     1      -1.727  48.748 -21.429  1.00  0.00     0.020 C 
ENDROOT
BRANCH   3  24
HETATM   24  O1  UNL     1      -3.466  51.062 -19.040  1.00  0.00    -0.377 OA
HETATM   25  H2  UNL     1      -3.344  52.014 -18.886  1.00  0.00     0.211 HD
ENDBRANCH   3  24
BRANCH  13  26
HETATM   26  O2  UNL     1     -11.792  47.526 -20.342  1.00  0.00    -0.271 OA
BRANCH  26  27
HETATM   27  C13 UNL     1     -13.153  47.919 -20.246  1.00  0.00     0.303 C 
BRANCH  27  28
HETATM   28  C14 UNL     1     -14.057  46.693 -20.141  1.00  0.00     0.244 C 
HETATM   29  O3  UNL     1     -13.643  45.547 -19.983  1.00  0.00    -0.271 OA
HETATM   30  N2  UNL     1     -15.405  46.995 -20.223  1.00  0.00    -0.346 N 
HETATM   31  H16 UNL     1     -15.642  47.854 -20.713  1.00  0.00     0.163 HD
BRANCH  30  32
HETATM   32  C15 UNL     1     -16.414  45.936 -20.319  1.00  0.00     0.180 C 
BRANCH  32  33
HETATM   33  C16 UNL     1     -16.883  45.901 -21.791  1.00  0.00     0.241 C 
HETATM   34  O4  UNL     1     -16.714  46.853 -22.554  1.00  0.00    -0.271 OA
HETATM   35  N3  UNL     1     -17.506  44.738 -22.180  1.00  0.00    -0.344 N 
HETATM   36  H18 UNL     1     -17.830  44.105 -21.453  1.00  0.00     0.163 HD
BRANCH  35  37
HETATM   37  C17 UNL     1     -18.186  44.633 -23.474  1.00  0.00     0.192 C 
BRANCH  37  38
HETATM   38  C18 UNL     1     -19.395  45.566 -23.541  1.00  0.00     0.146 C 
BRANCH  38  39
HETATM   39  C19 UNL     1     -19.503  46.249 -24.874  1.00  0.00     0.141 C 
HETATM   40  O5  UNL     1     -19.922  45.761 -25.910  1.00  0.00    -0.650 OA
BRANCH  39  41
HETATM   41  O6  UNL     1     -19.030  47.509 -24.843  1.00  0.00    -0.776 OA
HETATM   42  H22 UNL     1     -19.122  47.836 -25.763  1.00  0.00     0.167 HD
ENDBRANCH  39  41
ENDBRANCH  38  39
ENDBRANCH  37  38
BRANCH  37  43
HETATM   43  C20 UNL     1     -17.183  44.894 -24.607  1.00  0.00     0.164 C 
HETATM   44  O7  UNL     1     -17.350  45.602 -25.588  1.00  0.00    -0.648 OA
BRANCH  43  45
HETATM   45  O8  UNL     1     -15.993  44.287 -24.417  1.00  0.00    -0.775 OA
HETATM   46  H23 UNL     1     -15.459  44.578 -25.186  1.00  0.00     0.167 HD
ENDBRANCH  43  45
ENDBRANCH  37  43
ENDBRANCH  35  37
ENDBRANCH  32  33
BRANCH  32  47
HETATM   47  C21 UNL     1     -17.548  46.187 -19.301  1.00  0.00     0.009 C 
HETATM   48  C22 UNL     1     -18.305  44.905 -18.945  1.00  0.00     0.012 C 
HETATM   49  C23 UNL     1     -18.533  47.276 -19.736  1.00  0.00     0.012 C 
ENDBRANCH  32  47
ENDBRANCH  30  32
ENDBRANCH  27  28
ENDBRANCH  26  27
ENDBRANCH  13  26
TORSDOF 13
ENDMDL
MODEL 2
REMARK minimizedAffinity -7.247684
REMARK CNNscore 0.416310161
REMARK CNNaffinity 6.20922518
REMARK  13 active torsions:
REMARK  status: ('A' for Active; 'I' for Inactive)
REMARK    1  A    between atoms: C3_3  and  O1_4 
REMARK    2  A    between atoms: N1_14  and  O2_16 
REMARK    3  A    between atoms: O2_16  and  C13_17 
REMARK    4  A    between atoms: C13_17  and  C14_18 
REMARK       I    between atoms: C14_18  and  N2_20 
REMARK    5  A    between atoms: N2_20  and  C15_21 
REMARK    6  A    between atoms: C15_21  and  C16_22 
REMARK    7  A    between atoms: C15_21  and  C21_33 
REMARK       I    between atoms: C16_22  and  N3_24 
REMARK    8  A    between atoms: N3_24  and  C17_25 
REMARK    9  A    between atoms: C17_25  and  C18_26 
REMARK   10  A    between atoms: C17_25  and  C20_30 
REMARK   11  A    between atoms: C18_26  and  C19_27 
REMARK   12  A    between atoms: C19_27  and  O6_29 
REMARK   13  A    between atoms: C20_30  and  O8_32 
ROOT
HETATM    1  C1  UNL     1       9.686  54.964  -2.621  1.00  0.00     0.015 C 
HETATM    2  C2  UNL     1       8.750  54.992  -3.374  1.00  0.00    -0.078 C 
HETATM    3  C3  UNL     1       7.595  54.999  -4.290  1.00  0.00     0.128 C 
HETATM    4  C4  UNL     1       6.284  55.221  -3.528  1.00  0.00     0.052 C 
HETATM    5  C5  UNL     1       5.319  55.660  -4.620  1.00  0.00     0.010 C 
HETATM    6  C6  UNL     1       6.142  56.679  -5.408  1.00  0.00     0.002 C 
HETATM    7  C7  UNL     1       5.610  57.058  -6.805  1.00  0.00    -0.004 C 
HETATM    8  C8  UNL     1       4.211  57.687  -6.757  1.00  0.00     0.010 C 
HETATM    9  C9  UNL     1       3.566  57.718  -8.135  1.00  0.00     0.035 C 
HETATM   10  C10 UNL     1       3.314  56.290  -8.523  1.00  0.00    -0.069 C 
HETATM   11  C11 UNL     1       2.051  55.838  -8.640  1.00  0.00     0.030 C 
HETATM   12  C12 UNL     1       1.758  54.397  -8.881  1.00  0.00     0.032 C 
HETATM   13  N1  UNL     1       0.600  53.904  -9.205  1.00  0.00    -0.271 N 
ATOM     14  H1  UNL     1       0.420  52.911  -9.347  1.00  0.00     0.194 HD
HETATM   15  C24 UNL     1       2.901  53.407  -8.752  1.00  0.00     0.060 C 
HETATM   16  C25 UNL     1       4.146  53.996  -8.095  1.00  0.00     0.020 C 
HETATM   17  C26 UNL     1       4.541  55.390  -8.645  1.00  0.00    -0.016 C 
HETATM   18  C27 UNL     1       4.876  55.257 -10.158  1.00  0.00     0.020 C 
HETATM   19  C28 UNL     1       5.820  56.005  -7.934  1.00  0.00     0.002 C 
HETATM   20  C29 UNL     1       6.913  54.979  -7.578  1.00  0.00     0.007 C 
HETATM   21  C30 UNL     1       8.053  55.621  -6.788  1.00  0.00     0.014 C 
HETATM   22  C31 UNL     1       7.614  56.133  -5.392  1.00  0.00     0.003 C 
HETATM   23  C32 UNL     1       8.548  57.310  -5.016  1.00  0.00     0.020 C 
ENDROOT
BRANCH   3  24
HETATM   24  O1  UNL     1       7.518  53.703  -4.886  1.00  0.00    -0.377 OA
HETATM   25  H2  UNL     1       7.595  53.053  -4.168  1.00  0.00     0.211 HD
ENDBRANCH   3  24
BRANCH  13  26
HETATM   26  O2  UNL     1      -0.372  54.909  -9.337  1.00  0.00    -0.271 OA
BRANCH  26  27
HETATM   27  C13 UNL     1      -0.956  54.813 -10.627  1.00  0.00     0.303 C 
BRANCH  27  28
HETATM   28  C14 UNL     1      -1.407  53.381 -10.905  1.00  0.00     0.244 C 
HETATM   29  O3  UNL     1      -2.066  52.705 -10.120  1.00  0.00    -0.271 OA
HETATM   30  N2  UNL     1      -1.014  52.913 -12.147  1.00  0.00    -0.346 N 
HETATM   31  H16 UNL     1      -0.195  53.355 -12.554  1.00  0.00     0.163 HD
BRANCH  30  32
HETATM   32  C15 UNL     1      -1.201  51.508 -12.520  1.00  0.00     0.180 C 
BRANCH  32  33
HETATM   33  C16 UNL     1       0.049  51.092 -13.327  1.00  0.00     0.241 C 
HETATM   34  O4  UNL     1       0.193  49.952 -13.769  1.00  0.00    -0.271 OA
HETATM   35  N3  UNL     1       0.987  52.083 -13.508  1.00  0.00    -0.344 N 
HETATM   36  H18 UNL     1       0.925  52.909 -12.919  1.00  0.00     0.163 HD
BRANCH  35  37
HETATM   37  C17 UNL     1       2.309  51.789 -14.068  1.00  0.00     0.192 C 
BRANCH  37  38
HETATM   38  C18 UNL     1       2.675  50.317 -13.878  1.00  0.00     0.146 C 
BRANCH  38  39
HETATM   39  C19 UNL     1       3.910  50.150 -13.039  1.00  0.00     0.141 C 
HETATM   40  O5  UNL     1       4.051  50.491 -11.877  1.00  0.00    -0.650 OA
BRANCH  39  41
HETATM   41  O6  UNL     1       4.927  49.601 -13.729  1.00  0.00    -0.776 OA
HETATM   42  H22 UNL     1       5.675  49.573 -13.096  1.00  0.00     0.167 HD
ENDBRANCH  39  41
ENDBRANCH  38  39
ENDBRANCH  37  38
BRANCH  37  43
HETATM   43  C20 UNL     1       2.351  52.217 -15.542  1.00  0.00     0.164 C 
HETATM   44  O7  UNL     1       1.497  52.016 -16.391  1.00  0.00    -0.648 OA
BRANCH  43  45
HETATM   45  O8  UNL     1       3.454  52.927 -15.860  1.00  0.00    -0.775 OA
HETATM   46  H23 UNL     1       3.316  53.159 -16.803  1.00  0.00     0.167 HD
ENDBRANCH  43  45
ENDBRANCH  37  43
ENDBRANCH  35  37
ENDBRANCH  32  33
BRANCH  32  47
HETATM   47  C21 UNL     1      -2.532  51.331 -13.283  1.00  0.00     0.009 C 
HETATM   48  C22 UNL     1      -3.404  50.225 -12.684  1.00  0.00     0.012 C 
HETATM   49  C23 UNL     1      -2.351  51.102 -14.787  1.00  0.00     0.012 C 
ENDBRANCH  32  47
ENDBRANCH  30  32
ENDBRANCH  27  28
ENDBRANCH  26  27
ENDBRANCH  13  26
TORSDOF 13
ENDMDL
MODEL 3
REMARK minimizedAffinity -7.45777798
REMARK CNNscore 0.383549303
REMARK CNNaffinity 5.61419058
REMARK  13 active torsions:
REMARK  status: ('A' for Active; 'I' for Inactive)
REMARK    1  A    between atoms: C3_3  and  O1_4 
REMARK    2  A    between atoms: N1_14  and  O2_16 
REMARK    3  A    between atoms: O2_16  and  C13_17 
REMARK    4  A    between atoms: C13_17  and  C14_18 
REMARK       I    between atoms: C14_18  and  N2_20 
REMARK    5  A    between atoms: N2_20  and  C15_21 
REMARK    6  A    between atoms: C15_21  and  C16_22 
REMARK    7  A    between atoms: C15_21  and  C21_33 
REMARK       I    between atoms: C16_22  and  N3_24 
REMARK    8  A    between atoms: N3_24  and  C17_25 
REMARK    9  A    between atoms: C17_25  and  C18_26 
REMARK   10  A    between atoms: C17_25  and  C20_30 
REMARK   11  A    between atoms: C18_26  and  C19_27 
REMARK   12  A    between atoms: C19_27  and  O6_29 
REMARK   13  A    between atoms: C20_30  and  O8_32 
ROOT
HETATM    1  C1  UNL     1      -4.637  45.365 -32.267  1.00  0.00     0.015 C 
HETATM    2  C2  UNL     1      -5.602  45.462 -31.558  1.00  0.00    -0.078 C 
HETATM    3  C3  UNL     1      -6.772  45.569 -30.668  1.00  0.00     0.128 C 
HETATM    4  C4  UNL     1      -6.601  46.711 -29.661  1.00  0.00     0.052 C 
HETATM    5  C5  UNL     1      -8.023  46.965 -29.180  1.00  0.00     0.010 C 
HETATM    6  C6  UNL     1      -8.825  46.961 -30.482  1.00  0.00     0.002 C 
HETATM    7  C7  UNL     1     -10.354  46.822 -30.346  1.00  0.00    -0.004 C 
HETATM    8  C8  UNL     1     -10.985  47.966 -29.540  1.00  0.00     0.010 C 
HETATM    9  C9  UNL     1     -12.406  47.631 -29.115  1.00  0.00     0.035 C 
HETATM   10  C10 UNL     1     -12.304  46.501 -28.131  1.00  0.00    -0.069 C 
HETATM   11  C11 UNL     1     -12.642  46.700 -26.842  1.00  0.00     0.030 C 
HETATM   12  C12 UNL     1     -12.419  45.650 -25.808  1.00  0.00     0.032 C 
HETATM   13  N1  UNL     1     -12.890  45.669 -24.597  1.00  0.00    -0.271 N 
ATOM     14  H1  UNL     1     -12.708  44.947 -23.900  1.00  0.00     0.194 HD
HETATM   15  C24 UNL     1     -11.583  44.442 -26.188  1.00  0.00     0.060 C 
HETATM   16  C25 UNL     1     -10.829  44.613 -27.505  1.00  0.00     0.020 C 
HETATM   17  C26 UNL     1     -11.694  45.201 -28.647  1.00  0.00    -0.016 C 
HETATM   18  C27 UNL     1     -12.865  44.221 -28.947  1.00  0.00     0.020 C 
HETATM   19  C28 UNL     1     -10.891  45.401 -30.002  1.00  0.00     0.002 C 
HETATM   20  C29 UNL     1      -9.860  44.298 -30.306  1.00  0.00     0.007 C 
HETATM   21  C30 UNL     1      -9.041  44.621 -31.556  1.00  0.00     0.014 C 
HETATM   22  C31 UNL     1      -8.145  45.875 -31.391  1.00  0.00     0.003 C 
HETATM   23  C32 UNL     1      -7.950  46.494 -32.797  1.00  0.00     0.020 C 
ENDROOT
BRANCH   3  24
HETATM   24  O1  UNL     1      -6.846  44.356 -29.917  1.00  0.00    -0.377 OA
HETATM   25  H2  UNL     1      -5.955  44.181 -29.569  1.00  0.00     0.211 HD
ENDBRANCH   3  24
BRANCH  13  26
HETATM   26  O2  UNL     1     -13.679  46.807 -24.366  1.00  0.00    -0.271 OA
BRANCH  26  27
HETATM   27  C13 UNL     1     -13.788  47.011 -22.965  1.00  0.00     0.303 C 
BRANCH  27  28
HETATM   28  C14 UNL     1     -14.740  45.990 -22.348  1.00  0.00     0.244 C 
HETATM   29  O3  UNL     1     -14.548  44.777 -22.363  1.00  0.00    -0.271 OA
HETATM   30  N2  UNL     1     -15.846  46.564 -21.747  1.00  0.00    -0.346 N 
HETATM   31  H16 UNL     1     -16.118  47.480 -22.091  1.00  0.00     0.163 HD
BRANCH  30  32
HETATM   32  C15 UNL     1     -16.955  45.739 -21.257  1.00  0.00     0.180 C 
BRANCH  32  33
HETATM   33  C16 UNL     1     -18.076  45.828 -22.317  1.00  0.00     0.241 C 
HETATM   34  O4  UNL     1     -18.950  46.693 -22.272  1.00  0.00    -0.271 OA
HETATM   35  N3  UNL     1     -18.029  44.869 -23.302  1.00  0.00    -0.344 N 
HETATM   36  H18 UNL     1     -17.444  44.052 -23.144  1.00  0.00     0.163 HD
BRANCH  35  37
HETATM   37  C17 UNL     1     -19.132  44.696 -24.251  1.00  0.00     0.192 C 
BRANCH  37  38
HETATM   38  C18 UNL     1     -20.486  44.784 -23.548  1.00  0.00     0.146 C 
BRANCH  38  39
HETATM   39  C19 UNL     1     -20.930  43.451 -23.016  1.00  0.00     0.141 C 
HETATM   40  O5  UNL     1     -22.063  43.136 -22.695  1.00  0.00    -0.650 OA
BRANCH  39  41
HETATM   41  O6  UNL     1     -19.905  42.591 -22.872  1.00  0.00    -0.776 OA
HETATM   42  H22 UNL     1     -20.306  41.780 -22.494  1.00  0.00     0.167 HD
ENDBRANCH  39  41
ENDBRANCH  38  39
ENDBRANCH  37  38
BRANCH  37  43
HETATM   43  C20 UNL     1     -18.997  45.716 -25.391  1.00  0.00     0.164 C 
HETATM   44  O7  UNL     1     -18.346  45.590 -26.416  1.00  0.00    -0.648 OA
BRANCH  43  45
HETATM   45  O8  UNL     1     -19.737  46.828 -25.202  1.00  0.00    -0.775 OA
HETATM   46  H23 UNL     1     -19.582  47.351 -26.018  1.00  0.00     0.167 HD
ENDBRANCH  43  45
ENDBRANCH  37  43
ENDBRANCH  35  37
ENDBRANCH  32  33
BRANCH  32  47
HETATM   47  C21 UNL     1     -17.381  46.202 -19.847  1.00  0.00     0.009 C 
HETATM   48  C22 UNL     1     -18.489  47.258 -19.891  1.00  0.00     0.012 C 
HETATM   49  C23 UNL     1     -16.217  46.698 -18.985  1.00  0.00     0.012 C 
ENDBRANCH  32  47
ENDBRANCH  30  32
ENDBRANCH  27  28
ENDBRANCH  26  27
ENDBRANCH  13  26
TORSDOF 13
ENDMDL
MODEL 4
REMARK minimizedAffinity -7.76672935
REMARK CNNscore 0.379406095
REMARK CNNaffinity 6.0686202
REMARK  13 active torsions:
REMARK  status: ('A' for Active; 'I' for Inactive)
REMARK    1  A    between atoms: C3_3  and  O1_4 
REMARK    2  A    between atoms: N1_14  and  O2_16 
REMARK    3  A    between atoms: O2_16  and  C13_17 
REMARK    4  A    between atoms: C13_17  and  C14_18 
REMARK       I    between atoms: C14_18  and  N2_20 
REMARK    5  A    between atoms: N2_20  and  C15_21 
REMARK    6  A    between atoms: C15_21  and  C16_22 
REMARK    7  A    between atoms: C15_21  and  C21_33 
REMARK       I    between atoms: C16_22  and  N3_24 
REMARK    8  A    between atoms: N3_24  and  C17_25 
REMARK    9  A    between atoms: C17_25  and  C18_26 
REMARK   10  A    between atoms: C17_25  and  C20_30 
REMARK   11  A    between atoms: C18_26  and  C19_27 
REMARK   12  A    between atoms: C19_27  and  O6_29 
REMARK   13  A    between atoms: C20_30  and  O8_32 
ROOT
HETATM    1  C1  UNL     1      -0.193  53.444 -28.089  1.00  0.00     0.015 C 
HETATM    2  C2  UNL     1      -0.932  52.853 -27.349  1.00  0.00    -0.078 C 
HETATM    3  C3  UNL     1      -1.861  52.138 -26.455  1.00  0.00     0.128 C 
HETATM    4  C4  UNL     1      -2.389  50.858 -27.111  1.00  0.00     0.052 C 
HETATM    5  C5  UNL     1      -2.915  50.054 -25.930  1.00  0.00     0.010 C 
HETATM    6  C6  UNL     1      -1.796  50.199 -24.899  1.00  0.00     0.002 C 
HETATM    7  C7  UNL     1      -2.148  49.821 -23.447  1.00  0.00    -0.004 C 
HETATM    8  C8  UNL     1      -2.580  48.355 -23.303  1.00  0.00     0.010 C 
HETATM    9  C9  UNL     1      -3.257  48.101 -21.965  1.00  0.00     0.035 C 
HETATM   10  C10 UNL     1      -4.550  48.865 -21.986  1.00  0.00    -0.069 C 
HETATM   11  C11 UNL     1      -5.722  48.203 -21.986  1.00  0.00     0.030 C 
HETATM   12  C12 UNL     1      -7.020  48.916 -22.152  1.00  0.00     0.032 C 
HETATM   13  N1  UNL     1      -8.197  48.398 -21.965  1.00  0.00    -0.271 N 
ATOM     14  H1  UNL     1      -9.073  48.901 -22.103  1.00  0.00     0.194 HD
HETATM   15  C24 UNL     1      -6.983  50.376 -22.562  1.00  0.00     0.060 C 
HETATM   16  C25 UNL     1      -5.609  50.839 -23.043  1.00  0.00     0.020 C 
HETATM   17  C26 UNL     1      -4.444  50.381 -22.131  1.00  0.00    -0.016 C 
HETATM   18  C27 UNL     1      -4.635  51.002 -20.718  1.00  0.00     0.020 C 
HETATM   19  C28 UNL     1      -3.018  50.844 -22.657  1.00  0.00     0.002 C 
HETATM   20  C29 UNL     1      -2.993  52.245 -23.295  1.00  0.00     0.007 C 
HETATM   21  C30 UNL     1      -1.622  52.571 -23.888  1.00  0.00     0.014 C 
HETATM   22  C31 UNL     1      -1.243  51.658 -25.082  1.00  0.00     0.003 C 
HETATM   23  C32 UNL     1       0.303  51.571 -25.125  1.00  0.00     0.020 C 
ENDROOT
BRANCH   3  24
HETATM   24  O1  UNL     1      -2.986  52.993 -26.241  1.00  0.00    -0.377 OA
HETATM   25  H2  UNL     1      -3.267  53.319 -27.113  1.00  0.00     0.211 HD
ENDBRANCH   3  24
BRANCH  13  26
HETATM   26  O2  UNL     1      -8.114  47.059 -21.550  1.00  0.00    -0.271 OA
BRANCH  26  27
HETATM   27  C13 UNL     1      -9.329  46.704 -20.907  1.00  0.00     0.303 C 
BRANCH  27  28
HETATM   28  C14 UNL     1     -10.291  46.060 -21.901  1.00  0.00     0.244 C 
HETATM   29  O3  UNL     1     -10.982  45.076 -21.648  1.00  0.00    -0.271 OA
HETATM   30  N2  UNL     1     -10.329  46.704 -23.125  1.00  0.00    -0.346 N 
HETATM   31  H16 UNL     1      -9.500  47.235 -23.377  1.00  0.00     0.163 HD
BRANCH  30  32
HETATM   32  C15 UNL     1     -11.058  46.131 -24.260  1.00  0.00     0.180 C 
BRANCH  32  33
HETATM   33  C16 UNL     1     -12.471  45.775 -23.747  1.00  0.00     0.241 C 
HETATM   34  O4  UNL     1     -13.042  44.733 -24.071  1.00  0.00    -0.271 OA
HETATM   35  N3  UNL     1     -13.044  46.707 -22.912  1.00  0.00    -0.344 N 
HETATM   36  H18 UNL     1     -12.634  47.638 -22.886  1.00  0.00     0.163 HD
BRANCH  35  37
HETATM   37  C17 UNL     1     -14.451  46.612 -22.514  1.00  0.00     0.192 C 
BRANCH  37  38
HETATM   38  C18 UNL     1     -14.739  47.478 -21.289  1.00  0.00     0.146 C 
BRANCH  38  39
HETATM   39  C19 UNL     1     -15.696  46.812 -20.343  1.00  0.00     0.141 C 
HETATM   40  O5  UNL     1     -16.881  47.069 -20.204  1.00  0.00    -0.650 OA
BRANCH  39  41
HETATM   41  O6  UNL     1     -15.096  45.879 -19.580  1.00  0.00    -0.776 OA
HETATM   42  H22 UNL     1     -15.803  45.542 -18.990  1.00  0.00     0.167 HD
ENDBRANCH  39  41
ENDBRANCH  38  39
ENDBRANCH  37  38
BRANCH  37  43
HETATM   43  C20 UNL     1     -15.350  46.967 -23.707  1.00  0.00     0.164 C 
HETATM   44  O7  UNL     1     -15.520  48.074 -24.195  1.00  0.00    -0.648 OA
BRANCH  43  45
HETATM   45  O8  UNL     1     -15.953  45.894 -24.260  1.00  0.00    -0.775 OA
HETATM   46  H23 UNL     1     -16.447  46.271 -25.019  1.00  0.00     0.167 HD
ENDBRANCH  43  45
ENDBRANCH  37  43
ENDBRANCH  35  37
ENDBRANCH  32  33
BRANCH  32  47
HETATM   47  C21 UNL     1     -10.279  44.931 -24.844  1.00  0.00     0.009 C 
HETATM   48  C22 UNL     1     -10.516  43.642 -24.053  1.00  0.00     0.012 C 
HETATM   49  C23 UNL     1      -8.776  45.189 -24.991  1.00  0.00     0.012 C 
ENDBRANCH  32  47
ENDBRANCH  30  32
ENDBRANCH  27  28
ENDBRANCH  26  27
ENDBRANCH  13  26
TORSDOF 13
ENDMDL
MODEL 5
REMARK minimizedAffinity -7.84534311
REMARK CNNscore 0.358992189
REMARK CNNaffinity 5.90515137
REMARK  13 active torsions:
REMARK  status: ('A' for Active; 'I' for Inactive)
REMARK    1  A    between atoms: C3_3  and  O1_4 
REMARK    2  A    between atoms: N1_14  and  O2_16 
REMARK    3  A    between atoms: O2_16  and  C13_17 
REMARK    4  A    between atoms: C13_17  and  C14_18 
REMARK       I    between atoms: C14_18  and  N2_20 
REMARK    5  A    between atoms: N2_20  and  C15_21 
REMARK    6  A    between atoms: C15_21  and  C16_22 
REMARK    7  A    between atoms: C15_21  and  C21_33 
REMARK       I    between atoms: C16_22  and  N3_24 
REMARK    8  A    between atoms: N3_24  and  C17_25 
REMARK    9  A    between atoms: C17_25  and  C18_26 
REMARK   10  A    between atoms: C17_25  and  C20_30 
REMARK   11  A    between atoms: C18_26  and  C19_27 
REMARK   12  A    between atoms: C19_27  and  O6_29 
REMARK   13  A    between atoms: C20_30  and  O8_32 
ROOT
HETATM    1  C1  UNL     1      -0.879  52.553 -23.074  1.00  0.00     0.015 C 
HETATM    2  C2  UNL     1      -1.869  51.894 -22.907  1.00  0.00    -0.078 C 
HETATM    3  C3  UNL     1      -3.089  51.099 -22.678  1.00  0.00     0.128 C 
HETATM    4  C4  UNL     1      -4.348  51.900 -23.029  1.00  0.00     0.052 C 
HETATM    5  C5  UNL     1      -5.411  50.823 -23.186  1.00  0.00     0.010 C 
HETATM    6  C6  UNL     1      -4.698  49.763 -24.025  1.00  0.00     0.002 C 
HETATM    7  C7  UNL     1      -5.350  48.366 -24.066  1.00  0.00    -0.004 C 
HETATM    8  C8  UNL     1      -6.768  48.391 -24.652  1.00  0.00     0.010 C 
HETATM    9  C9  UNL     1      -7.516  47.100 -24.357  1.00  0.00     0.035 C 
HETATM   10  C10 UNL     1      -7.732  47.060 -22.871  1.00  0.00    -0.069 C 
HETATM   11  C11 UNL     1      -8.979  47.151 -22.371  1.00  0.00     0.030 C 
HETATM   12  C12 UNL     1      -9.224  47.261 -20.905  1.00  0.00     0.032 C 
HETATM   13  N1  UNL     1     -10.379  47.151 -20.321  1.00  0.00    -0.271 N 
ATOM     14  H1  UNL     1     -10.525  47.248 -19.316  1.00  0.00     0.194 HD
HETATM   15  C24 UNL     1      -8.031  47.509 -20.000  1.00  0.00     0.060 C 
HETATM   16  C25 UNL     1      -6.767  47.913 -20.755  1.00  0.00     0.020 C 
HETATM   17  C26 UNL     1      -6.479  47.037 -22.000  1.00  0.00    -0.016 C 
HETATM   18  C27 UNL     1      -6.253  45.568 -21.541  1.00  0.00     0.020 C 
HETATM   19  C28 UNL     1      -5.178  47.485 -22.794  1.00  0.00     0.002 C 
HETATM   20  C29 UNL     1      -4.017  47.966 -21.903  1.00  0.00     0.007 C 
HETATM   21  C30 UNL     1      -2.850  48.496 -22.736  1.00  0.00     0.014 C 
HETATM   22  C31 UNL     1      -3.205  49.776 -23.536  1.00  0.00     0.003 C 
HETATM   23  C32 UNL     1      -2.300  49.802 -24.792  1.00  0.00     0.020 C 
ENDROOT
BRANCH   3  24
HETATM   24  O1  UNL     1      -3.152  50.812 -21.280  1.00  0.00    -0.377 OA
HETATM   25  H2  UNL     1      -2.992  51.648 -20.810  1.00  0.00     0.211 HD
ENDBRANCH   3  24
BRANCH  13  26
HETATM   26  O2  UNL     1     -11.403  46.883 -21.244  1.00  0.00    -0.271 OA
BRANCH  26  27
HETATM   27  C13 UNL     1     -12.636  46.791 -20.545  1.00  0.00     0.303 C 
BRANCH  27  28
HETATM   28  C14 UNL     1     -13.771  47.372 -21.384  1.00  0.00     0.244 C 
HETATM   29  O3  UNL     1     -14.402  48.380 -21.080  1.00  0.00    -0.271 OA
HETATM   30  N2  UNL     1     -14.015  46.659 -22.545  1.00  0.00    -0.346 N 
HETATM   31  H16 UNL     1     -13.737  45.682 -22.537  1.00  0.00     0.163 HD
BRANCH  30  32
HETATM   32  C15 UNL     1     -15.176  46.960 -23.387  1.00  0.00     0.180 C 
BRANCH  32  33
HETATM   33  C16 UNL     1     -16.281  45.953 -22.996  1.00  0.00     0.241 C 
HETATM   34  O4  UNL     1     -16.072  44.741 -22.942  1.00  0.00    -0.271 OA
HETATM   35  N3  UNL     1     -17.510  46.507 -22.722  1.00  0.00    -0.344 N 
HETATM   36  H18 UNL     1     -17.677  47.465 -23.022  1.00  0.00     0.163 HD
BRANCH  35  37
HETATM   37  C17 UNL     1     -18.701  45.673 -22.541  1.00  0.00     0.192 C 
BRANCH  37  38
HETATM   38  C18 UNL     1     -19.352  45.339 -23.883  1.00  0.00     0.146 C 
BRANCH  38  39
HETATM   39  C19 UNL     1     -19.108  46.411 -24.906  1.00  0.00     0.141 C 
HETATM   40  O5  UNL     1     -19.160  47.616 -24.724  1.00  0.00    -0.650 OA
BRANCH  39  41
HETATM   41  O6  UNL     1     -18.858  45.905 -26.128  1.00  0.00    -0.776 OA
HETATM   42  H22 UNL     1     -18.749  46.688 -26.708  1.00  0.00     0.167 HD
ENDBRANCH  39  41
ENDBRANCH  38  39
ENDBRANCH  37  38
BRANCH  37  43
HETATM   43  C20 UNL     1     -18.332  44.415 -21.740  1.00  0.00     0.164 C 
HETATM   44  O7  UNL     1     -18.366  43.259 -22.131  1.00  0.00    -0.648 OA
BRANCH  43  45
HETATM   45  O8  UNL     1     -17.887  44.686 -20.496  1.00  0.00    -0.775 OA
HETATM   46  H23 UNL     1     -17.656  43.803 -20.135  1.00  0.00     0.167 HD
ENDBRANCH  43  45
ENDBRANCH  37  43
ENDBRANCH  35  37
ENDBRANCH  32  33
BRANCH  32  47
HETATM   47  C21 UNL     1     -14.780  46.912 -24.879  1.00  0.00     0.009 C 
HETATM   48  C22 UNL     1     -15.620  45.909 -25.674  1.00  0.00     0.012 C 
HETATM   49  C23 UNL     1     -13.289  46.648 -25.110  1.00  0.00     0.012 C 
ENDBRANCH  32  47
ENDBRANCH  30  32
ENDBRANCH  27  28
ENDBRANCH  26  27
ENDBRANCH  13  26
TORSDOF 13
ENDMDL
MODEL 6
REMARK minimizedAffinity -7.49420309
REMARK CNNscore 0.336999089
REMARK CNNaffinity 6.10923576
REMARK  13 active torsions:
REMARK  status: ('A' for Active; 'I' for Inactive)
REMARK    1  A    between atoms: C3_3  and  O1_4 
REMARK    2  A    between atoms: N1_14  and  O2_16 
REMARK    3  A    between atoms: O2_16  and  C13_17 
REMARK    4  A    between atoms: C13_17  and  C14_18 
REMARK       I    between atoms: C14_18  and  N2_20 
REMARK    5  A    between atoms: N2_20  and  C15_21 
REMARK    6  A    between atoms: C15_21  and  C16_22 
REMARK    7  A    between atoms: C15_21  and  C21_33 
REMARK       I    between atoms: C16_22  and  N3_24 
REMARK    8  A    between atoms: N3_24  and  C17_25 
REMARK    9  A    between atoms: C17_25  and  C18_26 
REMARK   10  A    between atoms: C17_25  and  C20_30 
REMARK   11  A    between atoms: C18_26  and  C19_27 
REMARK   12  A    between atoms: C19_27  and  O6_29 
REMARK   13  A    between atoms: C20_30  and  O8_32 
ROOT
HETATM    1  C1  UNL     1      -0.087  53.665 -27.544  1.00  0.00     0.015 C 
HETATM    2  C2  UNL     1      -0.851  52.968 -26.932  1.00  0.00    -0.078 C 
HETATM    3  C3  UNL     1      -1.808  52.119 -26.200  1.00  0.00     0.128 C 
HETATM    4  C4  UNL     1      -1.960  50.749 -26.869  1.00  0.00     0.052 C 
HETATM    5  C5  UNL     1      -2.573  49.892 -25.771  1.00  0.00     0.010 C 
HETATM    6  C6  UNL     1      -1.734  50.261 -24.547  1.00  0.00     0.002 C 
HETATM    7  C7  UNL     1      -2.310  49.861 -23.175  1.00  0.00    -0.004 C 
HETATM    8  C8  UNL     1      -2.503  48.345 -23.031  1.00  0.00     0.010 C 
HETATM    9  C9  UNL     1      -3.389  48.005 -21.843  1.00  0.00     0.035 C 
HETATM   10  C10 UNL     1      -4.761  48.522 -22.168  1.00  0.00    -0.069 C 
HETATM   11  C11 UNL     1      -5.776  47.659 -22.362  1.00  0.00     0.030 C 
HETATM   12  C12 UNL     1      -7.114  48.121 -22.827  1.00  0.00     0.032 C 
HETATM   13  N1  UNL     1      -8.197  47.404 -22.848  1.00  0.00    -0.271 N 
ATOM     14  H1  UNL     1      -9.099  47.737 -23.188  1.00  0.00     0.194 HD
HETATM   15  C24 UNL     1      -7.244  49.554 -23.309  1.00  0.00     0.060 C 
HETATM   16  C25 UNL     1      -5.901  50.246 -23.533  1.00  0.00     0.020 C 
HETATM   17  C26 UNL     1      -4.889  50.028 -22.381  1.00  0.00    -0.016 C 
HETATM   18  C27 UNL     1      -5.474  50.638 -21.075  1.00  0.00     0.020 C 
HETATM   19  C28 UNL     1      -3.487  50.728 -22.638  1.00  0.00     0.002 C 
HETATM   20  C29 UNL     1      -3.572  52.095 -23.342  1.00  0.00     0.007 C 
HETATM   21  C30 UNL     1      -2.185  52.649 -23.667  1.00  0.00     0.014 C 
HETATM   22  C31 UNL     1      -1.414  51.792 -24.704  1.00  0.00     0.003 C 
HETATM   23  C32 UNL     1       0.098  51.985 -24.432  1.00  0.00     0.020 C 
ENDROOT
BRANCH   3  24
HETATM   24  O1  UNL     1      -3.083  52.761 -26.267  1.00  0.00    -0.377 OA
HETATM   25  H2  UNL     1      -3.228  53.010 -27.195  1.00  0.00     0.211 HD
ENDBRANCH   3  24
BRANCH  13  26
HETATM   26  O2  UNL     1      -7.973  46.112 -22.344  1.00  0.00    -0.271 OA
BRANCH  26  27
HETATM   27  C13 UNL     1      -9.160  45.349 -22.500  1.00  0.00     0.303 C 
BRANCH  27  28
HETATM   28  C14 UNL     1     -10.306  45.976 -21.711  1.00  0.00     0.244 C 
HETATM   29  O3  UNL     1     -10.887  47.005 -22.045  1.00  0.00    -0.271 OA
HETATM   30  N2  UNL     1     -10.649  45.260 -20.577  1.00  0.00    -0.346 N 
HETATM   31  H16 UNL     1      -9.919  44.675 -20.180  1.00  0.00     0.163 HD
BRANCH  30  32
HETATM   32  C15 UNL     1     -11.603  45.796 -19.603  1.00  0.00     0.180 C 
BRANCH  32  33
HETATM   33  C16 UNL     1     -12.745  46.451 -20.413  1.00  0.00     0.241 C 
HETATM   34  O4  UNL     1     -12.920  47.670 -20.426  1.00  0.00    -0.271 OA
HETATM   35  N3  UNL     1     -13.549  45.577 -21.107  1.00  0.00    -0.344 N 
HETATM   36  H18 UNL     1     -13.505  44.591 -20.859  1.00  0.00     0.163 HD
BRANCH  35  37
HETATM   37  C17 UNL     1     -14.787  46.025 -21.749  1.00  0.00     0.192 C 
BRANCH  37  38
HETATM   38  C18 UNL     1     -14.762  45.751 -23.252  1.00  0.00     0.146 C 
BRANCH  38  39
HETATM   39  C19 UNL     1     -14.384  46.974 -24.038  1.00  0.00     0.141 C 
HETATM   40  O5  UNL     1     -13.255  47.333 -24.327  1.00  0.00    -0.650 OA
BRANCH  39  41
HETATM   41  O6  UNL     1     -15.455  47.713 -24.382  1.00  0.00    -0.776 OA
HETATM   42  H22 UNL     1     -15.086  48.489 -24.855  1.00  0.00     0.167 HD
ENDBRANCH  39  41
ENDBRANCH  38  39
ENDBRANCH  37  38
BRANCH  37  43
HETATM   43  C20 UNL     1     -15.992  45.373 -21.055  1.00  0.00     0.164 C 
HETATM   44  O7  UNL     1     -17.161  45.432 -21.404  1.00  0.00    -0.648 OA
BRANCH  43  45
HETATM   45  O8  UNL     1     -15.653  44.633 -19.979  1.00  0.00    -0.775 OA
HETATM   46  H23 UNL     1     -16.508  44.256 -19.679  1.00  0.00     0.167 HD
ENDBRANCH  43  45
ENDBRANCH  37  43
ENDBRANCH  35  37
ENDBRANCH  32  33
BRANCH  32  47
HETATM   47  C21 UNL     1     -10.888  46.758 -18.629  1.00  0.00     0.009 C 
HETATM   48  C22 UNL     1     -11.844  47.354 -17.592  1.00  0.00     0.012 C 
HETATM   49  C23 UNL     1     -10.111  47.876 -19.331  1.00  0.00     0.012 C 
ENDBRANCH  32  47
ENDBRANCH  30  32
ENDBRANCH  27  28
ENDBRANCH  26  27
ENDBRANCH  13  26
TORSDOF 13
ENDMDL
MODEL 7
REMARK minimizedAffinity -7.4603548
REMARK CNNscore 0.325995982
REMARK CNNaffinity 5.54013681
REMARK  13 active torsions:
REMARK  status: ('A' for Active; 'I' for Inactive)
REMARK    1  A    between atoms: C3_3  and  O1_4 
REMARK    2  A    between atoms: N1_14  and  O2_16 
REMARK    3  A    between atoms: O2_16  and  C13_17 
REMARK    4  A    between atoms: C13_17  and  C14_18 
REMARK       I    between atoms: C14_18  and  N2_20 
REMARK    5  A    between atoms: N2_20  and  C15_21 
REMARK    6  A    between atoms: C15_21  and  C16_22 
REMARK    7  A    between atoms: C15_21  and  C21_33 
REMARK       I    between atoms: C16_22  and  N3_24 
REMARK    8  A    between atoms: N3_24  and  C17_25 
REMARK    9  A    between atoms: C17_25  and  C18_26 
REMARK   10  A    between atoms: C17_25  and  C20_30 
REMARK   11  A    between atoms: C18_26  and  C19_27 
REMARK   12  A    between atoms: C19_27  and  O6_29 
REMARK   13  A    between atoms: C20_30  and  O8_32 
ROOT
HETATM    1  C1  UNL     1      -3.919  47.925 -33.955  1.00  0.00     0.015 C 
HETATM    2  C2  UNL     1      -4.816  47.500 -33.278  1.00  0.00    -0.078 C 
HETATM    3  C3  UNL     1      -5.924  46.961 -32.469  1.00  0.00     0.128 C 
HETATM    4  C4  UNL     1      -5.560  45.601 -31.865  1.00  0.00     0.052 C 
HETATM    5  C5  UNL     1      -6.571  45.440 -30.738  1.00  0.00     0.010 C 
HETATM    6  C6  UNL     1      -6.549  46.813 -30.066  1.00  0.00     0.002 C 
HETATM    7  C7  UNL     1      -7.720  47.130 -29.115  1.00  0.00    -0.004 C 
HETATM    8  C8  UNL     1      -7.806  46.155 -27.933  1.00  0.00     0.010 C 
HETATM    9  C9  UNL     1      -9.147  46.256 -27.223  1.00  0.00     0.035 C 
HETATM   10  C10 UNL     1     -10.183  45.756 -28.189  1.00  0.00    -0.069 C 
HETATM   11  C11 UNL     1     -10.848  44.615 -27.929  1.00  0.00     0.030 C 
HETATM   12  C12 UNL     1     -11.776  44.011 -28.926  1.00  0.00     0.032 C 
HETATM   13  N1  UNL     1     -12.606  43.038 -28.694  1.00  0.00    -0.271 N 
ATOM     14  H1  UNL     1     -13.220  42.628 -29.399  1.00  0.00     0.194 HD
HETATM   15  C24 UNL     1     -11.775  44.576 -30.334  1.00  0.00     0.060 C 
HETATM   16  C25 UNL     1     -10.596  45.502 -30.617  1.00  0.00     0.020 C 
HETATM   17  C26 UNL     1     -10.330  46.534 -29.493  1.00  0.00    -0.016 C 
HETATM   18  C27 UNL     1     -11.575  47.456 -29.351  1.00  0.00     0.020 C 
HETATM   19  C28 UNL     1      -9.083  47.473 -29.786  1.00  0.00     0.002 C 
HETATM   20  C29 UNL     1      -8.920  47.882 -31.262  1.00  0.00     0.007 C 
HETATM   21  C30 UNL     1      -7.635  48.678 -31.488  1.00  0.00     0.014 C 
HETATM   22  C31 UNL     1      -6.351  47.848 -31.232  1.00  0.00     0.003 C 
HETATM   23  C32 UNL     1      -5.239  48.835 -30.798  1.00  0.00     0.020 C 
ENDROOT
BRANCH   3  24
HETATM   24  O1  UNL     1      -7.027  46.745 -33.351  1.00  0.00    -0.377 OA
HETATM   25  H2  UNL     1      -6.684  46.270 -34.127  1.00  0.00     0.211 HD
ENDBRANCH   3  24
BRANCH  13  26
HETATM   26  O2  UNL     1     -12.554  42.620 -27.355  1.00  0.00    -0.271 OA
BRANCH  26  27
HETATM   27  C13 UNL     1     -13.880  42.449 -26.878  1.00  0.00     0.303 C 
BRANCH  27  28
HETATM   28  C14 UNL     1     -14.037  43.080 -25.497  1.00  0.00     0.244 C 
HETATM   29  O3  UNL     1     -13.661  42.552 -24.454  1.00  0.00    -0.271 OA
HETATM   30  N2  UNL     1     -14.634  44.328 -25.529  1.00  0.00    -0.346 N 
HETATM   31  H16 UNL     1     -15.233  44.518 -26.328  1.00  0.00     0.163 HD
BRANCH  30  32
HETATM   32  C15 UNL     1     -15.027  45.011 -24.293  1.00  0.00     0.180 C 
BRANCH  32  33
HETATM   33  C16 UNL     1     -16.476  45.507 -24.500  1.00  0.00     0.241 C 
HETATM   34  O4  UNL     1     -16.726  46.608 -24.992  1.00  0.00    -0.271 OA
HETATM   35  N3  UNL     1     -17.459  44.636 -24.090  1.00  0.00    -0.344 N 
HETATM   36  H18 UNL     1     -17.190  43.870 -23.477  1.00  0.00     0.163 HD
BRANCH  35  37
HETATM   37  C17 UNL     1     -18.864  45.046 -24.030  1.00  0.00     0.192 C 
BRANCH  37  38
HETATM   38  C18 UNL     1     -19.174  45.769 -22.720  1.00  0.00     0.146 C 
BRANCH  38  39
HETATM   39  C19 UNL     1     -18.998  44.871 -21.529  1.00  0.00     0.141 C 
HETATM   40  O5  UNL     1     -18.429  43.793 -21.507  1.00  0.00    -0.650 OA
BRANCH  39  41
HETATM   41  O6  UNL     1     -19.595  45.361 -20.426  1.00  0.00    -0.776 OA
HETATM   42  H22 UNL     1     -19.441  44.684 -19.733  1.00  0.00     0.167 HD
ENDBRANCH  39  41
ENDBRANCH  38  39
ENDBRANCH  37  38
BRANCH  37  43
HETATM   43  C20 UNL     1     -19.208  45.895 -25.262  1.00  0.00     0.164 C 
HETATM   44  O7  UNL     1     -19.307  45.508 -26.417  1.00  0.00    -0.648 OA
BRANCH  43  45
HETATM   45  O8  UNL     1     -19.461  47.186 -24.967  1.00  0.00    -0.775 OA
HETATM   46  H23 UNL     1     -19.702  47.579 -25.834  1.00  0.00     0.167 HD
ENDBRANCH  43  45
ENDBRANCH  37  43
ENDBRANCH  35  37
ENDBRANCH  32  33
BRANCH  32  47
HETATM   47  C21 UNL     1     -14.019  46.133 -23.959  1.00  0.00     0.009 C 
HETATM   48  C22 UNL     1     -14.596  47.165 -22.988  1.00  0.00     0.012 C 
HETATM   49  C23 UNL     1     -13.451  46.835 -25.196  1.00  0.00     0.012 C 
ENDBRANCH  32  47
ENDBRANCH  30  32
ENDBRANCH  27  28
ENDBRANCH  26  27
ENDBRANCH  13  26
TORSDOF 13
ENDMDL
MODEL 8
REMARK minimizedAffinity -8.38401413
REMARK CNNscore 0.245219618
REMARK CNNaffinity 6.26738548
REMARK  13 active torsions:
REMARK  status: ('A' for Active; 'I' for Inactive)
REMARK    1  A    between atoms: C3_3  and  O1_4 
REMARK    2  A    between atoms: N1_14  and  O2_16 
REMARK    3  A    between atoms: O2_16  and  C13_17 
REMARK    4  A    between atoms: C13_17  and  C14_18 
REMARK       I    between atoms: C14_18  and  N2_20 
REMARK    5  A    between atoms: N2_20  and  C15_21 
REMARK    6  A    between atoms: C15_21  and  C16_22 
REMARK    7  A    between atoms: C15_21  and  C21_33 
REMARK       I    between atoms: C16_22  and  N3_24 
REMARK    8  A    between atoms: N3_24  and  C17_25 
REMARK    9  A    between atoms: C17_25  and  C18_26 
REMARK   10  A    between atoms: C17_25  and  C20_30 
REMARK   11  A    between atoms: C18_26  and  C19_27 
REMARK   12  A    between atoms: C19_27  and  O6_29 
REMARK   13  A    between atoms: C20_30  and  O8_32 
ROOT
HETATM    1  C1  UNL     1      -0.100  53.657 -28.023  1.00  0.00     0.015 C 
HETATM    2  C2  UNL     1      -0.842  53.006 -27.338  1.00  0.00    -0.078 C 
HETATM    3  C3  UNL     1      -1.774  52.215 -26.514  1.00  0.00     0.128 C 
HETATM    4  C4  UNL     1      -2.094  50.869 -27.174  1.00  0.00     0.052 C 
HETATM    5  C5  UNL     1      -2.646  50.041 -26.023  1.00  0.00     0.010 C 
HETATM    6  C6  UNL     1      -1.658  50.332 -24.893  1.00  0.00     0.002 C 
HETATM    7  C7  UNL     1      -2.111  49.952 -23.470  1.00  0.00    -0.004 C 
HETATM    8  C8  UNL     1      -2.396  48.451 -23.318  1.00  0.00     0.010 C 
HETATM    9  C9  UNL     1      -3.172  48.157 -22.044  1.00  0.00     0.035 C 
HETATM   10  C10 UNL     1      -4.531  48.773 -22.217  1.00  0.00    -0.069 C 
HETATM   11  C11 UNL     1      -5.619  47.986 -22.308  1.00  0.00     0.030 C 
HETATM   12  C12 UNL     1      -6.963  48.548 -22.623  1.00  0.00     0.032 C 
HETATM   13  N1  UNL     1      -8.090  47.908 -22.534  1.00  0.00    -0.271 N 
ATOM     14  H1  UNL     1      -8.997  48.309 -22.773  1.00  0.00     0.194 HD
HETATM   15  C24 UNL     1      -7.041  49.993 -23.078  1.00  0.00     0.060 C 
HETATM   16  C25 UNL     1      -5.684  50.592 -23.439  1.00  0.00     0.020 C 
HETATM   17  C26 UNL     1      -4.573  50.287 -22.404  1.00  0.00    -0.016 C 
HETATM   18  C27 UNL     1      -4.971  50.917 -21.038  1.00  0.00     0.020 C 
HETATM   19  C28 UNL     1      -3.160  50.891 -22.804  1.00  0.00     0.002 C 
HETATM   20  C29 UNL     1      -3.222  52.272 -23.484  1.00  0.00     0.007 C 
HETATM   21  C30 UNL     1      -1.841  52.732 -23.952  1.00  0.00     0.014 C 
HETATM   22  C31 UNL     1      -1.248  51.838 -25.072  1.00  0.00     0.003 C 
HETATM   23  C32 UNL     1       0.294  51.921 -24.962  1.00  0.00     0.020 C 
ENDROOT
BRANCH   3  24
HETATM   24  O1  UNL     1      -3.000  52.946 -26.440  1.00  0.00    -0.377 OA
HETATM   25  H2  UNL     1      -3.225  53.218 -27.346  1.00  0.00     0.211 HD
ENDBRANCH   3  24
BRANCH  13  26
HETATM   26  O2  UNL     1      -7.906  46.597 -22.066  1.00  0.00    -0.271 OA
BRANCH  26  27
HETATM   27  C13 UNL     1      -9.177  46.033 -21.777  1.00  0.00     0.303 C 
BRANCH  27  28
HETATM   28  C14 UNL     1      -9.241  45.577 -20.321  1.00  0.00     0.244 C 
HETATM   29  O3  UNL     1      -8.897  44.464 -19.935  1.00  0.00    -0.271 OA
HETATM   30  N2  UNL     1      -9.712  46.554 -19.461  1.00  0.00    -0.346 N 
HETATM   31  H16 UNL     1     -10.305  47.267 -19.875  1.00  0.00     0.163 HD
BRANCH  30  32
HETATM   32  C15 UNL     1     -10.008  46.248 -18.059  1.00  0.00     0.180 C 
BRANCH  32  33
HETATM   33  C16 UNL     1     -11.544  46.112 -17.948  1.00  0.00     0.241 C 
HETATM   34  O4  UNL     1     -12.154  45.166 -18.448  1.00  0.00    -0.271 OA
HETATM   35  N3  UNL     1     -12.175  47.124 -17.262  1.00  0.00    -0.344 N 
HETATM   36  H18 UNL     1     -11.655  47.982 -17.096  1.00  0.00     0.163 HD
BRANCH  35  37
HETATM   37  C17 UNL     1     -13.635  47.243 -17.252  1.00  0.00     0.192 C 
BRANCH  37  38
HETATM   38  C18 UNL     1     -14.201  47.228 -18.671  1.00  0.00     0.146 C 
BRANCH  38  39
HETATM   39  C19 UNL     1     -14.415  48.615 -19.205  1.00  0.00     0.141 C 
HETATM   40  O5  UNL     1     -14.871  49.568 -18.595  1.00  0.00    -0.650 OA
BRANCH  39  41
HETATM   41  O6  UNL     1     -14.085  48.720 -20.506  1.00  0.00    -0.776 OA
HETATM   42  H22 UNL     1     -14.295  49.647 -20.746  1.00  0.00     0.167 HD
ENDBRANCH  39  41
ENDBRANCH  38  39
ENDBRANCH  37  38
BRANCH  37  43
HETATM   43  C20 UNL     1     -14.237  46.140 -16.369  1.00  0.00     0.164 C 
HETATM   44  O7  UNL     1     -14.692  45.069 -16.740  1.00  0.00    -0.648 OA
BRANCH  43  45
HETATM   45  O8  UNL     1     -14.187  46.424 -15.051  1.00  0.00    -0.775 OA
HETATM   46  H23 UNL     1     -14.562  45.623 -14.627  1.00  0.00     0.167 HD
ENDBRANCH  43  45
ENDBRANCH  37  43
ENDBRANCH  35  37
ENDBRANCH  32  33
BRANCH  32  47
HETATM   47  C21 UNL     1      -9.403  47.330 -17.137  1.00  0.00     0.009 C 
HETATM   48  C22 UNL     1      -9.143  48.645 -17.876  1.00  0.00     0.012 C 
HETATM   49  C23 UNL     1      -8.135  46.876 -16.409  1.00  0.00     0.012 C 
ENDBRANCH  32  47
ENDBRANCH  30  32
ENDBRANCH  27  28
ENDBRANCH  26  27
ENDBRANCH  13  26
TORSDOF 13
ENDMDL
MODEL 9
REMARK minimizedAffinity -7.378016
REMARK CNNscore 0.241221875
REMARK CNNaffinity 5.9676795
REMARK  13 active torsions:
REMARK  status: ('A' for Active; 'I' for Inactive)
REMARK    1  A    between atoms: C3_3  and  O1_4 
REMARK    2  A    between atoms: N1_14  and  O2_16 
REMARK    3  A    between atoms: O2_16  and  C13_17 
REMARK    4  A    between atoms: C13_17  and  C14_18 
REMARK       I    between atoms: C14_18  and  N2_20 
REMARK    5  A    between atoms: N2_20  and  C15_21 
REMARK    6  A    between atoms: C15_21  and  C16_22 
REMARK    7  A    between atoms: C15_21  and  C21_33 
REMARK       I    between atoms: C16_22  and  N3_24 
REMARK    8  A    between atoms: N3_24  and  C17_25 
REMARK    9  A    between atoms: C17_25  and  C18_26 
REMARK   10  A    between atoms: C17_25  and  C20_30 
REMARK   11  A    between atoms: C18_26  and  C19_27 
REMARK   12  A    between atoms: C19_27  and  O6_29 
REMARK   13  A    between atoms: C20_30  and  O8_32 
ROOT
HETATM    1  C1  UNL     1      -0.767  53.357 -28.155  1.00  0.00     0.015 C 
HETATM    2  C2  UNL     1      -1.395  52.752 -27.329  1.00  0.00    -0.078 C 
HETATM    3  C3  UNL     1      -2.190  52.018 -26.328  1.00  0.00     0.128 C 
HETATM    4  C4  UNL     1      -2.694  50.684 -26.888  1.00  0.00     0.052 C 
HETATM    5  C5  UNL     1      -3.056  49.897 -25.637  1.00  0.00     0.010 C 
HETATM    6  C6  UNL     1      -1.857  50.148 -24.721  1.00  0.00     0.002 C 
HETATM    7  C7  UNL     1      -2.049  49.806 -23.231  1.00  0.00    -0.004 C 
HETATM    8  C8  UNL     1      -2.371  48.324 -22.998  1.00  0.00     0.010 C 
HETATM    9  C9  UNL     1      -2.904  48.082 -21.594  1.00  0.00     0.035 C 
HETATM   10  C10 UNL     1      -4.239  48.766 -21.518  1.00  0.00    -0.069 C 
HETATM   11  C11 UNL     1      -5.361  48.035 -21.384  1.00  0.00     0.030 C 
HETATM   12  C12 UNL     1      -6.711  48.662 -21.449  1.00  0.00     0.032 C 
HETATM   13  N1  UNL     1      -7.831  48.082 -21.134  1.00  0.00    -0.271 N 
ATOM     14  H1  UNL     1      -8.746  48.526 -21.204  1.00  0.00     0.194 HD
HETATM   15  C24 UNL     1      -6.806  50.104 -21.909  1.00  0.00     0.060 C 
HETATM   16  C25 UNL     1      -5.515  50.630 -22.533  1.00  0.00     0.020 C 
HETATM   17  C26 UNL     1      -4.243  50.278 -21.722  1.00  0.00    -0.016 C 
HETATM   18  C27 UNL     1      -4.341  50.941 -20.319  1.00  0.00     0.020 C 
HETATM   19  C28 UNL     1      -2.905  50.805 -22.396  1.00  0.00     0.002 C 
HETATM   20  C29 UNL     1      -3.028  52.180 -23.079  1.00  0.00     0.007 C 
HETATM   21  C30 UNL     1      -1.742  52.564 -23.810  1.00  0.00     0.014 C 
HETATM   22  C31 UNL     1      -1.417  51.630 -25.004  1.00  0.00     0.003 C 
HETATM   23  C32 UNL     1       0.120  51.634 -25.192  1.00  0.00     0.020 C 
ENDROOT
BRANCH   3  24
HETATM   24  O1  UNL     1      -3.342  52.812 -26.036  1.00  0.00    -0.377 OA
HETATM   25  H2  UNL     1      -3.722  53.086 -26.888  1.00  0.00     0.211 HD
ENDBRANCH   3  24
BRANCH  13  26
HETATM   26  O2  UNL     1      -7.625  46.767 -20.684  1.00  0.00    -0.271 OA
BRANCH  26  27
HETATM   27  C13 UNL     1      -8.521  46.505 -19.615  1.00  0.00     0.303 C 
BRANCH  27  28
HETATM   28  C14 UNL     1      -9.922  46.219 -20.150  1.00  0.00     0.244 C 
HETATM   29  O3  UNL     1     -10.950  46.679 -19.660  1.00  0.00    -0.271 OA
HETATM   30  N2  UNL     1      -9.928  45.396 -21.263  1.00  0.00    -0.346 N 
HETATM   31  H16 UNL     1      -9.127  44.780 -21.368  1.00  0.00     0.163 HD
BRANCH  30  32
HETATM   32  C15 UNL     1     -11.182  44.870 -21.809  1.00  0.00     0.180 C 
BRANCH  32  33
HETATM   33  C16 UNL     1     -12.051  46.092 -22.184  1.00  0.00     0.241 C 
HETATM   34  O4  UNL     1     -11.737  46.864 -23.091  1.00  0.00    -0.271 OA
HETATM   35  N3  UNL     1     -13.189  46.257 -21.429  1.00  0.00    -0.344 N 
HETATM   36  H18 UNL     1     -13.258  45.743 -20.554  1.00  0.00     0.163 HD
BRANCH  35  37
HETATM   37  C17 UNL     1     -13.998  47.475 -21.526  1.00  0.00     0.192 C 
BRANCH  37  38
HETATM   38  C18 UNL     1     -15.371  47.180 -22.131  1.00  0.00     0.146 C 
BRANCH  38  39
HETATM   39  C19 UNL     1     -15.290  46.938 -23.611  1.00  0.00     0.141 C 
HETATM   40  O5  UNL     1     -15.004  45.889 -24.163  1.00  0.00    -0.650 OA
BRANCH  39  41
HETATM   41  O6  UNL     1     -15.531  48.053 -24.325  1.00  0.00    -0.776 OA
HETATM   42  H22 UNL     1     -15.420  47.783 -25.261  1.00  0.00     0.167 HD
ENDBRANCH  39  41
ENDBRANCH  38  39
ENDBRANCH  37  38
BRANCH  37  43
HETATM   43  C20 UNL     1     -14.098  48.139 -20.145  1.00  0.00     0.164 C 
HETATM   44  O7  UNL     1     -15.065  48.141 -19.398  1.00  0.00    -0.648 OA
BRANCH  43  45
HETATM   45  O8  UNL     1     -12.949  48.728 -19.751  1.00  0.00    -0.775 OA
HETATM   46  H23 UNL     1     -13.156  49.062 -18.852  1.00  0.00     0.167 HD
ENDBRANCH  43  45
ENDBRANCH  37  43
ENDBRANCH  35  37
ENDBRANCH  32  33
BRANCH  32  47
HETATM   47  C21 UNL     1     -11.846  43.913 -20.794  1.00  0.00     0.009 C 
HETATM   48  C22 UNL     1     -10.823  43.040 -20.063  1.00  0.00     0.012 C 
HETATM   49  C23 UNL     1     -12.944  43.037 -21.405  1.00  0.00     0.012 C 
ENDBRANCH  32  47
ENDBRANCH  30  32
ENDBRANCH  27  28
ENDBRANCH  26  27
ENDBRANCH  13  26
TORSDOF 13
ENDMDL
