MODEL 1
REMARK minimizedAffinity -11.1356621
REMARK  7 active torsions:
REMARK  status: ('A' for Active; 'I' for Inactive)
REMARK    1  A    between atoms: N1_2  and  C2_3 
REMARK    2  A    between atoms: C4_5  and  N4_34 
REMARK    3  A    between atoms: C5_7  and  N2_12 
REMARK    4  A    between atoms: C7_9  and  O2_10 
REMARK    5  A    between atoms: C18_24  and  O3_25 
REMARK    6  A    between atoms: C19_26  and  C20_27 
REMARK    7  A    between atoms: C27_35  and  C28_36 
ROOT
HETATM    1  C2  UNL     1      -1.242  49.479 -18.812  1.00  0.00     0.257 C 
HETATM    2  C3  UNL     1      -0.935  48.854 -20.171  1.00  0.00     0.092 C 
HETATM    3  C4  UNL     1      -1.703  49.538 -21.300  1.00  0.00     0.234 C 
HETATM    4  O1  UNL     1      -3.075  49.811 -21.042  1.00  0.00    -0.333 OA
HETATM    5  C5  UNL     1      -3.471  50.280 -19.731  1.00  0.00     0.168 C 
HETATM    6  C6  UNL     1      -4.991  49.995 -19.779  1.00  0.00     0.074 C 
HETATM    7  C7  UNL     1      -2.776  49.490 -18.577  1.00  0.00     0.209 C 
ENDROOT
BRANCH   1   8
HETATM    8  N1  UNL     1      -0.480  48.910 -17.673  1.00  0.00     0.086 N 
HETATM    9  C1  UNL     1      -0.342  49.766 -16.504  1.00  0.00     0.307 C 
HETATM   10  H4  UNL     1      -0.935  48.045 -17.374  1.00  0.00     0.316 HD
ENDBRANCH   1   8
BRANCH   7  11
HETATM   11  O2  UNL     1      -3.274  48.133 -18.561  1.00  0.00    -0.384 OA
HETATM   12  C8  UNL     1      -2.431  47.238 -19.280  1.00  0.00     0.202 C 
ENDBRANCH   7  11
BRANCH   3  13
HETATM   13  N4  UNL     1      -1.051  50.738 -21.813  1.00  0.00    -0.316 N 
HETATM   14  C26 UNL     1      -0.331  51.651 -21.062  1.00  0.00     0.048 A 
HETATM   15  C21 UNL     1       0.134  52.642 -21.946  1.00  0.00     0.004 A 
HETATM   16  C25 UNL     1      -0.051  51.689 -19.684  1.00  0.00     0.030 A 
HETATM   17  C20 UNL     1      -0.337  52.309 -23.254  1.00  0.00     0.021 A 
HETATM   18  C22 UNL     1       0.906  53.696 -21.407  1.00  0.00     0.014 A 
HETATM   19  C27 UNL     1      -1.056  51.134 -23.110  1.00  0.00     0.077 A 
HETATM   20  C23 UNL     1       1.189  53.738 -20.038  1.00  0.00     0.001 A 
HETATM   21  C24 UNL     1       0.715  52.747 -19.190  1.00  0.00     0.002 A 
BRANCH  17  22
HETATM   22  C19 UNL     1      -0.295  52.799 -24.566  1.00  0.00     0.037 A 
HETATM   23  C16 UNL     1      -0.945  52.212 -25.679  1.00  0.00    -0.012 A 
HETATM   24  C15 UNL     1      -1.710  51.041 -25.567  1.00  0.00     0.015 C 
HETATM   25  C17 UNL     1      -0.672  53.079 -26.878  1.00  0.00     0.162 A 
HETATM   26  C14 UNL     1      -2.532  50.252 -26.415  1.00  0.00     0.004 A 
HETATM   27  C28 UNL     1      -1.768  50.460 -24.315  1.00  0.00     0.077 C 
HETATM   28  C9  UNL     1      -3.080  49.219 -25.633  1.00  0.00     0.049 A 
HETATM   29  C13 UNL     1      -2.899  50.359 -27.774  1.00  0.00     0.014 A 
HETATM   30  N2  UNL     1      -2.504  49.308 -24.362  1.00  0.00    -0.308 N 
HETATM   31  C10 UNL     1      -4.028  48.335 -26.184  1.00  0.00     0.030 A 
HETATM   32  C11 UNL     1      -4.380  48.469 -27.532  1.00  0.00     0.002 A 
HETATM   33  C12 UNL     1      -3.815  49.460 -28.323  1.00  0.00     0.001 A 
HETATM   34  N3  UNL     1       0.186  54.204 -26.401  1.00  0.00    -0.366 N 
HETATM   35  C18 UNL     1       0.336  53.965 -25.138  1.00  0.00     0.148 A 
ATOM     36  H3  UNL     1       0.566  54.978 -26.944  1.00  0.00     0.162 HD
BRANCH  35  37
HETATM   37  O3  UNL     1       1.061  54.786 -24.388  1.00  0.00    -0.346 OA
HETATM   38  H22 UNL     1       1.390  55.489 -24.973  1.00  0.00     0.219 HD
ENDBRANCH  35  37
ENDBRANCH  17  22
ENDBRANCH   3  13
TORSDOF 7
ENDMDL
MODEL 2
REMARK minimizedAffinity -10.1597795
REMARK  7 active torsions:
REMARK  status: ('A' for Active; 'I' for Inactive)
REMARK    1  A    between atoms: N1_2  and  C2_3 
REMARK    2  A    between atoms: C4_5  and  N4_34 
REMARK    3  A    between atoms: C5_7  and  N2_12 
REMARK    4  A    between atoms: C7_9  and  O2_10 
REMARK    5  A    between atoms: C18_24  and  O3_25 
REMARK    6  A    between atoms: C19_26  and  C20_27 
REMARK    7  A    between atoms: C27_35  and  C28_36 
ROOT
HETATM    1  C2  UNL     1      -4.588  50.726 -23.151  1.00  0.00     0.257 C 
HETATM    2  C3  UNL     1      -3.475  49.849 -22.580  1.00  0.00     0.092 C 
HETATM    3  C4  UNL     1      -2.432  49.491 -23.637  1.00  0.00     0.234 C 
HETATM    4  O1  UNL     1      -2.942  49.093 -24.904  1.00  0.00    -0.333 OA
HETATM    5  C5  UNL     1      -4.085  49.787 -25.458  1.00  0.00     0.168 C 
HETATM    6  C6  UNL     1      -4.537  48.768 -26.531  1.00  0.00     0.074 C 
HETATM    7  C7  UNL     1      -5.204  50.039 -24.399  1.00  0.00     0.209 C 
ENDROOT
BRANCH   1   8
HETATM    8  N1  UNL     1      -5.603  51.171 -22.166  1.00  0.00     0.086 N 
HETATM    9  C1  UNL     1      -5.267  50.969 -20.764  1.00  0.00     0.307 C 
HETATM   10  H4  UNL     1      -5.777  52.169 -22.304  1.00  0.00     0.316 HD
ENDBRANCH   1   8
BRANCH   7  11
HETATM   11  O2  UNL     1      -5.792  48.775 -24.016  1.00  0.00    -0.384 OA
HETATM   12  C8  UNL     1      -5.374  48.353 -22.722  1.00  0.00     0.202 C 
ENDBRANCH   7  11
BRANCH   3  13
HETATM   13  N4  UNL     1      -1.403  50.509 -23.818  1.00  0.00    -0.316 N 
HETATM   14  C26 UNL     1      -0.748  50.796 -25.002  1.00  0.00     0.048 A 
HETATM   15  C21 UNL     1       0.148  51.847 -24.739  1.00  0.00     0.004 A 
HETATM   16  C25 UNL     1      -0.868  50.220 -26.281  1.00  0.00     0.030 A 
HETATM   17  C20 UNL     1       0.026  52.181 -23.354  1.00  0.00     0.021 A 
HETATM   18  C22 UNL     1       0.939  52.323 -25.808  1.00  0.00     0.014 A 
HETATM   19  C27 UNL     1      -0.938  51.329 -22.842  1.00  0.00     0.077 A 
HETATM   20  C23 UNL     1       0.823  51.755 -27.081  1.00  0.00     0.001 A 
HETATM   21  C24 UNL     1      -0.069  50.717 -27.312  1.00  0.00     0.002 A 
BRANCH  17  22
HETATM   22  C19 UNL     1       0.572  53.063 -22.412  1.00  0.00     0.037 A 
HETATM   23  C16 UNL     1       0.613  52.840 -21.013  1.00  0.00    -0.012 A 
HETATM   24  C15 UNL     1       0.087  51.681 -20.423  1.00  0.00     0.015 C 
HETATM   25  C17 UNL     1       1.317  54.012 -20.385  1.00  0.00     0.162 A 
HETATM   26  C14 UNL     1       0.029  51.111 -19.124  1.00  0.00     0.004 A 
HETATM   27  C28 UNL     1      -0.515  50.775 -21.274  1.00  0.00     0.077 C 
HETATM   28  C9  UNL     1      -0.597  49.857 -19.238  1.00  0.00     0.049 A 
HETATM   29  C13 UNL     1       0.503  51.534 -17.863  1.00  0.00     0.014 A 
HETATM   30  N2  UNL     1      -1.022  49.722 -20.563  1.00  0.00    -0.308 N 
HETATM   31  C10 UNL     1      -0.699  49.007 -18.119  1.00  0.00     0.030 A 
HETATM   32  C11 UNL     1      -0.213  49.448 -16.884  1.00  0.00     0.002 A 
HETATM   33  C12 UNL     1       0.371  50.701 -16.752  1.00  0.00     0.001 A 
HETATM   34  N3  UNL     1       1.676  54.939 -21.499  1.00  0.00    -0.366 N 
HETATM   35  C18 UNL     1       1.231  54.338 -22.556  1.00  0.00     0.148 A 
ATOM     36  H3  UNL     1       2.157  55.836 -21.440  1.00  0.00     0.162 HD
BRANCH  35  37
HETATM   37  O3  UNL     1       1.383  54.897 -23.751  1.00  0.00    -0.346 OA
HETATM   38  H22 UNL     1       1.842  55.743 -23.612  1.00  0.00     0.219 HD
ENDBRANCH  35  37
ENDBRANCH  17  22
ENDBRANCH   3  13
TORSDOF 7
ENDMDL
MODEL 3
REMARK minimizedAffinity -10.0933332
REMARK  7 active torsions:
REMARK  status: ('A' for Active; 'I' for Inactive)
REMARK    1  A    between atoms: N1_2  and  C2_3 
REMARK    2  A    between atoms: C4_5  and  N4_34 
REMARK    3  A    between atoms: C5_7  and  N2_12 
REMARK    4  A    between atoms: C7_9  and  O2_10 
REMARK    5  A    between atoms: C18_24  and  O3_25 
REMARK    6  A    between atoms: C19_26  and  C20_27 
REMARK    7  A    between atoms: C27_35  and  C28_36 
ROOT
HETATM    1  C2  UNL     1      -3.526  49.292 -25.373  1.00  0.00     0.257 C 
HETATM    2  C3  UNL     1      -3.496  50.655 -26.062  1.00  0.00     0.092 C 
HETATM    3  C4  UNL     1      -3.261  51.791 -25.069  1.00  0.00     0.234 C 
HETATM    4  O1  UNL     1      -4.011  51.727 -23.861  1.00  0.00    -0.333 OA
HETATM    5  C5  UNL     1      -4.203  50.446 -23.213  1.00  0.00     0.168 C 
HETATM    6  C6  UNL     1      -5.390  50.781 -22.280  1.00  0.00     0.074 C 
HETATM    7  C7  UNL     1      -4.568  49.312 -24.222  1.00  0.00     0.209 C 
ENDROOT
BRANCH   1   8
HETATM    8  N1  UNL     1      -3.683  48.133 -26.285  1.00  0.00     0.086 N 
HETATM    9  C1  UNL     1      -4.201  48.428 -27.613  1.00  0.00     0.307 C 
HETATM   10  H4  UNL     1      -2.774  47.680 -26.398  1.00  0.00     0.316 HD
ENDBRANCH   1   8
BRANCH   7  11
HETATM   11  O2  UNL     1      -5.884  49.562 -24.764  1.00  0.00    -0.384 OA
HETATM   12  C8  UNL     1      -6.755  48.446 -24.610  1.00  0.00     0.202 C 
ENDBRANCH   7  11
BRANCH   3  13
HETATM   13  N4  UNL     1      -1.854  52.023 -24.762  1.00  0.00    -0.316 N 
HETATM   14  C26 UNL     1      -0.786  51.720 -25.587  1.00  0.00     0.048 A 
HETATM   15  C21 UNL     1       0.386  52.117 -24.916  1.00  0.00     0.004 A 
HETATM   16  C25 UNL     1      -0.750  51.130 -26.865  1.00  0.00     0.030 A 
HETATM   17  C20 UNL     1      -0.005  52.659 -23.652  1.00  0.00     0.021 A 
HETATM   18  C22 UNL     1       1.622  51.908 -25.568  1.00  0.00     0.014 A 
HETATM   19  C27 UNL     1      -1.387  52.575 -23.614  1.00  0.00     0.077 A 
HETATM   20  C23 UNL     1       1.663  51.325 -26.838  1.00  0.00     0.001 A 
HETATM   21  C24 UNL     1       0.491  50.941 -27.476  1.00  0.00     0.002 A 
BRANCH  17  22
HETATM   22  C19 UNL     1       0.569  53.211 -22.500  1.00  0.00     0.037 A 
HETATM   23  C16 UNL     1       0.474  52.663 -21.196  1.00  0.00    -0.012 A 
HETATM   24  C15 UNL     1      -0.235  51.481 -20.931  1.00  0.00     0.015 C 
HETATM   25  C17 UNL     1       1.264  53.547 -20.270  1.00  0.00     0.162 A 
HETATM   26  C14 UNL     1      -0.463  50.636 -19.814  1.00  0.00     0.004 A 
HETATM   27  C28 UNL     1      -0.874  50.892 -22.004  1.00  0.00     0.077 C 
HETATM   28  C9  UNL     1      -1.226  49.541 -20.258  1.00  0.00     0.049 A 
HETATM   29  C13 UNL     1      -0.041  50.682 -18.467  1.00  0.00     0.014 A 
HETATM   30  N2  UNL     1      -1.559  49.780 -21.595  1.00  0.00    -0.308 N 
HETATM   31  C10 UNL     1      -1.518  48.475 -19.385  1.00  0.00     0.030 A 
HETATM   32  C11 UNL     1      -1.080  48.543 -18.058  1.00  0.00     0.002 A 
HETATM   33  C12 UNL     1      -0.360  49.637 -17.599  1.00  0.00     0.001 A 
HETATM   34  N3  UNL     1       1.818  54.651 -21.108  1.00  0.00    -0.366 N 
HETATM   35  C18 UNL     1       1.387  54.382 -22.298  1.00  0.00     0.148 A 
ATOM     36  H3  UNL     1       2.399  55.435 -20.811  1.00  0.00     0.162 HD
BRANCH  35  37
HETATM   37  O3  UNL     1       1.699  55.180 -23.313  1.00  0.00    -0.346 OA
HETATM   38  H22 UNL     1       2.245  55.898 -22.953  1.00  0.00     0.219 HD
ENDBRANCH  35  37
ENDBRANCH  17  22
ENDBRANCH   3  13
TORSDOF 7
ENDMDL
MODEL 4
REMARK minimizedAffinity -10.0323334
REMARK  7 active torsions:
REMARK  status: ('A' for Active; 'I' for Inactive)
REMARK    1  A    between atoms: N1_2  and  C2_3 
REMARK    2  A    between atoms: C4_5  and  N4_34 
REMARK    3  A    between atoms: C5_7  and  N2_12 
REMARK    4  A    between atoms: C7_9  and  O2_10 
REMARK    5  A    between atoms: C18_24  and  O3_25 
REMARK    6  A    between atoms: C19_26  and  C20_27 
REMARK    7  A    between atoms: C27_35  and  C28_36 
ROOT
HETATM    1  C2  UNL     1      -6.522  49.448 -23.666  1.00  0.00     0.257 C 
HETATM    2  C3  UNL     1      -6.086  50.714 -22.930  1.00  0.00     0.092 C 
HETATM    3  C4  UNL     1      -4.738  50.534 -22.235  1.00  0.00     0.234 C 
HETATM    4  O1  UNL     1      -4.564  49.314 -21.522  1.00  0.00    -0.333 OA
HETATM    5  C5  UNL     1      -5.071  48.083 -22.090  1.00  0.00     0.168 C 
HETATM    6  C6  UNL     1      -5.077  47.178 -20.835  1.00  0.00     0.074 C 
HETATM    7  C7  UNL     1      -6.504  48.243 -22.688  1.00  0.00     0.209 C 
ENDROOT
BRANCH   1   8
HETATM    8  N1  UNL     1      -7.792  49.569 -24.423  1.00  0.00     0.086 N 
HETATM    9  C1  UNL     1      -8.227  48.377 -25.137  1.00  0.00     0.307 C 
HETATM   10  H4  UNL     1      -8.536  49.833 -23.774  1.00  0.00     0.316 HD
ENDBRANCH   1   8
BRANCH   7  11
HETATM   11  O2  UNL     1      -7.445  48.476 -21.616  1.00  0.00    -0.384 OA
HETATM   12  C8  UNL     1      -7.280  49.757 -21.018  1.00  0.00     0.202 C 
ENDBRANCH   7  11
BRANCH   3  13
HETATM   13  N4  UNL     1      -3.591  50.762 -23.106  1.00  0.00    -0.316 N 
HETATM   14  C26 UNL     1      -3.275  50.029 -24.236  1.00  0.00     0.048 A 
HETATM   15  C21 UNL     1      -2.106  50.590 -24.783  1.00  0.00     0.004 A 
HETATM   16  C25 UNL     1      -3.917  48.923 -24.822  1.00  0.00     0.030 A 
HETATM   17  C20 UNL     1      -1.716  51.678 -23.942  1.00  0.00     0.021 A 
HETATM   18  C22 UNL     1      -1.582  50.007 -25.958  1.00  0.00     0.014 A 
HETATM   19  C27 UNL     1      -2.662  51.735 -22.932  1.00  0.00     0.077 A 
HETATM   20  C23 UNL     1      -2.217  48.908 -26.546  1.00  0.00     0.001 A 
HETATM   21  C24 UNL     1      -3.368  48.374 -25.983  1.00  0.00     0.002 A 
BRANCH  17  22
HETATM   22  C19 UNL     1      -0.707  52.645 -23.838  1.00  0.00     0.037 A 
HETATM   23  C16 UNL     1      -0.007  52.972 -22.651  1.00  0.00    -0.012 A 
HETATM   24  C15 UNL     1      -0.274  52.341 -21.427  1.00  0.00     0.015 C 
HETATM   25  C17 UNL     1       1.010  54.025 -22.995  1.00  0.00     0.162 A 
HETATM   26  C14 UNL     1       0.261  52.356 -20.112  1.00  0.00     0.004 A 
HETATM   27  C28 UNL     1      -1.290  51.405 -21.424  1.00  0.00     0.077 C 
HETATM   28  C9  UNL     1      -0.444  51.404 -19.354  1.00  0.00     0.049 A 
HETATM   29  C13 UNL     1       1.325  53.065 -19.511  1.00  0.00     0.014 A 
HETATM   30  N2  UNL     1      -1.471  50.907 -20.163  1.00  0.00    -0.308 N 
HETATM   31  C10 UNL     1      -0.058  51.118 -18.030  1.00  0.00     0.030 A 
HETATM   32  C11 UNL     1       1.004  51.830 -17.463  1.00  0.00     0.002 A 
HETATM   33  C12 UNL     1       1.682  52.800 -18.188  1.00  0.00     0.001 A 
HETATM   34  N3  UNL     1       0.856  54.304 -24.454  1.00  0.00    -0.366 N 
HETATM   35  C18 UNL     1      -0.097  53.508 -24.821  1.00  0.00     0.148 A 
ATOM     36  H3  UNL     1       1.379  54.965 -25.027  1.00  0.00     0.162 HD
BRANCH  35  37
HETATM   37  O3  UNL     1      -0.501  53.495 -26.086  1.00  0.00    -0.346 OA
HETATM   38  H22 UNL     1       0.036  54.150 -26.563  1.00  0.00     0.219 HD
ENDBRANCH  35  37
ENDBRANCH  17  22
ENDBRANCH   3  13
TORSDOF 7
ENDMDL
MODEL 5
REMARK minimizedAffinity -9.95857143
REMARK  7 active torsions:
REMARK  status: ('A' for Active; 'I' for Inactive)
REMARK    1  A    between atoms: N1_2  and  C2_3 
REMARK    2  A    between atoms: C4_5  and  N4_34 
REMARK    3  A    between atoms: C5_7  and  N2_12 
REMARK    4  A    between atoms: C7_9  and  O2_10 
REMARK    5  A    between atoms: C18_24  and  O3_25 
REMARK    6  A    between atoms: C19_26  and  C20_27 
REMARK    7  A    between atoms: C27_35  and  C28_36 
ROOT
HETATM    1  C2  UNL     1      -4.499  50.517 -23.767  1.00  0.00     0.257 C 
HETATM    2  C3  UNL     1      -4.880  51.467 -22.633  1.00  0.00     0.092 C 
HETATM    3  C4  UNL     1      -4.663  50.831 -21.261  1.00  0.00     0.234 C 
HETATM    4  O1  UNL     1      -5.113  49.488 -21.119  1.00  0.00    -0.333 OA
HETATM    5  C5  UNL     1      -4.911  48.555 -22.207  1.00  0.00     0.168 C 
HETATM    6  C6  UNL     1      -5.915  47.446 -21.813  1.00  0.00     0.074 C 
HETATM    7  C7  UNL     1      -5.256  49.173 -23.599  1.00  0.00     0.209 C 
ENDROOT
BRANCH   1   8
HETATM    8  N1  UNL     1      -4.618  51.090 -25.130  1.00  0.00     0.086 N 
HETATM    9  C1  UNL     1      -3.817  52.276 -25.399  1.00  0.00     0.307 C 
HETATM   10  H4  UNL     1      -4.353  50.374 -25.810  1.00  0.00     0.316 HD
ENDBRANCH   1   8
BRANCH   7  11
HETATM   11  O2  UNL     1      -6.680  49.405 -23.678  1.00  0.00    -0.384 OA
HETATM   12  C8  UNL     1      -7.246  49.736 -22.414  1.00  0.00     0.202 C 
ENDBRANCH   7  11
BRANCH   3  13
HETATM   13  N4  UNL     1      -3.295  50.946 -20.768  1.00  0.00    -0.316 N 
HETATM   14  C26 UNL     1      -2.709  50.137 -19.811  1.00  0.00     0.048 A 
HETATM   15  C21 UNL     1      -1.385  50.582 -19.642  1.00  0.00     0.004 A 
HETATM   16  C25 UNL     1      -3.231  49.053 -19.081  1.00  0.00     0.030 A 
HETATM   17  C20 UNL     1      -1.190  51.696 -20.518  1.00  0.00     0.021 A 
HETATM   18  C22 UNL     1      -0.575  49.901 -18.707  1.00  0.00     0.014 A 
HETATM   19  C27 UNL     1      -2.394  51.872 -21.180  1.00  0.00     0.077 A 
HETATM   20  C23 UNL     1      -1.087  48.822 -17.980  1.00  0.00     0.001 A 
HETATM   21  C24 UNL     1      -2.399  48.406 -18.165  1.00  0.00     0.002 A 
BRANCH  17  22
HETATM   22  C19 UNL     1      -0.197  52.617 -20.876  1.00  0.00     0.037 A 
HETATM   23  C16 UNL     1       0.359  52.756 -22.172  1.00  0.00    -0.012 A 
HETATM   24  C15 UNL     1      -0.042  51.951 -23.249  1.00  0.00     0.015 C 
HETATM   25  C17 UNL     1       1.355  53.882 -22.123  1.00  0.00     0.162 A 
HETATM   26  C14 UNL     1       0.228  51.869 -24.640  1.00  0.00     0.004 A 
HETATM   27  C28 UNL     1      -0.986  50.980 -22.976  1.00  0.00     0.077 C 
HETATM   28  C9  UNL     1      -0.585  50.851 -25.171  1.00  0.00     0.049 A 
HETATM   29  C13 UNL     1       1.060  52.610 -25.507  1.00  0.00     0.014 A 
HETATM   30  N2  UNL     1      -1.247  50.244 -24.099  1.00  0.00    -0.308 N 
HETATM   31  C10 UNL     1      -0.613  50.612 -26.559  1.00  0.00     0.030 A 
HETATM   32  C11 UNL     1       0.216  51.367 -27.396  1.00  0.00     0.002 A 
HETATM   33  C12 UNL     1       1.052  52.347 -26.878  1.00  0.00     0.001 A 
HETATM   34  N3  UNL     1       1.356  54.387 -20.718  1.00  0.00    -0.366 N 
HETATM   35  C18 UNL     1       0.484  53.640 -20.120  1.00  0.00     0.148 A 
ATOM     36  H3  UNL     1       1.913  55.144 -20.322  1.00  0.00     0.162 HD
BRANCH  35  37
HETATM   37  O3  UNL     1       0.229  53.819 -18.830  1.00  0.00    -0.346 OA
HETATM   38  H22 UNL     1       0.797  54.547 -18.526  1.00  0.00     0.219 HD
ENDBRANCH  35  37
ENDBRANCH  17  22
ENDBRANCH   3  13
TORSDOF 7
ENDMDL
MODEL 6
REMARK minimizedAffinity -9.82750797
REMARK  7 active torsions:
REMARK  status: ('A' for Active; 'I' for Inactive)
REMARK    1  A    between atoms: N1_2  and  C2_3 
REMARK    2  A    between atoms: C4_5  and  N4_34 
REMARK    3  A    between atoms: C5_7  and  N2_12 
REMARK    4  A    between atoms: C7_9  and  O2_10 
REMARK    5  A    between atoms: C18_24  and  O3_25 
REMARK    6  A    between atoms: C19_26  and  C20_27 
REMARK    7  A    between atoms: C27_35  and  C28_36 
ROOT
HETATM    1  C2  UNL     1      -3.598  51.707 -24.424  1.00  0.00     0.257 C 
HETATM    2  C3  UNL     1      -3.041  50.417 -23.824  1.00  0.00     0.092 C 
HETATM    3  C4  UNL     1      -1.514  50.390 -23.847  1.00  0.00     0.234 C 
HETATM    4  O1  UNL     1      -0.903  50.822 -25.057  1.00  0.00    -0.333 OA
HETATM    5  C5  UNL     1      -1.454  51.959 -25.764  1.00  0.00     0.168 C 
HETATM    6  C6  UNL     1      -0.805  51.765 -27.155  1.00  0.00     0.074 C 
HETATM    7  C7  UNL     1      -3.012  51.916 -25.847  1.00  0.00     0.209 C 
ENDROOT
BRANCH   1   8
HETATM    8  N1  UNL     1      -5.075  51.835 -24.375  1.00  0.00     0.086 N 
HETATM    9  C1  UNL     1      -5.776  50.847 -23.567  1.00  0.00     0.307 C 
HETATM   10  H4  UNL     1      -5.311  52.761 -24.009  1.00  0.00     0.316 HD
ENDBRANCH   1   8
BRANCH   7  11
HETATM   11  O2  UNL     1      -3.414  50.822 -26.702  1.00  0.00    -0.384 OA
HETATM   12  C8  UNL     1      -3.043  49.554 -26.171  1.00  0.00     0.202 C 
ENDBRANCH   7  11
BRANCH   3  13
HETATM   13  N4  UNL     1      -0.896  51.069 -22.714  1.00  0.00    -0.316 N 
HETATM   14  C26 UNL     1      -0.128  52.218 -22.781  1.00  0.00     0.048 A 
HETATM   15  C21 UNL     1       0.257  52.539 -21.466  1.00  0.00     0.004 A 
HETATM   16  C25 UNL     1       0.262  52.999 -23.884  1.00  0.00     0.030 A 
HETATM   17  C20 UNL     1      -0.293  51.542 -20.601  1.00  0.00     0.021 A 
HETATM   18  C22 UNL     1       1.056  53.688 -21.274  1.00  0.00     0.014 A 
HETATM   19  C27 UNL     1      -0.988  50.669 -21.421  1.00  0.00     0.077 A 
HETATM   20  C23 UNL     1       1.445  54.469 -22.367  1.00  0.00     0.001 A 
HETATM   21  C24 UNL     1       1.053  54.127 -23.654  1.00  0.00     0.002 A 
BRANCH  17  22
HETATM   22  C19 UNL     1      -0.326  51.201 -19.242  1.00  0.00     0.037 A 
HETATM   23  C16 UNL     1      -0.996  50.078 -18.697  1.00  0.00    -0.012 A 
HETATM   24  C15 UNL     1      -1.718  49.178 -19.495  1.00  0.00     0.015 C 
HETATM   25  C17 UNL     1      -0.740  50.068 -17.215  1.00  0.00     0.162 A 
HETATM   26  C14 UNL     1      -2.415  47.954 -19.309  1.00  0.00     0.004 A 
HETATM   27  C28 UNL     1      -1.780  49.463 -20.845  1.00  0.00     0.077 C 
HETATM   28  C9  UNL     1      -2.863  47.526 -20.572  1.00  0.00     0.049 A 
HETATM   29  C13 UNL     1      -2.659  47.145 -18.179  1.00  0.00     0.014 A 
HETATM   30  N2  UNL     1      -2.551  48.534 -21.489  1.00  0.00    -0.308 N 
HETATM   31  C10 UNL     1      -3.498  46.277 -20.716  1.00  0.00     0.030 A 
HETATM   32  C11 UNL     1      -3.720  45.491 -19.580  1.00  0.00     0.002 A 
HETATM   33  C12 UNL     1      -3.316  45.922 -18.324  1.00  0.00     0.001 A 
HETATM   34  N3  UNL     1       0.111  51.260 -16.923  1.00  0.00    -0.366 N 
HETATM   35  C18 UNL     1       0.282  51.809 -18.083  1.00  0.00     0.148 A 
ATOM     36  H3  UNL     1       0.473  51.568 -16.021  1.00  0.00     0.162 HD
BRANCH  35  37
HETATM   37  O3  UNL     1       1.006  52.917 -18.193  1.00  0.00    -0.346 OA
HETATM   38  H22 UNL     1       1.309  53.148 -17.299  1.00  0.00     0.219 HD
ENDBRANCH  35  37
ENDBRANCH  17  22
ENDBRANCH   3  13
TORSDOF 7
ENDMDL
MODEL 7
REMARK minimizedAffinity -9.74033642
REMARK  7 active torsions:
REMARK  status: ('A' for Active; 'I' for Inactive)
REMARK    1  A    between atoms: N1_2  and  C2_3 
REMARK    2  A    between atoms: C4_5  and  N4_34 
REMARK    3  A    between atoms: C5_7  and  N2_12 
REMARK    4  A    between atoms: C7_9  and  O2_10 
REMARK    5  A    between atoms: C18_24  and  O3_25 
REMARK    6  A    between atoms: C19_26  and  C20_27 
REMARK    7  A    between atoms: C27_35  and  C28_36 
ROOT
HETATM    1  C2  UNL     1      -5.168  49.207 -24.333  1.00  0.00     0.257 C 
HETATM    2  C3  UNL     1      -4.862  50.695 -24.173  1.00  0.00     0.092 C 
HETATM    3  C4  UNL     1      -4.653  51.081 -22.710  1.00  0.00     0.234 C 
HETATM    4  O1  UNL     1      -5.589  50.541 -21.785  1.00  0.00    -0.333 OA
HETATM    5  C5  UNL     1      -6.037  49.173 -21.945  1.00  0.00     0.168 C 
HETATM    6  C6  UNL     1      -7.309  49.191 -21.066  1.00  0.00     0.074 C 
HETATM    7  C7  UNL     1      -6.370  48.822 -23.430  1.00  0.00     0.209 C 
ENDROOT
BRANCH   1   8
HETATM    8  N1  UNL     1      -5.316  48.744 -25.734  1.00  0.00     0.086 N 
HETATM    9  C1  UNL     1      -4.079  48.463 -26.449  1.00  0.00     0.307 C 
HETATM   10  H4  UNL     1      -5.879  47.891 -25.739  1.00  0.00     0.316 HD
ENDBRANCH   1   8
BRANCH   7  11
HETATM   11  O2  UNL     1      -7.542  49.560 -23.842  1.00  0.00    -0.384 OA
HETATM   12  C8  UNL     1      -8.489  48.740 -24.520  1.00  0.00     0.202 C 
ENDBRANCH   7  11
BRANCH   3  13
HETATM   13  N4  UNL     1      -3.296  50.849 -22.228  1.00  0.00    -0.316 N 
HETATM   14  C26 UNL     1      -2.748  49.618 -21.914  1.00  0.00     0.048 A 
HETATM   15  C21 UNL     1      -1.421  49.845 -21.505  1.00  0.00     0.004 A 
HETATM   16  C25 UNL     1      -3.306  48.327 -21.954  1.00  0.00     0.030 A 
HETATM   17  C20 UNL     1      -1.185  51.254 -21.569  1.00  0.00     0.021 A 
HETATM   18  C22 UNL     1      -0.646  48.725 -21.131  1.00  0.00     0.014 A 
HETATM   19  C27 UNL     1      -2.368  51.816 -22.018  1.00  0.00     0.077 A 
HETATM   20  C23 UNL     1      -1.195  47.439 -21.170  1.00  0.00     0.001 A 
HETATM   21  C24 UNL     1      -2.509  47.246 -21.576  1.00  0.00     0.002 A 
BRANCH  17  22
HETATM   22  C19 UNL     1      -0.167  52.183 -21.317  1.00  0.00     0.037 A 
HETATM   23  C16 UNL     1       0.392  52.457 -20.044  1.00  0.00    -0.012 A 
HETATM   24  C15 UNL     1      -0.045  51.807 -18.879  1.00  0.00     0.015 C 
HETATM   25  C17 UNL     1       1.476  53.483 -20.232  1.00  0.00     0.162 A 
HETATM   26  C14 UNL     1       0.325  51.773 -17.509  1.00  0.00     0.004 A 
HETATM   27  C28 UNL     1      -1.081  50.907 -19.027  1.00  0.00     0.077 C 
HETATM   28  C9  UNL     1      -0.499  50.828 -16.870  1.00  0.00     0.049 A 
HETATM   29  C13 UNL     1       1.327  52.431 -16.763  1.00  0.00     0.014 A 
HETATM   30  N2  UNL     1      -1.433  50.386 -17.812  1.00  0.00    -0.308 N 
HETATM   31  C10 UNL     1      -0.288  50.498 -15.517  1.00  0.00     0.030 A 
HETATM   32  C11 UNL     1       0.718  51.160 -14.804  1.00  0.00     0.002 A 
HETATM   33  C12 UNL     1       1.510  52.123 -15.414  1.00  0.00     0.001 A 
HETATM   34  N3  UNL     1       1.512  53.800 -21.690  1.00  0.00    -0.366 N 
HETATM   35  C18 UNL     1       0.586  53.047 -22.193  1.00  0.00     0.148 A 
ATOM     36  H3  UNL     1       2.122  54.457 -22.176  1.00  0.00     0.162 HD
BRANCH  35  37
HETATM   37  O3  UNL     1       0.342  53.077 -23.498  1.00  0.00    -0.346 OA
HETATM   38  H22 UNL     1       0.954  53.724 -23.887  1.00  0.00     0.219 HD
ENDBRANCH  35  37
ENDBRANCH  17  22
ENDBRANCH   3  13
TORSDOF 7
ENDMDL
MODEL 8
REMARK minimizedAffinity -9.73679161
REMARK  7 active torsions:
REMARK  status: ('A' for Active; 'I' for Inactive)
REMARK    1  A    between atoms: N1_2  and  C2_3 
REMARK    2  A    between atoms: C4_5  and  N4_34 
REMARK    3  A    between atoms: C5_7  and  N2_12 
REMARK    4  A    between atoms: C7_9  and  O2_10 
REMARK    5  A    between atoms: C18_24  and  O3_25 
REMARK    6  A    between atoms: C19_26  and  C20_27 
REMARK    7  A    between atoms: C27_35  and  C28_36 
ROOT
HETATM    1  C2  UNL     1      -6.010  48.832 -22.725  1.00  0.00     0.257 C 
HETATM    2  C3  UNL     1      -6.409  50.148 -23.391  1.00  0.00     0.092 C 
HETATM    3  C4  UNL     1      -5.363  51.239 -23.171  1.00  0.00     0.234 C 
HETATM    4  O1  UNL     1      -4.845  51.347 -21.850  1.00  0.00    -0.333 OA
HETATM    5  C5  UNL     1      -4.567  50.143 -21.096  1.00  0.00     0.168 C 
HETATM    6  C6  UNL     1      -4.488  50.722 -19.664  1.00  0.00     0.074 C 
HETATM    7  C7  UNL     1      -5.702  49.079 -21.224  1.00  0.00     0.209 C 
ENDROOT
BRANCH   1   8
HETATM    8  N1  UNL     1      -6.947  47.705 -22.953  1.00  0.00     0.086 N 
HETATM    9  C1  UNL     1      -6.522  46.407 -22.447  1.00  0.00     0.307 C 
HETATM   10  H4  UNL     1      -7.843  47.931 -22.517  1.00  0.00     0.316 HD
ENDBRANCH   1   8
BRANCH   7  11
HETATM   11  O2  UNL     1      -6.890  49.567 -20.560  1.00  0.00    -0.384 OA
HETATM   12  C8  UNL     1      -7.385  48.649 -19.591  1.00  0.00     0.202 C 
ENDBRANCH   7  11
BRANCH   3  13
HETATM   13  N4  UNL     1      -4.263  51.200 -24.128  1.00  0.00    -0.316 N 
HETATM   14  C26 UNL     1      -4.008  50.180 -25.027  1.00  0.00     0.048 A 
HETATM   15  C21 UNL     1      -2.868  50.549 -25.765  1.00  0.00     0.004 A 
HETATM   16  C25 UNL     1      -4.682  48.965 -25.253  1.00  0.00     0.030 A 
HETATM   17  C20 UNL     1      -2.432  51.820 -25.277  1.00  0.00     0.021 A 
HETATM   18  C22 UNL     1      -2.409  49.657 -26.759  1.00  0.00     0.014 A 
HETATM   19  C27 UNL     1      -3.324  52.168 -24.276  1.00  0.00     0.077 A 
HETATM   20  C23 UNL     1      -3.076  48.449 -26.990  1.00  0.00     0.001 A 
HETATM   21  C24 UNL     1      -4.197  48.110 -26.244  1.00  0.00     0.002 A 
BRANCH  17  22
HETATM   22  C19 UNL     1      -1.417  52.761 -25.495  1.00  0.00     0.037 A 
HETATM   23  C16 UNL     1      -0.520  53.239 -24.507  1.00  0.00    -0.012 A 
HETATM   24  C15 UNL     1      -0.573  52.803 -23.175  1.00  0.00     0.015 C 
HETATM   25  C17 UNL     1       0.426  54.199 -25.176  1.00  0.00     0.162 A 
HETATM   26  C14 UNL     1       0.184  52.996 -21.989  1.00  0.00     0.004 A 
HETATM   27  C28 UNL     1      -1.575  51.908 -22.858  1.00  0.00     0.077 C 
HETATM   28  C9  UNL     1      -0.383  52.187 -20.987  1.00  0.00     0.049 A 
HETATM   29  C13 UNL     1       1.338  53.754 -21.693  1.00  0.00     0.014 A 
HETATM   30  N2  UNL     1      -1.536  51.607 -21.523  1.00  0.00    -0.308 N 
HETATM   31  C10 UNL     1       0.227  52.088 -19.721  1.00  0.00     0.030 A 
HETATM   32  C11 UNL     1       1.374  52.844 -19.458  1.00  0.00     0.002 A 
HETATM   33  C12 UNL     1       1.919  53.677 -20.426  1.00  0.00     0.001 A 
HETATM   34  N3  UNL     1       0.021  54.264 -26.611  1.00  0.00    -0.366 N 
HETATM   35  C18 UNL     1      -0.985  53.452 -26.686  1.00  0.00     0.148 A 
ATOM     36  H3  UNL     1       0.439  54.818 -27.358  1.00  0.00     0.162 HD
BRANCH  35  37
HETATM   37  O3  UNL     1      -1.603  53.264 -27.846  1.00  0.00    -0.346 OA
HETATM   38  H22 UNL     1      -1.154  53.825 -28.501  1.00  0.00     0.219 HD
ENDBRANCH  35  37
ENDBRANCH  17  22
ENDBRANCH   3  13
TORSDOF 7
ENDMDL
MODEL 9
REMARK minimizedAffinity -9.646492
REMARK  7 active torsions:
REMARK  status: ('A' for Active; 'I' for Inactive)
REMARK    1  A    between atoms: N1_2  and  C2_3 
REMARK    2  A    between atoms: C4_5  and  N4_34 
REMARK    3  A    between atoms: C5_7  and  N2_12 
REMARK    4  A    between atoms: C7_9  and  O2_10 
REMARK    5  A    between atoms: C18_24  and  O3_25 
REMARK    6  A    between atoms: C19_26  and  C20_27 
REMARK    7  A    between atoms: C27_35  and  C28_36 
ROOT
HETATM    1  C2  UNL     1      -0.839  50.810 -20.904  1.00  0.00     0.257 C 
HETATM    2  C3  UNL     1      -2.016  51.582 -21.499  1.00  0.00     0.092 C 
HETATM    3  C4  UNL     1      -1.593  52.438 -22.691  1.00  0.00     0.234 C 
HETATM    4  O1  UNL     1      -0.389  53.178 -22.529  1.00  0.00    -0.333 OA
HETATM    5  C5  UNL     1       0.735  52.566 -21.852  1.00  0.00     0.168 C 
HETATM    6  C6  UNL     1       1.576  53.819 -21.515  1.00  0.00     0.074 C 
HETATM    7  C7  UNL     1       0.311  51.796 -20.562  1.00  0.00     0.209 C 
ENDROOT
BRANCH   1   8
HETATM    8  N1  UNL     1      -1.186  49.903 -19.783  1.00  0.00     0.086 N 
HETATM    9  C1  UNL     1      -2.459  50.158 -19.124  1.00  0.00     0.307 C 
HETATM   10  H4  UNL     1      -1.203  48.943 -20.133  1.00  0.00     0.316 HD
ENDBRANCH   1   8
BRANCH   7  11
HETATM   11  O2  UNL     1      -0.143  52.743 -19.569  1.00  0.00    -0.384 OA
HETATM   12  C8  UNL     1       0.528  52.585 -18.323  1.00  0.00     0.202 C 
ENDBRANCH   7  11
BRANCH   3  13
HETATM   13  N4  UNL     1      -1.557  51.711 -23.955  1.00  0.00    -0.316 N 
HETATM   14  C26 UNL     1      -0.457  51.585 -24.784  1.00  0.00     0.048 A 
HETATM   15  C21 UNL     1      -0.850  50.798 -25.882  1.00  0.00     0.004 A 
HETATM   16  C25 UNL     1       0.848  52.097 -24.663  1.00  0.00     0.030 A 
HETATM   17  C20 UNL     1      -2.228  50.460 -25.698  1.00  0.00     0.021 A 
HETATM   18  C22 UNL     1       0.114  50.525 -26.878  1.00  0.00     0.014 A 
HETATM   19  C27 UNL     1      -2.606  51.047 -24.502  1.00  0.00     0.077 A 
HETATM   20  C23 UNL     1       1.413  51.029 -26.761  1.00  0.00     0.001 A 
HETATM   21  C24 UNL     1       1.773  51.806 -25.668  1.00  0.00     0.002 A 
BRANCH  17  22
HETATM   22  C19 UNL     1      -3.254  49.757 -26.342  1.00  0.00     0.037 A 
HETATM   23  C16 UNL     1      -4.152  48.861 -25.710  1.00  0.00    -0.012 A 
HETATM   24  C15 UNL     1      -4.088  48.582 -24.337  1.00  0.00     0.015 C 
HETATM   25  C17 UNL     1      -5.112  48.363 -26.756  1.00  0.00     0.162 A 
HETATM   26  C14 UNL     1      -4.841  47.835 -23.393  1.00  0.00     0.004 A 
HETATM   27  C28 UNL     1      -3.074  49.196 -23.629  1.00  0.00     0.077 C 
HETATM   28  C9  UNL     1      -4.260  48.040 -22.128  1.00  0.00     0.049 A 
HETATM   29  C13 UNL     1      -6.002  47.039 -23.498  1.00  0.00     0.014 A 
HETATM   30  N2  UNL     1      -3.103  48.800 -22.320  1.00  0.00    -0.308 N 
HETATM   31  C10 UNL     1      -4.863  47.506 -20.973  1.00  0.00     0.030 A 
HETATM   32  C11 UNL     1      -6.017  46.727 -21.105  1.00  0.00     0.002 A 
HETATM   33  C12 UNL     1      -6.576  46.485 -22.353  1.00  0.00     0.001 A 
HETATM   34  N3  UNL     1      -4.715  49.012 -28.040  1.00  0.00    -0.366 N 
HETATM   35  C18 UNL     1      -3.700  49.747 -27.714  1.00  0.00     0.148 A 
ATOM     36  H3  UNL     1      -5.142  48.901 -28.959  1.00  0.00     0.162 HD
BRANCH  35  37
HETATM   37  O3  UNL     1      -3.086  50.478 -28.637  1.00  0.00    -0.346 OA
HETATM   38  H22 UNL     1      -3.544  50.317 -29.479  1.00  0.00     0.219 HD
ENDBRANCH  35  37
ENDBRANCH  17  22
ENDBRANCH   3  13
TORSDOF 7
ENDMDL
