MODEL 1
REMARK minimizedAffinity -7.51828337
REMARK CNNscore 0.627051115
REMARK CNNaffinity 6.66795397
REMARK  9 active torsions:
REMARK  status: ('A' for Active; 'I' for Inactive)
REMARK    1  A    between atoms: C4_4  and  C5_5 
REMARK    2  A    between atoms: C5_5  and  C6_6 
REMARK    3  A    between atoms: C6_6  and  C7_7 
REMARK    4  A    between atoms: C7_7  and  C9_9 
REMARK    5  A    between atoms: C16_16  and  O1_17 
REMARK    6  A    between atoms: C25_27  and  C27_29 
REMARK    7  A    between atoms: C27_29  and  O4_31 
REMARK    8  A    between atoms: C28_32  and  O5_33 
REMARK    9  A    between atoms: C30_35  and  O6_36 
ROOT
HETATM    1  C9  UNL     1       3.612  55.382  -8.515  1.00  0.00    -0.002 C 
HETATM    2  C10 UNL     1       2.625  56.410  -7.904  1.00  0.00     0.007 C 
HETATM    3  C11 UNL     1       1.205  55.966  -8.309  1.00  0.00     0.015 C 
HETATM    4  C12 UNL     1       1.365  54.521  -8.828  1.00  0.00    -0.005 C 
HETATM    5  C13 UNL     1       1.363  53.586  -7.578  1.00  0.00     0.021 C 
HETATM    6  C14 UNL     1       0.324  53.907  -9.753  1.00  0.00     0.003 C 
HETATM    7  C15 UNL     1       0.638  52.911 -10.629  1.00  0.00    -0.030 C 
HETATM    8  C16 UNL     1       2.123  52.515 -10.836  1.00  0.00     0.149 C 
HETATM    9  C17 UNL     1       3.185  53.246  -9.980  1.00  0.00     0.047 C 
HETATM   10  C18 UNL     1       2.745  54.657  -9.588  1.00  0.00    -0.026 C 
HETATM   11  C19 UNL     1       2.638  55.516 -10.882  1.00  0.00     0.016 C 
HETATM   12  C20 UNL     1      -0.443  52.201 -11.537  1.00  0.00     0.014 C 
HETATM   13  C21 UNL     1      -0.156  52.681 -12.980  1.00  0.00     0.023 C 
HETATM   14  C22 UNL     1      -1.890  52.589 -11.076  1.00  0.00     0.029 C 
HETATM   15  C23 UNL     1      -2.004  54.086 -10.803  1.00  0.00     0.090 C 
HETATM   16  C24 UNL     1      -1.079  54.421  -9.668  1.00  0.00     0.157 C 
HETATM   17  O2  UNL     1      -1.461  55.115  -8.732  1.00  0.00    -0.293 OA
HETATM   18  C25 UNL     1      -3.077  51.943 -11.892  1.00  0.00     0.072 C 
HETATM   19  C26 UNL     1      -4.304  51.872 -10.936  1.00  0.00     0.030 C 
HETATM   20  C28 UNL     1      -2.737  50.484 -12.330  1.00  0.00     0.139 C 
HETATM   21  C29 UNL     1      -1.677  49.849 -11.440  1.00  0.00     0.065 C 
HETATM   22  C30 UNL     1      -0.351  50.634 -11.387  1.00  0.00     0.133 C 
ENDROOT
BRANCH   1  23
HETATM   23  C7  UNL     1       5.064  55.896  -8.758  1.00  0.00    -0.014 C 
HETATM   24  C8  UNL     1       5.739  56.229  -7.411  1.00  0.00     0.010 C 
BRANCH  23  25
HETATM   25  C6  UNL     1       6.083  55.084  -9.591  1.00  0.00     0.008 C 
BRANCH  25  26
HETATM   26  C5  UNL     1       7.035  54.125  -8.871  1.00  0.00     0.028 C 
BRANCH  26  27
HETATM   27  C4  UNL     1       6.625  52.679  -8.977  1.00  0.00    -0.025 C 
HETATM   28  C2  UNL     1       5.860  51.970  -8.126  1.00  0.00    -0.091 C 
HETATM   29  C1  UNL     1       5.527  50.531  -8.421  1.00  0.00     0.042 C 
HETATM   30  C3  UNL     1       5.279  52.494  -6.843  1.00  0.00     0.042 C 
ENDBRANCH  26  27
ENDBRANCH  25  26
ENDBRANCH  23  25
ENDBRANCH   1  23
BRANCH   8  31
HETATM   31  O1  UNL     1       2.336  51.131 -10.593  1.00  0.00    -0.391 OA
HETATM   32  H25 UNL     1       2.018  50.659 -11.392  1.00  0.00     0.210 HD
ENDBRANCH   8  31
BRANCH  22  33
HETATM   33  O6  UNL     1       0.612  50.112 -12.312  1.00  0.00    -0.394 OA
HETATM   34  H46 UNL     1       0.272  49.276 -12.684  1.00  0.00     0.210 HD
ENDBRANCH  22  33
BRANCH  18  35
HETATM   35  C27 UNL     1      -3.594  52.681 -13.123  1.00  0.00     0.151 C 
HETATM   36  O3  UNL     1      -3.431  52.303 -14.274  1.00  0.00    -0.649 OA
BRANCH  35  37
HETATM   37  O4  UNL     1      -4.259  53.819 -12.896  1.00  0.00    -0.776 OA
HETATM   38  H40 UNL     1      -4.491  54.152 -13.791  1.00  0.00     0.167 HD
ENDBRANCH  35  37
ENDBRANCH  18  35
BRANCH  20  39
HETATM   39  O5  UNL     1      -2.263  50.378 -13.671  1.00  0.00    -0.394 OA
HETATM   40  H42 UNL     1      -3.042  50.398 -14.259  1.00  0.00     0.210 HD
ENDBRANCH  20  39
TORSDOF 9
ENDMDL
MODEL 2
REMARK minimizedAffinity -7.87464476
REMARK CNNscore 0.575848043
REMARK CNNaffinity 6.17657232
REMARK  9 active torsions:
REMARK  status: ('A' for Active; 'I' for Inactive)
REMARK    1  A    between atoms: C4_4  and  C5_5 
REMARK    2  A    between atoms: C5_5  and  C6_6 
REMARK    3  A    between atoms: C6_6  and  C7_7 
REMARK    4  A    between atoms: C7_7  and  C9_9 
REMARK    5  A    between atoms: C16_16  and  O1_17 
REMARK    6  A    between atoms: C25_27  and  C27_29 
REMARK    7  A    between atoms: C27_29  and  O4_31 
REMARK    8  A    between atoms: C28_32  and  O5_33 
REMARK    9  A    between atoms: C30_35  and  O6_36 
ROOT
HETATM    1  C9  UNL     1     -14.055  45.628 -26.007  1.00  0.00    -0.002 C 
HETATM    2  C10 UNL     1     -14.063  44.116 -26.347  1.00  0.00     0.007 C 
HETATM    3  C11 UNL     1     -12.837  43.851 -27.245  1.00  0.00     0.015 C 
HETATM    4  C12 UNL     1     -11.959  45.112 -27.113  1.00  0.00    -0.005 C 
HETATM    5  C13 UNL     1     -11.113  44.944 -25.811  1.00  0.00     0.021 C 
HETATM    6  C14 UNL     1     -10.930  45.459 -28.180  1.00  0.00     0.003 C 
HETATM    7  C15 UNL     1     -10.529  46.743 -28.402  1.00  0.00    -0.030 C 
HETATM    8  C16 UNL     1     -11.264  47.907 -27.691  1.00  0.00     0.149 C 
HETATM    9  C17 UNL     1     -12.400  47.542 -26.706  1.00  0.00     0.047 C 
HETATM   10  C18 UNL     1     -13.083  46.223 -27.069  1.00  0.00    -0.026 C 
HETATM   11  C19 UNL     1     -13.805  46.403 -28.437  1.00  0.00     0.016 C 
HETATM   12  C20 UNL     1      -9.402  47.116 -29.445  1.00  0.00     0.014 C 
HETATM   13  C21 UNL     1     -10.131  47.826 -30.611  1.00  0.00     0.023 C 
HETATM   14  C22 UNL     1      -8.653  45.827 -29.931  1.00  0.00     0.029 C 
HETATM   15  C23 UNL     1      -9.632  44.703 -30.253  1.00  0.00     0.090 C 
HETATM   16  C24 UNL     1     -10.351  44.339 -28.986  1.00  0.00     0.157 C 
HETATM   17  O2  UNL     1     -10.480  43.165 -28.653  1.00  0.00    -0.293 OA
HETATM   18  C25 UNL     1      -7.490  46.051 -30.974  1.00  0.00     0.072 C 
HETATM   19  C26 UNL     1      -6.489  44.869 -30.805  1.00  0.00     0.030 C 
HETATM   20  C28 UNL     1      -6.710  47.372 -30.683  1.00  0.00     0.139 C 
HETATM   21  C29 UNL     1      -6.845  47.809 -29.230  1.00  0.00     0.065 C 
HETATM   22  C30 UNL     1      -8.301  48.023 -28.772  1.00  0.00     0.133 C 
ENDROOT
BRANCH   1  23
HETATM   23  C7  UNL     1     -15.438  46.247 -25.634  1.00  0.00    -0.014 C 
HETATM   24  C8  UNL     1     -16.505  45.137 -25.535  1.00  0.00     0.010 C 
BRANCH  23  25
HETATM   25  C6  UNL     1     -15.611  47.159 -24.397  1.00  0.00     0.008 C 
BRANCH  25  26
HETATM   26  C5  UNL     1     -15.431  46.559 -23.001  1.00  0.00     0.028 C 
BRANCH  26  27
HETATM   27  C4  UNL     1     -14.583  47.404 -22.088  1.00  0.00    -0.025 C 
HETATM   28  C2  UNL     1     -14.743  47.616 -20.767  1.00  0.00    -0.091 C 
HETATM   29  C1  UNL     1     -13.763  48.474 -20.010  1.00  0.00     0.042 C 
HETATM   30  C3  UNL     1     -15.861  47.060 -19.931  1.00  0.00     0.042 C 
ENDBRANCH  26  27
ENDBRANCH  25  26
ENDBRANCH  23  25
ENDBRANCH   1  23
BRANCH   8  31
HETATM   31  O1  UNL     1     -10.367  48.716 -26.942  1.00  0.00    -0.391 OA
HETATM   32  H25 UNL     1      -9.912  49.296 -27.590  1.00  0.00     0.210 HD
ENDBRANCH   8  31
BRANCH  22  33
HETATM   33  O6  UNL     1      -8.687  49.401 -28.859  1.00  0.00    -0.394 OA
HETATM   34  H46 UNL     1      -7.897  49.939 -29.058  1.00  0.00     0.210 HD
ENDBRANCH  22  33
BRANCH  18  35
HETATM   35  C27 UNL     1      -7.839  46.045 -32.459  1.00  0.00     0.151 C 
HETATM   36  O3  UNL     1      -8.767  46.670 -32.953  1.00  0.00    -0.649 OA
BRANCH  35  37
HETATM   37  O4  UNL     1      -7.067  45.290 -33.248  1.00  0.00    -0.776 OA
HETATM   38  H40 UNL     1      -7.450  45.397 -34.146  1.00  0.00     0.167 HD
ENDBRANCH  35  37
ENDBRANCH  18  35
BRANCH  20  39
HETATM   39  O5  UNL     1      -7.126  48.477 -31.483  1.00  0.00    -0.394 OA
HETATM   40  H42 UNL     1      -6.692  48.386 -32.353  1.00  0.00     0.210 HD
ENDBRANCH  20  39
TORSDOF 9
ENDMDL
MODEL 3
REMARK minimizedAffinity -7.5928278
REMARK CNNscore 0.509357214
REMARK CNNaffinity 5.63035917
REMARK  9 active torsions:
REMARK  status: ('A' for Active; 'I' for Inactive)
REMARK    1  A    between atoms: C4_4  and  C5_5 
REMARK    2  A    between atoms: C5_5  and  C6_6 
REMARK    3  A    between atoms: C6_6  and  C7_7 
REMARK    4  A    between atoms: C7_7  and  C9_9 
REMARK    5  A    between atoms: C16_16  and  O1_17 
REMARK    6  A    between atoms: C25_27  and  C27_29 
REMARK    7  A    between atoms: C27_29  and  O4_31 
REMARK    8  A    between atoms: C28_32  and  O5_33 
REMARK    9  A    between atoms: C30_35  and  O6_36 
ROOT
HETATM    1  C9  UNL     1     -12.929  47.056 -18.500  1.00  0.00    -0.002 C 
HETATM    2  C10 UNL     1     -14.105  47.357 -17.537  1.00  0.00     0.007 C 
HETATM    3  C11 UNL     1     -15.405  47.031 -18.299  1.00  0.00     0.015 C 
HETATM    4  C12 UNL     1     -14.959  46.221 -19.534  1.00  0.00    -0.005 C 
HETATM    5  C13 UNL     1     -14.792  44.739 -19.070  1.00  0.00     0.021 C 
HETATM    6  C14 UNL     1     -15.848  46.126 -20.766  1.00  0.00     0.003 C 
HETATM    7  C15 UNL     1     -15.333  45.905 -22.009  1.00  0.00    -0.030 C 
HETATM    8  C16 UNL     1     -13.798  45.940 -22.218  1.00  0.00     0.149 C 
HETATM    9  C17 UNL     1     -12.910  46.171 -20.972  1.00  0.00     0.047 C 
HETATM   10  C18 UNL     1     -13.623  46.988 -19.894  1.00  0.00    -0.026 C 
HETATM   11  C19 UNL     1     -13.882  48.418 -20.450  1.00  0.00     0.016 C 
HETATM   12  C20 UNL     1     -16.243  45.719 -23.287  1.00  0.00     0.014 C 
HETATM   13  C21 UNL     1     -16.039  46.998 -24.135  1.00  0.00     0.023 C 
HETATM   14  C22 UNL     1     -17.744  45.533 -22.874  1.00  0.00     0.029 C 
HETATM   15  C23 UNL     1     -18.153  46.538 -21.801  1.00  0.00     0.090 C 
HETATM   16  C24 UNL     1     -17.325  46.269 -20.576  1.00  0.00     0.157 C 
HETATM   17  O2  UNL     1     -17.847  46.205 -19.468  1.00  0.00    -0.293 OA
HETATM   18  C25 UNL     1     -18.770  45.327 -24.054  1.00  0.00     0.072 C 
HETATM   19  C26 UNL     1     -19.971  44.517 -23.481  1.00  0.00     0.030 C 
HETATM   20  C28 UNL     1     -18.145  44.484 -25.211  1.00  0.00     0.139 C 
HETATM   21  C29 UNL     1     -16.991  43.615 -24.729  1.00  0.00     0.065 C 
HETATM   22  C30 UNL     1     -15.847  44.405 -24.064  1.00  0.00     0.133 C 
ENDROOT
BRANCH   1  23
HETATM   23  C7  UNL     1     -11.603  47.826 -18.214  1.00  0.00    -0.014 C 
HETATM   24  C8  UNL     1     -10.803  47.109 -17.107  1.00  0.00     0.010 C 
BRANCH  23  25
HETATM   25  C6  UNL     1     -10.607  48.173 -19.346  1.00  0.00     0.008 C 
BRANCH  25  26
HETATM   26  C5  UNL     1      -9.211  47.547 -19.324  1.00  0.00     0.028 C 
BRANCH  26  27
HETATM   27  C4  UNL     1      -8.097  48.556 -19.422  1.00  0.00    -0.025 C 
HETATM   28  C2  UNL     1      -7.511  49.038 -20.534  1.00  0.00    -0.091 C 
HETATM   29  C1  UNL     1      -6.426  50.079 -20.432  1.00  0.00     0.042 C 
HETATM   30  C3  UNL     1      -7.841  48.617 -21.938  1.00  0.00     0.042 C 
ENDBRANCH  26  27
ENDBRANCH  25  26
ENDBRANCH  23  25
ENDBRANCH   1  23
BRANCH   8  31
HETATM   31  O1  UNL     1     -13.320  44.734 -22.797  1.00  0.00    -0.391 OA
HETATM   32  H25 UNL     1     -13.529  44.786 -23.755  1.00  0.00     0.210 HD
ENDBRANCH   8  31
BRANCH  22  33
HETATM   33  O6  UNL     1     -14.789  44.686 -24.990  1.00  0.00    -0.394 OA
HETATM   34  H46 UNL     1     -14.953  44.194 -25.817  1.00  0.00     0.210 HD
ENDBRANCH  22  33
BRANCH  18  35
HETATM   35  C27 UNL     1     -19.408  46.562 -24.683  1.00  0.00     0.151 C 
HETATM   36  O3  UNL     1     -18.863  47.654 -24.768  1.00  0.00    -0.649 OA
BRANCH  35  37
HETATM   37  O4  UNL     1     -20.650  46.413 -25.156  1.00  0.00    -0.776 OA
HETATM   38  H40 UNL     1     -20.894  47.301 -25.497  1.00  0.00     0.167 HD
ENDBRANCH  35  37
ENDBRANCH  18  35
BRANCH  20  39
HETATM   39  O5  UNL     1     -17.643  45.268 -26.291  1.00  0.00    -0.394 OA
HETATM   40  H42 UNL     1     -18.405  45.514 -26.851  1.00  0.00     0.210 HD
ENDBRANCH  20  39
TORSDOF 9
ENDMDL
MODEL 4
REMARK minimizedAffinity -7.56932402
REMARK CNNscore 0.503471911
REMARK CNNaffinity 6.23687172
REMARK  9 active torsions:
REMARK  status: ('A' for Active; 'I' for Inactive)
REMARK    1  A    between atoms: C4_4  and  C5_5 
REMARK    2  A    between atoms: C5_5  and  C6_6 
REMARK    3  A    between atoms: C6_6  and  C7_7 
REMARK    4  A    between atoms: C7_7  and  C9_9 
REMARK    5  A    between atoms: C16_16  and  O1_17 
REMARK    6  A    between atoms: C25_27  and  C27_29 
REMARK    7  A    between atoms: C27_29  and  O4_31 
REMARK    8  A    between atoms: C28_32  and  O5_33 
REMARK    9  A    between atoms: C30_35  and  O6_36 
ROOT
HETATM    1  C9  UNL     1      -2.143  48.582 -19.717  1.00  0.00    -0.002 C 
HETATM    2  C10 UNL     1      -2.433  47.546 -18.601  1.00  0.00     0.007 C 
HETATM    3  C11 UNL     1      -3.732  46.814 -18.992  1.00  0.00     0.015 C 
HETATM    4  C12 UNL     1      -3.970  47.175 -20.473  1.00  0.00    -0.005 C 
HETATM    5  C13 UNL     1      -3.097  46.201 -21.326  1.00  0.00     0.021 C 
HETATM    6  C14 UNL     1      -5.358  47.063 -21.088  1.00  0.00     0.003 C 
HETATM    7  C15 UNL     1      -5.736  47.825 -22.154  1.00  0.00    -0.030 C 
HETATM    8  C16 UNL     1      -4.812  48.969 -22.642  1.00  0.00     0.149 C 
HETATM    9  C17 UNL     1      -3.458  49.155 -21.917  1.00  0.00     0.047 C 
HETATM   10  C18 UNL     1      -3.509  48.688 -20.462  1.00  0.00    -0.026 C 
HETATM   11  C19 UNL     1      -4.491  49.611 -19.682  1.00  0.00     0.016 C 
HETATM   12  C20 UNL     1      -7.141  47.665 -22.860  1.00  0.00     0.014 C 
HETATM   13  C21 UNL     1      -7.941  48.937 -22.490  1.00  0.00     0.023 C 
HETATM   14  C22 UNL     1      -7.862  46.363 -22.366  1.00  0.00     0.029 C 
HETATM   15  C23 UNL     1      -7.762  46.214 -20.850  1.00  0.00     0.090 C 
HETATM   16  C24 UNL     1      -6.309  46.072 -20.495  1.00  0.00     0.157 C 
HETATM   17  O2  UNL     1      -5.936  45.196 -19.722  1.00  0.00    -0.293 OA
HETATM   18  C25 UNL     1      -9.278  46.070 -22.997  1.00  0.00     0.072 C 
HETATM   19  C26 UNL     1      -9.494  44.529 -22.941  1.00  0.00     0.030 C 
HETATM   20  C28 UNL     1      -9.331  46.497 -24.498  1.00  0.00     0.139 C 
HETATM   21  C29 UNL     1      -7.947  46.543 -25.131  1.00  0.00     0.065 C 
HETATM   22  C30 UNL     1      -6.962  47.490 -24.417  1.00  0.00     0.133 C 
ENDROOT
BRANCH   1  23
HETATM   23  C7  UNL     1      -1.272  49.806 -19.299  1.00  0.00    -0.014 C 
HETATM   24  C8  UNL     1      -0.626  49.549 -17.922  1.00  0.00     0.010 C 
BRANCH  23  25
HETATM   25  C6  UNL     1      -0.168  50.369 -20.225  1.00  0.00     0.008 C 
BRANCH  25  26
HETATM   26  C5  UNL     1      -0.575  51.178 -21.459  1.00  0.00     0.028 C 
BRANCH  26  27
HETATM   27  C4  UNL     1       0.373  52.304 -21.779  1.00  0.00    -0.025 C 
HETATM   28  C2  UNL     1       0.723  53.341 -20.995  1.00  0.00    -0.091 C 
HETATM   29  C1  UNL     1       1.722  54.359 -21.481  1.00  0.00     0.042 C 
HETATM   30  C3  UNL     1       0.187  53.603 -19.616  1.00  0.00     0.042 C 
ENDBRANCH  26  27
ENDBRANCH  25  26
ENDBRANCH  23  25
ENDBRANCH   1  23
BRANCH   8  31
HETATM   31  O1  UNL     1      -4.482  48.828 -24.017  1.00  0.00    -0.391 OA
HETATM   32  H25 UNL     1      -5.264  49.140 -24.521  1.00  0.00     0.210 HD
ENDBRANCH   8  31
BRANCH  22  33
HETATM   33  O6  UNL     1      -6.911  48.776 -25.049  1.00  0.00    -0.394 OA
HETATM   34  H46 UNL     1      -7.409  48.737 -25.888  1.00  0.00     0.210 HD
ENDBRANCH  22  33
BRANCH  18  35
HETATM   35  C27 UNL     1     -10.510  46.653 -22.312  1.00  0.00     0.151 C 
HETATM   36  O3  UNL     1     -10.509  47.152 -21.196  1.00  0.00    -0.649 OA
BRANCH  35  37
HETATM   37  O4  UNL     1     -11.655  46.593 -23.000  1.00  0.00    -0.776 OA
HETATM   38  H40 UNL     1     -12.325  46.991 -22.402  1.00  0.00     0.167 HD
ENDBRANCH  35  37
ENDBRANCH  18  35
BRANCH  20  39
HETATM   39  O5  UNL     1      -9.922  47.777 -24.714  1.00  0.00    -0.394 OA
HETATM   40  H42 UNL     1     -10.891  47.658 -24.690  1.00  0.00     0.210 HD
ENDBRANCH  20  39
TORSDOF 9
ENDMDL
MODEL 5
REMARK minimizedAffinity -7.58802032
REMARK CNNscore 0.487211317
REMARK CNNaffinity 6.03019953
REMARK  9 active torsions:
REMARK  status: ('A' for Active; 'I' for Inactive)
REMARK    1  A    between atoms: C4_4  and  C5_5 
REMARK    2  A    between atoms: C5_5  and  C6_6 
REMARK    3  A    between atoms: C6_6  and  C7_7 
REMARK    4  A    between atoms: C7_7  and  C9_9 
REMARK    5  A    between atoms: C16_16  and  O1_17 
REMARK    6  A    between atoms: C25_27  and  C27_29 
REMARK    7  A    between atoms: C27_29  and  O4_31 
REMARK    8  A    between atoms: C28_32  and  O5_33 
REMARK    9  A    between atoms: C30_35  and  O6_36 
ROOT
HETATM    1  C9  UNL     1     -15.729  43.564 -26.615  1.00  0.00    -0.002 C 
HETATM    2  C10 UNL     1     -15.207  42.285 -27.320  1.00  0.00     0.007 C 
HETATM    3  C11 UNL     1     -13.781  42.595 -27.817  1.00  0.00     0.015 C 
HETATM    4  C12 UNL     1     -13.373  43.894 -27.091  1.00  0.00    -0.005 C 
HETATM    5  C13 UNL     1     -12.852  43.481 -25.677  1.00  0.00     0.021 C 
HETATM    6  C14 UNL     1     -12.269  44.783 -27.647  1.00  0.00     0.003 C 
HETATM    7  C15 UNL     1     -12.225  46.121 -27.389  1.00  0.00    -0.030 C 
HETATM    8  C16 UNL     1     -13.419  46.802 -26.673  1.00  0.00     0.149 C 
HETATM    9  C17 UNL     1     -14.597  45.901 -26.231  1.00  0.00     0.047 C 
HETATM   10  C18 UNL     1     -14.752  44.668 -27.121  1.00  0.00    -0.026 C 
HETATM   11  C19 UNL     1     -15.146  45.139 -28.551  1.00  0.00     0.016 C 
HETATM   12  C20 UNL     1     -11.043  47.046 -27.885  1.00  0.00     0.014 C 
HETATM   13  C21 UNL     1     -11.650  47.936 -28.997  1.00  0.00     0.023 C 
HETATM   14  C22 UNL     1      -9.853  46.179 -28.424  1.00  0.00     0.029 C 
HETATM   15  C23 UNL     1     -10.350  45.049 -29.321  1.00  0.00     0.090 C 
HETATM   16  C24 UNL     1     -11.210  44.142 -28.487  1.00  0.00     0.157 C 
HETATM   17  O2  UNL     1     -11.062  42.925 -28.529  1.00  0.00    -0.293 OA
HETATM   18  C25 UNL     1      -8.595  46.974 -28.948  1.00  0.00     0.072 C 
HETATM   19  C26 UNL     1      -7.361  46.039 -28.780  1.00  0.00     0.030 C 
HETATM   20  C28 UNL     1      -8.334  48.254 -28.092  1.00  0.00     0.139 C 
HETATM   21  C29 UNL     1      -8.935  48.144 -26.697  1.00  0.00     0.065 C 
HETATM   22  C30 UNL     1     -10.454  47.885 -26.687  1.00  0.00     0.133 C 
ENDROOT
BRANCH   1  23
HETATM   23  C7  UNL     1     -17.279  43.722 -26.555  1.00  0.00    -0.014 C 
HETATM   24  C8  UNL     1     -17.651  45.202 -26.332  1.00  0.00     0.010 C 
BRANCH  23  25
HETATM   25  C6  UNL     1     -18.193  43.185 -27.682  1.00  0.00     0.008 C 
BRANCH  25  26
HETATM   26  C5  UNL     1     -18.013  43.722 -29.104  1.00  0.00     0.028 C 
BRANCH  26  27
HETATM   27  C4  UNL     1     -18.235  42.684 -30.171  1.00  0.00    -0.025 C 
HETATM   28  C2  UNL     1     -18.996  42.782 -31.278  1.00  0.00    -0.091 C 
HETATM   29  C1  UNL     1     -19.068  41.638 -32.256  1.00  0.00     0.042 C 
HETATM   30  C3  UNL     1     -19.828  43.976 -31.653  1.00  0.00     0.042 C 
ENDBRANCH  26  27
ENDBRANCH  25  26
ENDBRANCH  23  25
ENDBRANCH   1  23
BRANCH   8  31
HETATM   31  O1  UNL     1     -13.007  47.482 -25.495  1.00  0.00    -0.391 OA
HETATM   32  H25 UNL     1     -12.603  48.326 -25.791  1.00  0.00     0.210 HD
ENDBRANCH   8  31
BRANCH  22  33
HETATM   33  O6  UNL     1     -11.198  49.101 -26.532  1.00  0.00    -0.394 OA
HETATM   34  H46 UNL     1     -10.579  49.826 -26.323  1.00  0.00     0.210 HD
ENDBRANCH  22  33
BRANCH  18  35
HETATM   35  C27 UNL     1      -8.562  47.392 -30.415  1.00  0.00     0.151 C 
HETATM   36  O3  UNL     1      -9.433  47.122 -31.230  1.00  0.00    -0.649 OA
BRANCH  35  37
HETATM   37  O4  UNL     1      -7.492  48.090 -30.809  1.00  0.00    -0.776 OA
HETATM   38  H40 UNL     1      -7.638  48.247 -31.767  1.00  0.00     0.167 HD
ENDBRANCH  35  37
ENDBRANCH  18  35
BRANCH  20  39
HETATM   39  O5  UNL     1      -8.854  49.450 -28.667  1.00  0.00    -0.394 OA
HETATM   40  H42 UNL     1      -8.218  49.747 -29.347  1.00  0.00     0.210 HD
ENDBRANCH  20  39
TORSDOF 9
ENDMDL
MODEL 6
REMARK minimizedAffinity -7.70893049
REMARK CNNscore 0.472794235
REMARK CNNaffinity 6.4209938
REMARK  9 active torsions:
REMARK  status: ('A' for Active; 'I' for Inactive)
REMARK    1  A    between atoms: C4_4  and  C5_5 
REMARK    2  A    between atoms: C5_5  and  C6_6 
REMARK    3  A    between atoms: C6_6  and  C7_7 
REMARK    4  A    between atoms: C7_7  and  C9_9 
REMARK    5  A    between atoms: C16_16  and  O1_17 
REMARK    6  A    between atoms: C25_27  and  C27_29 
REMARK    7  A    between atoms: C27_29  and  O4_31 
REMARK    8  A    between atoms: C28_32  and  O5_33 
REMARK    9  A    between atoms: C30_35  and  O6_36 
ROOT
HETATM    1  C9  UNL     1      -3.590  50.809 -23.061  1.00  0.00    -0.002 C 
HETATM    2  C10 UNL     1      -4.469  50.531 -24.307  1.00  0.00     0.007 C 
HETATM    3  C11 UNL     1      -5.335  49.299 -23.980  1.00  0.00     0.015 C 
HETATM    4  C12 UNL     1      -5.209  49.108 -22.454  1.00  0.00    -0.005 C 
HETATM    5  C13 UNL     1      -6.237  50.078 -21.788  1.00  0.00     0.021 C 
HETATM    6  C14 UNL     1      -5.503  47.760 -21.811  1.00  0.00     0.003 C 
HETATM    7  C15 UNL     1      -4.930  47.386 -20.631  1.00  0.00    -0.030 C 
HETATM    8  C16 UNL     1      -3.810  48.262 -20.014  1.00  0.00     0.149 C 
HETATM    9  C17 UNL     1      -3.431  49.566 -20.753  1.00  0.00     0.047 C 
HETATM   10  C18 UNL     1      -3.684  49.476 -22.258  1.00  0.00    -0.026 C 
HETATM   11  C19 UNL     1      -2.725  48.405 -22.856  1.00  0.00     0.016 C 
HETATM   12  C20 UNL     1      -5.285  46.029 -19.904  1.00  0.00     0.014 C 
HETATM   13  C21 UNL     1      -4.029  45.136 -20.052  1.00  0.00     0.023 C 
HETATM   14  C22 UNL     1      -6.546  45.366 -20.559  1.00  0.00     0.029 C 
HETATM   15  C23 UNL     1      -6.466  45.404 -22.082  1.00  0.00     0.090 C 
HETATM   16  C24 UNL     1      -6.458  46.844 -22.509  1.00  0.00     0.157 C 
HETATM   17  O2  UNL     1      -7.186  47.233 -23.416  1.00  0.00    -0.293 OA
HETATM   18  C25 UNL     1      -7.021  44.001 -19.925  1.00  0.00     0.072 C 
HETATM   19  C26 UNL     1      -8.549  43.876 -20.201  1.00  0.00     0.030 C 
HETATM   20  C28 UNL     1      -6.821  43.992 -18.377  1.00  0.00     0.139 C 
HETATM   21  C29 UNL     1      -6.775  45.399 -17.796  1.00  0.00     0.065 C 
HETATM   22  C30 UNL     1      -5.672  46.290 -18.398  1.00  0.00     0.133 C 
ENDROOT
BRANCH   1  23
HETATM   23  C7  UNL     1      -2.262  51.585 -23.325  1.00  0.00    -0.014 C 
HETATM   24  C8  UNL     1      -1.483  51.764 -22.006  1.00  0.00     0.010 C 
BRANCH  23  25
HETATM   25  C6  UNL     1      -1.249  51.116 -24.395  1.00  0.00     0.008 C 
BRANCH  25  26
HETATM   26  C5  UNL     1      -0.707  52.134 -25.402  1.00  0.00     0.028 C 
BRANCH  26  27
HETATM   27  C4  UNL     1       0.744  51.924 -25.747  1.00  0.00    -0.025 C 
HETATM   28  C2  UNL     1       1.300  51.832 -26.970  1.00  0.00    -0.091 C 
HETATM   29  C1  UNL     1       2.789  51.654 -27.116  1.00  0.00     0.042 C 
HETATM   30  C3  UNL     1       0.548  51.884 -28.269  1.00  0.00     0.042 C 
ENDBRANCH  26  27
ENDBRANCH  25  26
ENDBRANCH  23  25
ENDBRANCH   1  23
BRANCH   8  31
HETATM   31  O1  UNL     1      -4.128  48.663 -18.688  1.00  0.00    -0.391 OA
HETATM   32  H25 UNL     1      -3.945  47.888 -18.114  1.00  0.00     0.210 HD
ENDBRANCH   8  31
BRANCH  22  33
HETATM   33  O6  UNL     1      -4.490  46.293 -17.585  1.00  0.00    -0.394 OA
HETATM   34  H46 UNL     1      -4.684  45.838 -16.743  1.00  0.00     0.210 HD
ENDBRANCH  22  33
BRANCH  18  35
HETATM   35  C27 UNL     1      -6.428  42.705 -20.470  1.00  0.00     0.151 C 
HETATM   36  O3  UNL     1      -7.033  41.911 -21.176  1.00  0.00    -0.649 OA
BRANCH  35  37
HETATM   37  O4  UNL     1      -5.163  42.442 -20.127  1.00  0.00    -0.776 OA
HETATM   38  H40 UNL     1      -4.967  41.576 -20.547  1.00  0.00     0.167 HD
ENDBRANCH  35  37
ENDBRANCH  18  35
BRANCH  20  39
HETATM   39  O5  UNL     1      -5.629  43.335 -17.951  1.00  0.00    -0.394 OA
HETATM   40  H42 UNL     1      -5.807  42.375 -17.957  1.00  0.00     0.210 HD
ENDBRANCH  20  39
TORSDOF 9
ENDMDL
MODEL 7
REMARK minimizedAffinity -8.93902969
REMARK CNNscore 0.419078857
REMARK CNNaffinity 6.52586365
REMARK  9 active torsions:
REMARK  status: ('A' for Active; 'I' for Inactive)
REMARK    1  A    between atoms: C4_4  and  C5_5 
REMARK    2  A    between atoms: C5_5  and  C6_6 
REMARK    3  A    between atoms: C6_6  and  C7_7 
REMARK    4  A    between atoms: C7_7  and  C9_9 
REMARK    5  A    between atoms: C16_16  and  O1_17 
REMARK    6  A    between atoms: C25_27  and  C27_29 
REMARK    7  A    between atoms: C27_29  and  O4_31 
REMARK    8  A    between atoms: C28_32  and  O5_33 
REMARK    9  A    between atoms: C30_35  and  O6_36 
ROOT
HETATM    1  C9  UNL     1      -0.879  50.609 -21.868  1.00  0.00    -0.002 C 
HETATM    2  C10 UNL     1      -0.164  49.963 -20.654  1.00  0.00     0.007 C 
HETATM    3  C11 UNL     1      -1.205  49.079 -19.938  1.00  0.00     0.015 C 
HETATM    4  C12 UNL     1      -2.376  48.944 -20.933  1.00  0.00    -0.005 C 
HETATM    5  C13 UNL     1      -1.999  47.797 -21.925  1.00  0.00     0.021 C 
HETATM    6  C14 UNL     1      -3.770  48.572 -20.449  1.00  0.00     0.003 C 
HETATM    7  C15 UNL     1      -4.891  48.940 -21.133  1.00  0.00    -0.030 C 
HETATM    8  C16 UNL     1      -4.770  49.919 -22.328  1.00  0.00     0.149 C 
HETATM    9  C17 UNL     1      -3.352  50.393 -22.725  1.00  0.00     0.047 C 
HETATM   10  C18 UNL     1      -2.389  50.405 -21.538  1.00  0.00    -0.026 C 
HETATM   11  C19 UNL     1      -2.878  51.474 -20.517  1.00  0.00     0.016 C 
HETATM   12  C20 UNL     1      -6.342  48.493 -20.695  1.00  0.00     0.014 C 
HETATM   13  C21 UNL     1      -7.029  49.774 -20.163  1.00  0.00     0.023 C 
HETATM   14  C22 UNL     1      -6.267  47.378 -19.596  1.00  0.00     0.029 C 
HETATM   15  C23 UNL     1      -5.231  47.718 -18.528  1.00  0.00     0.090 C 
HETATM   16  C24 UNL     1      -3.884  47.770 -19.191  1.00  0.00     0.157 C 
HETATM   17  O2  UNL     1      -2.918  47.201 -18.694  1.00  0.00    -0.293 OA
HETATM   18  C25 UNL     1      -7.649  46.828 -19.068  1.00  0.00     0.072 C 
HETATM   19  C26 UNL     1      -7.402  45.373 -18.569  1.00  0.00     0.030 C 
HETATM   20  C28 UNL     1      -8.708  46.758 -20.213  1.00  0.00     0.139 C 
HETATM   21  C29 UNL     1      -8.061  46.675 -21.589  1.00  0.00     0.065 C 
HETATM   22  C30 UNL     1      -7.114  47.848 -21.909  1.00  0.00     0.133 C 
ENDROOT
BRANCH   1  23
HETATM   23  C7  UNL     1      -0.265  51.946 -22.386  1.00  0.00    -0.014 C 
HETATM   24  C8  UNL     1       1.062  52.236 -21.655  1.00  0.00     0.010 C 
BRANCH  23  25
HETATM   25  C6  UNL     1      -0.021  52.196 -23.893  1.00  0.00     0.008 C 
BRANCH  25  26
HETATM   26  C5  UNL     1      -0.442  51.124 -24.902  1.00  0.00     0.028 C 
BRANCH  26  27
HETATM   27  C4  UNL     1      -0.124  51.484 -26.329  1.00  0.00    -0.025 C 
HETATM   28  C2  UNL     1       1.078  51.482 -26.936  1.00  0.00    -0.091 C 
HETATM   29  C1  UNL     1       1.194  51.843 -28.394  1.00  0.00     0.042 C 
HETATM   30  C3  UNL     1       2.383  51.143 -26.272  1.00  0.00     0.042 C 
ENDBRANCH  26  27
ENDBRANCH  25  26
ENDBRANCH  23  25
ENDBRANCH   1  23
BRANCH   8  31
HETATM   31  O1  UNL     1      -5.325  49.370 -23.515  1.00  0.00    -0.391 OA
HETATM   32  H25 UNL     1      -6.299  49.467 -23.435  1.00  0.00     0.210 HD
ENDBRANCH   8  31
BRANCH  22  33
HETATM   33  O6  UNL     1      -7.774  48.871 -22.666  1.00  0.00    -0.394 OA
HETATM   34  H46 UNL     1      -8.652  48.544 -22.942  1.00  0.00     0.210 HD
ENDBRANCH  22  33
BRANCH  18  35
HETATM   35  C27 UNL     1      -8.303  47.532 -17.883  1.00  0.00     0.151 C 
HETATM   36  O3  UNL     1      -9.433  47.300 -17.479  1.00  0.00    -0.649 OA
BRANCH  35  37
HETATM   37  O4  UNL     1      -7.569  48.468 -17.271  1.00  0.00    -0.776 OA
HETATM   38  H40 UNL     1      -8.153  48.815 -16.561  1.00  0.00     0.167 HD
ENDBRANCH  35  37
ENDBRANCH  18  35
BRANCH  20  39
HETATM   39  O5  UNL     1      -9.597  47.873 -20.246  1.00  0.00    -0.394 OA
HETATM   40  H42 UNL     1     -10.285  47.718 -19.569  1.00  0.00     0.210 HD
ENDBRANCH  20  39
TORSDOF 9
ENDMDL
MODEL 8
REMARK minimizedAffinity -8.15045166
REMARK CNNscore 0.371193856
REMARK CNNaffinity 5.98293829
REMARK  9 active torsions:
REMARK  status: ('A' for Active; 'I' for Inactive)
REMARK    1  A    between atoms: C4_4  and  C5_5 
REMARK    2  A    between atoms: C5_5  and  C6_6 
REMARK    3  A    between atoms: C6_6  and  C7_7 
REMARK    4  A    between atoms: C7_7  and  C9_9 
REMARK    5  A    between atoms: C16_16  and  O1_17 
REMARK    6  A    between atoms: C25_27  and  C27_29 
REMARK    7  A    between atoms: C27_29  and  O4_31 
REMARK    8  A    between atoms: C28_32  and  O5_33 
REMARK    9  A    between atoms: C30_35  and  O6_36 
ROOT
HETATM    1  C9  UNL     1     -14.120  45.456 -26.409  1.00  0.00    -0.002 C 
HETATM    2  C10 UNL     1     -14.094  43.961 -26.818  1.00  0.00     0.007 C 
HETATM    3  C11 UNL     1     -12.825  43.750 -27.669  1.00  0.00     0.015 C 
HETATM    4  C12 UNL     1     -11.969  45.013 -27.439  1.00  0.00    -0.005 C 
HETATM    5  C13 UNL     1     -11.182  44.793 -26.107  1.00  0.00     0.021 C 
HETATM    6  C14 UNL     1     -10.896  45.418 -28.440  1.00  0.00     0.003 C 
HETATM    7  C15 UNL     1     -10.500  46.715 -28.583  1.00  0.00    -0.030 C 
HETATM    8  C16 UNL     1     -11.281  47.838 -27.854  1.00  0.00     0.149 C 
HETATM    9  C17 UNL     1     -12.457  47.417 -26.942  1.00  0.00     0.047 C 
HETATM   10  C18 UNL     1     -13.107  46.110 -27.397  1.00  0.00    -0.026 C 
HETATM   11  C19 UNL     1     -13.767  46.346 -28.787  1.00  0.00     0.016 C 
HETATM   12  C20 UNL     1      -9.331  47.147 -29.554  1.00  0.00     0.014 C 
HETATM   13  C21 UNL     1     -10.014  47.904 -30.719  1.00  0.00     0.023 C 
HETATM   14  C22 UNL     1      -8.545  45.890 -30.064  1.00  0.00     0.029 C 
HETATM   15  C23 UNL     1      -9.495  44.772 -30.483  1.00  0.00     0.090 C 
HETATM   16  C24 UNL     1     -10.268  44.343 -29.268  1.00  0.00     0.157 C 
HETATM   17  O2  UNL     1     -10.398  43.154 -28.996  1.00  0.00    -0.293 OA
HETATM   18  C25 UNL     1      -7.338  46.173 -31.040  1.00  0.00     0.072 C 
HETATM   19  C26 UNL     1      -6.332  44.994 -30.879  1.00  0.00     0.030 C 
HETATM   20  C28 UNL     1      -6.588  47.487 -30.653  1.00  0.00     0.139 C 
HETATM   21  C29 UNL     1      -6.795  47.855 -29.189  1.00  0.00     0.065 C 
HETATM   22  C30 UNL     1      -8.273  48.033 -28.791  1.00  0.00     0.133 C 
ENDROOT
BRANCH   1  23
HETATM   23  C7  UNL     1     -15.525  46.044 -26.074  1.00  0.00    -0.014 C 
HETATM   24  C8  UNL     1     -16.630  45.106 -26.602  1.00  0.00     0.010 C 
BRANCH  23  25
HETATM   25  C6  UNL     1     -15.914  46.442 -24.630  1.00  0.00     0.008 C 
BRANCH  25  26
HETATM   26  C5  UNL     1     -17.324  46.974 -24.361  1.00  0.00     0.028 C 
BRANCH  26  27
HETATM   27  C4  UNL     1     -18.163  46.052 -23.515  1.00  0.00    -0.025 C 
HETATM   28  C2  UNL     1     -19.392  45.572 -23.781  1.00  0.00    -0.091 C 
HETATM   29  C1  UNL     1     -20.064  44.626 -22.820  1.00  0.00     0.042 C 
HETATM   30  C3  UNL     1     -20.207  45.905 -24.999  1.00  0.00     0.042 C 
ENDBRANCH  26  27
ENDBRANCH  25  26
ENDBRANCH  23  25
ENDBRANCH   1  23
BRANCH   8  31
HETATM   31  O1  UNL     1     -10.429  48.620 -27.028  1.00  0.00    -0.391 OA
HETATM   32  H25 UNL     1      -9.952  49.234 -27.627  1.00  0.00     0.210 HD
ENDBRANCH   8  31
BRANCH  22  33
HETATM   33  O6  UNL     1      -8.671  49.410 -28.832  1.00  0.00    -0.394 OA
HETATM   34  H46 UNL     1      -7.879  49.964 -28.969  1.00  0.00     0.210 HD
ENDBRANCH  22  33
BRANCH  18  35
HETATM   35  C27 UNL     1      -7.618  46.233 -32.539  1.00  0.00     0.151 C 
HETATM   36  O3  UNL     1      -8.703  46.514 -33.028  1.00  0.00    -0.649 OA
BRANCH  35  37
HETATM   37  O4  UNL     1      -6.592  45.944 -33.346  1.00  0.00    -0.776 OA
HETATM   38  H40 UNL     1      -6.963  46.015 -34.253  1.00  0.00     0.167 HD
ENDBRANCH  35  37
ENDBRANCH  18  35
BRANCH  20  39
HETATM   39  O5  UNL     1      -6.979  48.623 -31.419  1.00  0.00    -0.394 OA
HETATM   40  H42 UNL     1      -6.505  48.577 -32.272  1.00  0.00     0.210 HD
ENDBRANCH  20  39
TORSDOF 9
ENDMDL
MODEL 9
REMARK minimizedAffinity -8.63815117
REMARK CNNscore 0.371037513
REMARK CNNaffinity 6.46845484
REMARK  9 active torsions:
REMARK  status: ('A' for Active; 'I' for Inactive)
REMARK    1  A    between atoms: C4_4  and  C5_5 
REMARK    2  A    between atoms: C5_5  and  C6_6 
REMARK    3  A    between atoms: C6_6  and  C7_7 
REMARK    4  A    between atoms: C7_7  and  C9_9 
REMARK    5  A    between atoms: C16_16  and  O1_17 
REMARK    6  A    between atoms: C25_27  and  C27_29 
REMARK    7  A    between atoms: C27_29  and  O4_31 
REMARK    8  A    between atoms: C28_32  and  O5_33 
REMARK    9  A    between atoms: C30_35  and  O6_36 
ROOT
HETATM    1  C9  UNL     1      -1.759  51.791 -22.422  1.00  0.00    -0.002 C 
HETATM    2  C10 UNL     1      -2.276  51.319 -23.805  1.00  0.00     0.007 C 
HETATM    3  C11 UNL     1      -3.220  50.127 -23.550  1.00  0.00     0.015 C 
HETATM    4  C12 UNL     1      -3.512  50.159 -22.035  1.00  0.00    -0.005 C 
HETATM    5  C13 UNL     1      -4.663  51.191 -21.816  1.00  0.00     0.021 C 
HETATM    6  C14 UNL     1      -3.990  48.910 -21.308  1.00  0.00     0.003 C 
HETATM    7  C15 UNL     1      -3.763  48.722 -19.976  1.00  0.00    -0.030 C 
HETATM    8  C16 UNL     1      -2.834  49.701 -19.214  1.00  0.00     0.149 C 
HETATM    9  C17 UNL     1      -2.248  50.895 -20.003  1.00  0.00     0.047 C 
HETATM   10  C18 UNL     1      -2.089  50.585 -21.492  1.00  0.00    -0.026 C 
HETATM   11  C19 UNL     1      -1.024  49.460 -21.651  1.00  0.00     0.016 C 
HETATM   12  C20 UNL     1      -4.323  47.475 -19.184  1.00  0.00     0.014 C 
HETATM   13  C21 UNL     1      -3.089  46.598 -18.860  1.00  0.00     0.023 C 
HETATM   14  C22 UNL     1      -5.373  46.697 -20.051  1.00  0.00     0.029 C 
HETATM   15  C23 UNL     1      -4.886  46.519 -21.486  1.00  0.00     0.090 C 
HETATM   16  C24 UNL     1      -4.738  47.883 -22.097  1.00  0.00     0.157 C 
HETATM   17  O2  UNL     1      -5.189  48.123 -23.212  1.00  0.00    -0.293 OA
HETATM   18  C25 UNL     1      -6.025  45.426 -19.379  1.00  0.00     0.072 C 
HETATM   19  C26 UNL     1      -7.424  45.230 -20.034  1.00  0.00     0.030 C 
HETATM   20  C28 UNL     1      -6.248  45.643 -17.849  1.00  0.00     0.139 C 
HETATM   21  C29 UNL     1      -6.336  47.120 -17.486  1.00  0.00     0.065 C 
HETATM   22  C30 UNL     1      -5.095  47.940 -17.891  1.00  0.00     0.133 C 
ENDROOT
BRANCH   1  23
HETATM   23  C7  UNL     1      -0.397  52.550 -22.429  1.00  0.00    -0.014 C 
HETATM   24  C8  UNL     1       0.347  52.314 -21.098  1.00  0.00     0.010 C 
BRANCH  23  25
HETATM   25  C6  UNL     1       0.633  52.358 -23.568  1.00  0.00     0.008 C 
BRANCH  25  26
HETATM   26  C5  UNL     1       0.730  53.419 -24.668  1.00  0.00     0.028 C 
BRANCH  26  27
HETATM   27  C4  UNL     1       0.371  52.901 -26.036  1.00  0.00    -0.025 C 
HETATM   28  C2  UNL     1       1.092  52.086 -26.829  1.00  0.00    -0.091 C 
HETATM   29  C1  UNL     1       0.547  51.646 -28.163  1.00  0.00     0.042 C 
HETATM   30  C3  UNL     1       2.457  51.549 -26.506  1.00  0.00     0.042 C 
ENDBRANCH  26  27
ENDBRANCH  25  26
ENDBRANCH  23  25
ENDBRANCH   1  23
BRANCH   8  31
HETATM   31  O1  UNL     1      -3.489  50.280 -18.094  1.00  0.00    -0.391 OA
HETATM   32  H25 UNL     1      -3.481  49.600 -17.386  1.00  0.00     0.210 HD
ENDBRANCH   8  31
BRANCH  22  33
HETATM   33  O6  UNL     1      -4.176  48.084 -16.800  1.00  0.00    -0.394 OA
HETATM   34  H46 UNL     1      -4.596  47.750 -15.985  1.00  0.00     0.210 HD
ENDBRANCH  22  33
BRANCH  18  35
HETATM   35  C27 UNL     1      -5.330  44.080 -19.553  1.00  0.00     0.151 C 
HETATM   36  O3  UNL     1      -5.877  42.996 -19.407  1.00  0.00    -0.649 OA
BRANCH  35  37
HETATM   37  O4  UNL     1      -4.033  44.118 -19.877  1.00  0.00    -0.776 OA
HETATM   38  H40 UNL     1      -3.761  43.176 -19.925  1.00  0.00     0.167 HD
ENDBRANCH  35  37
ENDBRANCH  18  35
BRANCH  20  39
HETATM   39  O5  UNL     1      -5.226  45.081 -17.030  1.00  0.00    -0.394 OA
HETATM   40  H42 UNL     1      -5.412  44.125 -16.946  1.00  0.00     0.210 HD
ENDBRANCH  20  39
TORSDOF 9
ENDMDL
