MODEL 1
REMARK minimizedAffinity -7.49219084
REMARK CNNscore 0.614077628
REMARK CNNaffinity 6.6331749
REMARK  8 active torsions:
REMARK  status: ('A' for Active; 'I' for Inactive)
REMARK    1  A    between atoms: C3_3  and  O1_4 
REMARK    2  A    between atoms: N1_14  and  O2_16 
REMARK    3  A    between atoms: O2_16  and  C13_17 
REMARK    4  A    between atoms: C13_17  and  C14_18 
REMARK       I    between atoms: C14_18  and  N2_20 
REMARK    5  A    between atoms: N2_20  and  C15_21 
REMARK    6  A    between atoms: C15_21  and  C16_22 
REMARK    7  A    between atoms: C16_22  and  O4_23 
REMARK    8  A    between atoms: C16_22  and  C17_24 
ROOT
HETATM    1  C1  UNL     1      10.485  55.391  -3.427  1.00  0.00     0.015 C 
HETATM    2  C2  UNL     1       9.343  55.140  -3.698  1.00  0.00    -0.078 C 
HETATM    3  C3  UNL     1       7.945  54.816  -4.018  1.00  0.00     0.128 C 
HETATM    4  C4  UNL     1       6.979  55.209  -2.878  1.00  0.00     0.052 C 
HETATM    5  C5  UNL     1       5.643  55.569  -3.557  1.00  0.00     0.010 C 
HETATM    6  C6  UNL     1       5.862  55.282  -5.048  1.00  0.00     0.002 C 
HETATM    7  C7  UNL     1       4.935  56.008  -6.042  1.00  0.00    -0.004 C 
HETATM    8  C8  UNL     1       3.501  55.451  -5.913  1.00  0.00     0.010 C 
HETATM    9  C9  UNL     1       3.209  54.321  -6.888  1.00  0.00     0.035 C 
HETATM   10  C10 UNL     1       3.485  54.675  -8.330  1.00  0.00    -0.069 C 
HETATM   11  C11 UNL     1       2.993  53.869  -9.289  1.00  0.00     0.030 C 
HETATM   12  C12 UNL     1       3.274  54.105 -10.738  1.00  0.00     0.032 C 
HETATM   13  N1  UNL     1       3.018  53.276 -11.707  1.00  0.00    -0.271 N 
ATOM     14  H1  UNL     1       3.175  53.478 -12.694  1.00  0.00     0.194 HD
HETATM   15  C23 UNL     1       3.927  55.424 -11.097  1.00  0.00     0.060 C 
HETATM   16  C24 UNL     1       4.988  55.746 -10.045  1.00  0.00     0.020 C 
HETATM   17  C25 UNL     1       4.389  55.876  -8.611  1.00  0.00    -0.016 C 
HETATM   18  C26 UNL     1       3.556  57.190  -8.602  1.00  0.00     0.020 C 
HETATM   19  C27 UNL     1       5.514  55.962  -7.509  1.00  0.00     0.002 C 
HETATM   20  C28 UNL     1       6.619  54.878  -7.636  1.00  0.00     0.007 C 
HETATM   21  C29 UNL     1       7.781  55.011  -6.632  1.00  0.00     0.014 C 
HETATM   22  C30 UNL     1       7.364  55.563  -5.259  1.00  0.00     0.003 C 
HETATM   23  C31 UNL     1       7.700  57.079  -5.201  1.00  0.00     0.020 C 
ENDROOT
BRANCH   3  24
HETATM   24  O1  UNL     1       7.832  53.398  -4.178  1.00  0.00    -0.377 OA
HETATM   25  H2  UNL     1       8.631  53.091  -4.637  1.00  0.00     0.211 HD
ENDBRANCH   3  24
BRANCH  13  26
HETATM   26  O2  UNL     1       2.498  52.068 -11.218  1.00  0.00    -0.271 OA
BRANCH  26  27
HETATM   27  C13 UNL     1       1.532  51.548 -12.123  1.00  0.00     0.303 C 
BRANCH  27  28
HETATM   28  C14 UNL     1       2.038  51.403 -13.554  1.00  0.00     0.243 C 
HETATM   29  O3  UNL     1       3.209  51.134 -13.816  1.00  0.00    -0.271 OA
HETATM   30  N2  UNL     1       1.100  51.662 -14.528  1.00  0.00    -0.356 N 
HETATM   31  H16 UNL     1       0.137  51.712 -14.188  1.00  0.00     0.162 HD
BRANCH  30  32
HETATM   32  C15 UNL     1       1.340  51.420 -15.946  1.00  0.00     0.159 C 
BRANCH  32  33
HETATM   33  C16 UNL     1       1.283  52.693 -16.823  1.00  0.00     0.170 C 
BRANCH  33  34
HETATM   34  O4  UNL     1       2.570  53.303 -16.954  1.00  0.00    -0.389 OA
HETATM   35  H20 UNL     1       2.988  53.284 -16.064  1.00  0.00     0.210 HD
ENDBRANCH  33  34
BRANCH  33  36
HETATM   36  C17 UNL     1       0.785  52.380 -18.211  1.00  0.00    -0.013 A 
HETATM   37  C18 UNL     1       1.241  53.063 -19.341  1.00  0.00     0.013 A 
HETATM   38  C19 UNL     1       0.749  52.735 -20.600  1.00  0.00     0.025 A 
HETATM   39  C20 UNL     1      -0.195  51.721 -20.709  1.00  0.00     0.005 A 
HETATM   40  C21 UNL     1      -0.757  51.355 -22.052  1.00  0.00     0.068 C 
HETATM   41  N3  UNL     1      -0.635  51.023 -19.638  1.00  0.00    -0.369 N 
HETATM   42  C22 UNL     1      -0.145  51.370 -18.424  1.00  0.00     0.097 A 
ATOM     43  H3  UNL     1      -1.309  50.265 -19.741  1.00  0.00     0.165 HD
ENDBRANCH  33  36
ENDBRANCH  32  33
ENDBRANCH  30  32
ENDBRANCH  27  28
ENDBRANCH  26  27
ENDBRANCH  13  26
TORSDOF 8
ENDMDL
MODEL 2
REMARK minimizedAffinity -8.95518208
REMARK CNNscore 0.430239886
REMARK CNNaffinity 7.1424942
REMARK  8 active torsions:
REMARK  status: ('A' for Active; 'I' for Inactive)
REMARK    1  A    between atoms: C3_3  and  O1_4 
REMARK    2  A    between atoms: N1_14  and  O2_16 
REMARK    3  A    between atoms: O2_16  and  C13_17 
REMARK    4  A    between atoms: C13_17  and  C14_18 
REMARK       I    between atoms: C14_18  and  N2_20 
REMARK    5  A    between atoms: N2_20  and  C15_21 
REMARK    6  A    between atoms: C15_21  and  C16_22 
REMARK    7  A    between atoms: C16_22  and  O4_23 
REMARK    8  A    between atoms: C16_22  and  C17_24 
ROOT
HETATM    1  C1  UNL     1     -10.616  48.308 -19.459  1.00  0.00     0.015 C 
HETATM    2  C2  UNL     1      -9.441  48.125 -19.627  1.00  0.00    -0.078 C 
HETATM    3  C3  UNL     1      -8.000  47.899 -19.812  1.00  0.00     0.128 C 
HETATM    4  C4  UNL     1      -7.614  46.414 -19.629  1.00  0.00     0.052 C 
HETATM    5  C5  UNL     1      -6.405  46.172 -20.554  1.00  0.00     0.010 C 
HETATM    6  C6  UNL     1      -6.084  47.543 -21.161  1.00  0.00     0.002 C 
HETATM    7  C7  UNL     1      -5.296  47.553 -22.485  1.00  0.00    -0.004 C 
HETATM    8  C8  UNL     1      -3.850  47.076 -22.230  1.00  0.00     0.010 C 
HETATM    9  C9  UNL     1      -2.883  48.218 -21.963  1.00  0.00     0.035 C 
HETATM   10  C10 UNL     1      -2.882  49.279 -23.037  1.00  0.00    -0.069 C 
HETATM   11  C11 UNL     1      -1.873  50.170 -23.052  1.00  0.00     0.030 C 
HETATM   12  C12 UNL     1      -1.826  51.293 -24.036  1.00  0.00     0.032 C 
HETATM   13  N1  UNL     1      -1.012  52.306 -23.996  1.00  0.00    -0.271 N 
ATOM     14  H1  UNL     1      -0.968  53.037 -24.706  1.00  0.00     0.194 HD
HETATM   15  C23 UNL     1      -2.831  51.244 -25.170  1.00  0.00     0.060 C 
HETATM   16  C24 UNL     1      -4.171  50.761 -24.615  1.00  0.00     0.020 C 
HETATM   17  C25 UNL     1      -4.079  49.336 -23.986  1.00  0.00    -0.016 C 
HETATM   18  C26 UNL     1      -3.877  48.347 -25.170  1.00  0.00     0.020 C 
HETATM   19  C27 UNL     1      -5.395  48.954 -23.204  1.00  0.00     0.002 C 
HETATM   20  C28 UNL     1      -5.897  50.048 -22.222  1.00  0.00     0.007 C 
HETATM   21  C29 UNL     1      -7.237  49.735 -21.528  1.00  0.00     0.014 C 
HETATM   22  C30 UNL     1      -7.458  48.241 -21.235  1.00  0.00     0.003 C 
HETATM   23  C31 UNL     1      -8.374  47.641 -22.337  1.00  0.00     0.020 C 
ENDROOT
BRANCH   3  24
HETATM   24  O1  UNL     1      -7.292  48.631 -18.807  1.00  0.00    -0.377 OA
HETATM   25  H2  UNL     1      -7.748  49.481 -18.688  1.00  0.00     0.211 HD
ENDBRANCH   3  24
BRANCH  13  26
HETATM   26  O2  UNL     1      -0.205  52.264 -22.851  1.00  0.00    -0.271 OA
BRANCH  26  27
HETATM   27  C13 UNL     1       0.619  53.421 -22.788  1.00  0.00     0.303 C 
BRANCH  27  28
HETATM   28  C14 UNL     1       1.199  53.695 -21.405  1.00  0.00     0.243 C 
HETATM   29  O3  UNL     1       1.987  54.615 -21.190  1.00  0.00    -0.271 OA
HETATM   30  N2  UNL     1       0.827  52.794 -20.433  1.00  0.00    -0.356 N 
HETATM   31  H16 UNL     1       0.051  52.182 -20.696  1.00  0.00     0.162 HD
BRANCH  30  32
HETATM   32  C15 UNL     1       1.142  52.974 -19.020  1.00  0.00     0.159 C 
BRANCH  32  33
HETATM   33  C16 UNL     1       0.310  52.081 -18.069  1.00  0.00     0.170 C 
BRANCH  33  34
HETATM   34  O4  UNL     1       0.073  50.788 -18.630  1.00  0.00    -0.389 OA
HETATM   35  H20 UNL     1      -0.160  50.923 -19.576  1.00  0.00     0.210 HD
ENDBRANCH  33  34
BRANCH  33  36
HETATM   36  C17 UNL     1       1.013  51.883 -16.750  1.00  0.00    -0.013 A 
HETATM   37  C18 UNL     1       0.551  50.988 -15.783  1.00  0.00     0.013 A 
HETATM   38  C19 UNL     1       1.237  50.843 -14.582  1.00  0.00     0.025 A 
HETATM   39  C20 UNL     1       2.384  51.598 -14.368  1.00  0.00     0.005 A 
HETATM   40  C21 UNL     1       3.137  51.475 -13.076  1.00  0.00     0.068 C 
HETATM   41  N3  UNL     1       2.872  52.451 -15.295  1.00  0.00    -0.369 N 
HETATM   42  C22 UNL     1       2.179  52.579 -16.452  1.00  0.00     0.097 A 
ATOM     43  H3  UNL     1       3.730  52.978 -15.131  1.00  0.00     0.165 HD
ENDBRANCH  33  36
ENDBRANCH  32  33
ENDBRANCH  30  32
ENDBRANCH  27  28
ENDBRANCH  26  27
ENDBRANCH  13  26
TORSDOF 8
ENDMDL
MODEL 3
REMARK minimizedAffinity -7.26381969
REMARK CNNscore 0.404235035
REMARK CNNaffinity 6.60988045
REMARK  8 active torsions:
REMARK  status: ('A' for Active; 'I' for Inactive)
REMARK    1  A    between atoms: C3_3  and  O1_4 
REMARK    2  A    between atoms: N1_14  and  O2_16 
REMARK    3  A    between atoms: O2_16  and  C13_17 
REMARK    4  A    between atoms: C13_17  and  C14_18 
REMARK       I    between atoms: C14_18  and  N2_20 
REMARK    5  A    between atoms: N2_20  and  C15_21 
REMARK    6  A    between atoms: C15_21  and  C16_22 
REMARK    7  A    between atoms: C16_22  and  O4_23 
REMARK    8  A    between atoms: C16_22  and  C17_24 
ROOT
HETATM    1  C1  UNL     1      -0.910  55.242  -3.902  1.00  0.00     0.015 C 
HETATM    2  C2  UNL     1      -0.283  55.439  -4.906  1.00  0.00    -0.078 C 
HETATM    3  C3  UNL     1       0.475  55.698  -6.139  1.00  0.00     0.128 C 
HETATM    4  C4  UNL     1       1.543  56.798  -5.948  1.00  0.00     0.052 C 
HETATM    5  C5  UNL     1       2.693  56.446  -6.911  1.00  0.00     0.010 C 
HETATM    6  C6  UNL     1       2.206  55.214  -7.684  1.00  0.00     0.002 C 
HETATM    7  C7  UNL     1       3.286  54.321  -8.326  1.00  0.00    -0.004 C 
HETATM    8  C8  UNL     1       3.949  55.074  -9.499  1.00  0.00     0.010 C 
HETATM    9  C9  UNL     1       3.297  54.782 -10.841  1.00  0.00     0.035 C 
HETATM   10  C10 UNL     1       3.213  53.311 -11.170  1.00  0.00    -0.069 C 
HETATM   11  C11 UNL     1       2.929  52.956 -12.437  1.00  0.00     0.030 C 
HETATM   12  C12 UNL     1       2.760  51.526 -12.837  1.00  0.00     0.032 C 
HETATM   13  N1  UNL     1       2.290  51.105 -13.974  1.00  0.00    -0.271 N 
ATOM     14  H1  UNL     1       2.227  50.124 -14.243  1.00  0.00     0.194 HD
HETATM   15  C23 UNL     1       3.163  50.483 -11.814  1.00  0.00     0.060 C 
HETATM   16  C24 UNL     1       2.712  50.955 -10.431  1.00  0.00     0.020 C 
HETATM   17  C25 UNL     1       3.361  52.312 -10.021  1.00  0.00    -0.016 C 
HETATM   18  C26 UNL     1       4.865  52.016  -9.756  1.00  0.00     0.020 C 
HETATM   19  C27 UNL     1       2.707  52.906  -8.715  1.00  0.00     0.002 C 
HETATM   20  C28 UNL     1       1.153  52.927  -8.730  1.00  0.00     0.007 C 
HETATM   21  C29 UNL     1       0.495  53.406  -7.421  1.00  0.00     0.014 C 
HETATM   22  C30 UNL     1       1.298  54.483  -6.673  1.00  0.00     0.003 C 
HETATM   23  C31 UNL     1       2.102  53.810  -5.527  1.00  0.00     0.020 C 
ENDROOT
BRANCH   3  24
HETATM   24  O1  UNL     1      -0.431  56.178  -7.137  1.00  0.00    -0.377 OA
HETATM   25  H2  UNL     1      -1.260  55.679  -7.044  1.00  0.00     0.211 HD
ENDBRANCH   3  24
BRANCH  13  26
HETATM   26  O2  UNL     1       1.879  52.175 -14.781  1.00  0.00    -0.271 OA
BRANCH  26  27
HETATM   27  C13 UNL     1       2.268  51.950 -16.130  1.00  0.00     0.303 C 
BRANCH  27  28
HETATM   28  C14 UNL     1       1.106  51.947 -17.118  1.00  0.00     0.243 C 
HETATM   29  O3  UNL     1       0.251  51.063 -17.128  1.00  0.00    -0.271 OA
HETATM   30  N2  UNL     1       1.128  52.970 -18.039  1.00  0.00    -0.356 N 
HETATM   31  H16 UNL     1       1.789  53.720 -17.825  1.00  0.00     0.162 HD
BRANCH  30  32
HETATM   32  C15 UNL     1       0.027  53.236 -18.958  1.00  0.00     0.159 C 
BRANCH  32  33
HETATM   33  C16 UNL     1       0.420  53.164 -20.452  1.00  0.00     0.170 C 
BRANCH  33  34
HETATM   34  O4  UNL     1       1.823  52.946 -20.621  1.00  0.00    -0.389 OA
HETATM   35  H20 UNL     1       2.283  53.526 -19.974  1.00  0.00     0.210 HD
ENDBRANCH  33  34
BRANCH  33  36
HETATM   36  C17 UNL     1      -0.303  52.042 -21.155  1.00  0.00    -0.013 A 
HETATM   37  C18 UNL     1      -0.883  52.200 -22.415  1.00  0.00     0.013 A 
HETATM   38  C19 UNL     1      -1.539  51.133 -23.020  1.00  0.00     0.025 A 
HETATM   39  C20 UNL     1      -1.600  49.916 -22.352  1.00  0.00     0.005 A 
HETATM   40  C21 UNL     1      -2.313  48.750 -22.971  1.00  0.00     0.068 C 
HETATM   41  N3  UNL     1      -1.023  49.724 -21.144  1.00  0.00    -0.369 N 
HETATM   42  C22 UNL     1      -0.400  50.783 -20.575  1.00  0.00     0.097 A 
ATOM     43  H3  UNL     1      -1.056  48.816 -20.680  1.00  0.00     0.165 HD
ENDBRANCH  33  36
ENDBRANCH  32  33
ENDBRANCH  30  32
ENDBRANCH  27  28
ENDBRANCH  26  27
ENDBRANCH  13  26
TORSDOF 8
ENDMDL
MODEL 4
REMARK minimizedAffinity -7.45679188
REMARK CNNscore 0.356959313
REMARK CNNaffinity 5.99416399
REMARK  8 active torsions:
REMARK  status: ('A' for Active; 'I' for Inactive)
REMARK    1  A    between atoms: C3_3  and  O1_4 
REMARK    2  A    between atoms: N1_14  and  O2_16 
REMARK    3  A    between atoms: O2_16  and  C13_17 
REMARK    4  A    between atoms: C13_17  and  C14_18 
REMARK       I    between atoms: C14_18  and  N2_20 
REMARK    5  A    between atoms: N2_20  and  C15_21 
REMARK    6  A    between atoms: C15_21  and  C16_22 
REMARK    7  A    between atoms: C16_22  and  O4_23 
REMARK    8  A    between atoms: C16_22  and  C17_24 
ROOT
HETATM    1  C1  UNL     1       0.012  50.178 -20.718  1.00  0.00     0.015 C 
HETATM    2  C2  UNL     1      -1.143  50.291 -21.029  1.00  0.00    -0.078 C 
HETATM    3  C3  UNL     1      -2.555  50.449 -21.404  1.00  0.00     0.128 C 
HETATM    4  C4  UNL     1      -2.728  51.269 -22.702  1.00  0.00     0.052 C 
HETATM    5  C5  UNL     1      -4.001  50.729 -23.381  1.00  0.00     0.010 C 
HETATM    6  C6  UNL     1      -4.562  49.685 -22.407  1.00  0.00     0.002 C 
HETATM    7  C7  UNL     1      -5.501  48.615 -22.996  1.00  0.00    -0.004 C 
HETATM    8  C8  UNL     1      -6.834  49.271 -23.416  1.00  0.00     0.010 C 
HETATM    9  C9  UNL     1      -7.897  49.213 -22.330  1.00  0.00     0.035 C 
HETATM   10  C10 UNL     1      -8.162  47.821 -21.811  1.00  0.00    -0.069 C 
HETATM   11  C11 UNL     1      -9.268  47.616 -21.073  1.00  0.00     0.030 C 
HETATM   12  C12 UNL     1      -9.575  46.287 -20.463  1.00  0.00     0.032 C 
HETATM   13  N1  UNL     1     -10.498  46.051 -19.578  1.00  0.00    -0.271 N 
ATOM     14  H1  UNL     1     -10.721  45.126 -19.210  1.00  0.00     0.194 HD
HETATM   15  C23 UNL     1      -8.718  45.120 -20.911  1.00  0.00     0.060 C 
HETATM   16  C24 UNL     1      -7.271  45.595 -21.035  1.00  0.00     0.020 C 
HETATM   17  C25 UNL     1      -7.106  46.747 -22.075  1.00  0.00    -0.016 C 
HETATM   18  C26 UNL     1      -7.327  46.107 -23.475  1.00  0.00     0.020 C 
HETATM   19  C27 UNL     1      -5.667  47.391 -22.015  1.00  0.00     0.002 C 
HETATM   20  C28 UNL     1      -5.190  47.758 -20.583  1.00  0.00     0.007 C 
HETATM   21  C29 UNL     1      -3.747  48.292 -20.494  1.00  0.00     0.014 C 
HETATM   22  C30 UNL     1      -3.306  49.116 -21.716  1.00  0.00     0.003 C 
HETATM   23  C31 UNL     1      -2.464  48.212 -22.658  1.00  0.00     0.020 C 
ENDROOT
BRANCH   3  24
HETATM   24  O1  UNL     1      -3.221  51.179 -20.369  1.00  0.00    -0.377 OA
HETATM   25  H2  UNL     1      -2.864  50.872 -19.519  1.00  0.00     0.211 HD
ENDBRANCH   3  24
BRANCH  13  26
HETATM   26  O2  UNL     1     -11.148  47.233 -19.194  1.00  0.00    -0.271 OA
BRANCH  26  27
HETATM   27  C13 UNL     1     -11.517  47.168 -17.823  1.00  0.00     0.303 C 
BRANCH  27  28
HETATM   28  C14 UNL     1     -13.013  47.332 -17.574  1.00  0.00     0.243 C 
HETATM   29  O3  UNL     1     -13.502  47.292 -16.446  1.00  0.00    -0.271 OA
HETATM   30  N2  UNL     1     -13.777  47.460 -18.711  1.00  0.00    -0.356 N 
HETATM   31  H16 UNL     1     -13.243  47.641 -19.564  1.00  0.00     0.162 HD
BRANCH  30  32
HETATM   32  C15 UNL     1     -15.198  47.789 -18.681  1.00  0.00     0.159 C 
BRANCH  32  33
HETATM   33  C16 UNL     1     -15.994  47.263 -19.898  1.00  0.00     0.170 C 
BRANCH  33  34
HETATM   34  O4  UNL     1     -15.187  46.440 -20.744  1.00  0.00    -0.389 OA
HETATM   35  H20 UNL     1     -14.314  46.885 -20.828  1.00  0.00     0.210 HD
ENDBRANCH  33  34
BRANCH  33  36
HETATM   36  C17 UNL     1     -17.181  46.440 -19.462  1.00  0.00    -0.013 A 
HETATM   37  C18 UNL     1     -18.474  46.965 -19.405  1.00  0.00     0.013 A 
HETATM   38  C19 UNL     1     -19.534  46.164 -18.995  1.00  0.00     0.025 A 
HETATM   39  C20 UNL     1     -19.283  44.841 -18.651  1.00  0.00     0.005 A 
HETATM   40  C21 UNL     1     -20.403  43.955 -18.191  1.00  0.00     0.068 C 
HETATM   41  N3  UNL     1     -18.047  44.296 -18.724  1.00  0.00    -0.369 N 
HETATM   42  C22 UNL     1     -17.033  45.102 -19.117  1.00  0.00     0.097 A 
ATOM     43  H3  UNL     1     -17.886  43.316 -18.492  1.00  0.00     0.165 HD
ENDBRANCH  33  36
ENDBRANCH  32  33
ENDBRANCH  30  32
ENDBRANCH  27  28
ENDBRANCH  26  27
ENDBRANCH  13  26
TORSDOF 8
ENDMDL
MODEL 5
REMARK minimizedAffinity -7.80123043
REMARK CNNscore 0.348127961
REMARK CNNaffinity 6.54214144
REMARK  8 active torsions:
REMARK  status: ('A' for Active; 'I' for Inactive)
REMARK    1  A    between atoms: C3_3  and  O1_4 
REMARK    2  A    between atoms: N1_14  and  O2_16 
REMARK    3  A    between atoms: O2_16  and  C13_17 
REMARK    4  A    between atoms: C13_17  and  C14_18 
REMARK       I    between atoms: C14_18  and  N2_20 
REMARK    5  A    between atoms: N2_20  and  C15_21 
REMARK    6  A    between atoms: C15_21  and  C16_22 
REMARK    7  A    between atoms: C16_22  and  O4_23 
REMARK    8  A    between atoms: C16_22  and  C17_24 
ROOT
HETATM    1  C1  UNL     1       0.340  55.439 -25.245  1.00  0.00     0.015 C 
HETATM    2  C2  UNL     1      -0.146  54.403 -25.608  1.00  0.00    -0.078 C 
HETATM    3  C3  UNL     1      -0.739  53.141 -26.073  1.00  0.00     0.128 C 
HETATM    4  C4  UNL     1       0.309  52.202 -26.712  1.00  0.00     0.052 C 
HETATM    5  C5  UNL     1      -0.176  50.767 -26.429  1.00  0.00     0.010 C 
HETATM    6  C6  UNL     1      -1.526  50.933 -25.721  1.00  0.00     0.002 C 
HETATM    7  C7  UNL     1      -2.012  49.752 -24.858  1.00  0.00    -0.004 C 
HETATM    8  C8  UNL     1      -2.380  48.562 -25.770  1.00  0.00     0.010 C 
HETATM    9  C9  UNL     1      -3.852  48.535 -26.150  1.00  0.00     0.035 C 
HETATM   10  C10 UNL     1      -4.787  48.570 -24.966  1.00  0.00    -0.069 C 
HETATM   11  C11 UNL     1      -6.081  48.258 -25.166  1.00  0.00     0.030 C 
HETATM   12  C12 UNL     1      -7.090  48.332 -24.066  1.00  0.00     0.032 C 
HETATM   13  N1  UNL     1      -8.380  48.250 -24.210  1.00  0.00    -0.271 N 
ATOM     14  H1  UNL     1      -9.047  48.256 -23.439  1.00  0.00     0.194 HD
HETATM   15  C23 UNL     1      -6.552  48.535 -22.664  1.00  0.00     0.060 C 
HETATM   16  C24 UNL     1      -5.401  49.539 -22.722  1.00  0.00     0.020 C 
HETATM   17  C25 UNL     1      -4.227  49.052 -23.627  1.00  0.00    -0.016 C 
HETATM   18  C26 UNL     1      -3.551  47.873 -22.870  1.00  0.00     0.020 C 
HETATM   19  C27 UNL     1      -3.165  50.191 -23.876  1.00  0.00     0.002 C 
HETATM   20  C28 UNL     1      -3.776  51.552 -24.311  1.00  0.00     0.007 C 
HETATM   21  C29 UNL     1      -2.763  52.704 -24.456  1.00  0.00     0.014 C 
HETATM   22  C30 UNL     1      -1.376  52.261 -24.951  1.00  0.00     0.003 C 
HETATM   23  C31 UNL     1      -0.420  52.139 -23.732  1.00  0.00     0.020 C 
ENDROOT
BRANCH   3  24
HETATM   24  O1  UNL     1      -1.697  53.437 -27.093  1.00  0.00    -0.377 OA
HETATM   25  H2  UNL     1      -2.162  54.250 -26.831  1.00  0.00     0.211 HD
ENDBRANCH   3  24
BRANCH  13  26
HETATM   26  O2  UNL     1      -8.735  48.153 -25.563  1.00  0.00    -0.271 OA
BRANCH  26  27
HETATM   27  C13 UNL     1      -8.723  46.793 -25.977  1.00  0.00     0.303 C 
BRANCH  27  28
HETATM   28  C14 UNL     1      -9.781  46.454 -27.022  1.00  0.00     0.243 C 
HETATM   29  O3  UNL     1      -9.939  47.124 -28.042  1.00  0.00    -0.271 OA
HETATM   30  N2  UNL     1     -10.586  45.384 -26.705  1.00  0.00    -0.356 N 
HETATM   31  H16 UNL     1     -10.251  44.818 -25.921  1.00  0.00     0.162 HD
BRANCH  30  32
HETATM   32  C15 UNL     1     -11.543  44.803 -27.641  1.00  0.00     0.159 C 
BRANCH  32  33
HETATM   33  C16 UNL     1     -10.903  43.901 -28.721  1.00  0.00     0.170 C 
BRANCH  33  34
HETATM   34  O4  UNL     1      -9.477  44.011 -28.726  1.00  0.00    -0.389 OA
HETATM   35  H20 UNL     1      -9.262  44.965 -28.630  1.00  0.00     0.210 HD
ENDBRANCH  33  34
BRANCH  33  36
HETATM   36  C17 UNL     1     -11.247  42.450 -28.497  1.00  0.00    -0.013 A 
HETATM   37  C18 UNL     1     -12.011  41.714 -29.406  1.00  0.00     0.013 A 
HETATM   38  C19 UNL     1     -12.301  40.377 -29.151  1.00  0.00     0.025 A 
HETATM   39  C20 UNL     1     -11.816  39.795 -27.987  1.00  0.00     0.005 A 
HETATM   40  C21 UNL     1     -12.124  38.359 -27.676  1.00  0.00     0.068 C 
HETATM   41  N3  UNL     1     -11.050  40.473 -27.102  1.00  0.00    -0.369 N 
HETATM   42  C22 UNL     1     -10.792  41.775 -27.371  1.00  0.00     0.097 A 
ATOM     43  H3  UNL     1     -10.682  40.022 -26.265  1.00  0.00     0.165 HD
ENDBRANCH  33  36
ENDBRANCH  32  33
ENDBRANCH  30  32
ENDBRANCH  27  28
ENDBRANCH  26  27
ENDBRANCH  13  26
TORSDOF 8
ENDMDL
MODEL 6
REMARK minimizedAffinity -9.03329849
REMARK CNNscore 0.341465682
REMARK CNNaffinity 5.8472743
REMARK  8 active torsions:
REMARK  status: ('A' for Active; 'I' for Inactive)
REMARK    1  A    between atoms: C3_3  and  O1_4 
REMARK    2  A    between atoms: N1_14  and  O2_16 
REMARK    3  A    between atoms: O2_16  and  C13_17 
REMARK    4  A    between atoms: C13_17  and  C14_18 
REMARK       I    between atoms: C14_18  and  N2_20 
REMARK    5  A    between atoms: N2_20  and  C15_21 
REMARK    6  A    between atoms: C15_21  and  C16_22 
REMARK    7  A    between atoms: C16_22  and  O4_23 
REMARK    8  A    between atoms: C16_22  and  C17_24 
ROOT
HETATM    1  C1  UNL     1       8.631  61.822 -34.187  1.00  0.00     0.015 C 
HETATM    2  C2  UNL     1       7.551  62.285 -34.436  1.00  0.00    -0.078 C 
HETATM    3  C3  UNL     1       6.221  62.832 -34.738  1.00  0.00     0.128 C 
HETATM    4  C4  UNL     1       5.329  62.932 -33.480  1.00  0.00     0.052 C 
HETATM    5  C5  UNL     1       4.400  64.139 -33.711  1.00  0.00     0.010 C 
HETATM    6  C6  UNL     1       4.726  64.630 -35.127  1.00  0.00     0.002 C 
HETATM    7  C7  UNL     1       4.367  66.092 -35.459  1.00  0.00    -0.004 C 
HETATM    8  C8  UNL     1       2.832  66.247 -35.515  1.00  0.00     0.010 C 
HETATM    9  C9  UNL     1       2.265  66.077 -36.916  1.00  0.00     0.035 C 
HETATM   10  C10 UNL     1       2.901  66.981 -37.944  1.00  0.00    -0.069 C 
HETATM   11  C11 UNL     1       2.288  67.124 -39.133  1.00  0.00     0.030 C 
HETATM   12  C12 UNL     1       2.880  67.944 -40.233  1.00  0.00     0.032 C 
HETATM   13  N1  UNL     1       2.469  67.973 -41.466  1.00  0.00    -0.271 N 
ATOM     14  H1  UNL     1       2.859  68.576 -42.190  1.00  0.00     0.194 HD
HETATM   15  C23 UNL     1       4.074  68.805 -39.871  1.00  0.00     0.060 C 
HETATM   16  C24 UNL     1       4.979  68.013 -38.927  1.00  0.00     0.020 C 
HETATM   17  C25 UNL     1       4.256  67.605 -37.607  1.00  0.00    -0.016 C 
HETATM   18  C26 UNL     1       4.058  68.916 -36.793  1.00  0.00     0.020 C 
HETATM   19  C27 UNL     1       5.112  66.587 -36.758  1.00  0.00     0.002 C 
HETATM   20  C28 UNL     1       5.670  65.386 -37.571  1.00  0.00     0.007 C 
HETATM   21  C29 UNL     1       6.594  64.439 -36.783  1.00  0.00     0.014 C 
HETATM   22  C30 UNL     1       6.221  64.290 -35.298  1.00  0.00     0.003 C 
HETATM   23  C31 UNL     1       7.143  65.209 -34.450  1.00  0.00     0.020 C 
ENDROOT
BRANCH   3  24
HETATM   24  O1  UNL     1       5.556  61.941 -35.639  1.00  0.00    -0.377 OA
HETATM   25  H2  UNL     1       6.220  61.613 -36.269  1.00  0.00     0.211 HD
ENDBRANCH   3  24
BRANCH  13  26
HETATM   26  O2  UNL     1       1.420  67.066 -41.673  1.00  0.00    -0.271 OA
BRANCH  26  27
HETATM   27  C13 UNL     1       0.205  67.593 -41.155  1.00  0.00     0.303 C 
BRANCH  27  28
HETATM   28  C14 UNL     1      -0.960  67.549 -42.138  1.00  0.00     0.243 C 
HETATM   29  O3  UNL     1      -1.380  66.496 -42.615  1.00  0.00    -0.271 OA
HETATM   30  N2  UNL     1      -1.459  68.779 -42.499  1.00  0.00    -0.356 N 
HETATM   31  H16 UNL     1      -1.138  69.556 -41.916  1.00  0.00     0.162 HD
BRANCH  30  32
HETATM   32  C15 UNL     1      -2.669  68.944 -43.296  1.00  0.00     0.159 C 
BRANCH  32  33
HETATM   33  C16 UNL     1      -3.964  69.073 -42.459  1.00  0.00     0.170 C 
BRANCH  33  34
HETATM   34  O4  UNL     1      -4.792  70.141 -42.927  1.00  0.00    -0.389 OA
HETATM   35  H20 UNL     1      -4.199  70.902 -43.116  1.00  0.00     0.210 HD
ENDBRANCH  33  34
BRANCH  33  36
HETATM   36  C17 UNL     1      -4.780  67.806 -42.515  1.00  0.00    -0.013 A 
HETATM   37  C18 UNL     1      -4.391  66.698 -43.271  1.00  0.00     0.013 A 
HETATM   38  C19 UNL     1      -5.181  65.553 -43.288  1.00  0.00     0.025 A 
HETATM   39  C20 UNL     1      -6.351  65.534 -42.540  1.00  0.00     0.005 A 
HETATM   40  C21 UNL     1      -7.232  64.319 -42.550  1.00  0.00     0.068 C 
HETATM   41  N3  UNL     1      -6.740  66.579 -41.776  1.00  0.00    -0.369 N 
HETATM   42  C22 UNL     1      -5.957  67.684 -41.785  1.00  0.00     0.097 A 
ATOM     43  H3  UNL     1      -7.590  66.537 -41.213  1.00  0.00     0.165 HD
ENDBRANCH  33  36
ENDBRANCH  32  33
ENDBRANCH  30  32
ENDBRANCH  27  28
ENDBRANCH  26  27
ENDBRANCH  13  26
TORSDOF 8
ENDMDL
MODEL 7
REMARK minimizedAffinity -8.67487812
REMARK CNNscore 0.341075689
REMARK CNNaffinity 6.35151815
REMARK  8 active torsions:
REMARK  status: ('A' for Active; 'I' for Inactive)
REMARK    1  A    between atoms: C3_3  and  O1_4 
REMARK    2  A    between atoms: N1_14  and  O2_16 
REMARK    3  A    between atoms: O2_16  and  C13_17 
REMARK    4  A    between atoms: C13_17  and  C14_18 
REMARK       I    between atoms: C14_18  and  N2_20 
REMARK    5  A    between atoms: N2_20  and  C15_21 
REMARK    6  A    between atoms: C15_21  and  C16_22 
REMARK    7  A    between atoms: C16_22  and  O4_23 
REMARK    8  A    between atoms: C16_22  and  C17_24 
ROOT
HETATM    1  C1  UNL     1     -15.098  46.623 -24.031  1.00  0.00     0.015 C 
HETATM    2  C2  UNL     1     -14.145  46.139 -24.577  1.00  0.00    -0.078 C 
HETATM    3  C3  UNL     1     -12.973  45.535 -25.228  1.00  0.00     0.128 C 
HETATM    4  C4  UNL     1     -13.227  44.069 -25.647  1.00  0.00     0.052 C 
HETATM    5  C5  UNL     1     -12.371  43.831 -26.905  1.00  0.00     0.010 C 
HETATM    6  C6  UNL     1     -11.588  45.134 -27.109  1.00  0.00     0.002 C 
HETATM    7  C7  UNL     1     -11.057  45.414 -28.529  1.00  0.00    -0.004 C 
HETATM    8  C8  UNL     1      -9.926  44.417 -28.864  1.00  0.00     0.010 C 
HETATM    9  C9  UNL     1      -8.542  44.952 -28.535  1.00  0.00     0.035 C 
HETATM   10  C10 UNL     1      -8.240  46.288 -29.169  1.00  0.00    -0.069 C 
HETATM   11  C11 UNL     1      -6.962  46.711 -29.188  1.00  0.00     0.030 C 
HETATM   12  C12 UNL     1      -6.580  48.048 -29.734  1.00  0.00     0.032 C 
HETATM   13  N1  UNL     1      -5.418  48.618 -29.608  1.00  0.00    -0.271 N 
ATOM     14  H1  UNL     1      -5.166  49.511 -30.030  1.00  0.00     0.194 HD
HETATM   15  C23 UNL     1      -7.656  48.806 -30.486  1.00  0.00     0.060 C 
HETATM   16  C24 UNL     1      -8.986  48.622 -29.756  1.00  0.00     0.020 C 
HETATM   17  C25 UNL     1      -9.418  47.126 -29.666  1.00  0.00    -0.016 C 
HETATM   18  C26 UNL     1      -9.813  46.698 -31.108  1.00  0.00     0.020 C 
HETATM   19  C27 UNL     1     -10.653  46.928 -28.705  1.00  0.00     0.002 C 
HETATM   20  C28 UNL     1     -10.509  47.629 -27.325  1.00  0.00     0.007 C 
HETATM   21  C29 UNL     1     -11.748  47.533 -26.414  1.00  0.00     0.014 C 
HETATM   22  C30 UNL     1     -12.536  46.221 -26.561  1.00  0.00     0.003 C 
HETATM   23  C31 UNL     1     -13.759  46.467 -27.486  1.00  0.00     0.020 C 
ENDROOT
BRANCH   3  24
HETATM   24  O1  UNL     1     -11.894  45.510 -24.290  1.00  0.00    -0.377 OA
HETATM   25  H2  UNL     1     -11.929  46.338 -23.782  1.00  0.00     0.211 HD
ENDBRANCH   3  24
BRANCH  13  26
HETATM   26  O2  UNL     1      -4.556  47.844 -28.818  1.00  0.00    -0.271 OA
BRANCH  26  27
HETATM   27  C13 UNL     1      -4.503  48.365 -27.495  1.00  0.00     0.303 C 
BRANCH  27  28
HETATM   28  C14 UNL     1      -3.787  49.706 -27.385  1.00  0.00     0.243 C 
HETATM   29  O3  UNL     1      -3.087  50.156 -28.290  1.00  0.00    -0.271 OA
HETATM   30  N2  UNL     1      -3.930  50.340 -26.172  1.00  0.00    -0.356 N 
HETATM   31  H16 UNL     1      -4.660  49.949 -25.572  1.00  0.00     0.162 HD
BRANCH  30  32
HETATM   32  C15 UNL     1      -3.462  51.699 -25.925  1.00  0.00     0.159 C 
BRANCH  32  33
HETATM   33  C16 UNL     1      -2.346  51.799 -24.858  1.00  0.00     0.170 C 
BRANCH  33  34
HETATM   34  O4  UNL     1      -2.423  50.732 -23.911  1.00  0.00    -0.389 OA
HETATM   35  H20 UNL     1      -3.372  50.618 -23.682  1.00  0.00     0.210 HD
ENDBRANCH  33  34
BRANCH  33  36
HETATM   36  C17 UNL     1      -0.978  51.749 -25.491  1.00  0.00    -0.013 A 
HETATM   37  C18 UNL     1      -0.477  50.595 -26.098  1.00  0.00     0.013 A 
HETATM   38  C19 UNL     1       0.792  50.602 -26.668  1.00  0.00     0.025 A 
HETATM   39  C20 UNL     1       1.542  51.771 -26.623  1.00  0.00     0.005 A 
HETATM   40  C21 UNL     1       2.920  51.805 -27.215  1.00  0.00     0.068 C 
HETATM   41  N3  UNL     1       1.074  52.911 -26.068  1.00  0.00    -0.369 N 
HETATM   42  C22 UNL     1      -0.162  52.873 -25.513  1.00  0.00     0.097 A 
ATOM     43  H3  UNL     1       1.629  53.767 -26.067  1.00  0.00     0.165 HD
ENDBRANCH  33  36
ENDBRANCH  32  33
ENDBRANCH  30  32
ENDBRANCH  27  28
ENDBRANCH  26  27
ENDBRANCH  13  26
TORSDOF 8
ENDMDL
MODEL 8
REMARK minimizedAffinity -7.65268087
REMARK CNNscore 0.32671994
REMARK CNNaffinity 6.28038025
REMARK  8 active torsions:
REMARK  status: ('A' for Active; 'I' for Inactive)
REMARK    1  A    between atoms: C3_3  and  O1_4 
REMARK    2  A    between atoms: N1_14  and  O2_16 
REMARK    3  A    between atoms: O2_16  and  C13_17 
REMARK    4  A    between atoms: C13_17  and  C14_18 
REMARK       I    between atoms: C14_18  and  N2_20 
REMARK    5  A    between atoms: N2_20  and  C15_21 
REMARK    6  A    between atoms: C15_21  and  C16_22 
REMARK    7  A    between atoms: C16_22  and  O4_23 
REMARK    8  A    between atoms: C16_22  and  C17_24 
ROOT
HETATM    1  C1  UNL     1      -4.492  44.493 -16.197  1.00  0.00     0.015 C 
HETATM    2  C2  UNL     1      -5.024  45.182 -17.024  1.00  0.00    -0.078 C 
HETATM    3  C3  UNL     1      -5.693  46.014 -18.034  1.00  0.00     0.128 C 
HETATM    4  C4  UNL     1      -6.629  47.066 -17.398  1.00  0.00     0.052 C 
HETATM    5  C5  UNL     1      -6.623  48.275 -18.354  1.00  0.00     0.010 C 
HETATM    6  C6  UNL     1      -5.760  47.839 -19.545  1.00  0.00     0.002 C 
HETATM    7  C7  UNL     1      -5.135  48.958 -20.401  1.00  0.00    -0.004 C 
HETATM    8  C8  UNL     1      -6.246  49.691 -21.184  1.00  0.00     0.010 C 
HETATM    9  C9  UNL     1      -6.469  49.125 -22.577  1.00  0.00     0.035 C 
HETATM   10  C10 UNL     1      -5.216  49.065 -23.417  1.00  0.00    -0.069 C 
HETATM   11  C11 UNL     1      -5.345  48.860 -24.741  1.00  0.00     0.030 C 
HETATM   12  C12 UNL     1      -4.159  48.720 -25.638  1.00  0.00     0.032 C 
HETATM   13  N1  UNL     1      -4.183  48.322 -26.876  1.00  0.00    -0.271 N 
ATOM     14  H1  UNL     1      -3.365  48.278 -27.483  1.00  0.00     0.194 HD
HETATM   15  C23 UNL     1      -2.810  49.060 -25.037  1.00  0.00     0.060 C 
HETATM   16  C24 UNL     1      -2.762  48.523 -23.606  1.00  0.00     0.020 C 
HETATM   17  C25 UNL     1      -3.869  49.143 -22.698  1.00  0.00    -0.016 C 
HETATM   18  C26 UNL     1      -3.466  50.628 -22.469  1.00  0.00     0.020 C 
HETATM   19  C27 UNL     1      -3.967  48.407 -21.306  1.00  0.00     0.002 C 
HETATM   20  C28 UNL     1      -4.023  46.857 -21.404  1.00  0.00     0.007 C 
HETATM   21  C29 UNL     1      -4.014  46.118 -20.052  1.00  0.00     0.014 C 
HETATM   22  C30 UNL     1      -4.735  46.871 -18.921  1.00  0.00     0.003 C 
HETATM   23  C31 UNL     1      -3.678  47.603 -18.047  1.00  0.00     0.020 C 
ENDROOT
BRANCH   3  24
HETATM   24  O1  UNL     1      -6.518  45.171 -18.844  1.00  0.00    -0.377 OA
HETATM   25  H2  UNL     1      -6.036  44.339 -18.986  1.00  0.00     0.211 HD
ENDBRANCH   3  24
BRANCH  13  26
HETATM   26  O2  UNL     1      -5.480  47.960 -27.267  1.00  0.00    -0.271 OA
BRANCH  26  27
HETATM   27  C13 UNL     1      -5.595  48.001 -28.684  1.00  0.00     0.303 C 
BRANCH  27  28
HETATM   28  C14 UNL     1      -7.032  47.943 -29.191  1.00  0.00     0.243 C 
HETATM   29  O3  UNL     1      -7.324  47.482 -30.294  1.00  0.00    -0.271 OA
HETATM   30  N2  UNL     1      -7.966  48.505 -28.350  1.00  0.00    -0.356 N 
HETATM   31  H16 UNL     1      -7.624  48.701 -27.407  1.00  0.00     0.162 HD
BRANCH  30  32
HETATM   32  C15 UNL     1      -9.403  48.404 -28.577  1.00  0.00     0.159 C 
BRANCH  32  33
HETATM   33  C16 UNL     1     -10.218  48.037 -27.315  1.00  0.00     0.170 C 
BRANCH  33  34
HETATM   34  O4  UNL     1     -10.642  49.202 -26.603  1.00  0.00    -0.389 OA
HETATM   35  H20 UNL     1      -9.880  49.821 -26.585  1.00  0.00     0.210 HD
ENDBRANCH  33  34
BRANCH  33  36
HETATM   36  C17 UNL     1     -11.452  47.246 -27.671  1.00  0.00    -0.013 A 
HETATM   37  C18 UNL     1     -11.411  46.141 -28.524  1.00  0.00     0.013 A 
HETATM   38  C19 UNL     1     -12.579  45.445 -28.821  1.00  0.00     0.025 A 
HETATM   39  C20 UNL     1     -13.774  45.867 -28.252  1.00  0.00     0.005 A 
HETATM   40  C21 UNL     1     -15.053  45.147 -28.564  1.00  0.00     0.068 C 
HETATM   41  N3  UNL     1     -13.841  46.915 -27.401  1.00  0.00    -0.369 N 
HETATM   42  C22 UNL     1     -12.691  47.579 -27.137  1.00  0.00     0.097 A 
ATOM     43  H3  UNL     1     -14.724  47.195 -26.973  1.00  0.00     0.165 HD
ENDBRANCH  33  36
ENDBRANCH  32  33
ENDBRANCH  30  32
ENDBRANCH  27  28
ENDBRANCH  26  27
ENDBRANCH  13  26
TORSDOF 8
ENDMDL
MODEL 9
REMARK minimizedAffinity -7.54554462
REMARK CNNscore 0.315386057
REMARK CNNaffinity 6.58008385
REMARK  8 active torsions:
REMARK  status: ('A' for Active; 'I' for Inactive)
REMARK    1  A    between atoms: C3_3  and  O1_4 
REMARK    2  A    between atoms: N1_14  and  O2_16 
REMARK    3  A    between atoms: O2_16  and  C13_17 
REMARK    4  A    between atoms: C13_17  and  C14_18 
REMARK       I    between atoms: C14_18  and  N2_20 
REMARK    5  A    between atoms: N2_20  and  C15_21 
REMARK    6  A    between atoms: C15_21  and  C16_22 
REMARK    7  A    between atoms: C16_22  and  O4_23 
REMARK    8  A    between atoms: C16_22  and  C17_24 
ROOT
HETATM    1  C1  UNL     1      -0.065  48.829 -16.960  1.00  0.00     0.015 C 
HETATM    2  C2  UNL     1      -0.951  49.236 -17.660  1.00  0.00    -0.078 C 
HETATM    3  C3  UNL     1      -2.049  49.732 -18.502  1.00  0.00     0.128 C 
HETATM    4  C4  UNL     1      -2.450  51.181 -18.145  1.00  0.00     0.052 C 
HETATM    5  C5  UNL     1      -2.948  51.820 -19.456  1.00  0.00     0.010 C 
HETATM    6  C6  UNL     1      -2.902  50.692 -20.494  1.00  0.00     0.002 C 
HETATM    7  C7  UNL     1      -2.832  51.110 -21.976  1.00  0.00    -0.004 C 
HETATM    8  C8  UNL     1      -4.173  51.749 -22.397  1.00  0.00     0.010 C 
HETATM    9  C9  UNL     1      -5.145  50.751 -23.007  1.00  0.00     0.035 C 
HETATM   10  C10 UNL     1      -4.571  49.974 -24.167  1.00  0.00    -0.069 C 
HETATM   11  C11 UNL     1      -5.418  49.288 -24.956  1.00  0.00     0.030 C 
HETATM   12  C12 UNL     1      -4.933  48.438 -26.085  1.00  0.00     0.032 C 
HETATM   13  N1  UNL     1      -5.650  47.590 -26.762  1.00  0.00    -0.271 N 
ATOM     14  H1  UNL     1      -5.308  47.054 -27.559  1.00  0.00     0.194 HD
HETATM   15  C23 UNL     1      -3.470  48.574 -26.456  1.00  0.00     0.060 C 
HETATM   16  C24 UNL     1      -2.648  48.693 -25.172  1.00  0.00     0.020 C 
HETATM   17  C25 UNL     1      -3.050  49.934 -24.318  1.00  0.00    -0.016 C 
HETATM   18  C26 UNL     1      -2.554  51.183 -25.102  1.00  0.00     0.020 C 
HETATM   19  C27 UNL     1      -2.375  49.910 -22.892  1.00  0.00     0.002 C 
HETATM   20  C28 UNL     1      -2.512  48.556 -22.143  1.00  0.00     0.007 C 
HETATM   21  C29 UNL     1      -1.771  48.480 -20.794  1.00  0.00     0.014 C 
HETATM   22  C30 UNL     1      -1.725  49.812 -20.027  1.00  0.00     0.003 C 
HETATM   23  C31 UNL     1      -0.345  50.485 -20.267  1.00  0.00     0.020 C 
ENDROOT
BRANCH   3  24
HETATM   24  O1  UNL     1      -3.204  48.921 -18.269  1.00  0.00    -0.377 OA
HETATM   25  H2  UNL     1      -2.901  48.002 -18.170  1.00  0.00     0.211 HD
ENDBRANCH   3  24
BRANCH  13  26
HETATM   26  O2  UNL     1      -6.953  47.506 -26.252  1.00  0.00    -0.271 OA
BRANCH  26  27
HETATM   27  C13 UNL     1      -7.901  47.643 -27.304  1.00  0.00     0.303 C 
BRANCH  27  28
HETATM   28  C14 UNL     1      -9.103  46.713 -27.180  1.00  0.00     0.243 C 
HETATM   29  O3  UNL     1      -9.771  46.632 -26.150  1.00  0.00    -0.271 OA
HETATM   30  N2  UNL     1      -9.340  45.924 -28.282  1.00  0.00    -0.356 N 
HETATM   31  H16 UNL     1      -8.823  46.199 -29.120  1.00  0.00     0.162 HD
BRANCH  30  32
HETATM   32  C15 UNL     1     -10.530  45.092 -28.424  1.00  0.00     0.159 C 
BRANCH  32  33
HETATM   33  C16 UNL     1     -11.587  45.662 -29.398  1.00  0.00     0.170 C 
BRANCH  33  34
HETATM   34  O4  UNL     1     -11.939  47.008 -29.067  1.00  0.00    -0.389 OA
HETATM   35  H20 UNL     1     -12.036  47.048 -28.090  1.00  0.00     0.210 HD
ENDBRANCH  33  34
BRANCH  33  36
HETATM   36  C17 UNL     1     -11.081  45.660 -30.818  1.00  0.00    -0.013 A 
HETATM   37  C18 UNL     1     -11.182  44.540 -31.646  1.00  0.00     0.013 A 
HETATM   38  C19 UNL     1     -10.699  44.590 -32.949  1.00  0.00     0.025 A 
HETATM   39  C20 UNL     1     -10.122  45.768 -33.407  1.00  0.00     0.005 A 
HETATM   40  C21 UNL     1      -9.578  45.849 -34.803  1.00  0.00     0.068 C 
HETATM   41  N3  UNL     1     -10.036  46.878 -32.640  1.00  0.00    -0.369 N 
HETATM   42  C22 UNL     1     -10.506  46.798 -31.372  1.00  0.00     0.097 A 
ATOM     43  H3  UNL     1      -9.632  47.742 -33.001  1.00  0.00     0.165 HD
ENDBRANCH  33  36
ENDBRANCH  32  33
ENDBRANCH  30  32
ENDBRANCH  27  28
ENDBRANCH  26  27
ENDBRANCH  13  26
TORSDOF 8
ENDMDL
