MODEL 1
REMARK minimizedAffinity -9.67964172
REMARK  6 active torsions:
REMARK  status: ('A' for Active; 'I' for Inactive)
REMARK    1  A    between atoms: C2_2  and  C30_31 
REMARK    2  A    between atoms: C3_3  and  C4_4 
REMARK    3  A    between atoms: C4_4  and  C5_5 
REMARK    4  A    between atoms: C5_5  and  C6_6 
REMARK    5  A    between atoms: C6_6  and  C8_8 
REMARK    6  A    between atoms: C30_31  and  O2_32 
ROOT
HETATM    1  C8  UNL     1      -2.991  48.309 -19.420  1.00  0.00    -0.002 C 
HETATM    2  C9  UNL     1      -3.713  47.231 -20.271  1.00  0.00     0.007 C 
HETATM    3  C10 UNL     1      -3.624  47.690 -21.744  1.00  0.00     0.015 C 
HETATM    4  C11 UNL     1      -3.115  49.148 -21.682  1.00  0.00    -0.013 C 
HETATM    5  C12 UNL     1      -4.385  50.030 -21.453  1.00  0.00     0.021 C 
HETATM    6  C13 UNL     1      -2.417  49.737 -22.901  1.00  0.00    -0.070 C 
HETATM    7  C14 UNL     1      -2.707  49.347 -24.155  1.00  0.00    -0.022 C 
HETATM    8  C15 UNL     1      -2.169  49.995 -25.391  1.00  0.00     0.034 C 
HETATM    9  C16 UNL     1      -1.073  51.064 -25.163  1.00  0.00     0.013 C 
HETATM   10  C17 UNL     1      -0.794  51.933 -26.448  1.00  0.00     0.018 C 
HETATM   11  C18 UNL     1      -2.043  52.255 -27.297  1.00  0.00     0.023 C 
HETATM   12  C19 UNL     1       0.201  51.191 -27.367  1.00  0.00     0.023 C 
HETATM   13  C20 UNL     1      -0.123  53.250 -26.047  1.00  0.00     0.135 C 
HETATM   14  O1  UNL     1      -0.194  54.268 -26.736  1.00  0.00    -0.297 OA
HETATM   15  C21 UNL     1       0.727  53.229 -24.806  1.00  0.00     0.080 C 
HETATM   16  C22 UNL     1      -0.069  52.819 -23.579  1.00  0.00     0.017 C 
HETATM   17  C23 UNL     1      -1.292  51.884 -23.835  1.00  0.00    -0.031 C 
HETATM   18  C24 UNL     1      -2.570  52.754 -23.918  1.00  0.00     0.016 C 
HETATM   19  C25 UNL     1      -1.392  50.844 -22.642  1.00  0.00     0.024 C 
HETATM   20  C26 UNL     1      -1.515  51.478 -21.228  1.00  0.00     0.010 C 
HETATM   21  C27 UNL     1      -1.699  50.489 -20.050  1.00  0.00     0.011 C 
HETATM   22  C28 UNL     1      -2.122  49.068 -20.473  1.00  0.00    -0.029 C 
HETATM   23  C29 UNL     1      -0.837  48.238 -20.772  1.00  0.00     0.016 C 
ENDROOT
BRANCH   1  24
HETATM   24  C6  UNL     1      -2.309  47.827 -18.103  1.00  0.00    -0.014 C 
HETATM   25  C7  UNL     1      -3.141  46.847 -17.265  1.00  0.00     0.010 C 
BRANCH  24  26
HETATM   26  C5  UNL     1      -1.908  49.069 -17.257  1.00  0.00     0.008 C 
BRANCH  26  27
HETATM   27  C4  UNL     1      -0.475  49.030 -16.717  1.00  0.00     0.028 C 
BRANCH  27  28
HETATM   28  C3  UNL     1       0.323  50.231 -17.152  1.00  0.00    -0.022 C 
HETATM   29  C2  UNL     1       0.738  51.245 -16.366  1.00  0.00    -0.064 C 
HETATM   30  C1  UNL     1       1.571  52.366 -16.927  1.00  0.00     0.045 C 
BRANCH  29  31
HETATM   31  C30 UNL     1       0.407  51.363 -14.900  1.00  0.00     0.197 C 
BRANCH  31  32
HETATM   32  O2  UNL     1       0.639  52.690 -14.450  1.00  0.00    -0.397 OA
HETATM   33  H48 UNL     1       0.516  53.281 -15.213  1.00  0.00     0.209 HD
ENDBRANCH  31  32
ENDBRANCH  29  31
ENDBRANCH  27  28
ENDBRANCH  26  27
ENDBRANCH  24  26
ENDBRANCH   1  24
TORSDOF 6
ENDMDL
MODEL 2
REMARK minimizedAffinity -9.09078121
REMARK  6 active torsions:
REMARK  status: ('A' for Active; 'I' for Inactive)
REMARK    1  A    between atoms: C2_2  and  C30_31 
REMARK    2  A    between atoms: C3_3  and  C4_4 
REMARK    3  A    between atoms: C4_4  and  C5_5 
REMARK    4  A    between atoms: C5_5  and  C6_6 
REMARK    5  A    between atoms: C6_6  and  C8_8 
REMARK    6  A    between atoms: C30_31  and  O2_32 
ROOT
HETATM    1  C8  UNL     1      -1.633  51.476 -21.502  1.00  0.00    -0.002 C 
HETATM    2  C9  UNL     1      -1.593  50.962 -20.039  1.00  0.00     0.007 C 
HETATM    3  C10 UNL     1      -2.792  50.003 -19.868  1.00  0.00     0.015 C 
HETATM    4  C11 UNL     1      -3.656  50.208 -21.133  1.00  0.00    -0.013 C 
HETATM    5  C12 UNL     1      -4.563  51.445 -20.830  1.00  0.00     0.021 C 
HETATM    6  C13 UNL     1      -4.603  49.097 -21.567  1.00  0.00    -0.070 C 
HETATM    7  C14 UNL     1      -5.171  48.252 -20.689  1.00  0.00    -0.022 C 
HETATM    8  C15 UNL     1      -6.223  47.246 -21.037  1.00  0.00     0.034 C 
HETATM    9  C16 UNL     1      -6.516  47.081 -22.548  1.00  0.00     0.013 C 
HETATM   10  C17 UNL     1      -7.840  46.273 -22.826  1.00  0.00     0.018 C 
HETATM   11  C18 UNL     1      -8.986  46.543 -21.827  1.00  0.00     0.023 C 
HETATM   12  C19 UNL     1      -7.541  44.759 -22.776  1.00  0.00     0.023 C 
HETATM   13  C20 UNL     1      -8.344  46.576 -24.240  1.00  0.00     0.135 C 
HETATM   14  O1  UNL     1      -9.527  46.459 -24.563  1.00  0.00    -0.297 OA
HETATM   15  C21 UNL     1      -7.306  46.931 -25.269  1.00  0.00     0.080 C 
HETATM   16  C22 UNL     1      -6.516  48.167 -24.876  1.00  0.00     0.017 C 
HETATM   17  C23 UNL     1      -6.378  48.434 -23.344  1.00  0.00    -0.031 C 
HETATM   18  C24 UNL     1      -7.468  49.449 -22.920  1.00  0.00     0.016 C 
HETATM   19  C25 UNL     1      -4.927  49.011 -23.060  1.00  0.00     0.024 C 
HETATM   20  C26 UNL     1      -4.572  50.305 -23.844  1.00  0.00     0.010 C 
HETATM   21  C27 UNL     1      -3.194  50.939 -23.525  1.00  0.00     0.011 C 
HETATM   22  C28 UNL     1      -2.549  50.433 -22.219  1.00  0.00    -0.029 C 
HETATM   23  C29 UNL     1      -1.718  49.155 -22.540  1.00  0.00     0.016 C 
ENDROOT
BRANCH   1  24
HETATM   24  C6  UNL     1      -0.266  51.839 -22.159  1.00  0.00    -0.014 C 
HETATM   25  C7  UNL     1       0.683  52.653 -21.270  1.00  0.00     0.010 C 
BRANCH  24  26
HETATM   26  C5  UNL     1      -0.531  52.582 -23.500  1.00  0.00     0.008 C 
BRANCH  26  27
HETATM   27  C4  UNL     1       0.707  52.747 -24.386  1.00  0.00     0.028 C 
BRANCH  27  28
HETATM   28  C3  UNL     1       0.384  52.568 -25.846  1.00  0.00    -0.022 C 
HETATM   29  C2  UNL     1       1.125  51.903 -26.756  1.00  0.00    -0.064 C 
HETATM   30  C1  UNL     1       0.657  51.764 -28.180  1.00  0.00     0.045 C 
BRANCH  29  31
HETATM   31  C30 UNL     1       2.457  51.266 -26.452  1.00  0.00     0.197 C 
BRANCH  31  32
HETATM   32  O2  UNL     1       3.406  51.617 -27.449  1.00  0.00    -0.397 OA
HETATM   33  H48 UNL     1       3.145  52.482 -27.808  1.00  0.00     0.209 HD
ENDBRANCH  31  32
ENDBRANCH  29  31
ENDBRANCH  27  28
ENDBRANCH  26  27
ENDBRANCH  24  26
ENDBRANCH   1  24
TORSDOF 6
ENDMDL
MODEL 3
REMARK minimizedAffinity -8.91902637
REMARK  6 active torsions:
REMARK  status: ('A' for Active; 'I' for Inactive)
REMARK    1  A    between atoms: C2_2  and  C30_31 
REMARK    2  A    between atoms: C3_3  and  C4_4 
REMARK    3  A    between atoms: C4_4  and  C5_5 
REMARK    4  A    between atoms: C5_5  and  C6_6 
REMARK    5  A    between atoms: C6_6  and  C8_8 
REMARK    6  A    between atoms: C30_31  and  O2_32 
ROOT
HETATM    1  C8  UNL     1      -1.820  50.794 -23.733  1.00  0.00    -0.002 C 
HETATM    2  C9  UNL     1      -2.756  51.713 -24.560  1.00  0.00     0.007 C 
HETATM    3  C10 UNL     1      -4.203  51.254 -24.271  1.00  0.00     0.015 C 
HETATM    4  C11 UNL     1      -4.058  49.911 -23.522  1.00  0.00    -0.013 C 
HETATM    5  C12 UNL     1      -3.903  48.821 -24.632  1.00  0.00     0.021 C 
HETATM    6  C13 UNL     1      -5.201  49.436 -22.633  1.00  0.00    -0.070 C 
HETATM    7  C14 UNL     1      -6.484  49.749 -22.883  1.00  0.00    -0.022 C 
HETATM    8  C15 UNL     1      -7.655  49.187 -22.140  1.00  0.00     0.034 C 
HETATM    9  C16 UNL     1      -7.310  48.332 -20.896  1.00  0.00     0.013 C 
HETATM   10  C17 UNL     1      -8.543  47.506 -20.364  1.00  0.00     0.018 C 
HETATM   11  C18 UNL     1      -9.476  46.955 -21.464  1.00  0.00     0.023 C 
HETATM   12  C19 UNL     1      -9.403  48.398 -19.443  1.00  0.00     0.023 C 
HETATM   13  C20 UNL     1      -8.051  46.335 -19.509  1.00  0.00     0.135 C 
HETATM   14  O1  UNL     1      -8.712  45.310 -19.344  1.00  0.00    -0.297 OA
HETATM   15  C21 UNL     1      -6.749  46.526 -18.780  1.00  0.00     0.080 C 
HETATM   16  C22 UNL     1      -5.601  46.807 -19.734  1.00  0.00     0.017 C 
HETATM   17  C23 UNL     1      -5.980  47.507 -21.077  1.00  0.00    -0.031 C 
HETATM   18  C24 UNL     1      -6.136  46.424 -22.171  1.00  0.00     0.016 C 
HETATM   19  C25 UNL     1      -4.829  48.531 -21.455  1.00  0.00     0.024 C 
HETATM   20  C26 UNL     1      -3.411  47.907 -21.581  1.00  0.00     0.010 C 
HETATM   21  C27 UNL     1      -2.281  48.866 -22.032  1.00  0.00     0.011 C 
HETATM   22  C28 UNL     1      -2.778  50.184 -22.660  1.00  0.00    -0.029 C 
HETATM   23  C29 UNL     1      -3.000  51.223 -21.521  1.00  0.00     0.016 C 
ENDROOT
BRANCH   1  24
HETATM   24  C6  UNL     1      -0.468  51.409 -23.256  1.00  0.00    -0.014 C 
HETATM   25  C7  UNL     1      -0.160  51.219 -21.766  1.00  0.00     0.010 C 
BRANCH  24  26
HETATM   26  C5  UNL     1      -0.439  52.918 -23.634  1.00  0.00     0.008 C 
BRANCH  26  27
HETATM   27  C4  UNL     1       0.689  53.308 -24.594  1.00  0.00     0.028 C 
BRANCH  27  28
HETATM   28  C3  UNL     1       0.381  52.915 -26.015  1.00  0.00    -0.022 C 
HETATM   29  C2  UNL     1       1.084  52.057 -26.781  1.00  0.00    -0.064 C 
HETATM   30  C1  UNL     1       0.634  51.722 -28.177  1.00  0.00     0.045 C 
BRANCH  29  31
HETATM   31  C30 UNL     1       2.356  51.381 -26.336  1.00  0.00     0.197 C 
BRANCH  31  32
HETATM   32  O2  UNL     1       3.340  51.468 -27.357  1.00  0.00    -0.397 OA
HETATM   33  H48 UNL     1       3.155  52.272 -27.872  1.00  0.00     0.209 HD
ENDBRANCH  31  32
ENDBRANCH  29  31
ENDBRANCH  27  28
ENDBRANCH  26  27
ENDBRANCH  24  26
ENDBRANCH   1  24
TORSDOF 6
ENDMDL
MODEL 4
REMARK minimizedAffinity -8.9141016
REMARK  6 active torsions:
REMARK  status: ('A' for Active; 'I' for Inactive)
REMARK    1  A    between atoms: C2_2  and  C30_31 
REMARK    2  A    between atoms: C3_3  and  C4_4 
REMARK    3  A    between atoms: C4_4  and  C5_5 
REMARK    4  A    between atoms: C5_5  and  C6_6 
REMARK    5  A    between atoms: C6_6  and  C8_8 
REMARK    6  A    between atoms: C30_31  and  O2_32 
ROOT
HETATM    1  C8  UNL     1      -3.705  47.754 -20.143  1.00  0.00    -0.002 C 
HETATM    2  C9  UNL     1      -4.517  46.926 -21.173  1.00  0.00     0.007 C 
HETATM    3  C10 UNL     1      -4.274  47.569 -22.557  1.00  0.00     0.015 C 
HETATM    4  C11 UNL     1      -3.570  48.912 -22.259  1.00  0.00    -0.013 C 
HETATM    5  C12 UNL     1      -4.715  49.931 -21.954  1.00  0.00     0.021 C 
HETATM    6  C13 UNL     1      -2.722  49.558 -23.348  1.00  0.00    -0.070 C 
HETATM    7  C14 UNL     1      -2.986  49.395 -24.656  1.00  0.00    -0.022 C 
HETATM    8  C15 UNL     1      -2.286  50.124 -25.760  1.00  0.00     0.034 C 
HETATM    9  C16 UNL     1      -1.068  50.977 -25.331  1.00  0.00     0.013 C 
HETATM   10  C17 UNL     1      -0.591  51.967 -26.460  1.00  0.00     0.018 C 
HETATM   11  C18 UNL     1      -1.728  52.586 -27.302  1.00  0.00     0.023 C 
HETATM   12  C19 UNL     1       0.345  51.223 -27.438  1.00  0.00     0.023 C 
HETATM   13  C20 UNL     1       0.231  53.101 -25.841  1.00  0.00     0.135 C 
HETATM   14  O1  UNL     1       0.346  54.206 -26.374  1.00  0.00    -0.297 OA
HETATM   15  C21 UNL     1       0.992  52.780 -24.584  1.00  0.00     0.080 C 
HETATM   16  C22 UNL     1       0.071  52.324 -23.465  1.00  0.00     0.017 C 
HETATM   17  C23 UNL     1      -1.252  51.625 -23.907  1.00  0.00    -0.031 C 
HETATM   18  C24 UNL     1      -2.388  52.677 -23.911  1.00  0.00     0.016 C 
HETATM   19  C25 UNL     1      -1.571  50.454 -22.885  1.00  0.00     0.024 C 
HETATM   20  C26 UNL     1      -1.691  50.894 -21.400  1.00  0.00     0.010 C 
HETATM   21  C27 UNL     1      -2.084  49.787 -20.389  1.00  0.00     0.011 C 
HETATM   22  C28 UNL     1      -2.675  48.517 -21.035  1.00  0.00    -0.029 C 
HETATM   23  C29 UNL     1      -1.503  47.558 -21.402  1.00  0.00     0.016 C 
ENDROOT
BRANCH   1  24
HETATM   24  C6  UNL     1      -3.180  46.996 -18.886  1.00  0.00    -0.014 C 
HETATM   25  C7  UNL     1      -3.607  45.526 -18.791  1.00  0.00     0.010 C 
BRANCH  24  26
HETATM   26  C5  UNL     1      -3.611  47.775 -17.609  1.00  0.00     0.008 C 
BRANCH  26  27
HETATM   27  C4  UNL     1      -2.484  48.006 -16.599  1.00  0.00     0.028 C 
BRANCH  27  28
HETATM   28  C3  UNL     1      -1.538  49.089 -17.048  1.00  0.00    -0.022 C 
HETATM   29  C2  UNL     1      -0.360  49.413 -16.477  1.00  0.00    -0.064 C 
HETATM   30  C1  UNL     1       0.508  50.495 -17.059  1.00  0.00     0.045 C 
BRANCH  29  31
HETATM   31  C30 UNL     1       0.179  48.756 -15.232  1.00  0.00     0.197 C 
BRANCH  31  32
HETATM   32  O2  UNL     1       0.886  47.571 -15.570  1.00  0.00    -0.397 OA
HETATM   33  H48 UNL     1       1.237  47.689 -16.469  1.00  0.00     0.209 HD
ENDBRANCH  31  32
ENDBRANCH  29  31
ENDBRANCH  27  28
ENDBRANCH  26  27
ENDBRANCH  24  26
ENDBRANCH   1  24
TORSDOF 6
ENDMDL
MODEL 5
REMARK minimizedAffinity -8.75722027
REMARK  6 active torsions:
REMARK  status: ('A' for Active; 'I' for Inactive)
REMARK    1  A    between atoms: C2_2  and  C30_31 
REMARK    2  A    between atoms: C3_3  and  C4_4 
REMARK    3  A    between atoms: C4_4  and  C5_5 
REMARK    4  A    between atoms: C5_5  and  C6_6 
REMARK    5  A    between atoms: C6_6  and  C8_8 
REMARK    6  A    between atoms: C30_31  and  O2_32 
ROOT
HETATM    1  C8  UNL     1      -1.503  50.318 -21.160  1.00  0.00    -0.002 C 
HETATM    2  C9  UNL     1      -0.994  48.992 -20.538  1.00  0.00     0.007 C 
HETATM    3  C10 UNL     1      -2.152  47.974 -20.644  1.00  0.00     0.015 C 
HETATM    4  C11 UNL     1      -3.386  48.809 -21.055  1.00  0.00    -0.013 C 
HETATM    5  C12 UNL     1      -3.972  49.381 -19.724  1.00  0.00     0.021 C 
HETATM    6  C13 UNL     1      -4.547  48.113 -21.752  1.00  0.00    -0.070 C 
HETATM    7  C14 UNL     1      -4.852  46.822 -21.530  1.00  0.00    -0.022 C 
HETATM    8  C15 UNL     1      -6.067  46.132 -22.064  1.00  0.00     0.034 C 
HETATM    9  C16 UNL     1      -6.905  46.945 -23.080  1.00  0.00     0.013 C 
HETATM   10  C17 UNL     1      -8.324  46.311 -23.344  1.00  0.00     0.018 C 
HETATM   11  C18 UNL     1      -8.989  45.675 -22.104  1.00  0.00     0.023 C 
HETATM   12  C19 UNL     1      -8.204  45.205 -24.414  1.00  0.00     0.023 C 
HETATM   13  C20 UNL     1      -9.268  47.374 -23.914  1.00  0.00     0.135 C 
HETATM   14  O1  UNL     1     -10.492  47.305 -23.799  1.00  0.00    -0.297 OA
HETATM   15  C21 UNL     1      -8.641  48.476 -24.723  1.00  0.00     0.080 C 
HETATM   16  C22 UNL     1      -7.624  49.265 -23.915  1.00  0.00     0.017 C 
HETATM   17  C23 UNL     1      -6.910  48.489 -22.765  1.00  0.00    -0.031 C 
HETATM   18  C24 UNL     1      -7.646  48.788 -21.436  1.00  0.00     0.016 C 
HETATM   19  C25 UNL     1      -5.399  48.968 -22.694  1.00  0.00     0.024 C 
HETATM   20  C26 UNL     1      -5.205  50.496 -22.484  1.00  0.00     0.010 C 
HETATM   21  C27 UNL     1      -3.743  50.983 -22.327  1.00  0.00     0.011 C 
HETATM   22  C28 UNL     1      -2.730  49.863 -22.012  1.00  0.00    -0.029 C 
HETATM   23  C29 UNL     1      -2.226  49.258 -23.357  1.00  0.00     0.016 C 
ENDROOT
BRANCH   1  24
HETATM   24  C6  UNL     1      -0.435  51.238 -21.829  1.00  0.00    -0.014 C 
HETATM   25  C7  UNL     1      -0.165  52.557 -21.093  1.00  0.00     0.010 C 
BRANCH  24  26
HETATM   26  C5  UNL     1      -0.853  51.509 -23.303  1.00  0.00     0.008 C 
BRANCH  26  27
HETATM   27  C4  UNL     1       0.256  52.107 -24.174  1.00  0.00     0.028 C 
BRANCH  27  28
HETATM   28  C3  UNL     1       0.006  51.878 -25.641  1.00  0.00    -0.022 C 
HETATM   29  C2  UNL     1       0.938  51.816 -26.614  1.00  0.00    -0.064 C 
HETATM   30  C1  UNL     1       0.549  51.535 -28.040  1.00  0.00     0.045 C 
BRANCH  29  31
HETATM   31  C30 UNL     1       2.412  52.029 -26.380  1.00  0.00     0.197 C 
BRANCH  31  32
HETATM   32  O2  UNL     1       3.170  51.296 -27.333  1.00  0.00    -0.397 OA
HETATM   33  H48 UNL     1       2.626  51.212 -28.134  1.00  0.00     0.209 HD
ENDBRANCH  31  32
ENDBRANCH  29  31
ENDBRANCH  27  28
ENDBRANCH  26  27
ENDBRANCH  24  26
ENDBRANCH   1  24
TORSDOF 6
ENDMDL
MODEL 6
REMARK minimizedAffinity -8.7504549
REMARK  6 active torsions:
REMARK  status: ('A' for Active; 'I' for Inactive)
REMARK    1  A    between atoms: C2_2  and  C30_31 
REMARK    2  A    between atoms: C3_3  and  C4_4 
REMARK    3  A    between atoms: C4_4  and  C5_5 
REMARK    4  A    between atoms: C5_5  and  C6_6 
REMARK    5  A    between atoms: C6_6  and  C8_8 
REMARK    6  A    between atoms: C30_31  and  O2_32 
ROOT
HETATM    1  C8  UNL     1      -1.834  50.963 -21.782  1.00  0.00    -0.002 C 
HETATM    2  C9  UNL     1      -0.669  50.050 -21.318  1.00  0.00     0.007 C 
HETATM    3  C10 UNL     1      -1.287  48.678 -20.968  1.00  0.00     0.015 C 
HETATM    4  C11 UNL     1      -2.814  48.914 -20.958  1.00  0.00    -0.013 C 
HETATM    5  C12 UNL     1      -3.149  49.462 -19.533  1.00  0.00     0.021 C 
HETATM    6  C13 UNL     1      -3.744  47.727 -21.174  1.00  0.00    -0.070 C 
HETATM    7  C14 UNL     1      -3.415  46.478 -20.801  1.00  0.00    -0.022 C 
HETATM    8  C15 UNL     1      -4.345  45.307 -20.847  1.00  0.00     0.034 C 
HETATM    9  C16 UNL     1      -5.705  45.558 -21.541  1.00  0.00     0.013 C 
HETATM   10  C17 UNL     1      -6.752  44.413 -21.263  1.00  0.00     0.018 C 
HETATM   11  C18 UNL     1      -6.692  43.811 -19.842  1.00  0.00     0.023 C 
HETATM   12  C19 UNL     1      -6.523  43.253 -22.258  1.00  0.00     0.023 C 
HETATM   13  C20 UNL     1      -8.169  44.934 -21.514  1.00  0.00     0.135 C 
HETATM   14  O1  UNL     1      -9.162  44.444 -20.976  1.00  0.00    -0.297 OA
HETATM   15  C21 UNL     1      -8.320  46.024 -22.540  1.00  0.00     0.080 C 
HETATM   16  C22 UNL     1      -7.520  47.262 -22.174  1.00  0.00     0.017 C 
HETATM   17  C23 UNL     1      -6.241  47.023 -21.313  1.00  0.00    -0.031 C 
HETATM   18  C24 UNL     1      -6.595  47.265 -19.825  1.00  0.00     0.016 C 
HETATM   19  C25 UNL     1      -5.111  48.026 -21.796  1.00  0.00     0.024 C 
HETATM   20  C26 UNL     1      -5.500  49.529 -21.735  1.00  0.00     0.010 C 
HETATM   21  C27 UNL     1      -4.389  50.538 -22.121  1.00  0.00     0.011 C 
HETATM   22  C28 UNL     1      -2.966  49.943 -22.129  1.00  0.00    -0.029 C 
HETATM   23  C29 UNL     1      -2.693  49.334 -23.538  1.00  0.00     0.016 C 
ENDROOT
BRANCH   1  24
HETATM   24  C6  UNL     1      -1.489  52.072 -22.822  1.00  0.00    -0.014 C 
HETATM   25  C7  UNL     1      -2.665  52.531 -23.693  1.00  0.00     0.010 C 
BRANCH  24  26
HETATM   26  C5  UNL     1      -0.307  51.586 -23.708  1.00  0.00     0.008 C 
BRANCH  26  27
HETATM   27  C4  UNL     1       0.410  52.702 -24.474  1.00  0.00     0.028 C 
BRANCH  27  28
HETATM   28  C3  UNL     1       0.245  52.559 -25.964  1.00  0.00    -0.022 C 
HETATM   29  C2  UNL     1       1.100  51.952 -26.812  1.00  0.00    -0.064 C 
HETATM   30  C1  UNL     1       0.786  51.844 -28.280  1.00  0.00     0.045 C 
BRANCH  29  31
HETATM   31  C30 UNL     1       2.419  51.355 -26.391  1.00  0.00     0.197 C 
BRANCH  31  32
HETATM   32  O2  UNL     1       3.379  51.507 -27.427  1.00  0.00    -0.397 OA
HETATM   33  H48 UNL     1       3.135  52.300 -27.934  1.00  0.00     0.209 HD
ENDBRANCH  31  32
ENDBRANCH  29  31
ENDBRANCH  27  28
ENDBRANCH  26  27
ENDBRANCH  24  26
ENDBRANCH   1  24
TORSDOF 6
ENDMDL
MODEL 7
REMARK minimizedAffinity -8.65823269
REMARK  6 active torsions:
REMARK  status: ('A' for Active; 'I' for Inactive)
REMARK    1  A    between atoms: C2_2  and  C30_31 
REMARK    2  A    between atoms: C3_3  and  C4_4 
REMARK    3  A    between atoms: C4_4  and  C5_5 
REMARK    4  A    between atoms: C5_5  and  C6_6 
REMARK    5  A    between atoms: C6_6  and  C8_8 
REMARK    6  A    between atoms: C30_31  and  O2_32 
ROOT
HETATM    1  C8  UNL     1      -3.783  48.197 -19.716  1.00  0.00    -0.002 C 
HETATM    2  C9  UNL     1      -4.421  47.165 -20.681  1.00  0.00     0.007 C 
HETATM    3  C10 UNL     1      -4.118  47.648 -22.118  1.00  0.00     0.015 C 
HETATM    4  C11 UNL     1      -3.571  49.084 -21.953  1.00  0.00    -0.013 C 
HETATM    5  C12 UNL     1      -4.827  50.010 -21.875  1.00  0.00     0.021 C 
HETATM    6  C13 UNL     1      -2.694  49.669 -23.052  1.00  0.00    -0.070 C 
HETATM    7  C14 UNL     1      -2.825  49.315 -24.342  1.00  0.00    -0.022 C 
HETATM    8  C15 UNL     1      -2.102  49.965 -25.479  1.00  0.00     0.034 C 
HETATM    9  C16 UNL     1      -1.010  50.987 -25.080  1.00  0.00     0.013 C 
HETATM   10  C17 UNL     1      -0.529  51.869 -26.294  1.00  0.00     0.018 C 
HETATM   11  C18 UNL     1      -1.639  52.255 -27.295  1.00  0.00     0.023 C 
HETATM   12  C19 UNL     1       0.555  51.107 -27.089  1.00  0.00     0.023 C 
HETATM   13  C20 UNL     1       0.128  53.151 -25.775  1.00  0.00     0.135 C 
HETATM   14  O1  UNL     1       0.187  54.185 -26.442  1.00  0.00    -0.297 OA
HETATM   15  C21 UNL     1       0.801  53.074 -24.432  1.00  0.00     0.080 C 
HETATM   16  C22 UNL     1      -0.168  52.672 -23.334  1.00  0.00     0.017 C 
HETATM   17  C23 UNL     1      -1.377  51.789 -23.774  1.00  0.00    -0.031 C 
HETATM   18  C24 UNL     1      -2.601  52.709 -24.007  1.00  0.00     0.016 C 
HETATM   19  C25 UNL     1      -1.675  50.731 -22.630  1.00  0.00     0.024 C 
HETATM   20  C26 UNL     1      -1.965  51.343 -21.232  1.00  0.00     0.010 C 
HETATM   21  C27 UNL     1      -2.342  50.339 -20.113  1.00  0.00     0.011 C 
HETATM   22  C28 UNL     1      -2.753  48.943 -20.623  1.00  0.00    -0.029 C 
HETATM   23  C29 UNL     1      -1.470  48.070 -20.767  1.00  0.00     0.016 C 
ENDROOT
BRANCH   1  24
HETATM   24  C6  UNL     1      -3.303  47.664 -18.331  1.00  0.00    -0.014 C 
HETATM   25  C7  UNL     1      -2.107  48.412 -17.729  1.00  0.00     0.010 C 
BRANCH  24  26
HETATM   26  C5  UNL     1      -2.994  46.145 -18.454  1.00  0.00     0.008 C 
BRANCH  26  27
HETATM   27  C4  UNL     1      -3.661  45.276 -17.383  1.00  0.00     0.028 C 
BRANCH  27  28
HETATM   28  C3  UNL     1      -2.761  44.160 -16.921  1.00  0.00    -0.022 C 
HETATM   29  C2  UNL     1      -2.624  42.949 -17.498  1.00  0.00    -0.064 C 
HETATM   30  C1  UNL     1      -1.649  41.940 -16.952  1.00  0.00     0.045 C 
BRANCH  29  31
HETATM   31  C30 UNL     1      -3.416  42.494 -18.696  1.00  0.00     0.197 C 
BRANCH  31  32
HETATM   32  O2  UNL     1      -2.791  41.370 -19.300  1.00  0.00    -0.397 OA
HETATM   33  H48 UNL     1      -2.304  40.899 -18.602  1.00  0.00     0.209 HD
ENDBRANCH  31  32
ENDBRANCH  29  31
ENDBRANCH  27  28
ENDBRANCH  26  27
ENDBRANCH  24  26
ENDBRANCH   1  24
TORSDOF 6
ENDMDL
MODEL 8
REMARK minimizedAffinity -8.61369419
REMARK  6 active torsions:
REMARK  status: ('A' for Active; 'I' for Inactive)
REMARK    1  A    between atoms: C2_2  and  C30_31 
REMARK    2  A    between atoms: C3_3  and  C4_4 
REMARK    3  A    between atoms: C4_4  and  C5_5 
REMARK    4  A    between atoms: C5_5  and  C6_6 
REMARK    5  A    between atoms: C6_6  and  C8_8 
REMARK    6  A    between atoms: C30_31  and  O2_32 
ROOT
HETATM    1  C8  UNL     1      -1.581  51.325 -26.274  1.00  0.00    -0.002 C 
HETATM    2  C9  UNL     1      -2.323  50.832 -27.544  1.00  0.00     0.007 C 
HETATM    3  C10 UNL     1      -3.443  49.880 -27.067  1.00  0.00     0.015 C 
HETATM    4  C11 UNL     1      -3.141  49.619 -25.574  1.00  0.00    -0.013 C 
HETATM    5  C12 UNL     1      -2.100  48.453 -25.551  1.00  0.00     0.021 C 
HETATM    6  C13 UNL     1      -4.276  49.177 -24.660  1.00  0.00    -0.070 C 
HETATM    7  C14 UNL     1      -5.322  48.459 -25.106  1.00  0.00    -0.022 C 
HETATM    8  C15 UNL     1      -6.382  47.869 -24.230  1.00  0.00     0.034 C 
HETATM    9  C16 UNL     1      -6.328  48.286 -22.740  1.00  0.00     0.013 C 
HETATM   10  C17 UNL     1      -7.241  47.388 -21.823  1.00  0.00     0.018 C 
HETATM   11  C18 UNL     1      -7.292  45.897 -22.221  1.00  0.00     0.023 C 
HETATM   12  C19 UNL     1      -8.691  47.917 -21.860  1.00  0.00     0.023 C 
HETATM   13  C20 UNL     1      -6.773  47.490 -20.368  1.00  0.00     0.135 C 
HETATM   14  O1  UNL     1      -6.985  46.604 -19.539  1.00  0.00    -0.297 OA
HETATM   15  C21 UNL     1      -6.121  48.780 -19.953  1.00  0.00     0.080 C 
HETATM   16  C22 UNL     1      -4.877  49.076 -20.773  1.00  0.00     0.017 C 
HETATM   17  C23 UNL     1      -4.855  48.493 -22.221  1.00  0.00    -0.031 C 
HETATM   18  C24 UNL     1      -4.074  47.156 -22.203  1.00  0.00     0.016 C 
HETATM   19  C25 UNL     1      -4.152  49.545 -23.179  1.00  0.00     0.024 C 
HETATM   20  C26 UNL     1      -2.711  49.949 -22.763  1.00  0.00     0.010 C 
HETATM   21  C27 UNL     1      -1.967  50.911 -23.725  1.00  0.00     0.011 C 
HETATM   22  C28 UNL     1      -2.597  51.019 -25.128  1.00  0.00    -0.029 C 
HETATM   23  C29 UNL     1      -3.687  52.133 -25.097  1.00  0.00     0.016 C 
ENDROOT
BRANCH   1  24
HETATM   24  C6  UNL     1      -0.940  52.745 -26.338  1.00  0.00    -0.014 C 
HETATM   25  C7  UNL     1      -0.927  53.386 -27.732  1.00  0.00     0.010 C 
BRANCH  24  26
HETATM   26  C5  UNL     1       0.499  52.678 -25.752  1.00  0.00     0.008 C 
BRANCH  26  27
HETATM   27  C4  UNL     1       0.694  53.477 -24.460  1.00  0.00     0.028 C 
BRANCH  27  28
HETATM   28  C3  UNL     1       0.471  52.631 -23.235  1.00  0.00    -0.022 C 
HETATM   29  C2  UNL     1       0.792  52.956 -21.966  1.00  0.00    -0.064 C 
HETATM   30  C1  UNL     1       0.470  52.027 -20.826  1.00  0.00     0.045 C 
BRANCH  29  31
HETATM   31  C30 UNL     1       1.495  54.232 -21.577  1.00  0.00     0.197 C 
BRANCH  31  32
HETATM   32  O2  UNL     1       1.540  54.355 -20.162  1.00  0.00    -0.397 OA
HETATM   33  H48 UNL     1       1.532  53.456 -19.792  1.00  0.00     0.209 HD
ENDBRANCH  31  32
ENDBRANCH  29  31
ENDBRANCH  27  28
ENDBRANCH  26  27
ENDBRANCH  24  26
ENDBRANCH   1  24
TORSDOF 6
ENDMDL
MODEL 9
REMARK minimizedAffinity -8.43558502
REMARK  6 active torsions:
REMARK  status: ('A' for Active; 'I' for Inactive)
REMARK    1  A    between atoms: C2_2  and  C30_31 
REMARK    2  A    between atoms: C3_3  and  C4_4 
REMARK    3  A    between atoms: C4_4  and  C5_5 
REMARK    4  A    between atoms: C5_5  and  C6_6 
REMARK    5  A    between atoms: C6_6  and  C8_8 
REMARK    6  A    between atoms: C30_31  and  O2_32 
ROOT
HETATM    1  C8  UNL     1      -5.722  48.125 -21.040  1.00  0.00    -0.002 C 
HETATM    2  C9  UNL     1      -6.166  47.285 -22.266  1.00  0.00     0.007 C 
HETATM    3  C10 UNL     1      -5.383  47.822 -23.485  1.00  0.00     0.015 C 
HETATM    4  C11 UNL     1      -4.730  49.135 -22.997  1.00  0.00    -0.013 C 
HETATM    5  C12 UNL     1      -5.820  50.241 -23.174  1.00  0.00     0.021 C 
HETATM    6  C13 UNL     1      -3.494  49.655 -23.719  1.00  0.00    -0.070 C 
HETATM    7  C14 UNL     1      -3.273  49.426 -25.026  1.00  0.00    -0.022 C 
HETATM    8  C15 UNL     1      -2.162  50.038 -25.819  1.00  0.00     0.034 C 
HETATM    9  C16 UNL     1      -1.119  50.839 -25.003  1.00  0.00     0.013 C 
HETATM   10  C17 UNL     1      -0.183  51.723 -25.911  1.00  0.00     0.018 C 
HETATM   11  C18 UNL     1      -0.880  52.357 -27.135  1.00  0.00     0.023 C 
HETATM   12  C19 UNL     1       0.981  50.862 -26.446  1.00  0.00     0.023 C 
HETATM   13  C20 UNL     1       0.445  52.841 -25.074  1.00  0.00     0.135 C 
HETATM   14  O1  UNL     1       0.836  53.900 -25.566  1.00  0.00    -0.297 OA
HETATM   15  C21 UNL     1       0.665  52.554 -23.614  1.00  0.00     0.080 C 
HETATM   16  C22 UNL     1      -0.634  52.229 -22.898  1.00  0.00     0.017 C 
HETATM   17  C23 UNL     1      -1.758  51.587 -23.771  1.00  0.00    -0.031 C 
HETATM   18  C24 UNL     1      -2.723  52.705 -24.233  1.00  0.00     0.016 C 
HETATM   19  C25 UNL     1      -2.521  50.505 -22.897  1.00  0.00     0.024 C 
HETATM   20  C26 UNL     1      -3.139  51.046 -21.578  1.00  0.00     0.010 C 
HETATM   21  C27 UNL     1      -3.964  50.033 -20.745  1.00  0.00     0.011 C 
HETATM   22  C28 UNL     1      -4.379  48.764 -21.516  1.00  0.00    -0.029 C 
HETATM   23  C29 UNL     1      -3.236  47.711 -21.389  1.00  0.00     0.016 C 
ENDROOT
BRANCH   1  24
HETATM   24  C6  UNL     1      -5.757  47.417 -19.651  1.00  0.00    -0.014 C 
HETATM   25  C7  UNL     1      -5.949  45.896 -19.704  1.00  0.00     0.010 C 
BRANCH  24  26
HETATM   26  C5  UNL     1      -6.858  48.079 -18.774  1.00  0.00     0.008 C 
BRANCH  26  27
HETATM   27  C4  UNL     1      -8.016  47.147 -18.404  1.00  0.00     0.028 C 
BRANCH  27  28
HETATM   28  C3  UNL     1      -9.306  47.561 -19.061  1.00  0.00    -0.022 C 
HETATM   29  C2  UNL     1     -10.515  47.650 -18.471  1.00  0.00    -0.064 C 
HETATM   30  C1  UNL     1     -11.718  48.122 -19.242  1.00  0.00     0.045 C 
BRANCH  29  31
HETATM   31  C30 UNL     1     -10.777  47.282 -17.032  1.00  0.00     0.197 C 
BRANCH  31  32
HETATM   32  O2  UNL     1     -10.264  48.288 -16.169  1.00  0.00    -0.397 OA
HETATM   33  H48 UNL     1     -10.282  49.128 -16.659  1.00  0.00     0.209 HD
ENDBRANCH  31  32
ENDBRANCH  29  31
ENDBRANCH  27  28
ENDBRANCH  26  27
ENDBRANCH  24  26
ENDBRANCH   1  24
TORSDOF 6
ENDMDL
