MODEL 1
REMARK minimizedAffinity -8.1102047
REMARK  12 active torsions:
REMARK  status: ('A' for Active; 'I' for Inactive)
REMARK    1  A    between atoms: O1_2  and  C2_3 
REMARK    2  A    between atoms: C3_6  and  C4_7 
REMARK    3  A    between atoms: C4_7  and  C5_8 
REMARK    4  A    between atoms: C6_9  and  C8_11 
REMARK    5  A    between atoms: C8_11  and  C9_12 
REMARK    6  A    between atoms: C10_13  and  C11_14 
REMARK    7  A    between atoms: C13_16  and  C14_17 
REMARK    8  A    between atoms: C14_17  and  C16_19 
REMARK    9  A    between atoms: C16_19  and  O2_20 
REMARK   10  A    between atoms: C16_19  and  C18_22 
REMARK   11  A    between atoms: C24_29  and  O4_30 
REMARK   12  A    between atoms: C25_31  and  O5_32 
ROOT
HETATM    1  C5  UNL     1      -5.817   4.332  12.698  1.00  0.00    -0.018 C 
HETATM    2  C6  UNL     1      -5.168   3.293  12.133  1.00  0.00    -0.084 C 
HETATM    3  C7  UNL     1      -5.835   2.214  11.320  1.00  0.00     0.043 C 
ENDROOT
BRANCH   2   4
HETATM    4  C8  UNL     1      -3.675   3.112  12.336  1.00  0.00     0.060 C 
BRANCH   4   5
HETATM    5  C9  UNL     1      -2.913   4.386  12.081  1.00  0.00    -0.022 C 
HETATM    6  C10 UNL     1      -1.572   4.447  12.034  1.00  0.00     0.003 C 
BRANCH   6   7
HETATM    7  C11 UNL     1      -0.757   5.637  11.777  1.00  0.00    -0.066 C 
HETATM    8  C12 UNL     1      -1.284   6.956  12.273  1.00  0.00     0.048 C 
HETATM    9  C13 UNL     1       0.416   5.473  11.125  1.00  0.00    -0.013 C 
BRANCH   9  10
HETATM   10  C14 UNL     1       1.466   6.490  10.686  1.00  0.00     0.037 C 
HETATM   11  C15 UNL     1       1.415   7.765  11.536  1.00  0.00     0.017 C 
BRANCH  10  12
HETATM   12  C16 UNL     1       2.877   5.851  10.548  1.00  0.00     0.165 C 
BRANCH  12  13
HETATM   13  O2  UNL     1       2.944   5.229   9.247  1.00  0.00    -0.387 OA
HETATM   14  C17 UNL     1       2.580   6.112   8.195  1.00  0.00     0.202 C 
ENDBRANCH  12  13
BRANCH  12  15
HETATM   15  C18 UNL     1       4.023   6.848  10.641  1.00  0.00     0.110 A 
HETATM   16  C19 UNL     1       3.992   8.039   9.728  1.00  0.00     0.051 C 
HETATM   17  O3  UNL     1       4.463   7.134  11.982  1.00  0.00    -0.367 OA
HETATM   18  C20 UNL     1       5.354   6.342  11.191  1.00  0.00     0.155 A 
HETATM   19  C21 UNL     1       6.662   6.984  10.900  1.00  0.00     0.042 C 
ENDBRANCH  12  15
ENDBRANCH  10  12
ENDBRANCH   9  10
ENDBRANCH   6   7
ENDBRANCH   4   5
ENDBRANCH   2   4
BRANCH   1  20
HETATM   20  C4  UNL     1      -7.285   4.679  12.612  1.00  0.00     0.085 C 
BRANCH  20  21
HETATM   21  C3  UNL     1      -7.713   5.850  13.486  1.00  0.00     0.023 A 
HETATM   22  N1  UNL     1      -9.008   5.853  13.911  1.00  0.00    -0.337 N 
HETATM   23  C2  UNL     1      -9.439   6.879  14.679  1.00  0.00     0.179 A 
ATOM     24  H1  UNL     1      -9.641   5.095  13.654  1.00  0.00     0.168 HD
HETATM   25  C25 UNL     1      -8.612   7.913  15.094  1.00  0.00     0.153 A 
HETATM   26  C24 UNL     1      -7.292   7.890  14.650  1.00  0.00     0.111 A 
HETATM   27  C22 UNL     1      -6.797   6.844  13.866  1.00  0.00    -0.003 A 
HETATM   28  C23 UNL     1      -5.368   6.843  13.406  1.00  0.00     0.053 C 
BRANCH  23  29
HETATM   29  O1  UNL     1     -10.768   6.917  15.049  1.00  0.00    -0.339 OA
HETATM   30  C1  UNL     1     -11.661   6.950  13.942  1.00  0.00     0.211 C 
ENDBRANCH  23  29
BRANCH  25  31
HETATM   31  O5  UNL     1      -8.990   8.990  15.853  1.00  0.00    -0.349 OA
HETATM   32  C26 UNL     1      -9.650   9.991  15.075  1.00  0.00     0.210 C 
ENDBRANCH  25  31
BRANCH  26  33
HETATM   33  O4  UNL     1      -6.458   8.924  15.001  1.00  0.00    -0.357 OA
HETATM   34  H36 UNL     1      -7.034   9.592  15.428  1.00  0.00     0.217 HD
ENDBRANCH  26  33
ENDBRANCH  20  21
ENDBRANCH   1  20
TORSDOF 12
ENDMDL
MODEL 2
REMARK minimizedAffinity -8.00663757
REMARK  12 active torsions:
REMARK  status: ('A' for Active; 'I' for Inactive)
REMARK    1  A    between atoms: O1_2  and  C2_3 
REMARK    2  A    between atoms: C3_6  and  C4_7 
REMARK    3  A    between atoms: C4_7  and  C5_8 
REMARK    4  A    between atoms: C6_9  and  C8_11 
REMARK    5  A    between atoms: C8_11  and  C9_12 
REMARK    6  A    between atoms: C10_13  and  C11_14 
REMARK    7  A    between atoms: C13_16  and  C14_17 
REMARK    8  A    between atoms: C14_17  and  C16_19 
REMARK    9  A    between atoms: C16_19  and  O2_20 
REMARK   10  A    between atoms: C16_19  and  C18_22 
REMARK   11  A    between atoms: C24_29  and  O4_30 
REMARK   12  A    between atoms: C25_31  and  O5_32 
ROOT
HETATM    1  C5  UNL     1      -6.068   4.019  13.091  1.00  0.00    -0.018 C 
HETATM    2  C6  UNL     1      -5.155   3.576  12.201  1.00  0.00    -0.084 C 
HETATM    3  C7  UNL     1      -5.469   3.200  10.776  1.00  0.00     0.043 C 
ENDROOT
BRANCH   2   4
HETATM    4  C8  UNL     1      -3.711   3.369  12.615  1.00  0.00     0.060 C 
BRANCH   4   5
HETATM    5  C9  UNL     1      -2.837   4.528  12.213  1.00  0.00    -0.022 C 
HETATM    6  C10 UNL     1      -2.859   5.719  12.835  1.00  0.00     0.003 C 
BRANCH   6   7
HETATM    7  C11 UNL     1      -2.035   6.889  12.519  1.00  0.00    -0.066 C 
HETATM    8  C12 UNL     1      -2.612   8.244  12.829  1.00  0.00     0.048 C 
HETATM    9  C13 UNL     1      -0.812   6.677  11.984  1.00  0.00    -0.013 C 
BRANCH   9  10
HETATM   10  C14 UNL     1       0.261   7.660  11.526  1.00  0.00     0.037 C 
HETATM   11  C15 UNL     1       0.932   8.365  12.710  1.00  0.00     0.017 C 
BRANCH  10  12
HETATM   12  C16 UNL     1       1.243   7.019  10.503  1.00  0.00     0.165 C 
BRANCH  12  13
HETATM   13  O2  UNL     1       0.889   5.626  10.378  1.00  0.00    -0.387 OA
HETATM   14  C17 UNL     1       1.826   4.761  11.004  1.00  0.00     0.202 C 
ENDBRANCH  12  13
BRANCH  12  15
HETATM   15  C18 UNL     1       1.183   7.636   9.114  1.00  0.00     0.110 A 
HETATM   16  C19 UNL     1      -0.073   8.356   8.720  1.00  0.00     0.051 C 
HETATM   17  O3  UNL     1       2.399   8.278   8.688  1.00  0.00    -0.367 OA
HETATM   18  C20 UNL     1       2.090   7.042   8.039  1.00  0.00     0.155 A 
HETATM   19  C21 UNL     1       1.824   7.156   6.581  1.00  0.00     0.042 C 
ENDBRANCH  12  15
ENDBRANCH  10  12
ENDBRANCH   9  10
ENDBRANCH   6   7
ENDBRANCH   4   5
ENDBRANCH   2   4
BRANCH   1  20
HETATM   20  C4  UNL     1      -7.539   4.286  12.871  1.00  0.00     0.085 C 
BRANCH  20  21
HETATM   21  C3  UNL     1      -8.059   5.555  13.532  1.00  0.00     0.023 A 
HETATM   22  N1  UNL     1      -9.404   5.771  13.463  1.00  0.00    -0.337 N 
HETATM   23  C2  UNL     1      -9.913   6.890  14.025  1.00  0.00     0.179 A 
ATOM     24  H1  UNL     1     -10.015   5.100  12.997  1.00  0.00     0.168 HD
HETATM   25  C25 UNL     1      -9.135   7.814  14.708  1.00  0.00     0.153 A 
HETATM   26  C24 UNL     1      -7.764   7.574  14.768  1.00  0.00     0.111 A 
HETATM   27  C22 UNL     1      -7.195   6.424  14.215  1.00  0.00    -0.003 A 
HETATM   28  C23 UNL     1      -5.714   6.188  14.299  1.00  0.00     0.053 C 
BRANCH  23  29
HETATM   29  O1  UNL     1     -11.263   7.143  13.893  1.00  0.00    -0.339 OA
HETATM   30  C1  UNL     1     -11.616   7.674  12.621  1.00  0.00     0.211 C 
ENDBRANCH  23  29
BRANCH  25  31
HETATM   31  O5  UNL     1      -9.584   8.977  15.281  1.00  0.00    -0.349 OA
HETATM   32  C26 UNL     1     -10.042   8.774  16.619  1.00  0.00     0.210 C 
ENDBRANCH  25  31
BRANCH  26  33
HETATM   33  O4  UNL     1      -6.958   8.493  15.396  1.00  0.00    -0.357 OA
HETATM   34  H36 UNL     1      -7.536   9.261  15.586  1.00  0.00     0.217 HD
ENDBRANCH  26  33
ENDBRANCH  20  21
ENDBRANCH   1  20
TORSDOF 12
ENDMDL
MODEL 3
REMARK minimizedAffinity -7.96243429
REMARK  12 active torsions:
REMARK  status: ('A' for Active; 'I' for Inactive)
REMARK    1  A    between atoms: O1_2  and  C2_3 
REMARK    2  A    between atoms: C3_6  and  C4_7 
REMARK    3  A    between atoms: C4_7  and  C5_8 
REMARK    4  A    between atoms: C6_9  and  C8_11 
REMARK    5  A    between atoms: C8_11  and  C9_12 
REMARK    6  A    between atoms: C10_13  and  C11_14 
REMARK    7  A    between atoms: C13_16  and  C14_17 
REMARK    8  A    between atoms: C14_17  and  C16_19 
REMARK    9  A    between atoms: C16_19  and  O2_20 
REMARK   10  A    between atoms: C16_19  and  C18_22 
REMARK   11  A    between atoms: C24_29  and  O4_30 
REMARK   12  A    between atoms: C25_31  and  O5_32 
ROOT
HETATM    1  C5  UNL     1      -3.997   3.547  11.553  1.00  0.00    -0.018 C 
HETATM    2  C6  UNL     1      -3.131   2.515  11.470  1.00  0.00    -0.084 C 
HETATM    3  C7  UNL     1      -3.471   1.088  11.813  1.00  0.00     0.043 C 
ENDROOT
BRANCH   2   4
HETATM    4  C8  UNL     1      -1.688   2.750  11.062  1.00  0.00     0.060 C 
BRANCH   4   5
HETATM    5  C9  UNL     1      -1.351   4.217  11.003  1.00  0.00    -0.022 C 
HETATM    6  C10 UNL     1      -0.485   4.810  11.843  1.00  0.00     0.003 C 
BRANCH   6   7
HETATM    7  C11 UNL     1      -0.091   6.220  11.844  1.00  0.00    -0.066 C 
HETATM    8  C12 UNL     1      -1.119   7.225  12.293  1.00  0.00     0.048 C 
HETATM    9  C13 UNL     1       1.166   6.528  11.456  1.00  0.00    -0.013 C 
BRANCH   9  10
HETATM   10  C14 UNL     1       1.869   7.876  11.321  1.00  0.00     0.037 C 
HETATM   11  C15 UNL     1       2.545   8.300  12.630  1.00  0.00     0.017 C 
BRANCH  10  12
HETATM   12  C16 UNL     1       2.782   7.936  10.063  1.00  0.00     0.165 C 
BRANCH  12  13
HETATM   13  O2  UNL     1       3.501   6.687   9.990  1.00  0.00    -0.387 OA
HETATM   14  C17 UNL     1       4.742   6.724  10.682  1.00  0.00     0.202 C 
ENDBRANCH  12  13
BRANCH  12  15
HETATM   15  C18 UNL     1       2.026   8.109   8.754  1.00  0.00     0.110 A 
HETATM   16  C19 UNL     1       0.578   8.494   8.826  1.00  0.00     0.051 C 
HETATM   17  O3  UNL     1       2.769   8.771   7.714  1.00  0.00    -0.367 OA
HETATM   18  C20 UNL     1       2.558   7.369   7.530  1.00  0.00     0.155 A 
HETATM   19  C21 UNL     1       1.722   7.017   6.352  1.00  0.00     0.042 C 
ENDBRANCH  12  15
ENDBRANCH  10  12
ENDBRANCH   9  10
ENDBRANCH   6   7
ENDBRANCH   4   5
ENDBRANCH   2   4
BRANCH   1  20
HETATM   20  C4  UNL     1      -5.458   3.514  11.936  1.00  0.00     0.085 C 
BRANCH  20  21
HETATM   21  C3  UNL     1      -5.870   4.568  12.956  1.00  0.00     0.023 A 
HETATM   22  N1  UNL     1      -4.911   5.460  13.332  1.00  0.00    -0.337 N 
HETATM   23  C2  UNL     1      -5.225   6.407  14.245  1.00  0.00     0.179 A 
ATOM     24  H1  UNL     1      -3.973   5.414  12.933  1.00  0.00     0.168 HD
HETATM   25  C25 UNL     1      -6.494   6.542  14.789  1.00  0.00     0.153 A 
HETATM   26  C24 UNL     1      -7.460   5.621  14.389  1.00  0.00     0.111 A 
HETATM   27  C22 UNL     1      -7.187   4.634  13.439  1.00  0.00    -0.003 A 
HETATM   28  C23 UNL     1      -8.249   3.657  13.023  1.00  0.00     0.053 C 
BRANCH  23  29
HETATM   29  O1  UNL     1      -4.235   7.264  14.678  1.00  0.00    -0.339 OA
HETATM   30  C1  UNL     1      -3.328   6.663  15.595  1.00  0.00     0.211 C 
ENDBRANCH  23  29
BRANCH  25  31
HETATM   31  O5  UNL     1      -6.872   7.464  15.731  1.00  0.00    -0.349 OA
HETATM   32  C26 UNL     1      -7.240   8.713  15.142  1.00  0.00     0.210 C 
ENDBRANCH  25  31
BRANCH  26  33
HETATM   33  O4  UNL     1      -8.715   5.695  14.944  1.00  0.00    -0.357 OA
HETATM   34  H36 UNL     1      -8.645   6.358  15.662  1.00  0.00     0.217 HD
ENDBRANCH  26  33
ENDBRANCH  20  21
ENDBRANCH   1  20
TORSDOF 12
ENDMDL
MODEL 4
REMARK minimizedAffinity -7.69580126
REMARK  12 active torsions:
REMARK  status: ('A' for Active; 'I' for Inactive)
REMARK    1  A    between atoms: O1_2  and  C2_3 
REMARK    2  A    between atoms: C3_6  and  C4_7 
REMARK    3  A    between atoms: C4_7  and  C5_8 
REMARK    4  A    between atoms: C6_9  and  C8_11 
REMARK    5  A    between atoms: C8_11  and  C9_12 
REMARK    6  A    between atoms: C10_13  and  C11_14 
REMARK    7  A    between atoms: C13_16  and  C14_17 
REMARK    8  A    between atoms: C14_17  and  C16_19 
REMARK    9  A    between atoms: C16_19  and  O2_20 
REMARK   10  A    between atoms: C16_19  and  C18_22 
REMARK   11  A    between atoms: C24_29  and  O4_30 
REMARK   12  A    between atoms: C25_31  and  O5_32 
ROOT
HETATM    1  C5  UNL     1      -3.959   4.806  13.469  1.00  0.00    -0.018 C 
HETATM    2  C6  UNL     1      -4.249   3.724  12.716  1.00  0.00    -0.084 C 
HETATM    3  C7  UNL     1      -3.224   2.752  12.193  1.00  0.00     0.043 C 
ENDROOT
BRANCH   2   4
HETATM    4  C8  UNL     1      -5.677   3.442  12.287  1.00  0.00     0.060 C 
BRANCH   4   5
HETATM    5  C9  UNL     1      -6.562   4.650  12.446  1.00  0.00    -0.022 C 
HETATM    6  C10 UNL     1      -7.877   4.644  12.169  1.00  0.00     0.003 C 
BRANCH   6   7
HETATM    7  C11 UNL     1      -8.808   5.765  12.310  1.00  0.00    -0.066 C 
HETATM    8  C12 UNL     1      -9.422   6.316  11.051  1.00  0.00     0.048 C 
HETATM    9  C13 UNL     1      -9.066   6.223  13.555  1.00  0.00    -0.013 C 
BRANCH   9  10
HETATM   10  C14 UNL     1      -9.950   7.370  14.035  1.00  0.00     0.037 C 
HETATM   11  C15 UNL     1     -11.348   6.885  14.434  1.00  0.00     0.017 C 
BRANCH  10  12
HETATM   12  C16 UNL     1      -9.236   8.255  15.096  1.00  0.00     0.165 C 
BRANCH  12  13
HETATM   13  O2  UNL     1     -10.097   8.324  16.253  1.00  0.00    -0.387 OA
HETATM   14  C17 UNL     1     -10.439   9.657  16.606  1.00  0.00     0.202 C 
ENDBRANCH  12  13
BRANCH  12  15
HETATM   15  C18 UNL     1      -7.892   7.711  15.556  1.00  0.00     0.110 A 
HETATM   16  C19 UNL     1      -6.653   8.282  14.931  1.00  0.00     0.051 C 
HETATM   17  O3  UNL     1      -7.791   7.475  16.973  1.00  0.00    -0.367 OA
HETATM   18  C20 UNL     1      -7.866   6.306  16.153  1.00  0.00     0.155 A 
HETATM   19  C21 UNL     1      -6.655   5.446  16.185  1.00  0.00     0.042 C 
ENDBRANCH  12  15
ENDBRANCH  10  12
ENDBRANCH   9  10
ENDBRANCH   6   7
ENDBRANCH   4   5
ENDBRANCH   2   4
BRANCH   1  20
HETATM   20  C4  UNL     1      -2.613   5.251  13.991  1.00  0.00     0.085 C 
BRANCH  20  21
HETATM   21  C3  UNL     1      -1.826   6.142  13.040  1.00  0.00     0.023 A 
HETATM   22  N1  UNL     1      -0.998   5.512  12.159  1.00  0.00    -0.337 N 
HETATM   23  C2  UNL     1      -0.268   6.262  11.302  1.00  0.00     0.179 A 
ATOM     24  H1  UNL     1      -0.930   4.494  12.147  1.00  0.00     0.168 HD
HETATM   25  C25 UNL     1      -0.353   7.645  11.247  1.00  0.00     0.153 A 
HETATM   26  C24 UNL     1      -1.206   8.269  12.154  1.00  0.00     0.111 A 
HETATM   27  C22 UNL     1      -1.991   7.536  13.049  1.00  0.00    -0.003 A 
HETATM   28  C23 UNL     1      -2.906   8.234  14.013  1.00  0.00     0.053 C 
BRANCH  23  29
HETATM   29  O1  UNL     1       0.622   5.627  10.461  1.00  0.00    -0.339 OA
HETATM   30  C1  UNL     1       1.921   5.478  11.022  1.00  0.00     0.211 C 
ENDBRANCH  23  29
BRANCH  25  31
HETATM   31  O5  UNL     1       0.373   8.463  10.418  1.00  0.00    -0.349 OA
HETATM   32  C26 UNL     1      -0.209   8.562   9.117  1.00  0.00     0.210 C 
ENDBRANCH  25  31
BRANCH  26  33
HETATM   33  O4  UNL     1      -1.278   9.641  12.159  1.00  0.00    -0.357 OA
HETATM   34  H36 UNL     1      -0.566   9.943  11.559  1.00  0.00     0.217 HD
ENDBRANCH  26  33
ENDBRANCH  20  21
ENDBRANCH   1  20
TORSDOF 12
ENDMDL
MODEL 5
REMARK minimizedAffinity -7.65890217
REMARK  12 active torsions:
REMARK  status: ('A' for Active; 'I' for Inactive)
REMARK    1  A    between atoms: O1_2  and  C2_3 
REMARK    2  A    between atoms: C3_6  and  C4_7 
REMARK    3  A    between atoms: C4_7  and  C5_8 
REMARK    4  A    between atoms: C6_9  and  C8_11 
REMARK    5  A    between atoms: C8_11  and  C9_12 
REMARK    6  A    between atoms: C10_13  and  C11_14 
REMARK    7  A    between atoms: C13_16  and  C14_17 
REMARK    8  A    between atoms: C14_17  and  C16_19 
REMARK    9  A    between atoms: C16_19  and  O2_20 
REMARK   10  A    between atoms: C16_19  and  C18_22 
REMARK   11  A    between atoms: C24_29  and  O4_30 
REMARK   12  A    between atoms: C25_31  and  O5_32 
ROOT
HETATM    1  C5  UNL     1      -6.690   4.976  14.070  1.00  0.00    -0.018 C 
HETATM    2  C6  UNL     1      -6.717   3.991  13.147  1.00  0.00    -0.084 C 
HETATM    3  C7  UNL     1      -7.779   2.926  13.070  1.00  0.00     0.043 C 
ENDROOT
BRANCH   2   4
HETATM    4  C8  UNL     1      -5.603   3.861  12.125  1.00  0.00     0.060 C 
BRANCH   4   5
HETATM    5  C9  UNL     1      -4.244   4.041  12.746  1.00  0.00    -0.022 C 
HETATM    6  C10 UNL     1      -3.397   5.025  12.400  1.00  0.00     0.003 C 
BRANCH   6   7
HETATM    7  C11 UNL     1      -2.069   5.279  12.963  1.00  0.00    -0.066 C 
HETATM    8  C12 UNL     1      -1.966   5.401  14.460  1.00  0.00     0.048 C 
HETATM    9  C13 UNL     1      -1.026   5.374  12.110  1.00  0.00    -0.013 C 
BRANCH   9  10
HETATM   10  C14 UNL     1       0.453   5.653  12.366  1.00  0.00     0.037 C 
HETATM   11  C15 UNL     1       1.346   5.026  11.290  1.00  0.00     0.017 C 
BRANCH  10  12
HETATM   12  C16 UNL     1       0.724   7.159  12.646  1.00  0.00     0.165 C 
BRANCH  12  13
HETATM   13  O2  UNL     1       2.155   7.337  12.708  1.00  0.00    -0.387 OA
HETATM   14  C17 UNL     1       2.606   7.725  13.998  1.00  0.00     0.202 C 
ENDBRANCH  12  13
BRANCH  12  15
HETATM   15  C18 UNL     1       0.189   8.097  11.573  1.00  0.00     0.110 A 
HETATM   16  C19 UNL     1      -1.131   8.766  11.821  1.00  0.00     0.051 C 
HETATM   17  O3  UNL     1       1.183   8.943  10.965  1.00  0.00    -0.367 OA
HETATM   18  C20 UNL     1       0.681   7.886  10.144  1.00  0.00     0.155 A 
HETATM   19  C21 UNL     1      -0.066   8.337   8.941  1.00  0.00     0.042 C 
ENDBRANCH  12  15
ENDBRANCH  10  12
ENDBRANCH   9  10
ENDBRANCH   6   7
ENDBRANCH   4   5
ENDBRANCH   2   4
BRANCH   1  20
HETATM   20  C4  UNL     1      -7.695   5.268  15.159  1.00  0.00     0.085 C 
BRANCH  20  21
HETATM   21  C3  UNL     1      -8.581   6.478  14.897  1.00  0.00     0.023 A 
HETATM   22  N1  UNL     1      -9.806   6.230  14.351  1.00  0.00    -0.337 N 
HETATM   23  C2  UNL     1     -10.625   7.274  14.088  1.00  0.00     0.179 A 
ATOM     24  H1  UNL     1     -10.100   5.275  14.145  1.00  0.00     0.168 HD
HETATM   25  C25 UNL     1     -10.294   8.588  14.386  1.00  0.00     0.153 A 
HETATM   26  C24 UNL     1      -9.039   8.819  14.944  1.00  0.00     0.111 A 
HETATM   27  C22 UNL     1      -8.165   7.772  15.247  1.00  0.00    -0.003 A 
HETATM   28  C23 UNL     1      -6.819   8.049  15.854  1.00  0.00     0.053 C 
BRANCH  23  29
HETATM   29  O1  UNL     1     -11.833   7.028  13.470  1.00  0.00    -0.339 OA
HETATM   30  C1  UNL     1     -12.749   6.308  14.287  1.00  0.00     0.211 C 
ENDBRANCH  23  29
BRANCH  25  31
HETATM   31  O5  UNL     1     -11.067   9.691  14.126  1.00  0.00    -0.349 OA
HETATM   32  C26 UNL     1     -12.026   9.929  15.158  1.00  0.00     0.210 C 
ENDBRANCH  25  31
BRANCH  26  33
HETATM   33  O4  UNL     1      -8.660  10.113  15.207  1.00  0.00    -0.357 OA
HETATM   34  H36 UNL     1      -9.353  10.676  14.805  1.00  0.00     0.217 HD
ENDBRANCH  26  33
ENDBRANCH  20  21
ENDBRANCH   1  20
TORSDOF 12
ENDMDL
MODEL 6
REMARK minimizedAffinity -7.61109638
REMARK  12 active torsions:
REMARK  status: ('A' for Active; 'I' for Inactive)
REMARK    1  A    between atoms: O1_2  and  C2_3 
REMARK    2  A    between atoms: C3_6  and  C4_7 
REMARK    3  A    between atoms: C4_7  and  C5_8 
REMARK    4  A    between atoms: C6_9  and  C8_11 
REMARK    5  A    between atoms: C8_11  and  C9_12 
REMARK    6  A    between atoms: C10_13  and  C11_14 
REMARK    7  A    between atoms: C13_16  and  C14_17 
REMARK    8  A    between atoms: C14_17  and  C16_19 
REMARK    9  A    between atoms: C16_19  and  O2_20 
REMARK   10  A    between atoms: C16_19  and  C18_22 
REMARK   11  A    between atoms: C24_29  and  O4_30 
REMARK   12  A    between atoms: C25_31  and  O5_32 
ROOT
HETATM    1  C5  UNL     1      -1.020   5.073  12.113  1.00  0.00    -0.018 C 
HETATM    2  C6  UNL     1      -1.233   3.770  11.831  1.00  0.00    -0.084 C 
HETATM    3  C7  UNL     1      -0.144   2.779  11.516  1.00  0.00     0.043 C 
ENDROOT
BRANCH   2   4
HETATM    4  C8  UNL     1      -2.644   3.218  11.759  1.00  0.00     0.060 C 
BRANCH   4   5
HETATM    5  C9  UNL     1      -3.619   4.055  12.545  1.00  0.00    -0.022 C 
HETATM    6  C10 UNL     1      -3.255   4.852  13.563  1.00  0.00     0.003 C 
BRANCH   6   7
HETATM    7  C11 UNL     1      -4.133   5.707  14.365  1.00  0.00    -0.066 C 
HETATM    8  C12 UNL     1      -3.618   6.161  15.705  1.00  0.00     0.048 C 
HETATM    9  C13 UNL     1      -5.336   6.041  13.850  1.00  0.00    -0.013 C 
BRANCH   9  10
HETATM   10  C14 UNL     1      -6.474   6.878  14.429  1.00  0.00     0.037 C 
HETATM   11  C15 UNL     1      -6.186   8.380  14.326  1.00  0.00     0.017 C 
BRANCH  10  12
HETATM   12  C16 UNL     1      -7.861   6.438  13.881  1.00  0.00     0.165 C 
BRANCH  12  13
HETATM   13  O2  UNL     1      -7.880   4.995  13.859  1.00  0.00    -0.387 OA
HETATM   14  C17 UNL     1      -8.360   4.468  12.629  1.00  0.00     0.202 C 
ENDBRANCH  12  13
BRANCH  12  15
HETATM   15  C18 UNL     1      -9.039   6.900  14.726  1.00  0.00     0.110 A 
HETATM   16  C19 UNL     1     -10.311   7.261  14.017  1.00  0.00     0.051 C 
HETATM   17  O3  UNL     1      -9.225   6.166  15.951  1.00  0.00    -0.367 OA
HETATM   18  C20 UNL     1      -8.731   7.501  16.095  1.00  0.00     0.155 A 
HETATM   19  C21 UNL     1      -9.646   8.426  16.813  1.00  0.00     0.042 C 
ENDBRANCH  12  15
ENDBRANCH  10  12
ENDBRANCH   9  10
ENDBRANCH   6   7
ENDBRANCH   4   5
ENDBRANCH   2   4
BRANCH   1  20
HETATM   20  C4  UNL     1       0.298   5.803  12.230  1.00  0.00     0.085 C 
BRANCH  20  21
HETATM   21  C3  UNL     1       0.831   6.362  10.918  1.00  0.00     0.023 A 
HETATM   22  N1  UNL     1       1.796   5.632  10.291  1.00  0.00    -0.337 N 
HETATM   23  C2  UNL     1       2.310   6.094   9.129  1.00  0.00     0.179 A 
ATOM     24  H1  UNL     1       2.124   4.752  10.691  1.00  0.00     0.168 HD
HETATM   25  C25 UNL     1       1.873   7.261   8.519  1.00  0.00     0.153 A 
HETATM   26  C24 UNL     1       0.885   7.992   9.176  1.00  0.00     0.111 A 
HETATM   27  C22 UNL     1       0.314   7.547  10.371  1.00  0.00    -0.003 A 
HETATM   28  C23 UNL     1      -0.753   8.353  11.055  1.00  0.00     0.053 C 
BRANCH  23  29
HETATM   29  O1  UNL     1       3.336   5.390   8.532  1.00  0.00    -0.339 OA
HETATM   30  C1  UNL     1       3.749   4.251   9.278  1.00  0.00     0.211 C 
ENDBRANCH  23  29
BRANCH  25  31
HETATM   31  O5  UNL     1       2.365   7.795   7.356  1.00  0.00    -0.349 OA
HETATM   32  C26 UNL     1       1.728   7.245   6.201  1.00  0.00     0.210 C 
ENDBRANCH  25  31
BRANCH  26  33
HETATM   33  O4  UNL     1       0.462   9.177   8.625  1.00  0.00    -0.357 OA
HETATM   34  H36 UNL     1       1.075   9.353   7.881  1.00  0.00     0.217 HD
ENDBRANCH  26  33
ENDBRANCH  20  21
ENDBRANCH   1  20
TORSDOF 12
ENDMDL
MODEL 7
REMARK minimizedAffinity -7.57146835
REMARK  12 active torsions:
REMARK  status: ('A' for Active; 'I' for Inactive)
REMARK    1  A    between atoms: O1_2  and  C2_3 
REMARK    2  A    between atoms: C3_6  and  C4_7 
REMARK    3  A    between atoms: C4_7  and  C5_8 
REMARK    4  A    between atoms: C6_9  and  C8_11 
REMARK    5  A    between atoms: C8_11  and  C9_12 
REMARK    6  A    between atoms: C10_13  and  C11_14 
REMARK    7  A    between atoms: C13_16  and  C14_17 
REMARK    8  A    between atoms: C14_17  and  C16_19 
REMARK    9  A    between atoms: C16_19  and  O2_20 
REMARK   10  A    between atoms: C16_19  and  C18_22 
REMARK   11  A    between atoms: C24_29  and  O4_30 
REMARK   12  A    between atoms: C25_31  and  O5_32 
ROOT
HETATM    1  C5  UNL     1      -3.115   4.574  13.552  1.00  0.00    -0.018 C 
HETATM    2  C6  UNL     1      -1.941   4.894  12.969  1.00  0.00    -0.084 C 
HETATM    3  C7  UNL     1      -1.593   4.593  11.535  1.00  0.00     0.043 C 
ENDROOT
BRANCH   2   4
HETATM    4  C8  UNL     1      -0.835   5.554  13.772  1.00  0.00     0.060 C 
BRANCH   4   5
HETATM    5  C9  UNL     1       0.266   6.078  12.889  1.00  0.00    -0.022 C 
HETATM    6  C10 UNL     1       1.258   6.867  13.336  1.00  0.00     0.003 C 
BRANCH   6   7
HETATM    7  C11 UNL     1       2.371   7.406  12.551  1.00  0.00    -0.066 C 
HETATM    8  C12 UNL     1       2.812   8.813  12.853  1.00  0.00     0.048 C 
HETATM    9  C13 UNL     1       2.937   6.606  11.620  1.00  0.00    -0.013 C 
BRANCH   9  10
HETATM   10  C14 UNL     1       4.074   6.866  10.636  1.00  0.00     0.037 C 
HETATM   11  C15 UNL     1       5.405   6.299  11.141  1.00  0.00     0.017 C 
BRANCH  10  12
HETATM   12  C16 UNL     1       3.697   6.457   9.184  1.00  0.00     0.165 C 
BRANCH  12  13
HETATM   13  O2  UNL     1       3.023   5.182   9.255  1.00  0.00    -0.387 OA
HETATM   14  C17 UNL     1       3.876   4.090   8.945  1.00  0.00     0.202 C 
ENDBRANCH  12  13
BRANCH  12  15
HETATM   15  C18 UNL     1       2.762   7.433   8.486  1.00  0.00     0.110 A 
HETATM   16  C19 UNL     1       3.305   8.783   8.119  1.00  0.00     0.051 C 
HETATM   17  O3  UNL     1       1.909   6.841   7.488  1.00  0.00    -0.367 OA
HETATM   18  C20 UNL     1       1.262   7.246   8.697  1.00  0.00     0.155 A 
HETATM   19  C21 UNL     1       0.264   8.335   8.530  1.00  0.00     0.042 C 
ENDBRANCH  12  15
ENDBRANCH  10  12
ENDBRANCH   9  10
ENDBRANCH   6   7
ENDBRANCH   4   5
ENDBRANCH   2   4
BRANCH   1  20
HETATM   20  C4  UNL     1      -4.325   3.920  12.926  1.00  0.00     0.085 C 
BRANCH  20  21
HETATM   21  C3  UNL     1      -5.652   4.587  13.263  1.00  0.00     0.023 A 
HETATM   22  N1  UNL     1      -5.586   5.819  13.842  1.00  0.00    -0.337 N 
HETATM   23  C2  UNL     1      -6.737   6.446  14.172  1.00  0.00     0.179 A 
ATOM     24  H1  UNL     1      -4.683   6.260  14.023  1.00  0.00     0.168 HD
HETATM   25  C25 UNL     1      -7.991   5.913  13.910  1.00  0.00     0.153 A 
HETATM   26  C24 UNL     1      -8.036   4.653  13.316  1.00  0.00     0.111 A 
HETATM   27  C22 UNL     1      -6.874   3.973  12.945  1.00  0.00    -0.003 A 
HETATM   28  C23 UNL     1      -6.952   2.618  12.302  1.00  0.00     0.053 C 
BRANCH  23  29
HETATM   29  O1  UNL     1      -6.667   7.661  14.822  1.00  0.00    -0.339 OA
HETATM   30  C1  UNL     1      -7.942   8.235  15.086  1.00  0.00     0.211 C 
ENDBRANCH  23  29
BRANCH  25  31
HETATM   31  O5  UNL     1      -9.194   6.486  14.236  1.00  0.00    -0.349 OA
HETATM   32  C26 UNL     1     -10.041   6.640  13.097  1.00  0.00     0.210 C 
ENDBRANCH  25  31
BRANCH  26  33
HETATM   33  O4  UNL     1      -9.261   4.074  13.086  1.00  0.00    -0.357 OA
HETATM   34  H36 UNL     1      -9.912   4.653  13.533  1.00  0.00     0.217 HD
ENDBRANCH  26  33
ENDBRANCH  20  21
ENDBRANCH   1  20
TORSDOF 12
ENDMDL
MODEL 8
REMARK minimizedAffinity -7.50793982
REMARK  12 active torsions:
REMARK  status: ('A' for Active; 'I' for Inactive)
REMARK    1  A    between atoms: O1_2  and  C2_3 
REMARK    2  A    between atoms: C3_6  and  C4_7 
REMARK    3  A    between atoms: C4_7  and  C5_8 
REMARK    4  A    between atoms: C6_9  and  C8_11 
REMARK    5  A    between atoms: C8_11  and  C9_12 
REMARK    6  A    between atoms: C10_13  and  C11_14 
REMARK    7  A    between atoms: C13_16  and  C14_17 
REMARK    8  A    between atoms: C14_17  and  C16_19 
REMARK    9  A    between atoms: C16_19  and  O2_20 
REMARK   10  A    between atoms: C16_19  and  C18_22 
REMARK   11  A    between atoms: C24_29  and  O4_30 
REMARK   12  A    between atoms: C25_31  and  O5_32 
ROOT
HETATM    1  C5  UNL     1      -3.724   4.664  13.076  1.00  0.00    -0.018 C 
HETATM    2  C6  UNL     1      -4.270   3.660  12.358  1.00  0.00    -0.084 C 
HETATM    3  C7  UNL     1      -3.497   2.493  11.802  1.00  0.00     0.043 C 
ENDROOT
BRANCH   2   4
HETATM    4  C8  UNL     1      -5.747   3.676  12.008  1.00  0.00     0.060 C 
BRANCH   4   5
HETATM    5  C9  UNL     1      -6.597   4.117  13.170  1.00  0.00    -0.022 C 
HETATM    6  C10 UNL     1      -7.137   5.344  13.266  1.00  0.00     0.003 C 
BRANCH   6   7
HETATM    7  C11 UNL     1      -7.985   5.847  14.349  1.00  0.00    -0.066 C 
HETATM    8  C12 UNL     1      -7.606   5.468  15.755  1.00  0.00     0.048 C 
HETATM    9  C13 UNL     1      -9.040   6.625  14.019  1.00  0.00    -0.013 C 
BRANCH   9  10
HETATM   10  C14 UNL     1     -10.112   7.275  14.889  1.00  0.00     0.037 C 
HETATM   11  C15 UNL     1      -9.586   8.523  15.606  1.00  0.00     0.017 C 
BRANCH  10  12
HETATM   12  C16 UNL     1     -11.448   7.477  14.117  1.00  0.00     0.165 C 
BRANCH  12  13
HETATM   13  O2  UNL     1     -12.520   7.075  14.995  1.00  0.00    -0.387 OA
HETATM   14  C17 UNL     1     -13.359   6.082  14.421  1.00  0.00     0.202 C 
ENDBRANCH  12  13
BRANCH  12  15
HETATM   15  C18 UNL     1     -11.711   8.915  13.698  1.00  0.00     0.110 A 
HETATM   16  C19 UNL     1     -11.555   9.988  14.735  1.00  0.00     0.051 C 
HETATM   17  O3  UNL     1     -11.204   9.265  12.396  1.00  0.00    -0.367 OA
HETATM   18  C20 UNL     1     -12.625   9.143  12.497  1.00  0.00     0.155 A 
HETATM   19  C21 UNL     1     -13.374  10.405  12.259  1.00  0.00     0.042 C 
ENDBRANCH  12  15
ENDBRANCH  10  12
ENDBRANCH   9  10
ENDBRANCH   6   7
ENDBRANCH   4   5
ENDBRANCH   2   4
BRANCH   1  20
HETATM   20  C4  UNL     1      -2.290   4.825  13.521  1.00  0.00     0.085 C 
BRANCH  20  21
HETATM   21  C3  UNL     1      -1.447   5.729  12.632  1.00  0.00     0.023 A 
HETATM   22  N1  UNL     1      -1.708   7.065  12.699  1.00  0.00    -0.337 N 
HETATM   23  C2  UNL     1      -0.994   7.908  11.919  1.00  0.00     0.179 A 
ATOM     24  H1  UNL     1      -2.428   7.423  13.327  1.00  0.00     0.168 HD
HETATM   25  C25 UNL     1       0.024   7.482  11.079  1.00  0.00     0.153 A 
HETATM   26  C24 UNL     1       0.276   6.112  11.027  1.00  0.00     0.111 A 
HETATM   27  C22 UNL     1      -0.426   5.205  11.824  1.00  0.00    -0.003 A 
HETATM   28  C23 UNL     1      -0.130   3.734  11.751  1.00  0.00     0.053 C 
BRANCH  23  29
HETATM   29  O1  UNL     1      -1.308   9.252  11.936  1.00  0.00    -0.339 OA
HETATM   30  C1  UNL     1      -1.644   9.738  13.230  1.00  0.00     0.211 C 
ENDBRANCH  23  29
BRANCH  25  31
HETATM   31  O5  UNL     1       0.770   8.279  10.249  1.00  0.00    -0.349 OA
HETATM   32  C26 UNL     1       0.127   8.493   8.991  1.00  0.00     0.210 C 
ENDBRANCH  25  31
BRANCH  26  33
HETATM   33  O4  UNL     1       1.245   5.650  10.170  1.00  0.00    -0.357 OA
HETATM   34  H36 UNL     1       1.507   6.424   9.629  1.00  0.00     0.217 HD
ENDBRANCH  26  33
ENDBRANCH  20  21
ENDBRANCH   1  20
TORSDOF 12
ENDMDL
MODEL 9
REMARK minimizedAffinity -7.50768805
REMARK  12 active torsions:
REMARK  status: ('A' for Active; 'I' for Inactive)
REMARK    1  A    between atoms: O1_2  and  C2_3 
REMARK    2  A    between atoms: C3_6  and  C4_7 
REMARK    3  A    between atoms: C4_7  and  C5_8 
REMARK    4  A    between atoms: C6_9  and  C8_11 
REMARK    5  A    between atoms: C8_11  and  C9_12 
REMARK    6  A    between atoms: C10_13  and  C11_14 
REMARK    7  A    between atoms: C13_16  and  C14_17 
REMARK    8  A    between atoms: C14_17  and  C16_19 
REMARK    9  A    between atoms: C16_19  and  O2_20 
REMARK   10  A    between atoms: C16_19  and  C18_22 
REMARK   11  A    between atoms: C24_29  and  O4_30 
REMARK   12  A    between atoms: C25_31  and  O5_32 
ROOT
HETATM    1  C5  UNL     1      -0.196   7.525  12.392  1.00  0.00    -0.018 C 
HETATM    2  C6  UNL     1      -0.233   6.195  12.164  1.00  0.00    -0.084 C 
HETATM    3  C7  UNL     1       0.439   5.512  11.002  1.00  0.00     0.043 C 
ENDROOT
BRANCH   2   4
HETATM    4  C8  UNL     1      -1.033   5.279  13.072  1.00  0.00     0.060 C 
BRANCH   4   5
HETATM    5  C9  UNL     1      -2.475   5.185  12.648  1.00  0.00    -0.022 C 
HETATM    6  C10 UNL     1      -3.151   4.025  12.584  1.00  0.00     0.003 C 
BRANCH   6   7
HETATM    7  C11 UNL     1      -4.553   3.848  12.199  1.00  0.00    -0.066 C 
HETATM    8  C12 UNL     1      -4.831   3.057  10.948  1.00  0.00     0.048 C 
HETATM    9  C13 UNL     1      -5.503   4.392  12.992  1.00  0.00    -0.013 C 
BRANCH   9  10
HETATM   10  C14 UNL     1      -7.023   4.411  12.861  1.00  0.00     0.037 C 
HETATM   11  C15 UNL     1      -7.696   3.511  13.903  1.00  0.00     0.017 C 
BRANCH  10  12
HETATM   12  C16 UNL     1      -7.585   5.859  12.786  1.00  0.00     0.165 C 
BRANCH  12  13
HETATM   13  O2  UNL     1      -9.018   5.760  12.642  1.00  0.00    -0.387 OA
HETATM   14  C17 UNL     1      -9.470   6.151  11.353  1.00  0.00     0.202 C 
ENDBRANCH  12  13
BRANCH  12  15
HETATM   15  C18 UNL     1      -7.304   6.700  14.022  1.00  0.00     0.110 A 
HETATM   16  C19 UNL     1      -6.049   7.522  14.040  1.00  0.00     0.051 C 
HETATM   17  O3  UNL     1      -8.458   7.360  14.576  1.00  0.00    -0.367 OA
HETATM   18  C20 UNL     1      -7.947   6.261  15.335  1.00  0.00     0.155 A 
HETATM   19  C21 UNL     1      -7.417   6.626  16.674  1.00  0.00     0.042 C 
ENDBRANCH  12  15
ENDBRANCH  10  12
ENDBRANCH   9  10
ENDBRANCH   6   7
ENDBRANCH   4   5
ENDBRANCH   2   4
BRANCH   1  20
HETATM   20  C4  UNL     1       0.537   8.590  11.609  1.00  0.00     0.085 C 
BRANCH  20  21
HETATM   21  C3  UNL     1       2.008   8.289  11.353  1.00  0.00     0.023 A 
HETATM   22  N1  UNL     1       2.293   7.534  10.254  1.00  0.00    -0.337 N 
HETATM   23  C2  UNL     1       3.585   7.230   9.991  1.00  0.00     0.179 A 
ATOM     24  H1  UNL     1       1.547   7.206   9.641  1.00  0.00     0.168 HD
HETATM   25  C25 UNL     1       4.642   7.685  10.766  1.00  0.00     0.153 A 
HETATM   26  C24 UNL     1       4.328   8.456  11.883  1.00  0.00     0.111 A 
HETATM   27  C22 UNL     1       3.011   8.808  12.187  1.00  0.00    -0.003 A 
HETATM   28  C23 UNL     1       2.702   9.644  13.395  1.00  0.00     0.053 C 
BRANCH  23  29
HETATM   29  O1  UNL     1       3.866   6.407   8.920  1.00  0.00    -0.339 OA
HETATM   30  C1  UNL     1       2.703   5.928   8.255  1.00  0.00     0.211 C 
ENDBRANCH  23  29
BRANCH  25  31
HETATM   31  O5  UNL     1       5.968   7.396  10.567  1.00  0.00    -0.349 OA
HETATM   32  C26 UNL     1       6.366   6.206  11.250  1.00  0.00     0.210 C 
ENDBRANCH  25  31
BRANCH  26  33
HETATM   33  O4  UNL     1       5.347   8.883  12.700  1.00  0.00    -0.357 OA
HETATM   34  H36 UNL     1       6.150   8.422  12.379  1.00  0.00     0.217 HD
ENDBRANCH  26  33
ENDBRANCH  20  21
ENDBRANCH   1  20
TORSDOF 12
ENDMDL
