MODEL 1
REMARK minimizedAffinity -7.94341373
REMARK CNNscore 0.473643363
REMARK CNNaffinity 6.84483957
REMARK  14 active torsions:
REMARK  status: ('A' for Active; 'I' for Inactive)
REMARK    1  A    between atoms: O1_2  and  C2_3 
REMARK    2  A    between atoms: C2_3  and  C3_5 
REMARK    3  A    between atoms: C3_5  and  C4_6 
REMARK    4  A    between atoms: C3_5  and  N2_16 
REMARK    5  A    between atoms: C4_6  and  C5_7 
REMARK       I    between atoms: N2_16  and  C13_17 
REMARK    6  A    between atoms: C13_17  and  C14_19 
REMARK    7  A    between atoms: C14_19  and  C15_20 
REMARK    8  A    between atoms: C15_20  and  C16_21 
REMARK    9  A    between atoms: C16_21  and  O5_23 
REMARK   10  A    between atoms: O5_23  and  C17_24 
REMARK   11  A    between atoms: C17_24  and  C18_25 
REMARK   12  A    between atoms: C18_25  and  C19_27 
REMARK   13  A    between atoms: C19_27  and  O7_28 
REMARK   14  A    between atoms: C34_44  and  O9_45 
ROOT
HETATM    1  C17 UNL     1      -2.429   8.696  15.301  1.00  0.00     0.260 C 
ENDROOT
BRANCH   1   2
HETATM    2  O5  UNL     1      -2.029   9.094  16.616  1.00  0.00    -0.314 OA
BRANCH   2   3
HETATM    3  C16 UNL     1      -2.612  10.238  17.062  1.00  0.00     0.259 C 
HETATM    4  O4  UNL     1      -3.035  10.407  18.198  1.00  0.00    -0.265 OA
BRANCH   3   5
HETATM    5  C15 UNL     1      -2.638  11.268  15.964  1.00  0.00     0.120 C 
BRANCH   5   6
HETATM    6  C14 UNL     1      -4.065  11.704  15.655  1.00  0.00     0.112 C 
BRANCH   6   7
HETATM    7  C13 UNL     1      -4.252  13.191  15.861  1.00  0.00     0.218 C 
HETATM    8  N2  UNL     1      -5.276  13.717  15.103  1.00  0.00    -0.347 N 
HETATM    9  H13 UNL     1      -5.973  13.067  14.757  1.00  0.00     0.163 HD
HETATM   10  O3  UNL     1      -3.570  13.863  16.625  1.00  0.00    -0.274 OA
BRANCH   8  11
HETATM   11  C3  UNL     1      -5.724  15.102  15.313  1.00  0.00     0.188 C 
BRANCH  11  12
HETATM   12  C2  UNL     1      -4.936  16.003  14.359  1.00  0.00     0.281 C 
HETATM   13  O2  UNL     1      -3.917  15.660  13.771  1.00  0.00    -0.263 OA
BRANCH  12  14
HETATM   14  O1  UNL     1      -5.489  17.248  14.304  1.00  0.00    -0.325 OA
HETATM   15  C1  UNL     1      -4.568  18.305  14.574  1.00  0.00     0.213 C 
ENDBRANCH  12  14
ENDBRANCH  11  12
BRANCH  11  16
HETATM   16  C4  UNL     1      -5.457  15.588  16.742  1.00  0.00     0.076 C 
BRANCH  16  17
HETATM   17  C5  UNL     1      -6.556  15.339  17.736  1.00  0.00    -0.028 A 
HETATM   18  C6  UNL     1      -7.881  15.726  17.668  1.00  0.00     0.096 A 
HETATM   19  N1  UNL     1      -8.523  15.287  18.795  1.00  0.00    -0.365 N 
HETATM   20  C7  UNL     1      -7.643  14.624  19.617  1.00  0.00     0.042 A 
HETATM   21  H8  UNL     1      -9.502  15.432  19.001  1.00  0.00     0.165 HD
HETATM   22  C8  UNL     1      -7.854  14.018  20.861  1.00  0.00     0.030 A 
HETATM   23  C12 UNL     1      -6.400  14.643  18.984  1.00  0.00    -0.002 A 
HETATM   24  C9  UNL     1      -6.756  13.412  21.481  1.00  0.00     0.002 A 
HETATM   25  C10 UNL     1      -5.500  13.417  20.878  1.00  0.00     0.001 A 
HETATM   26  C11 UNL     1      -5.308  14.027  19.633  1.00  0.00     0.014 A 
ENDBRANCH  16  17
ENDBRANCH  11  16
ENDBRANCH   8  11
ENDBRANCH   6   7
ENDBRANCH   5   6
ENDBRANCH   3   5
ENDBRANCH   2   3
ENDBRANCH   1   2
BRANCH   1  27
HETATM   27  C18 UNL     1      -1.538   7.564  14.795  1.00  0.00     0.185 C 
HETATM   28  O6  UNL     1      -0.898   6.848  15.568  1.00  0.00    -0.292 OA
BRANCH  27  29
HETATM   29  C19 UNL     1      -1.464   7.372  13.259  1.00  0.00     0.128 C 
HETATM   30  C20 UNL     1      -2.139   8.546  12.488  1.00  0.00     0.047 C 
HETATM   31  C21 UNL     1      -1.280   8.812  11.238  1.00  0.00     0.009 C 
HETATM   32  C22 UNL     1      -0.319   7.632  11.186  1.00  0.00     0.002 C 
HETATM   33  C23 UNL     1       0.933   7.748  10.304  1.00  0.00    -0.002 C 
HETATM   34  C36 UNL     1      -0.011   7.345  12.676  1.00  0.00     0.001 C 
HETATM   35  C24 UNL     1       0.546   8.115   8.859  1.00  0.00     0.010 C 
HETATM   36  C33 UNL     1       1.709   6.387  10.352  1.00  0.00     0.035 C 
HETATM   37  C25 UNL     1       1.746   8.116   7.920  1.00  0.00     0.036 C 
HETATM   38  C26 UNL     1       2.463   6.792   7.995  1.00  0.00    -0.064 A 
HETATM   39  C27 UNL     1       2.600   6.030   6.896  1.00  0.00     0.058 A 
HETATM   40  C31 UNL     1       2.961   6.380   9.389  1.00  0.00     0.004 A 
HETATM   41  C28 UNL     1       3.244   4.701   6.941  1.00  0.00     0.172 A 
HETATM   42  O8  UNL     1       3.369   4.017   5.934  1.00  0.00    -0.289 OA
HETATM   43  C29 UNL     1       3.724   4.230   8.255  1.00  0.00     0.052 A 
HETATM   44  C30 UNL     1       3.590   4.991   9.350  1.00  0.00    -0.009 A 
HETATM   45  C32 UNL     1       4.085   7.355   9.805  1.00  0.00     0.025 C 
HETATM   46  C34 UNL     1       1.975   5.926  11.817  1.00  0.00     0.124 C 
HETATM   47  C35 UNL     1       0.725   5.988  12.726  1.00  0.00     0.045 C 
HETATM   48  C37 UNL     1       0.841   8.454  13.348  1.00  0.00     0.019 C 
BRANCH  29  49
HETATM   49  O7  UNL     1      -2.150   6.166  12.904  1.00  0.00    -0.381 OA
HETATM   50  H20 UNL     1      -3.109   6.312  13.015  1.00  0.00     0.211 HD
ENDBRANCH  29  49
BRANCH  46  51
HETATM   51  O9  UNL     1       3.023   6.680  12.409  1.00  0.00    -0.395 OA
HETATM   52  H39 UNL     1       3.211   6.300  13.285  1.00  0.00     0.210 HD
ENDBRANCH  46  51
ENDBRANCH  27  29
ENDBRANCH   1  27
TORSDOF 14
ENDMDL
MODEL 2
REMARK minimizedAffinity -8.86170864
REMARK CNNscore 0.45276463
REMARK CNNaffinity 7.08763647
REMARK  14 active torsions:
REMARK  status: ('A' for Active; 'I' for Inactive)
REMARK    1  A    between atoms: O1_2  and  C2_3 
REMARK    2  A    between atoms: C2_3  and  C3_5 
REMARK    3  A    between atoms: C3_5  and  C4_6 
REMARK    4  A    between atoms: C3_5  and  N2_16 
REMARK    5  A    between atoms: C4_6  and  C5_7 
REMARK       I    between atoms: N2_16  and  C13_17 
REMARK    6  A    between atoms: C13_17  and  C14_19 
REMARK    7  A    between atoms: C14_19  and  C15_20 
REMARK    8  A    between atoms: C15_20  and  C16_21 
REMARK    9  A    between atoms: C16_21  and  O5_23 
REMARK   10  A    between atoms: O5_23  and  C17_24 
REMARK   11  A    between atoms: C17_24  and  C18_25 
REMARK   12  A    between atoms: C18_25  and  C19_27 
REMARK   13  A    between atoms: C19_27  and  O7_28 
REMARK   14  A    between atoms: C34_44  and  O9_45 
ROOT
HETATM    1  C17 UNL     1       0.251   8.066  15.753  1.00  0.00     0.260 C 
ENDROOT
BRANCH   1   2
HETATM    2  O5  UNL     1      -0.055   9.001  16.791  1.00  0.00    -0.314 OA
BRANCH   2   3
HETATM    3  C16 UNL     1      -0.958   9.956  16.444  1.00  0.00     0.259 C 
HETATM    4  O4  UNL     1      -0.827  10.731  15.507  1.00  0.00    -0.265 OA
BRANCH   3   5
HETATM    5  C15 UNL     1      -2.148   9.902  17.365  1.00  0.00     0.120 C 
BRANCH   5   6
HETATM    6  C14 UNL     1      -3.225  10.888  16.928  1.00  0.00     0.112 C 
BRANCH   6   7
HETATM    7  C13 UNL     1      -4.316  10.206  16.131  1.00  0.00     0.218 C 
HETATM    8  N2  UNL     1      -4.301   8.834  16.261  1.00  0.00    -0.347 N 
HETATM    9  H13 UNL     1      -3.820   8.453  17.068  1.00  0.00     0.163 HD
HETATM   10  O3  UNL     1      -5.133  10.806  15.443  1.00  0.00    -0.274 OA
BRANCH   8  11
HETATM   11  C3  UNL     1      -5.398   8.022  15.713  1.00  0.00     0.188 C 
BRANCH  11  12
HETATM   12  C2  UNL     1      -5.045   7.666  14.267  1.00  0.00     0.281 C 
HETATM   13  O2  UNL     1      -5.234   8.406  13.308  1.00  0.00    -0.263 OA
BRANCH  12  14
HETATM   14  O1  UNL     1      -4.552   6.397  14.189  1.00  0.00    -0.325 OA
HETATM   15  C1  UNL     1      -5.262   5.552  13.284  1.00  0.00     0.213 C 
ENDBRANCH  12  14
ENDBRANCH  11  12
BRANCH  11  16
HETATM   16  C4  UNL     1      -6.730   8.780  15.695  1.00  0.00     0.076 C 
BRANCH  16  17
HETATM   17  C5  UNL     1      -7.961   7.940  15.507  1.00  0.00    -0.028 A 
HETATM   18  C6  UNL     1      -8.099   6.572  15.649  1.00  0.00     0.096 A 
HETATM   19  N1  UNL     1      -9.398   6.233  15.377  1.00  0.00    -0.365 N 
HETATM   20  C7  UNL     1     -10.124   7.353  15.048  1.00  0.00     0.042 A 
HETATM   21  H8  UNL     1      -9.773   5.295  15.409  1.00  0.00     0.165 HD
HETATM   22  C8  UNL     1     -11.473   7.481  14.697  1.00  0.00     0.030 A 
HETATM   23  C12 UNL     1      -9.251   8.439  15.115  1.00  0.00    -0.002 A 
HETATM   24  C9  UNL     1     -11.946   8.765  14.402  1.00  0.00     0.002 A 
HETATM   25  C10 UNL     1     -11.099   9.871  14.455  1.00  0.00     0.001 A 
HETATM   26  C11 UNL     1      -9.753   9.723  14.810  1.00  0.00     0.014 A 
ENDBRANCH  16  17
ENDBRANCH  11  16
ENDBRANCH   8  11
ENDBRANCH   6   7
ENDBRANCH   5   6
ENDBRANCH   3   5
ENDBRANCH   2   3
ENDBRANCH   1   2
BRANCH   1  27
HETATM   27  C18 UNL     1      -1.031   7.466  15.182  1.00  0.00     0.185 C 
HETATM   28  O6  UNL     1      -1.965   7.122  15.909  1.00  0.00    -0.292 OA
BRANCH  27  29
HETATM   29  C19 UNL     1      -1.094   7.296  13.643  1.00  0.00     0.128 C 
HETATM   30  C20 UNL     1      -1.880   8.455  12.957  1.00  0.00     0.047 C 
HETATM   31  C21 UNL     1      -1.151   8.769  11.638  1.00  0.00     0.009 C 
HETATM   32  C22 UNL     1      -0.158   7.626  11.478  1.00  0.00     0.002 C 
HETATM   33  C23 UNL     1       1.002   7.800  10.485  1.00  0.00    -0.002 C 
HETATM   34  C36 UNL     1       0.299   7.332  12.928  1.00  0.00     0.001 C 
HETATM   35  C24 UNL     1       0.469   8.171   9.089  1.00  0.00     0.010 C 
HETATM   36  C33 UNL     1       1.828   6.469  10.439  1.00  0.00     0.035 C 
HETATM   37  C25 UNL     1       1.576   8.229   8.043  1.00  0.00     0.036 C 
HETATM   38  C26 UNL     1       2.344   6.933   8.029  1.00  0.00    -0.064 A 
HETATM   39  C27 UNL     1       2.406   6.190   6.910  1.00  0.00     0.058 A 
HETATM   40  C31 UNL     1       2.984   6.521   9.364  1.00  0.00     0.004 A 
HETATM   41  C28 UNL     1       3.098   4.886   6.874  1.00  0.00     0.172 A 
HETATM   42  O8  UNL     1       3.153   4.220   5.848  1.00  0.00    -0.289 OA
HETATM   43  C29 UNL     1       3.715   4.416   8.129  1.00  0.00     0.052 A 
HETATM   44  C30 UNL     1       3.656   5.157   9.245  1.00  0.00    -0.009 A 
HETATM   45  C32 UNL     1       4.106   7.532   9.690  1.00  0.00     0.025 C 
HETATM   46  C34 UNL     1       2.245   5.999  11.865  1.00  0.00     0.124 C 
HETATM   47  C35 UNL     1       1.084   6.002  12.887  1.00  0.00     0.045 C 
HETATM   48  C37 UNL     1       1.169   8.463  13.536  1.00  0.00     0.019 C 
BRANCH  29  49
HETATM   49  O7  UNL     1      -1.766   6.070  13.333  1.00  0.00    -0.381 OA
HETATM   50  H20 UNL     1      -2.715   6.179  13.535  1.00  0.00     0.211 HD
ENDBRANCH  29  49
BRANCH  46  51
HETATM   51  O9  UNL     1       3.316   6.784  12.370  1.00  0.00    -0.395 OA
HETATM   52  H39 UNL     1       3.599   6.400  13.219  1.00  0.00     0.210 HD
ENDBRANCH  46  51
ENDBRANCH  27  29
ENDBRANCH   1  27
TORSDOF 14
ENDMDL
MODEL 3
REMARK minimizedAffinity -8.82344627
REMARK CNNscore 0.387083948
REMARK CNNaffinity 7.04921579
REMARK  14 active torsions:
REMARK  status: ('A' for Active; 'I' for Inactive)
REMARK    1  A    between atoms: O1_2  and  C2_3 
REMARK    2  A    between atoms: C2_3  and  C3_5 
REMARK    3  A    between atoms: C3_5  and  C4_6 
REMARK    4  A    between atoms: C3_5  and  N2_16 
REMARK    5  A    between atoms: C4_6  and  C5_7 
REMARK       I    between atoms: N2_16  and  C13_17 
REMARK    6  A    between atoms: C13_17  and  C14_19 
REMARK    7  A    between atoms: C14_19  and  C15_20 
REMARK    8  A    between atoms: C15_20  and  C16_21 
REMARK    9  A    between atoms: C16_21  and  O5_23 
REMARK   10  A    between atoms: O5_23  and  C17_24 
REMARK   11  A    between atoms: C17_24  and  C18_25 
REMARK   12  A    between atoms: C18_25  and  C19_27 
REMARK   13  A    between atoms: C19_27  and  O7_28 
REMARK   14  A    between atoms: C34_44  and  O9_45 
ROOT
HETATM    1  C17 UNL     1      -1.078   9.876  14.454  1.00  0.00     0.260 C 
ENDROOT
BRANCH   1   2
HETATM    2  O5  UNL     1      -0.358   9.995  15.685  1.00  0.00    -0.314 OA
BRANCH   2   3
HETATM    3  C16 UNL     1       0.733  10.804  15.626  1.00  0.00     0.259 C 
HETATM    4  O4  UNL     1       1.522  10.843  14.692  1.00  0.00    -0.265 OA
BRANCH   3   5
HETATM    5  C15 UNL     1       0.811  11.657  16.865  1.00  0.00     0.120 C 
BRANCH   5   6
HETATM    6  C14 UNL     1       0.808  10.797  18.124  1.00  0.00     0.112 C 
BRANCH   6   7
HETATM    7  C13 UNL     1       2.168  10.776  18.789  1.00  0.00     0.218 C 
HETATM    8  N2  UNL     1       2.120  11.112  20.124  1.00  0.00    -0.347 N 
HETATM    9  H13 UNL     1       1.223  11.026  20.589  1.00  0.00     0.163 HD
HETATM   10  O3  UNL     1       3.205  10.486  18.205  1.00  0.00    -0.274 OA
BRANCH   8  11
HETATM   11  C3  UNL     1       3.312  10.962  20.973  1.00  0.00     0.188 C 
BRANCH  11  12
HETATM   12  C2  UNL     1       2.915  10.137  22.200  1.00  0.00     0.281 C 
HETATM   13  O2  UNL     1       3.000  10.535  23.356  1.00  0.00    -0.263 OA
BRANCH  12  14
HETATM   14  O1  UNL     1       2.517   8.886  21.831  1.00  0.00    -0.325 OA
HETATM   15  C1  UNL     1       2.172   8.039  22.928  1.00  0.00     0.213 C 
ENDBRANCH  12  14
ENDBRANCH  11  12
BRANCH  11  16
HETATM   16  C4  UNL     1       3.844  12.311  21.469  1.00  0.00     0.076 C 
BRANCH  16  17
HETATM   17  C5  UNL     1       5.290  12.336  21.877  1.00  0.00    -0.028 A 
HETATM   18  C6  UNL     1       5.826  12.549  23.134  1.00  0.00     0.096 A 
HETATM   19  N1  UNL     1       7.191  12.488  23.042  1.00  0.00    -0.365 N 
HETATM   20  C7  UNL     1       7.572  12.248  21.744  1.00  0.00     0.042 A 
HETATM   21  H8  UNL     1       7.831  12.606  23.816  1.00  0.00     0.165 HD
HETATM   22  C8  UNL     1       8.850  12.113  21.190  1.00  0.00     0.030 A 
HETATM   23  C12 UNL     1       6.404  12.152  20.987  1.00  0.00    -0.002 A 
HETATM   24  C9  UNL     1       8.938  11.874  19.814  1.00  0.00     0.002 A 
HETATM   25  C10 UNL     1       7.791  11.778  19.029  1.00  0.00     0.001 A 
HETATM   26  C11 UNL     1       6.521  11.914  19.601  1.00  0.00     0.014 A 
ENDBRANCH  16  17
ENDBRANCH  11  16
ENDBRANCH   8  11
ENDBRANCH   6   7
ENDBRANCH   5   6
ENDBRANCH   3   5
ENDBRANCH   2   3
ENDBRANCH   1   2
BRANCH   1  27
HETATM   27  C18 UNL     1      -1.026   8.438  13.944  1.00  0.00     0.185 C 
HETATM   28  O6  UNL     1      -0.016   7.744  14.069  1.00  0.00    -0.292 OA
BRANCH  27  29
HETATM   29  C19 UNL     1      -2.302   7.901  13.247  1.00  0.00     0.128 C 
HETATM   30  C20 UNL     1      -2.090   6.474  12.657  1.00  0.00     0.047 C 
HETATM   31  C21 UNL     1      -3.401   5.699  12.882  1.00  0.00     0.009 C 
HETATM   32  C22 UNL     1      -4.392   6.763  13.334  1.00  0.00     0.002 C 
HETATM   33  C23 UNL     1      -5.692   6.308  14.016  1.00  0.00    -0.002 C 
HETATM   34  C36 UNL     1      -3.534   7.721  14.196  1.00  0.00     0.001 C 
HETATM   35  C24 UNL     1      -6.443   5.297  13.131  1.00  0.00     0.010 C 
HETATM   36  C33 UNL     1      -6.574   7.571  14.307  1.00  0.00     0.035 C 
HETATM   37  C25 UNL     1      -7.800   4.916  13.711  1.00  0.00     0.036 C 
HETATM   38  C26 UNL     1      -8.617   6.154  13.975  1.00  0.00    -0.064 A 
HETATM   39  C27 UNL     1      -9.806   6.326  13.370  1.00  0.00     0.058 A 
HETATM   40  C31 UNL     1      -7.979   7.187  14.917  1.00  0.00     0.004 A 
HETATM   41  C28 UNL     1     -10.608   7.553  13.558  1.00  0.00     0.172 A 
HETATM   42  O8  UNL     1     -11.691   7.697  13.007  1.00  0.00    -0.289 OA
HETATM   43  C29 UNL     1     -10.043   8.599  14.431  1.00  0.00     0.052 A 
HETATM   44  C30 UNL     1      -8.860   8.428  15.036  1.00  0.00    -0.009 A 
HETATM   45  C32 UNL     1      -7.908   6.567  16.330  1.00  0.00     0.025 C 
HETATM   46  C34 UNL     1      -5.777   8.669  15.073  1.00  0.00     0.124 C 
HETATM   47  C35 UNL     1      -4.393   8.978  14.454  1.00  0.00     0.045 C 
HETATM   48  C37 UNL     1      -3.073   7.088  15.536  1.00  0.00     0.019 C 
BRANCH  29  49
HETATM   49  O7  UNL     1      -2.647   8.774  12.165  1.00  0.00    -0.381 OA
HETATM   50  H20 UNL     1      -1.994   8.653  11.450  1.00  0.00     0.211 HD
ENDBRANCH  29  49
BRANCH  46  51
HETATM   51  O9  UNL     1      -5.612   8.322  16.440  1.00  0.00    -0.395 OA
HETATM   52  H39 UNL     1      -5.189   9.073  16.894  1.00  0.00     0.210 HD
ENDBRANCH  46  51
ENDBRANCH  27  29
ENDBRANCH   1  27
TORSDOF 14
ENDMDL
MODEL 4
REMARK minimizedAffinity -10.6262999
REMARK CNNscore 0.351459116
REMARK CNNaffinity 7.31225395
REMARK  14 active torsions:
REMARK  status: ('A' for Active; 'I' for Inactive)
REMARK    1  A    between atoms: O1_2  and  C2_3 
REMARK    2  A    between atoms: C2_3  and  C3_5 
REMARK    3  A    between atoms: C3_5  and  C4_6 
REMARK    4  A    between atoms: C3_5  and  N2_16 
REMARK    5  A    between atoms: C4_6  and  C5_7 
REMARK       I    between atoms: N2_16  and  C13_17 
REMARK    6  A    between atoms: C13_17  and  C14_19 
REMARK    7  A    between atoms: C14_19  and  C15_20 
REMARK    8  A    between atoms: C15_20  and  C16_21 
REMARK    9  A    between atoms: C16_21  and  O5_23 
REMARK   10  A    between atoms: O5_23  and  C17_24 
REMARK   11  A    between atoms: C17_24  and  C18_25 
REMARK   12  A    between atoms: C18_25  and  C19_27 
REMARK   13  A    between atoms: C19_27  and  O7_28 
REMARK   14  A    between atoms: C34_44  and  O9_45 
ROOT
HETATM    1  C17 UNL     1      -1.790   9.641  15.054  1.00  0.00     0.260 C 
ENDROOT
BRANCH   1   2
HETATM    2  O5  UNL     1      -2.988  10.074  14.402  1.00  0.00    -0.314 OA
BRANCH   2   3
HETATM    3  C16 UNL     1      -4.097  10.057  15.187  1.00  0.00     0.259 C 
HETATM    4  O4  UNL     1      -4.313  10.835  16.105  1.00  0.00    -0.265 OA
BRANCH   3   5
HETATM    5  C15 UNL     1      -5.027   8.958  14.744  1.00  0.00     0.120 C 
BRANCH   5   6
HETATM    6  C14 UNL     1      -5.042   7.813  15.750  1.00  0.00     0.112 C 
BRANCH   6   7
HETATM    7  C13 UNL     1      -6.171   6.843  15.475  1.00  0.00     0.218 C 
HETATM    8  N2  UNL     1      -6.866   7.137  14.323  1.00  0.00    -0.347 N 
HETATM    9  H13 UNL     1      -6.399   7.723  13.639  1.00  0.00     0.163 HD
HETATM   10  O3  UNL     1      -6.439   5.891  16.197  1.00  0.00    -0.274 OA
BRANCH   8  11
HETATM   11  C3  UNL     1      -7.870   6.198  13.798  1.00  0.00     0.188 C 
BRANCH  11  12
HETATM   12  C2  UNL     1      -9.254   6.724  14.185  1.00  0.00     0.281 C 
HETATM   13  O2  UNL     1      -9.507   7.285  15.245  1.00  0.00    -0.263 OA
BRANCH  12  14
HETATM   14  O1  UNL     1     -10.170   6.428  13.220  1.00  0.00    -0.325 OA
HETATM   15  C1  UNL     1     -11.055   7.504  12.907  1.00  0.00     0.213 C 
ENDBRANCH  12  14
ENDBRANCH  11  12
BRANCH  11  16
HETATM   16  C4  UNL     1      -7.720   4.795  14.394  1.00  0.00     0.076 C 
BRANCH  16  17
HETATM   17  C5  UNL     1      -7.333   3.710  13.429  1.00  0.00    -0.028 A 
HETATM   18  C6  UNL     1      -8.113   2.679  12.937  1.00  0.00     0.096 A 
HETATM   19  N1  UNL     1      -7.351   1.924  12.086  1.00  0.00    -0.365 N 
HETATM   20  C7  UNL     1      -6.075   2.430  12.011  1.00  0.00     0.042 A 
HETATM   21  H8  UNL     1      -7.675   1.107  11.585  1.00  0.00     0.165 HD
HETATM   22  C8  UNL     1      -4.970   1.983  11.277  1.00  0.00     0.030 A 
HETATM   23  C12 UNL     1      -6.030   3.547  12.845  1.00  0.00    -0.002 A 
HETATM   24  C9  UNL     1      -3.776   2.703  11.402  1.00  0.00     0.002 A 
HETATM   25  C10 UNL     1      -3.696   3.821  12.230  1.00  0.00     0.001 A 
HETATM   26  C11 UNL     1      -4.813   4.253  12.955  1.00  0.00     0.014 A 
ENDBRANCH  16  17
ENDBRANCH  11  16
ENDBRANCH   8  11
ENDBRANCH   6   7
ENDBRANCH   5   6
ENDBRANCH   3   5
ENDBRANCH   2   3
ENDBRANCH   1   2
BRANCH   1  27
HETATM   27  C18 UNL     1      -1.490   8.185  14.705  1.00  0.00     0.185 C 
HETATM   28  O6  UNL     1      -1.315   7.333  15.579  1.00  0.00    -0.292 OA
BRANCH  27  29
HETATM   29  C19 UNL     1      -1.400   7.835  13.199  1.00  0.00     0.128 C 
HETATM   30  C20 UNL     1      -2.037   8.940  12.302  1.00  0.00     0.047 C 
HETATM   31  C21 UNL     1      -1.154   9.057  11.045  1.00  0.00     0.009 C 
HETATM   32  C22 UNL     1      -0.221   7.857  11.129  1.00  0.00     0.002 C 
HETATM   33  C23 UNL     1       1.046   7.854  10.260  1.00  0.00    -0.002 C 
HETATM   34  C36 UNL     1       0.060   7.717  12.645  1.00  0.00     0.001 C 
HETATM   35  C24 UNL     1       0.688   8.081   8.779  1.00  0.00     0.010 C 
HETATM   36  C33 UNL     1       1.789   6.489  10.459  1.00  0.00     0.035 C 
HETATM   37  C25 UNL     1       1.901   7.959   7.864  1.00  0.00     0.036 C 
HETATM   38  C26 UNL     1       2.585   6.635   8.085  1.00  0.00    -0.064 A 
HETATM   39  C27 UNL     1       2.719   5.761   7.071  1.00  0.00     0.058 A 
HETATM   40  C31 UNL     1       3.053   6.356   9.522  1.00  0.00     0.004 A 
HETATM   41  C28 UNL     1       3.330   4.430   7.262  1.00  0.00     0.172 A 
HETATM   42  O8  UNL     1       3.452   3.644   6.332  1.00  0.00    -0.289 OA
HETATM   43  C29 UNL     1       3.780   4.085   8.624  1.00  0.00     0.052 A 
HETATM   44  C30 UNL     1       3.649   4.956   9.635  1.00  0.00    -0.009 A 
HETATM   45  C32 UNL     1       4.194   7.343   9.854  1.00  0.00     0.025 C 
HETATM   46  C34 UNL     1       2.023   6.174  11.967  1.00  0.00     0.124 C 
HETATM   47  C35 UNL     1       0.763   6.356  12.844  1.00  0.00     0.045 C 
HETATM   48  C37 UNL     1       0.929   8.870  13.214  1.00  0.00     0.019 C 
BRANCH  29  49
HETATM   49  O7  UNL     1      -2.110   6.615  12.957  1.00  0.00    -0.381 OA
HETATM   50  H20 UNL     1      -3.066   6.793  13.037  1.00  0.00     0.211 HD
ENDBRANCH  29  49
BRANCH  46  51
HETATM   51  O9  UNL     1       3.080   6.961  12.496  1.00  0.00    -0.395 OA
HETATM   52  H39 UNL     1       3.248   6.668  13.410  1.00  0.00     0.210 HD
ENDBRANCH  46  51
ENDBRANCH  27  29
ENDBRANCH   1  27
TORSDOF 14
ENDMDL
MODEL 5
REMARK minimizedAffinity -9.31165409
REMARK CNNscore 0.342457801
REMARK CNNaffinity 6.53435755
REMARK  14 active torsions:
REMARK  status: ('A' for Active; 'I' for Inactive)
REMARK    1  A    between atoms: O1_2  and  C2_3 
REMARK    2  A    between atoms: C2_3  and  C3_5 
REMARK    3  A    between atoms: C3_5  and  C4_6 
REMARK    4  A    between atoms: C3_5  and  N2_16 
REMARK    5  A    between atoms: C4_6  and  C5_7 
REMARK       I    between atoms: N2_16  and  C13_17 
REMARK    6  A    between atoms: C13_17  and  C14_19 
REMARK    7  A    between atoms: C14_19  and  C15_20 
REMARK    8  A    between atoms: C15_20  and  C16_21 
REMARK    9  A    between atoms: C16_21  and  O5_23 
REMARK   10  A    between atoms: O5_23  and  C17_24 
REMARK   11  A    between atoms: C17_24  and  C18_25 
REMARK   12  A    between atoms: C18_25  and  C19_27 
REMARK   13  A    between atoms: C19_27  and  O7_28 
REMARK   14  A    between atoms: C34_44  and  O9_45 
ROOT
HETATM    1  C17 UNL     1       1.625   9.608  14.858  1.00  0.00     0.260 C 
ENDROOT
BRANCH   1   2
HETATM    2  O5  UNL     1       2.258  10.568  15.708  1.00  0.00    -0.314 OA
BRANCH   2   3
HETATM    3  C16 UNL     1       2.305  10.218  17.021  1.00  0.00     0.259 C 
HETATM    4  O4  UNL     1       2.311   9.067  17.434  1.00  0.00    -0.265 OA
BRANCH   3   5
HETATM    5  C15 UNL     1       2.375  11.450  17.883  1.00  0.00     0.120 C 
BRANCH   5   6
HETATM    6  C14 UNL     1       3.812  11.938  18.028  1.00  0.00     0.112 C 
BRANCH   6   7
HETATM    7  C13 UNL     1       4.435  11.460  19.321  1.00  0.00     0.218 C 
HETATM    8  N2  UNL     1       3.548  11.445  20.375  1.00  0.00    -0.347 N 
HETATM    9  H13 UNL     1       2.560  11.435  20.146  1.00  0.00     0.163 HD
HETATM   10  O3  UNL     1       5.607  11.116  19.425  1.00  0.00    -0.274 OA
BRANCH   8  11
HETATM   11  C3  UNL     1       3.925  10.834  21.659  1.00  0.00     0.188 C 
BRANCH  11  12
HETATM   12  C2  UNL     1       3.054   9.592  21.863  1.00  0.00     0.281 C 
HETATM   13  O2  UNL     1       2.159   9.244  21.101  1.00  0.00    -0.263 OA
BRANCH  12  14
HETATM   14  O1  UNL     1       3.370   8.968  23.033  1.00  0.00    -0.325 OA
HETATM   15  C1  UNL     1       2.694   9.495  24.175  1.00  0.00     0.213 C 
ENDBRANCH  12  14
ENDBRANCH  11  12
BRANCH  11  16
HETATM   16  C4  UNL     1       3.682  11.775  22.843  1.00  0.00     0.076 C 
BRANCH  16  17
HETATM   17  C5  UNL     1       4.586  12.972  22.926  1.00  0.00    -0.028 A 
HETATM   18  C6  UNL     1       4.243  14.312  22.908  1.00  0.00     0.096 A 
HETATM   19  N1  UNL     1       5.389  15.057  23.005  1.00  0.00    -0.365 N 
HETATM   20  C7  UNL     1       6.488  14.235  23.076  1.00  0.00     0.042 A 
HETATM   21  H8  UNL     1       5.426  16.067  23.018  1.00  0.00     0.165 HD
HETATM   22  C8  UNL     1       7.847  14.554  23.179  1.00  0.00     0.030 A 
HETATM   23  C12 UNL     1       6.019  12.921  23.024  1.00  0.00    -0.002 A 
HETATM   24  C9  UNL     1       8.759  13.494  23.228  1.00  0.00     0.002 A 
HETATM   25  C10 UNL     1       8.325  12.171  23.174  1.00  0.00     0.001 A 
HETATM   26  C11 UNL     1       6.961  11.871  23.073  1.00  0.00     0.014 A 
ENDBRANCH  16  17
ENDBRANCH  11  16
ENDBRANCH   8  11
ENDBRANCH   6   7
ENDBRANCH   5   6
ENDBRANCH   3   5
ENDBRANCH   2   3
ENDBRANCH   1   2
BRANCH   1  27
HETATM   27  C18 UNL     1       0.221  10.075  14.481  1.00  0.00     0.185 C 
HETATM   28  O6  UNL     1      -0.224  11.159  14.863  1.00  0.00    -0.292 OA
BRANCH  27  29
HETATM   29  C19 UNL     1      -0.622   9.111  13.609  1.00  0.00     0.128 C 
HETATM   30  C20 UNL     1       0.208   7.886  13.120  1.00  0.00     0.047 C 
HETATM   31  C21 UNL     1      -0.730   6.666  13.162  1.00  0.00     0.009 C 
HETATM   32  C22 UNL     1      -2.110   7.262  13.403  1.00  0.00     0.002 C 
HETATM   33  C23 UNL     1      -3.235   6.332  13.884  1.00  0.00    -0.002 C 
HETATM   34  C36 UNL     1      -1.833   8.453  14.353  1.00  0.00     0.001 C 
HETATM   35  C24 UNL     1      -3.391   5.133  12.931  1.00  0.00     0.010 C 
HETATM   36  C33 UNL     1      -4.564   7.157  13.977  1.00  0.00     0.035 C 
HETATM   37  C25 UNL     1      -4.578   4.251  13.299  1.00  0.00     0.036 C 
HETATM   38  C26 UNL     1      -5.834   5.080  13.376  1.00  0.00    -0.064 A 
HETATM   39  C27 UNL     1      -6.882   4.802  12.581  1.00  0.00     0.058 A 
HETATM   40  C31 UNL     1      -5.800   6.255  14.366  1.00  0.00     0.004 A 
HETATM   41  C28 UNL     1      -8.107   5.628  12.585  1.00  0.00     0.172 A 
HETATM   42  O8  UNL     1      -9.058   5.363  11.861  1.00  0.00    -0.289 OA
HETATM   43  C29 UNL     1      -8.133   6.789  13.495  1.00  0.00     0.052 A 
HETATM   44  C30 UNL     1      -7.090   7.065  14.290  1.00  0.00    -0.009 A 
HETATM   45  C32 UNL     1      -5.734   5.675  15.797  1.00  0.00     0.025 C 
HETATM   46  C34 UNL     1      -4.379   8.457  14.815  1.00  0.00     0.124 C 
HETATM   47  C35 UNL     1      -3.134   9.284  14.417  1.00  0.00     0.045 C 
HETATM   48  C37 UNL     1      -1.395   8.011  15.775  1.00  0.00     0.019 C 
BRANCH  29  49
HETATM   49  O7  UNL     1      -1.088   9.812  12.451  1.00  0.00    -0.381 OA
HETATM   50  H20 UNL     1      -0.329   9.965  11.857  1.00  0.00     0.211 HD
ENDBRANCH  29  49
BRANCH  46  51
HETATM   51  O9  UNL     1      -4.324   8.167  16.205  1.00  0.00    -0.395 OA
HETATM   52  H39 UNL     1      -4.298   9.011  16.689  1.00  0.00     0.210 HD
ENDBRANCH  46  51
ENDBRANCH  27  29
ENDBRANCH   1  27
TORSDOF 14
ENDMDL
MODEL 6
REMARK minimizedAffinity -8.74434376
REMARK CNNscore 0.292063832
REMARK CNNaffinity 6.56079626
REMARK  14 active torsions:
REMARK  status: ('A' for Active; 'I' for Inactive)
REMARK    1  A    between atoms: O1_2  and  C2_3 
REMARK    2  A    between atoms: C2_3  and  C3_5 
REMARK    3  A    between atoms: C3_5  and  C4_6 
REMARK    4  A    between atoms: C3_5  and  N2_16 
REMARK    5  A    between atoms: C4_6  and  C5_7 
REMARK       I    between atoms: N2_16  and  C13_17 
REMARK    6  A    between atoms: C13_17  and  C14_19 
REMARK    7  A    between atoms: C14_19  and  C15_20 
REMARK    8  A    between atoms: C15_20  and  C16_21 
REMARK    9  A    between atoms: C16_21  and  O5_23 
REMARK   10  A    between atoms: O5_23  and  C17_24 
REMARK   11  A    between atoms: C17_24  and  C18_25 
REMARK   12  A    between atoms: C18_25  and  C19_27 
REMARK   13  A    between atoms: C19_27  and  O7_28 
REMARK   14  A    between atoms: C34_44  and  O9_45 
ROOT
HETATM    1  C17 UNL     1      -1.327   9.299  15.245  1.00  0.00     0.260 C 
ENDROOT
BRANCH   1   2
HETATM    2  O5  UNL     1      -0.783   9.358  16.567  1.00  0.00    -0.314 OA
BRANCH   2   3
HETATM    3  C16 UNL     1       0.506   9.785  16.630  1.00  0.00     0.259 C 
HETATM    4  O4  UNL     1       1.417   9.170  17.167  1.00  0.00    -0.265 OA
BRANCH   3   5
HETATM    5  C15 UNL     1       0.649  11.107  15.924  1.00  0.00     0.120 C 
BRANCH   5   6
HETATM    6  C14 UNL     1       0.680  12.260  16.921  1.00  0.00     0.112 C 
BRANCH   6   7
HETATM    7  C13 UNL     1       2.092  12.571  17.369  1.00  0.00     0.218 C 
HETATM    8  N2  UNL     1       2.139  13.385  18.479  1.00  0.00    -0.347 N 
HETATM    9  H13 UNL     1       1.304  13.430  19.053  1.00  0.00     0.163 HD
HETATM   10  O3  UNL     1       3.094  12.142  16.808  1.00  0.00    -0.274 OA
BRANCH   8  11
HETATM   11  C3  UNL     1       3.415  13.637  19.166  1.00  0.00     0.188 C 
BRANCH  11  12
HETATM   12  C2  UNL     1       4.234  14.597  18.301  1.00  0.00     0.281 C 
HETATM   13  O2  UNL     1       5.357  14.353  17.874  1.00  0.00    -0.263 OA
BRANCH  12  14
HETATM   14  O1  UNL     1       3.571  15.775  18.126  1.00  0.00    -0.325 OA
HETATM   15  C1  UNL     1       3.672  16.671  19.233  1.00  0.00     0.213 C 
ENDBRANCH  12  14
ENDBRANCH  11  12
BRANCH  11  16
HETATM   16  C4  UNL     1       4.237  12.357  19.352  1.00  0.00     0.076 C 
BRANCH  16  17
HETATM   17  C5  UNL     1       4.432  11.902  20.770  1.00  0.00    -0.028 A 
HETATM   18  C6  UNL     1       5.311  12.394  21.718  1.00  0.00     0.096 A 
HETATM   19  N1  UNL     1       5.150  11.678  22.874  1.00  0.00    -0.365 N 
HETATM   20  C7  UNL     1       4.185  10.714  22.709  1.00  0.00     0.042 A 
HETATM   21  H8  UNL     1       5.668  11.832  23.730  1.00  0.00     0.165 HD
HETATM   22  C8  UNL     1       3.700   9.760  23.611  1.00  0.00     0.030 A 
HETATM   23  C12 UNL     1       3.719  10.824  21.399  1.00  0.00    -0.002 A 
HETATM   24  C9  UNL     1       2.704   8.888  23.159  1.00  0.00     0.002 A 
HETATM   25  C10 UNL     1       2.219   8.969  21.855  1.00  0.00     0.001 A 
HETATM   26  C11 UNL     1       2.716   9.930  20.966  1.00  0.00     0.014 A 
ENDBRANCH  16  17
ENDBRANCH  11  16
ENDBRANCH   8  11
ENDBRANCH   6   7
ENDBRANCH   5   6
ENDBRANCH   3   5
ENDBRANCH   2   3
ENDBRANCH   1   2
BRANCH   1  27
HETATM   27  C18 UNL     1      -1.460   7.849  14.788  1.00  0.00     0.185 C 
HETATM   28  O6  UNL     1      -1.603   6.927  15.595  1.00  0.00    -0.292 OA
BRANCH  27  29
HETATM   29  C19 UNL     1      -1.390   7.591  13.262  1.00  0.00     0.128 C 
HETATM   30  C20 UNL     1      -2.045   8.743  12.442  1.00  0.00     0.047 C 
HETATM   31  C21 UNL     1      -1.182   8.942  11.183  1.00  0.00     0.009 C 
HETATM   32  C22 UNL     1      -0.242   7.744  11.181  1.00  0.00     0.002 C 
HETATM   33  C23 UNL     1       1.012   7.800  10.295  1.00  0.00    -0.002 C 
HETATM   34  C36 UNL     1       0.062   7.514  12.682  1.00  0.00     0.001 C 
HETATM   35  C24 UNL     1       0.631   8.113   8.836  1.00  0.00     0.010 C 
HETATM   36  C33 UNL     1       1.764   6.429  10.401  1.00  0.00     0.035 C 
HETATM   37  C25 UNL     1       1.831   8.054   7.898  1.00  0.00     0.036 C 
HETATM   38  C26 UNL     1       2.524   6.722   8.028  1.00  0.00    -0.064 A 
HETATM   39  C27 UNL     1       2.647   5.912   6.962  1.00  0.00     0.058 A 
HETATM   40  C31 UNL     1       3.014   6.360   9.439  1.00  0.00     0.004 A 
HETATM   41  C28 UNL     1       3.267   4.575   7.064  1.00  0.00     0.172 A 
HETATM   42  O8  UNL     1       3.380   3.848   6.086  1.00  0.00    -0.289 OA
HETATM   43  C29 UNL     1       3.739   4.151   8.396  1.00  0.00     0.052 A 
HETATM   44  C30 UNL     1       3.619   4.959   9.459  1.00  0.00    -0.009 A 
HETATM   45  C32 UNL     1       4.156   7.331   9.814  1.00  0.00     0.025 C 
HETATM   46  C34 UNL     1       2.022   6.025  11.883  1.00  0.00     0.124 C 
HETATM   47  C35 UNL     1       0.774   6.147  12.788  1.00  0.00     0.045 C 
HETATM   48  C37 UNL     1       0.934   8.636  13.306  1.00  0.00     0.019 C 
BRANCH  29  49
HETATM   49  O7  UNL     1      -2.098   6.383  12.958  1.00  0.00    -0.381 OA
HETATM   50  H20 UNL     1      -3.054   6.551  13.063  1.00  0.00     0.211 HD
ENDBRANCH  29  49
BRANCH  46  51
HETATM   51  O9  UNL     1       3.083   6.786  12.443  1.00  0.00    -0.395 OA
HETATM   52  H39 UNL     1       3.265   6.439  13.335  1.00  0.00     0.210 HD
ENDBRANCH  46  51
ENDBRANCH  27  29
ENDBRANCH   1  27
TORSDOF 14
ENDMDL
MODEL 7
REMARK minimizedAffinity -8.04828548
REMARK CNNscore 0.287771523
REMARK CNNaffinity 6.89652109
REMARK  14 active torsions:
REMARK  status: ('A' for Active; 'I' for Inactive)
REMARK    1  A    between atoms: O1_2  and  C2_3 
REMARK    2  A    between atoms: C2_3  and  C3_5 
REMARK    3  A    between atoms: C3_5  and  C4_6 
REMARK    4  A    between atoms: C3_5  and  N2_16 
REMARK    5  A    between atoms: C4_6  and  C5_7 
REMARK       I    between atoms: N2_16  and  C13_17 
REMARK    6  A    between atoms: C13_17  and  C14_19 
REMARK    7  A    between atoms: C14_19  and  C15_20 
REMARK    8  A    between atoms: C15_20  and  C16_21 
REMARK    9  A    between atoms: C16_21  and  O5_23 
REMARK   10  A    between atoms: O5_23  and  C17_24 
REMARK   11  A    between atoms: C17_24  and  C18_25 
REMARK   12  A    between atoms: C18_25  and  C19_27 
REMARK   13  A    between atoms: C19_27  and  O7_28 
REMARK   14  A    between atoms: C34_44  and  O9_45 
ROOT
HETATM    1  C17 UNL     1      -2.174   9.323  15.240  1.00  0.00     0.260 C 
ENDROOT
BRANCH   1   2
HETATM    2  O5  UNL     1      -3.065   9.144  16.344  1.00  0.00    -0.314 OA
BRANCH   2   3
HETATM    3  C16 UNL     1      -3.473  10.298  16.935  1.00  0.00     0.259 C 
HETATM    4  O4  UNL     1      -3.551  10.471  18.144  1.00  0.00    -0.265 OA
BRANCH   3   5
HETATM    5  C15 UNL     1      -3.787  11.333  15.888  1.00  0.00     0.120 C 
BRANCH   5   6
HETATM    6  C14 UNL     1      -4.622  12.467  16.472  1.00  0.00     0.112 C 
BRANCH   6   7
HETATM    7  C13 UNL     1      -3.857  13.773  16.485  1.00  0.00     0.218 C 
HETATM    8  N2  UNL     1      -2.847  13.816  15.549  1.00  0.00    -0.347 N 
HETATM    9  H13 UNL     1      -2.908  13.165  14.774  1.00  0.00     0.163 HD
HETATM   10  O3  UNL     1      -4.110  14.701  17.244  1.00  0.00    -0.274 OA
BRANCH   8  11
HETATM   11  C3  UNL     1      -2.124  15.071  15.289  1.00  0.00     0.188 C 
BRANCH  11  12
HETATM   12  C2  UNL     1      -2.167  15.336  13.783  1.00  0.00     0.281 C 
HETATM   13  O2  UNL     1      -2.502  14.506  12.945  1.00  0.00    -0.263 OA
BRANCH  12  14
HETATM   14  O1  UNL     1      -1.724  16.595  13.502  1.00  0.00    -0.325 OA
HETATM   15  C1  UNL     1      -2.766  17.561  13.368  1.00  0.00     0.213 C 
ENDBRANCH  12  14
ENDBRANCH  11  12
BRANCH  11  16
HETATM   16  C4  UNL     1      -0.652  14.990  15.708  1.00  0.00     0.076 C 
BRANCH  16  17
HETATM   17  C5  UNL     1      -0.105  13.606  15.919  1.00  0.00    -0.028 A 
HETATM   18  C6  UNL     1       0.566  12.801  15.017  1.00  0.00     0.096 A 
HETATM   19  N1  UNL     1       0.879  11.620  15.636  1.00  0.00    -0.365 N 
HETATM   20  C7  UNL     1       0.417  11.622  16.930  1.00  0.00     0.042 A 
HETATM   21  H8  UNL     1       1.374  10.851  15.205  1.00  0.00     0.165 HD
HETATM   22  C8  UNL     1       0.504  10.637  17.921  1.00  0.00     0.030 A 
HETATM   23  C12 UNL     1      -0.209  12.852  17.138  1.00  0.00    -0.002 A 
HETATM   24  C9  UNL     1      -0.071  10.917  19.166  1.00  0.00     0.002 A 
HETATM   25  C10 UNL     1      -0.707  12.133  19.404  1.00  0.00     0.001 A 
HETATM   26  C11 UNL     1      -0.784  13.107  18.401  1.00  0.00     0.014 A 
ENDBRANCH  16  17
ENDBRANCH  11  16
ENDBRANCH   8  11
ENDBRANCH   6   7
ENDBRANCH   5   6
ENDBRANCH   3   5
ENDBRANCH   2   3
ENDBRANCH   1   2
BRANCH   1  27
HETATM   27  C18 UNL     1      -1.543   7.990  14.843  1.00  0.00     0.185 C 
HETATM   28  O6  UNL     1      -1.112   7.202  15.687  1.00  0.00    -0.292 OA
BRANCH  27  29
HETATM   29  C19 UNL     1      -1.457   7.685  13.327  1.00  0.00     0.128 C 
HETATM   30  C20 UNL     1      -2.123   8.801  12.466  1.00  0.00     0.047 C 
HETATM   31  C21 UNL     1      -1.252   8.972  11.207  1.00  0.00     0.009 C 
HETATM   32  C22 UNL     1      -0.294   7.790  11.250  1.00  0.00     0.002 C 
HETATM   33  C23 UNL     1       0.966   7.838  10.372  1.00  0.00    -0.002 C 
HETATM   34  C36 UNL     1       0.001   7.613  12.760  1.00  0.00     0.001 C 
HETATM   35  C24 UNL     1       0.591   8.098   8.902  1.00  0.00     0.010 C 
HETATM   36  C33 UNL     1       1.738   6.483  10.527  1.00  0.00     0.035 C 
HETATM   37  C25 UNL     1       1.800   8.028   7.975  1.00  0.00     0.036 C 
HETATM   38  C26 UNL     1       2.512   6.712   8.153  1.00  0.00    -0.064 A 
HETATM   39  C27 UNL     1       2.657   5.871   7.114  1.00  0.00     0.058 A 
HETATM   40  C31 UNL     1       2.997   6.402   9.578  1.00  0.00     0.004 A 
HETATM   41  C28 UNL     1       3.296   4.547   7.263  1.00  0.00     0.172 A 
HETATM   42  O8  UNL     1       3.428   3.791   6.309  1.00  0.00    -0.289 OA
HETATM   43  C29 UNL     1       3.764   4.173   8.611  1.00  0.00     0.052 A 
HETATM   44  C30 UNL     1       3.623   5.013   9.647  1.00  0.00    -0.009 A 
HETATM   45  C32 UNL     1       4.120   7.403   9.931  1.00  0.00     0.025 C 
HETATM   46  C34 UNL     1       1.990   6.130  12.024  1.00  0.00     0.124 C 
HETATM   47  C35 UNL     1       0.733   6.261  12.915  1.00  0.00     0.045 C 
HETATM   48  C37 UNL     1       0.850   8.767  13.355  1.00  0.00     0.019 C 
BRANCH  29  49
HETATM   49  O7  UNL     1      -2.143   6.458  13.055  1.00  0.00    -0.381 OA
HETATM   50  H20 UNL     1      -3.102   6.613  13.147  1.00  0.00     0.211 HD
ENDBRANCH  29  49
BRANCH  46  51
HETATM   51  O9  UNL     1       3.035   6.924  12.568  1.00  0.00    -0.395 OA
HETATM   52  H39 UNL     1       3.215   6.608  13.472  1.00  0.00     0.210 HD
ENDBRANCH  46  51
ENDBRANCH  27  29
ENDBRANCH   1  27
TORSDOF 14
ENDMDL
MODEL 8
REMARK minimizedAffinity -8.4553833
REMARK CNNscore 0.284157276
REMARK CNNaffinity 6.43435669
REMARK  14 active torsions:
REMARK  status: ('A' for Active; 'I' for Inactive)
REMARK    1  A    between atoms: O1_2  and  C2_3 
REMARK    2  A    between atoms: C2_3  and  C3_5 
REMARK    3  A    between atoms: C3_5  and  C4_6 
REMARK    4  A    between atoms: C3_5  and  N2_16 
REMARK    5  A    between atoms: C4_6  and  C5_7 
REMARK       I    between atoms: N2_16  and  C13_17 
REMARK    6  A    between atoms: C13_17  and  C14_19 
REMARK    7  A    between atoms: C14_19  and  C15_20 
REMARK    8  A    between atoms: C15_20  and  C16_21 
REMARK    9  A    between atoms: C16_21  and  O5_23 
REMARK   10  A    between atoms: O5_23  and  C17_24 
REMARK   11  A    between atoms: C17_24  and  C18_25 
REMARK   12  A    between atoms: C18_25  and  C19_27 
REMARK   13  A    between atoms: C19_27  and  O7_28 
REMARK   14  A    between atoms: C34_44  and  O9_45 
ROOT
HETATM    1  C17 UNL     1      -0.868   9.450  15.283  1.00  0.00     0.260 C 
ENDROOT
BRANCH   1   2
HETATM    2  O5  UNL     1      -0.510   9.442  16.668  1.00  0.00    -0.314 OA
BRANCH   2   3
HETATM    3  C16 UNL     1       0.781   9.785  16.922  1.00  0.00     0.259 C 
HETATM    4  O4  UNL     1       1.699   8.988  17.055  1.00  0.00    -0.265 OA
BRANCH   3   5
HETATM    5  C15 UNL     1       0.915  11.283  16.988  1.00  0.00     0.120 C 
BRANCH   5   6
HETATM    6  C14 UNL     1       0.114  11.853  18.154  1.00  0.00     0.112 C 
BRANCH   6   7
HETATM    7  C13 UNL     1      -1.252  12.331  17.711  1.00  0.00     0.218 C 
HETATM    8  N2  UNL     1      -2.284  11.695  18.365  1.00  0.00    -0.347 N 
HETATM    9  H13 UNL     1      -2.063  11.244  19.246  1.00  0.00     0.163 HD
HETATM   10  O3  UNL     1      -1.428  13.197  16.862  1.00  0.00    -0.274 OA
BRANCH   8  11
HETATM   11  C3  UNL     1      -3.670  12.161  18.203  1.00  0.00     0.188 C 
BRANCH  11  12
HETATM   12  C2  UNL     1      -4.174  11.675  16.842  1.00  0.00     0.281 C 
HETATM   13  O2  UNL     1      -4.804  12.369  16.052  1.00  0.00    -0.263 OA
BRANCH  12  14
HETATM   14  O1  UNL     1      -3.880  10.356  16.661  1.00  0.00    -0.325 OA
HETATM   15  C1  UNL     1      -4.735   9.692  15.730  1.00  0.00     0.213 C 
ENDBRANCH  12  14
ENDBRANCH  11  12
BRANCH  11  16
HETATM   16  C4  UNL     1      -3.774  13.690  18.221  1.00  0.00     0.076 C 
BRANCH  16  17
HETATM   17  C5  UNL     1      -3.802  14.329  19.580  1.00  0.00    -0.028 A 
HETATM   18  C6  UNL     1      -2.883  15.198  20.140  1.00  0.00     0.096 A 
HETATM   19  N1  UNL     1      -3.307  15.528  21.400  1.00  0.00    -0.365 N 
HETATM   20  C7  UNL     1      -4.486  14.885  21.691  1.00  0.00     0.042 A 
HETATM   21  H8  UNL     1      -2.823  16.152  22.032  1.00  0.00     0.165 HD
HETATM   22  C8  UNL     1      -5.271  14.921  22.850  1.00  0.00     0.030 A 
HETATM   23  C12 UNL     1      -4.821  14.121  20.572  1.00  0.00    -0.002 A 
HETATM   24  C9  UNL     1      -6.437  14.147  22.867  1.00  0.00     0.002 A 
HETATM   25  C10 UNL     1      -6.797  13.370  21.768  1.00  0.00     0.001 A 
HETATM   26  C11 UNL     1      -6.001  13.348  20.617  1.00  0.00     0.014 A 
ENDBRANCH  16  17
ENDBRANCH  11  16
ENDBRANCH   8  11
ENDBRANCH   6   7
ENDBRANCH   5   6
ENDBRANCH   3   5
ENDBRANCH   2   3
ENDBRANCH   1   2
BRANCH   1  27
HETATM   27  C18 UNL     1      -1.376   8.075  14.857  1.00  0.00     0.185 C 
HETATM   28  O6  UNL     1      -1.792   7.256  15.679  1.00  0.00    -0.292 OA
BRANCH  27  29
HETATM   29  C19 UNL     1      -1.327   7.754  13.342  1.00  0.00     0.128 C 
HETATM   30  C20 UNL     1      -2.003   8.867  12.485  1.00  0.00     0.047 C 
HETATM   31  C21 UNL     1      -1.160   9.019  11.206  1.00  0.00     0.009 C 
HETATM   32  C22 UNL     1      -0.211   7.829  11.239  1.00  0.00     0.002 C 
HETATM   33  C23 UNL     1       1.029   7.857  10.332  1.00  0.00    -0.002 C 
HETATM   34  C36 UNL     1       0.117   7.664  12.743  1.00  0.00     0.001 C 
HETATM   35  C24 UNL     1       0.623   8.106   8.868  1.00  0.00     0.010 C 
HETATM   36  C33 UNL     1       1.793   6.497  10.483  1.00  0.00     0.035 C 
HETATM   37  C25 UNL     1       1.809   8.016   7.915  1.00  0.00     0.036 C 
HETATM   38  C26 UNL     1       2.515   6.696   8.089  1.00  0.00    -0.064 A 
HETATM   39  C27 UNL     1       2.628   5.843   7.056  1.00  0.00     0.058 A 
HETATM   40  C31 UNL     1       3.029   6.396   9.506  1.00  0.00     0.004 A 
HETATM   41  C28 UNL     1       3.260   4.516   7.203  1.00  0.00     0.172 A 
HETATM   42  O8  UNL     1       3.363   3.749   6.255  1.00  0.00    -0.289 OA
HETATM   43  C29 UNL     1       3.754   4.151   8.544  1.00  0.00     0.052 A 
HETATM   44  C30 UNL     1       3.645   5.002   9.575  1.00  0.00    -0.009 A 
HETATM   45  C32 UNL     1       4.168   7.390   9.823  1.00  0.00     0.025 C 
HETATM   46  C34 UNL     1       2.076   6.156  11.977  1.00  0.00     0.124 C 
HETATM   47  C35 UNL     1       0.840   6.307  12.895  1.00  0.00     0.045 C 
HETATM   48  C37 UNL     1       0.989   8.816  13.308  1.00  0.00     0.019 C 
BRANCH  29  49
HETATM   49  O7  UNL     1      -2.030   6.530  13.099  1.00  0.00    -0.381 OA
HETATM   50  H20 UNL     1      -2.985   6.695  13.211  1.00  0.00     0.211 HD
ENDBRANCH  29  49
BRANCH  46  51
HETATM   51  O9  UNL     1       3.139   6.946  12.489  1.00  0.00    -0.395 OA
HETATM   52  H39 UNL     1       3.338   6.638  13.392  1.00  0.00     0.210 HD
ENDBRANCH  46  51
ENDBRANCH  27  29
ENDBRANCH   1  27
TORSDOF 14
ENDMDL
MODEL 9
REMARK minimizedAffinity -8.40316963
REMARK CNNscore 0.283666879
REMARK CNNaffinity 6.07590866
REMARK  14 active torsions:
REMARK  status: ('A' for Active; 'I' for Inactive)
REMARK    1  A    between atoms: O1_2  and  C2_3 
REMARK    2  A    between atoms: C2_3  and  C3_5 
REMARK    3  A    between atoms: C3_5  and  C4_6 
REMARK    4  A    between atoms: C3_5  and  N2_16 
REMARK    5  A    between atoms: C4_6  and  C5_7 
REMARK       I    between atoms: N2_16  and  C13_17 
REMARK    6  A    between atoms: C13_17  and  C14_19 
REMARK    7  A    between atoms: C14_19  and  C15_20 
REMARK    8  A    between atoms: C15_20  and  C16_21 
REMARK    9  A    between atoms: C16_21  and  O5_23 
REMARK   10  A    between atoms: O5_23  and  C17_24 
REMARK   11  A    between atoms: C17_24  and  C18_25 
REMARK   12  A    between atoms: C18_25  and  C19_27 
REMARK   13  A    between atoms: C19_27  and  O7_28 
REMARK   14  A    between atoms: C34_44  and  O9_45 
ROOT
HETATM    1  C17 UNL     1       0.281  11.072  16.825  1.00  0.00     0.260 C 
ENDROOT
BRANCH   1   2
HETATM    2  O5  UNL     1      -0.949  11.256  16.118  1.00  0.00    -0.314 OA
BRANCH   2   3
HETATM    3  C16 UNL     1      -1.557  10.104  15.731  1.00  0.00     0.259 C 
HETATM    4  O4  UNL     1      -1.215   8.983  16.083  1.00  0.00    -0.265 OA
BRANCH   3   5
HETATM    5  C15 UNL     1      -2.722  10.412  14.828  1.00  0.00     0.120 C 
BRANCH   5   6
HETATM    6  C14 UNL     1      -4.038   9.983  15.467  1.00  0.00     0.112 C 
BRANCH   6   7
HETATM    7  C13 UNL     1      -4.766   8.965  14.615  1.00  0.00     0.218 C 
HETATM    8  N2  UNL     1      -5.819   8.367  15.271  1.00  0.00    -0.347 N 
HETATM    9  H13 UNL     1      -6.196   8.853  16.078  1.00  0.00     0.163 HD
HETATM   10  O3  UNL     1      -4.458   8.701  13.459  1.00  0.00    -0.274 OA
BRANCH   8  11
HETATM   11  C3  UNL     1      -6.754   7.495  14.542  1.00  0.00     0.188 C 
BRANCH  11  12
HETATM   12  C2  UNL     1      -8.173   8.007  14.799  1.00  0.00     0.281 C 
HETATM   13  O2  UNL     1      -8.435   9.044  15.398  1.00  0.00    -0.263 OA
BRANCH  12  14
HETATM   14  O1  UNL     1      -9.097   7.124  14.325  1.00  0.00    -0.325 OA
HETATM   15  C1  UNL     1     -10.442   7.439  14.687  1.00  0.00     0.213 C 
ENDBRANCH  12  14
ENDBRANCH  11  12
BRANCH  11  16
HETATM   16  C4  UNL     1      -6.687   6.042  15.024  1.00  0.00     0.076 C 
BRANCH  16  17
HETATM   17  C5  UNL     1      -6.577   4.999  13.948  1.00  0.00    -0.028 A 
HETATM   18  C6  UNL     1      -7.545   4.116  13.505  1.00  0.00     0.096 A 
HETATM   19  N1  UNL     1      -7.008   3.342  12.511  1.00  0.00    -0.365 N 
HETATM   20  C7  UNL     1      -5.696   3.689  12.293  1.00  0.00     0.042 A 
HETATM   21  H8  UNL     1      -7.500   2.616  12.009  1.00  0.00     0.165 HD
HETATM   22  C8  UNL     1      -4.764   3.168  11.387  1.00  0.00     0.030 A 
HETATM   23  C12 UNL     1      -5.394   4.721  13.182  1.00  0.00    -0.002 A 
HETATM   24  C9  UNL     1      -3.478   3.720  11.392  1.00  0.00     0.002 A 
HETATM   25  C10 UNL     1      -3.143   4.749  12.269  1.00  0.00     0.001 A 
HETATM   26  C11 UNL     1      -4.088   5.258  13.168  1.00  0.00     0.014 A 
ENDBRANCH  16  17
ENDBRANCH  11  16
ENDBRANCH   8  11
ENDBRANCH   6   7
ENDBRANCH   5   6
ENDBRANCH   3   5
ENDBRANCH   2   3
ENDBRANCH   1   2
BRANCH   1  27
HETATM   27  C18 UNL     1       0.123  11.484  18.286  1.00  0.00     0.185 C 
HETATM   28  O6  UNL     1      -0.731  10.973  19.013  1.00  0.00    -0.292 OA
BRANCH  27  29
HETATM   29  C19 UNL     1       1.077  12.589  18.805  1.00  0.00     0.128 C 
HETATM   30  C20 UNL     1       0.329  13.656  19.660  1.00  0.00     0.047 C 
HETATM   31  C21 UNL     1       1.274  14.047  20.812  1.00  0.00     0.009 C 
HETATM   32  C22 UNL     1       2.606  13.415  20.434  1.00  0.00     0.002 C 
HETATM   33  C23 UNL     1       3.679  13.265  21.524  1.00  0.00    -0.002 C 
HETATM   34  C36 UNL     1       2.201  12.077  19.768  1.00  0.00     0.001 C 
HETATM   35  C24 UNL     1       3.965  14.623  22.192  1.00  0.00     0.010 C 
HETATM   36  C33 UNL     1       4.976  12.671  20.874  1.00  0.00     0.035 C 
HETATM   37  C25 UNL     1       5.113  14.547  23.192  1.00  0.00     0.036 C 
HETATM   38  C26 UNL     1       6.339  13.973  22.529  1.00  0.00    -0.064 A 
HETATM   39  C27 UNL     1       7.478  14.686  22.472  1.00  0.00     0.058 A 
HETATM   40  C31 UNL     1       6.170  12.579  21.904  1.00  0.00     0.004 A 
HETATM   41  C28 UNL     1       8.682  14.181  21.780  1.00  0.00     0.172 A 
HETATM   42  O8  UNL     1       9.715  14.835  21.739  1.00  0.00    -0.289 OA
HETATM   43  C29 UNL     1       8.582  12.859  21.135  1.00  0.00     0.052 A 
HETATM   44  C30 UNL     1       7.448  12.146  21.193  1.00  0.00    -0.009 A 
HETATM   45  C32 UNL     1       5.943  11.565  23.047  1.00  0.00     0.025 C 
HETATM   46  C34 UNL     1       4.674  11.375  20.065  1.00  0.00     0.124 C 
HETATM   47  C35 UNL     1       3.473  11.508  19.100  1.00  0.00     0.045 C 
HETATM   48  C37 UNL     1       1.604  11.052  20.769  1.00  0.00     0.019 C 
BRANCH  29  49
HETATM   49  O7  UNL     1       1.668  13.262  17.687  1.00  0.00    -0.381 OA
HETATM   50  H20 UNL     1       0.982  13.811  17.260  1.00  0.00     0.211 HD
ENDBRANCH  29  49
BRANCH  46  51
HETATM   51  O9  UNL     1       4.459  10.269  20.931  1.00  0.00    -0.395 OA
HETATM   52  H39 UNL     1       4.363   9.470  20.383  1.00  0.00     0.210 HD
ENDBRANCH  46  51
ENDBRANCH  27  29
ENDBRANCH   1  27
TORSDOF 14
ENDMDL
