MODEL 1
REMARK minimizedAffinity -8.72136974
REMARK  4 active torsions:
REMARK  status: ('A' for Active; 'I' for Inactive)
REMARK    1  A    between atoms: C4_4  and  C5_5 
REMARK    2  A    between atoms: C5_5  and  C6_6 
REMARK    3  A    between atoms: C6_6  and  C7_7 
REMARK    4  A    between atoms: C7_7  and  C9_9 
ROOT
HETATM    1  C9  UNL     1      -2.032   5.431  12.615  1.00  0.00    -0.002 C 
HETATM    2  C10 UNL     1      -2.038   5.643  14.152  1.00  0.00     0.007 C 
HETATM    3  C11 UNL     1      -0.729   6.391  14.499  1.00  0.00     0.015 C 
HETATM    4  C12 UNL     1      -0.176   6.884  13.142  1.00  0.00    -0.013 C 
HETATM    5  C13 UNL     1      -0.933   8.220  12.841  1.00  0.00     0.021 C 
HETATM    6  C14 UNL     1       1.308   7.208  12.983  1.00  0.00    -0.070 C 
HETATM    7  C15 UNL     1       2.135   7.360  14.031  1.00  0.00    -0.022 C 
HETATM    8  C16 UNL     1       3.562   7.813  13.930  1.00  0.00     0.038 C 
HETATM    9  C17 UNL     1       3.922   8.534  12.590  1.00  0.00    -0.019 C 
HETATM   10  C18 UNL     1       3.178   9.916  12.621  1.00  0.00     0.017 C 
HETATM   11  C19 UNL     1       5.514   8.780  12.464  1.00  0.00     0.021 C 
HETATM   12  C20 UNL     1       6.373   7.786  13.292  1.00  0.00     0.024 C 
HETATM   13  C21 UNL     1       5.972  10.184  12.934  1.00  0.00     0.024 C 
HETATM   14  C22 UNL     1       5.958   8.677  10.992  1.00  0.00     0.135 C 
HETATM   15  O1  UNL     1       7.106   8.359  10.673  1.00  0.00    -0.297 OA
HETATM   16  C23 UNL     1       4.971   9.079   9.928  1.00  0.00     0.080 C 
HETATM   17  C24 UNL     1       3.638   8.345  10.026  1.00  0.00     0.018 C 
HETATM   18  C25 UNL     1       3.350   7.643  11.386  1.00  0.00    -0.028 C 
HETATM   19  C26 UNL     1       4.029   6.242  11.343  1.00  0.00     0.016 C 
HETATM   20  C27 UNL     1       1.768   7.458  11.533  1.00  0.00     0.024 C 
HETATM   21  C28 UNL     1       1.151   6.461  10.500  1.00  0.00     0.010 C 
HETATM   22  C29 UNL     1      -0.317   6.066  10.752  1.00  0.00     0.011 C 
HETATM   23  C30 UNL     1      -0.543   5.670  12.222  1.00  0.00    -0.029 C 
HETATM   24  C31 UNL     1       0.316   4.407  12.525  1.00  0.00     0.016 C 
ENDROOT
BRANCH   1  25
HETATM   25  C7  UNL     1      -2.758   4.157  12.083  1.00  0.00    -0.014 C 
HETATM   26  C8  UNL     1      -2.186   3.827  10.691  1.00  0.00     0.010 C 
BRANCH  25  27
HETATM   27  C6  UNL     1      -4.302   4.256  12.005  1.00  0.00     0.008 C 
BRANCH  27  28
HETATM   28  C5  UNL     1      -4.990   4.621  13.332  1.00  0.00     0.028 C 
BRANCH  28  29
HETATM   29  C4  UNL     1      -6.324   5.294  13.168  1.00  0.00    -0.025 C 
HETATM   30  C2  UNL     1      -7.536   4.723  13.023  1.00  0.00    -0.091 C 
HETATM   31  C1  UNL     1      -7.807   3.245  12.979  1.00  0.00     0.042 C 
HETATM   32  C3  UNL     1      -8.769   5.578  12.876  1.00  0.00     0.042 C 
ENDBRANCH  28  29
ENDBRANCH  27  28
ENDBRANCH  25  27
ENDBRANCH   1  25
TORSDOF 4
ENDMDL
MODEL 2
REMARK minimizedAffinity -8.63097
REMARK  4 active torsions:
REMARK  status: ('A' for Active; 'I' for Inactive)
REMARK    1  A    between atoms: C4_4  and  C5_5 
REMARK    2  A    between atoms: C5_5  and  C6_6 
REMARK    3  A    between atoms: C6_6  and  C7_7 
REMARK    4  A    between atoms: C7_7  and  C9_9 
ROOT
HETATM    1  C9  UNL     1      -2.345   7.025  13.449  1.00  0.00    -0.002 C 
HETATM    2  C10 UNL     1      -2.107   7.152  14.976  1.00  0.00     0.007 C 
HETATM    3  C11 UNL     1      -0.614   7.509  15.162  1.00  0.00     0.015 C 
HETATM    4  C12 UNL     1      -0.118   7.907  13.752  1.00  0.00    -0.013 C 
HETATM    5  C13 UNL     1      -0.519   9.409  13.575  1.00  0.00     0.021 C 
HETATM    6  C14 UNL     1       1.368   7.834  13.406  1.00  0.00    -0.070 C 
HETATM    7  C15 UNL     1       2.327   7.708  14.339  1.00  0.00    -0.022 C 
HETATM    8  C16 UNL     1       3.800   7.772  14.059  1.00  0.00     0.038 C 
HETATM    9  C17 UNL     1       4.174   8.440  12.696  1.00  0.00    -0.019 C 
HETATM   10  C18 UNL     1       3.839   9.966  12.848  1.00  0.00     0.017 C 
HETATM   11  C19 UNL     1       5.747   8.262  12.367  1.00  0.00     0.021 C 
HETATM   12  C20 UNL     1       6.400   7.036  13.059  1.00  0.00     0.024 C 
HETATM   13  C21 UNL     1       6.618   9.470  12.796  1.00  0.00     0.024 C 
HETATM   14  C22 UNL     1       5.964   8.120  10.849  1.00  0.00     0.135 C 
HETATM   15  O1  UNL     1       6.936   7.527  10.376  1.00  0.00    -0.297 OA
HETATM   16  C23 UNL     1       4.999   8.823   9.929  1.00  0.00     0.080 C 
HETATM   17  C24 UNL     1       3.541   8.464  10.189  1.00  0.00     0.018 C 
HETATM   18  C25 UNL     1       3.242   7.795  11.563  1.00  0.00    -0.028 C 
HETATM   19  C26 UNL     1       3.509   6.268  11.408  1.00  0.00     0.016 C 
HETATM   20  C27 UNL     1       1.699   8.027  11.913  1.00  0.00     0.024 C 
HETATM   21  C28 UNL     1       0.715   7.283  10.953  1.00  0.00     0.010 C 
HETATM   22  C29 UNL     1      -0.763   7.278  11.388  1.00  0.00     0.011 C 
HETATM   23  C30 UNL     1      -0.907   6.881  12.868  1.00  0.00    -0.029 C 
HETATM   24  C31 UNL     1      -0.388   5.422  13.035  1.00  0.00     0.016 C 
ENDROOT
BRANCH   1  25
HETATM   25  C7  UNL     1      -3.447   6.017  12.995  1.00  0.00    -0.014 C 
HETATM   26  C8  UNL     1      -4.496   5.918  14.119  1.00  0.00     0.010 C 
BRANCH  25  27
HETATM   27  C6  UNL     1      -2.941   4.601  12.624  1.00  0.00     0.008 C 
BRANCH  27  28
HETATM   28  C5  UNL     1      -3.873   3.810  11.688  1.00  0.00     0.028 C 
BRANCH  28  29
HETATM   29  C4  UNL     1      -5.258   3.602  12.234  1.00  0.00    -0.025 C 
HETATM   30  C2  UNL     1      -6.081   2.552  12.046  1.00  0.00    -0.091 C 
HETATM   31  C1  UNL     1      -5.775   1.340  11.210  1.00  0.00     0.042 C 
HETATM   32  C3  UNL     1      -7.444   2.527  12.689  1.00  0.00     0.042 C 
ENDBRANCH  28  29
ENDBRANCH  27  28
ENDBRANCH  25  27
ENDBRANCH   1  25
TORSDOF 4
ENDMDL
MODEL 3
REMARK minimizedAffinity -8.48925495
REMARK  4 active torsions:
REMARK  status: ('A' for Active; 'I' for Inactive)
REMARK    1  A    between atoms: C4_4  and  C5_5 
REMARK    2  A    between atoms: C5_5  and  C6_6 
REMARK    3  A    between atoms: C6_6  and  C7_7 
REMARK    4  A    between atoms: C7_7  and  C9_9 
ROOT
HETATM    1  C9  UNL     1      -2.806   4.880  13.147  1.00  0.00    -0.002 C 
HETATM    2  C10 UNL     1      -1.839   5.276  12.000  1.00  0.00     0.007 C 
HETATM    3  C11 UNL     1      -1.315   6.693  12.334  1.00  0.00     0.015 C 
HETATM    4  C12 UNL     1      -1.718   6.933  13.808  1.00  0.00    -0.013 C 
HETATM    5  C13 UNL     1      -0.602   6.250  14.665  1.00  0.00     0.021 C 
HETATM    6  C14 UNL     1      -1.844   8.354  14.354  1.00  0.00    -0.070 C 
HETATM    7  C15 UNL     1      -1.355   9.426  13.708  1.00  0.00    -0.022 C 
HETATM    8  C16 UNL     1      -1.332  10.818  14.268  1.00  0.00     0.038 C 
HETATM    9  C17 UNL     1      -1.496  10.897  15.821  1.00  0.00    -0.019 C 
HETATM   10  C18 UNL     1      -0.173  10.314  16.433  1.00  0.00     0.017 C 
HETATM   11  C19 UNL     1      -1.692  12.424  16.315  1.00  0.00     0.021 C 
HETATM   12  C20 UNL     1      -2.275  13.367  15.228  1.00  0.00     0.024 C 
HETATM   13  C21 UNL     1      -0.380  13.110  16.771  1.00  0.00     0.024 C 
HETATM   14  C22 UNL     1      -2.627  12.476  17.537  1.00  0.00     0.135 C 
HETATM   15  O1  UNL     1      -3.298  13.474  17.810  1.00  0.00    -0.297 OA
HETATM   16  C23 UNL     1      -2.630  11.295  18.474  1.00  0.00     0.080 C 
HETATM   17  C24 UNL     1      -2.909   9.968  17.778  1.00  0.00     0.018 C 
HETATM   18  C25 UNL     1      -2.734   9.965  16.231  1.00  0.00    -0.028 C 
HETATM   19  C26 UNL     1      -4.065  10.481  15.608  1.00  0.00     0.016 C 
HETATM   20  C27 UNL     1      -2.478   8.459  15.755  1.00  0.00     0.024 C 
HETATM   21  C28 UNL     1      -3.707   7.516  15.958  1.00  0.00     0.010 C 
HETATM   22  C29 UNL     1      -3.597   6.127  15.300  1.00  0.00     0.011 C 
HETATM   23  C30 UNL     1      -3.123   6.239  13.839  1.00  0.00    -0.029 C 
HETATM   24  C31 UNL     1      -4.200   7.028  13.037  1.00  0.00     0.016 C 
ENDROOT
BRANCH   1  25
HETATM   25  C7  UNL     1      -3.985   3.931  12.770  1.00  0.00    -0.014 C 
HETATM   26  C8  UNL     1      -4.014   3.791  11.236  1.00  0.00     0.010 C 
BRANCH  25  27
HETATM   27  C6  UNL     1      -5.380   4.367  13.283  1.00  0.00     0.008 C 
BRANCH  27  28
HETATM   28  C5  UNL     1      -6.566   3.778  12.498  1.00  0.00     0.028 C 
BRANCH  28  29
HETATM   29  C4  UNL     1      -7.769   4.676  12.435  1.00  0.00    -0.025 C 
HETATM   30  C2  UNL     1      -8.284   5.451  13.409  1.00  0.00    -0.091 C 
HETATM   31  C1  UNL     1      -7.751   5.566  14.811  1.00  0.00     0.042 C 
HETATM   32  C3  UNL     1      -9.506   6.295  13.146  1.00  0.00     0.042 C 
ENDBRANCH  28  29
ENDBRANCH  27  28
ENDBRANCH  25  27
ENDBRANCH   1  25
TORSDOF 4
ENDMDL
MODEL 4
REMARK minimizedAffinity -8.48006535
REMARK  4 active torsions:
REMARK  status: ('A' for Active; 'I' for Inactive)
REMARK    1  A    between atoms: C4_4  and  C5_5 
REMARK    2  A    between atoms: C5_5  and  C6_6 
REMARK    3  A    between atoms: C6_6  and  C7_7 
REMARK    4  A    between atoms: C7_7  and  C9_9 
ROOT
HETATM    1  C9  UNL     1      -1.432   5.341  12.787  1.00  0.00    -0.002 C 
HETATM    2  C10 UNL     1      -0.734   6.108  11.633  1.00  0.00     0.007 C 
HETATM    3  C11 UNL     1      -0.651   7.588  12.072  1.00  0.00     0.015 C 
HETATM    4  C12 UNL     1      -0.987   7.578  13.582  1.00  0.00    -0.013 C 
HETATM    5  C13 UNL     1       0.352   7.223  14.308  1.00  0.00     0.021 C 
HETATM    6  C14 UNL     1      -1.504   8.841  14.268  1.00  0.00    -0.070 C 
HETATM    7  C15 UNL     1      -1.428  10.058  13.704  1.00  0.00    -0.022 C 
HETATM    8  C16 UNL     1      -1.793  11.340  14.393  1.00  0.00     0.038 C 
HETATM    9  C17 UNL     1      -1.846  11.248  15.953  1.00  0.00    -0.019 C 
HETATM   10  C18 UNL     1      -0.362  11.070  16.433  1.00  0.00     0.017 C 
HETATM   11  C19 UNL     1      -2.467  12.592  16.601  1.00  0.00     0.021 C 
HETATM   12  C20 UNL     1      -3.401  13.379  15.643  1.00  0.00     0.024 C 
HETATM   13  C21 UNL     1      -1.401  13.623  17.049  1.00  0.00     0.024 C 
HETATM   14  C22 UNL     1      -3.269  12.253  17.872  1.00  0.00     0.135 C 
HETATM   15  O1  UNL     1      -4.192  12.964  18.275  1.00  0.00    -0.297 OA
HETATM   16  C23 UNL     1      -2.828  11.067  18.689  1.00  0.00     0.080 C 
HETATM   17  C24 UNL     1      -2.735   9.775  17.885  1.00  0.00     0.018 C 
HETATM   18  C25 UNL     1      -2.695   9.943  16.337  1.00  0.00    -0.028 C 
HETATM   19  C26 UNL     1      -4.166  10.054  15.840  1.00  0.00     0.016 C 
HETATM   20  C27 UNL     1      -2.022   8.636  15.705  1.00  0.00     0.024 C 
HETATM   21  C28 UNL     1      -2.876   7.339  15.883  1.00  0.00     0.010 C 
HETATM   22  C29 UNL     1      -2.393   6.109  15.089  1.00  0.00     0.011 C 
HETATM   23  C30 UNL     1      -2.099   6.474  13.623  1.00  0.00    -0.029 C 
HETATM   24  C31 UNL     1      -3.430   6.938  12.959  1.00  0.00     0.016 C 
ENDROOT
BRANCH   1  25
HETATM   25  C7  UNL     1      -2.284   4.098  12.385  1.00  0.00    -0.014 C 
HETATM   26  C8  UNL     1      -1.472   3.272  11.368  1.00  0.00     0.010 C 
BRANCH  25  27
HETATM   27  C6  UNL     1      -3.685   4.411  11.805  1.00  0.00     0.008 C 
BRANCH  27  28
HETATM   28  C5  UNL     1      -4.272   3.304  10.910  1.00  0.00     0.028 C 
BRANCH  28  29
HETATM   29  C4  UNL     1      -5.513   2.661  11.462  1.00  0.00    -0.025 C 
HETATM   30  C2  UNL     1      -6.395   3.168  12.345  1.00  0.00    -0.091 C 
HETATM   31  C1  UNL     1      -6.306   4.523  12.991  1.00  0.00     0.042 C 
HETATM   32  C3  UNL     1      -7.593   2.360  12.775  1.00  0.00     0.042 C 
ENDBRANCH  28  29
ENDBRANCH  27  28
ENDBRANCH  25  27
ENDBRANCH   1  25
TORSDOF 4
ENDMDL
MODEL 5
REMARK minimizedAffinity -8.31636238
REMARK  4 active torsions:
REMARK  status: ('A' for Active; 'I' for Inactive)
REMARK    1  A    between atoms: C4_4  and  C5_5 
REMARK    2  A    between atoms: C5_5  and  C6_6 
REMARK    3  A    between atoms: C6_6  and  C7_7 
REMARK    4  A    between atoms: C7_7  and  C9_9 
ROOT
HETATM    1  C9  UNL     1      -5.960   6.230  14.750  1.00  0.00    -0.002 C 
HETATM    2  C10 UNL     1      -6.086   5.153  13.642  1.00  0.00     0.007 C 
HETATM    3  C11 UNL     1      -4.710   5.078  12.940  1.00  0.00     0.015 C 
HETATM    4  C12 UNL     1      -3.744   5.854  13.866  1.00  0.00    -0.013 C 
HETATM    5  C13 UNL     1      -3.308   4.832  14.967  1.00  0.00     0.021 C 
HETATM    6  C14 UNL     1      -2.447   6.442  13.314  1.00  0.00    -0.070 C 
HETATM    7  C15 UNL     1      -1.942   6.093  12.118  1.00  0.00    -0.022 C 
HETATM    8  C16 UNL     1      -0.607   6.536  11.597  1.00  0.00     0.038 C 
HETATM    9  C17 UNL     1       0.376   7.066  12.691  1.00  0.00    -0.019 C 
HETATM   10  C18 UNL     1       0.796   5.817  13.546  1.00  0.00     0.017 C 
HETATM   11  C19 UNL     1       1.690   7.734  12.029  1.00  0.00     0.021 C 
HETATM   12  C20 UNL     1       1.468   8.263  10.587  1.00  0.00     0.024 C 
HETATM   13  C21 UNL     1       2.895   6.767  11.914  1.00  0.00     0.024 C 
HETATM   14  C22 UNL     1       2.188   8.908  12.893  1.00  0.00     0.135 C 
HETATM   15  O1  UNL     1       2.834   9.845  12.418  1.00  0.00    -0.297 OA
HETATM   16  C23 UNL     1       1.953   8.839  14.379  1.00  0.00     0.080 C 
HETATM   17  C24 UNL     1       0.492   8.620  14.755  1.00  0.00     0.018 C 
HETATM   18  C25 UNL     1      -0.430   8.101  13.613  1.00  0.00    -0.028 C 
HETATM   19  C26 UNL     1      -0.907   9.338  12.796  1.00  0.00     0.016 C 
HETATM   20  C27 UNL     1      -1.699   7.386  14.275  1.00  0.00     0.024 C 
HETATM   21  C28 UNL     1      -2.639   8.362  15.052  1.00  0.00     0.010 C 
HETATM   22  C29 UNL     1      -3.990   7.771  15.500  1.00  0.00     0.011 C 
HETATM   23  C30 UNL     1      -4.678   7.018  14.347  1.00  0.00    -0.029 C 
HETATM   24  C31 UNL     1      -4.992   8.040  13.214  1.00  0.00     0.016 C 
ENDROOT
BRANCH   1  25
HETATM   25  C7  UNL     1      -7.255   7.026  15.102  1.00  0.00    -0.014 C 
HETATM   26  C8  UNL     1      -7.465   6.948  16.626  1.00  0.00     0.010 C 
BRANCH  25  27
HETATM   27  C6  UNL     1      -8.540   6.561  14.372  1.00  0.00     0.008 C 
BRANCH  27  28
HETATM   28  C5  UNL     1      -9.684   7.591  14.367  1.00  0.00     0.028 C 
BRANCH  28  29
HETATM   29  C4  UNL     1     -11.028   7.014  14.021  1.00  0.00    -0.025 C 
HETATM   30  C2  UNL     1     -12.018   7.577  13.301  1.00  0.00    -0.091 C 
HETATM   31  C1  UNL     1     -11.984   8.950  12.689  1.00  0.00     0.042 C 
HETATM   32  C3  UNL     1     -13.303   6.827  13.056  1.00  0.00     0.042 C 
ENDBRANCH  28  29
ENDBRANCH  27  28
ENDBRANCH  25  27
ENDBRANCH   1  25
TORSDOF 4
ENDMDL
MODEL 6
REMARK minimizedAffinity -8.31525135
REMARK  4 active torsions:
REMARK  status: ('A' for Active; 'I' for Inactive)
REMARK    1  A    between atoms: C4_4  and  C5_5 
REMARK    2  A    between atoms: C5_5  and  C6_6 
REMARK    3  A    between atoms: C6_6  and  C7_7 
REMARK    4  A    between atoms: C7_7  and  C9_9 
ROOT
HETATM    1  C9  UNL     1      -4.594   5.849  13.257  1.00  0.00    -0.002 C 
HETATM    2  C10 UNL     1      -5.611   6.591  14.164  1.00  0.00     0.007 C 
HETATM    3  C11 UNL     1      -4.822   7.703  14.894  1.00  0.00     0.015 C 
HETATM    4  C12 UNL     1      -3.470   7.793  14.146  1.00  0.00    -0.013 C 
HETATM    5  C13 UNL     1      -3.737   8.709  12.907  1.00  0.00     0.021 C 
HETATM    6  C14 UNL     1      -2.242   8.383  14.837  1.00  0.00    -0.070 C 
HETATM    7  C15 UNL     1      -2.319   9.094  15.975  1.00  0.00    -0.022 C 
HETATM    8  C16 UNL     1      -1.163   9.807  16.612  1.00  0.00     0.038 C 
HETATM    9  C17 UNL     1       0.049  10.062  15.658  1.00  0.00    -0.019 C 
HETATM   10  C18 UNL     1      -0.426  11.143  14.623  1.00  0.00     0.017 C 
HETATM   11  C19 UNL     1       1.330  10.620  16.470  1.00  0.00     0.021 C 
HETATM   12  C20 UNL     1       1.343  10.226  17.972  1.00  0.00     0.024 C 
HETATM   13  C21 UNL     1       1.453  12.164  16.466  1.00  0.00     0.024 C 
HETATM   14  C22 UNL     1       2.635  10.104  15.834  1.00  0.00     0.135 C 
HETATM   15  O1  UNL     1       3.677   9.977  16.482  1.00  0.00    -0.297 OA
HETATM   16  C23 UNL     1       2.642   9.848  14.349  1.00  0.00     0.080 C 
HETATM   17  C24 UNL     1       1.539   8.904  13.889  1.00  0.00     0.018 C 
HETATM   18  C25 UNL     1       0.368   8.690  14.893  1.00  0.00    -0.028 C 
HETATM   19  C26 UNL     1       0.802   7.572  15.888  1.00  0.00     0.016 C 
HETATM   20  C27 UNL     1      -0.915   8.198  14.075  1.00  0.00     0.024 C 
HETATM   21  C28 UNL     1      -0.752   6.780  13.438  1.00  0.00     0.010 C 
HETATM   22  C29 UNL     1      -2.035   6.162  12.849  1.00  0.00     0.011 C 
HETATM   23  C30 UNL     1      -3.213   6.279  13.834  1.00  0.00    -0.029 C 
HETATM   24  C31 UNL     1      -2.866   5.454  15.109  1.00  0.00     0.016 C 
ENDROOT
BRANCH   1  25
HETATM   25  C7  UNL     1      -4.866   4.335  12.997  1.00  0.00    -0.014 C 
HETATM   26  C8  UNL     1      -3.608   3.730  12.344  1.00  0.00     0.010 C 
BRANCH  25  27
HETATM   27  C6  UNL     1      -6.109   4.022  12.128  1.00  0.00     0.008 C 
BRANCH  27  28
HETATM   28  C5  UNL     1      -7.332   3.517  12.915  1.00  0.00     0.028 C 
BRANCH  28  29
HETATM   29  C4  UNL     1      -8.160   4.608  13.531  1.00  0.00    -0.025 C 
HETATM   30  C2  UNL     1      -8.846   5.588  12.912  1.00  0.00    -0.091 C 
HETATM   31  C1  UNL     1      -8.911   5.806  11.425  1.00  0.00     0.042 C 
HETATM   32  C3  UNL     1      -9.629   6.596  13.715  1.00  0.00     0.042 C 
ENDBRANCH  28  29
ENDBRANCH  27  28
ENDBRANCH  25  27
ENDBRANCH   1  25
TORSDOF 4
ENDMDL
MODEL 7
REMARK minimizedAffinity -8.23553467
REMARK  4 active torsions:
REMARK  status: ('A' for Active; 'I' for Inactive)
REMARK    1  A    between atoms: C4_4  and  C5_5 
REMARK    2  A    between atoms: C5_5  and  C6_6 
REMARK    3  A    between atoms: C6_6  and  C7_7 
REMARK    4  A    between atoms: C7_7  and  C9_9 
ROOT
HETATM    1  C9  UNL     1      -5.945   6.842  14.839  1.00  0.00    -0.002 C 
HETATM    2  C10 UNL     1      -5.775   8.191  15.587  1.00  0.00     0.007 C 
HETATM    3  C11 UNL     1      -4.375   8.730  15.211  1.00  0.00     0.015 C 
HETATM    4  C12 UNL     1      -3.920   7.866  14.011  1.00  0.00    -0.013 C 
HETATM    5  C13 UNL     1      -4.579   8.519  12.751  1.00  0.00     0.021 C 
HETATM    6  C14 UNL     1      -2.437   7.729  13.675  1.00  0.00    -0.070 C 
HETATM    7  C15 UNL     1      -1.496   8.539  14.190  1.00  0.00    -0.022 C 
HETATM    8  C16 UNL     1      -0.052   8.532  13.784  1.00  0.00     0.038 C 
HETATM    9  C17 UNL     1       0.234   7.843  12.410  1.00  0.00    -0.019 C 
HETATM   10  C18 UNL     1      -0.374   8.785  11.311  1.00  0.00     0.017 C 
HETATM   11  C19 UNL     1       1.821   7.671  12.157  1.00  0.00     0.021 C 
HETATM   12  C20 UNL     1       2.665   7.626  13.459  1.00  0.00     0.024 C 
HETATM   13  C21 UNL     1       2.450   8.811  11.317  1.00  0.00     0.024 C 
HETATM   14  C22 UNL     1       2.101   6.378  11.367  1.00  0.00     0.135 C 
HETATM   15  O1  UNL     1       3.176   5.780  11.445  1.00  0.00    -0.297 OA
HETATM   16  C23 UNL     1       1.051   5.904  10.396  1.00  0.00     0.080 C 
HETATM   17  C24 UNL     1      -0.326   5.730  11.026  1.00  0.00     0.018 C 
HETATM   18  C25 UNL     1      -0.537   6.437  12.398  1.00  0.00    -0.028 C 
HETATM   19  C26 UNL     1       0.003   5.483  13.504  1.00  0.00     0.016 C 
HETATM   20  C27 UNL     1      -2.106   6.660  12.615  1.00  0.00     0.024 C 
HETATM   21  C28 UNL     1      -2.914   5.334  12.790  1.00  0.00     0.010 C 
HETATM   22  C29 UNL     1      -4.378   5.501  13.239  1.00  0.00     0.011 C 
HETATM   23  C30 UNL     1      -4.489   6.468  14.431  1.00  0.00    -0.029 C 
HETATM   24  C31 UNL     1      -3.721   5.846  15.636  1.00  0.00     0.016 C 
ENDROOT
BRANCH   1  25
HETATM   25  C7  UNL     1      -6.835   5.766  15.534  1.00  0.00    -0.014 C 
HETATM   26  C8  UNL     1      -7.300   4.765  14.459  1.00  0.00     0.010 C 
BRANCH  25  27
HETATM   27  C6  UNL     1      -8.061   6.314  16.305  1.00  0.00     0.008 C 
BRANCH  27  28
HETATM   28  C5  UNL     1      -9.209   6.818  15.411  1.00  0.00     0.028 C 
BRANCH  28  29
HETATM   29  C4  UNL     1      -9.308   8.315  15.323  1.00  0.00    -0.025 C 
HETATM   30  C2  UNL     1     -10.358   9.061  14.929  1.00  0.00    -0.091 C 
HETATM   31  C1  UNL     1     -11.685   8.529  14.465  1.00  0.00     0.042 C 
HETATM   32  C3  UNL     1     -10.261  10.566  14.916  1.00  0.00     0.042 C 
ENDBRANCH  28  29
ENDBRANCH  27  28
ENDBRANCH  25  27
ENDBRANCH   1  25
TORSDOF 4
ENDMDL
MODEL 8
REMARK minimizedAffinity -8.17045307
REMARK  4 active torsions:
REMARK  status: ('A' for Active; 'I' for Inactive)
REMARK    1  A    between atoms: C4_4  and  C5_5 
REMARK    2  A    between atoms: C5_5  and  C6_6 
REMARK    3  A    between atoms: C6_6  and  C7_7 
REMARK    4  A    between atoms: C7_7  and  C9_9 
ROOT
HETATM    1  C9  UNL     1      -3.296   8.445  14.946  1.00  0.00    -0.002 C 
HETATM    2  C10 UNL     1      -2.494   7.861  16.138  1.00  0.00     0.007 C 
HETATM    3  C11 UNL     1      -1.102   7.471  15.585  1.00  0.00     0.015 C 
HETATM    4  C12 UNL     1      -1.020   8.144  14.195  1.00  0.00    -0.013 C 
HETATM    5  C13 UNL     1      -0.569   9.617  14.467  1.00  0.00     0.021 C 
HETATM    6  C14 UNL     1      -0.062   7.610  13.133  1.00  0.00    -0.070 C 
HETATM    7  C15 UNL     1       0.932   6.751  13.417  1.00  0.00    -0.022 C 
HETATM    8  C16 UNL     1       1.980   6.309  12.437  1.00  0.00     0.038 C 
HETATM    9  C17 UNL     1       2.134   7.235  11.187  1.00  0.00    -0.019 C 
HETATM   10  C18 UNL     1       2.767   8.574  11.708  1.00  0.00     0.017 C 
HETATM   11  C19 UNL     1       3.107   6.572  10.081  1.00  0.00     0.021 C 
HETATM   12  C20 UNL     1       3.184   5.024  10.156  1.00  0.00     0.024 C 
HETATM   13  C21 UNL     1       4.580   7.046  10.175  1.00  0.00     0.024 C 
HETATM   14  C22 UNL     1       2.645   6.955   8.662  1.00  0.00     0.135 C 
HETATM   15  O1  UNL     1       2.886   6.250   7.679  1.00  0.00    -0.297 OA
HETATM   16  C23 UNL     1       1.965   8.287   8.477  1.00  0.00     0.080 C 
HETATM   17  C24 UNL     1       0.761   8.487   9.389  1.00  0.00     0.018 C 
HETATM   18  C25 UNL     1       0.667   7.524  10.609  1.00  0.00    -0.028 C 
HETATM   19  C26 UNL     1      -0.019   6.214  10.120  1.00  0.00     0.016 C 
HETATM   20  C27 UNL     1      -0.247   8.212  11.726  1.00  0.00     0.024 C 
HETATM   21  C28 UNL     1      -1.743   8.373  11.307  1.00  0.00     0.010 C 
HETATM   22  C29 UNL     1      -2.707   8.805  12.428  1.00  0.00     0.011 C 
HETATM   23  C30 UNL     1      -2.496   7.963  13.699  1.00  0.00    -0.029 C 
HETATM   24  C31 UNL     1      -2.839   6.480  13.365  1.00  0.00     0.016 C 
ENDROOT
BRANCH   1  25
HETATM   25  C7  UNL     1      -4.842   8.240  14.977  1.00  0.00    -0.014 C 
HETATM   26  C8  UNL     1      -5.457   9.371  15.825  1.00  0.00     0.010 C 
BRANCH  25  27
HETATM   27  C6  UNL     1      -5.320   6.867  15.510  1.00  0.00     0.008 C 
BRANCH  27  28
HETATM   28  C5  UNL     1      -6.476   6.235  14.712  1.00  0.00     0.028 C 
BRANCH  28  29
HETATM   29  C4  UNL     1      -6.032   5.407  13.540  1.00  0.00    -0.025 C 
HETATM   30  C2  UNL     1      -6.471   4.191  13.162  1.00  0.00    -0.091 C 
HETATM   31  C1  UNL     1      -7.521   3.380  13.871  1.00  0.00     0.042 C 
HETATM   32  C3  UNL     1      -5.899   3.519  11.939  1.00  0.00     0.042 C 
ENDBRANCH  28  29
ENDBRANCH  27  28
ENDBRANCH  25  27
ENDBRANCH   1  25
TORSDOF 4
ENDMDL
MODEL 9
REMARK minimizedAffinity -8.15385818
REMARK  4 active torsions:
REMARK  status: ('A' for Active; 'I' for Inactive)
REMARK    1  A    between atoms: C4_4  and  C5_5 
REMARK    2  A    between atoms: C5_5  and  C6_6 
REMARK    3  A    between atoms: C6_6  and  C7_7 
REMARK    4  A    between atoms: C7_7  and  C9_9 
ROOT
HETATM    1  C9  UNL     1      -2.753   7.093  12.927  1.00  0.00    -0.002 C 
HETATM    2  C10 UNL     1      -3.383   8.496  13.120  1.00  0.00     0.007 C 
HETATM    3  C11 UNL     1      -2.223   9.456  13.476  1.00  0.00     0.015 C 
HETATM    4  C12 UNL     1      -0.934   8.666  13.149  1.00  0.00    -0.013 C 
HETATM    5  C13 UNL     1      -0.704   8.856  11.614  1.00  0.00     0.021 C 
HETATM    6  C14 UNL     1       0.390   9.038  13.813  1.00  0.00    -0.070 C 
HETATM    7  C15 UNL     1       0.575  10.198  14.466  1.00  0.00    -0.022 C 
HETATM    8  C16 UNL     1       1.893  10.665  15.012  1.00  0.00     0.038 C 
HETATM    9  C17 UNL     1       3.141   9.951  14.399  1.00  0.00    -0.019 C 
HETATM   10  C18 UNL     1       3.247  10.449  12.913  1.00  0.00     0.017 C 
HETATM   11  C19 UNL     1       4.492  10.340  15.196  1.00  0.00     0.021 C 
HETATM   12  C20 UNL     1       4.251  10.783  16.664  1.00  0.00     0.024 C 
HETATM   13  C21 UNL     1       5.284  11.508  14.556  1.00  0.00     0.024 C 
HETATM   14  C22 UNL     1       5.466   9.147  15.215  1.00  0.00     0.135 C 
HETATM   15  O1  UNL     1       6.309   9.001  16.103  1.00  0.00    -0.297 OA
HETATM   16  C23 UNL     1       5.438   8.195  14.047  1.00  0.00     0.080 C 
HETATM   17  C24 UNL     1       4.056   7.616  13.768  1.00  0.00     0.018 C 
HETATM   18  C25 UNL     1       2.860   8.373  14.418  1.00  0.00    -0.028 C 
HETATM   19  C26 UNL     1       2.703   7.841  15.873  1.00  0.00     0.016 C 
HETATM   20  C27 UNL     1       1.537   8.033  13.587  1.00  0.00     0.024 C 
HETATM   21  C28 UNL     1       1.090   6.539  13.694  1.00  0.00     0.010 C 
HETATM   22  C29 UNL     1      -0.301   6.216  13.115  1.00  0.00     0.011 C 
HETATM   23  C30 UNL     1      -1.356   7.226  13.603  1.00  0.00    -0.029 C 
HETATM   24  C31 UNL     1      -1.477   7.096  15.150  1.00  0.00     0.016 C 
ENDROOT
BRANCH   1  25
HETATM   25  C7  UNL     1      -3.651   5.869  13.286  1.00  0.00    -0.014 C 
HETATM   26  C8  UNL     1      -3.868   5.866  14.812  1.00  0.00     0.010 C 
BRANCH  25  27
HETATM   27  C6  UNL     1      -3.110   4.490  12.832  1.00  0.00     0.008 C 
BRANCH  27  28
HETATM   28  C5  UNL     1      -4.023   3.733  11.850  1.00  0.00     0.028 C 
BRANCH  28  29
HETATM   29  C4  UNL     1      -5.437   3.566  12.331  1.00  0.00    -0.025 C 
HETATM   30  C2  UNL     1      -6.277   2.536  12.114  1.00  0.00    -0.091 C 
HETATM   31  C1  UNL     1      -5.965   1.308  11.305  1.00  0.00     0.042 C 
HETATM   32  C3  UNL     1      -7.669   2.553  12.693  1.00  0.00     0.042 C 
ENDBRANCH  28  29
ENDBRANCH  27  28
ENDBRANCH  25  27
ENDBRANCH   1  25
TORSDOF 4
ENDMDL
