MODEL 1
REMARK minimizedAffinity -9.49349689
REMARK CNNscore 0.545264184
REMARK CNNaffinity 6.92155838
REMARK  15 active torsions:
REMARK  status: ('A' for Active; 'I' for Inactive)
REMARK    1  A    between atoms: C19_20  and  O2_21 
REMARK    2  A    between atoms: C19_20  and  C20_22 
REMARK    3  A    between atoms: C20_22  and  C21_24 
REMARK    4  A    between atoms: C21_24  and  O4_25 
REMARK    5  A    between atoms: O4_25  and  C22_26 
REMARK    6  A    between atoms: C22_26  and  C23_28 
REMARK    7  A    between atoms: C23_28  and  C24_29 
REMARK    8  A    between atoms: C24_29  and  C25_30 
REMARK       I    between atoms: C25_30  and  N1_32 
REMARK    9  A    between atoms: N1_32  and  C26_33 
REMARK   10  A    between atoms: C26_33  and  C27_34 
REMARK       I    between atoms: C27_34  and  N2_36 
REMARK   11  A    between atoms: N2_36  and  C28_37 
REMARK   12  A    between atoms: C28_37  and  C29_38 
REMARK   13  A    between atoms: C28_37  and  C38_48 
REMARK   14  A    between atoms: C29_38  and  C30_39 
REMARK   15  A    between atoms: C38_48  and  O9_50 
ROOT
HETATM    1  C22 UNL     1      -3.058  51.032 -13.938  1.00  0.00     0.259 C 
HETATM    2  O5  UNL     1      -3.094  49.936 -13.392  1.00  0.00    -0.265 OA
ENDROOT
BRANCH   1   3
HETATM    3  O4  UNL     1      -2.842  51.234 -15.271  1.00  0.00    -0.314 OA
BRANCH   3   4
HETATM    4  C21 UNL     1      -2.788  50.042 -16.056  1.00  0.00     0.260 C 
BRANCH   4   5
HETATM    5  C20 UNL     1      -1.595  50.006 -17.015  1.00  0.00     0.185 C 
HETATM    6  O3  UNL     1      -0.476  50.385 -16.653  1.00  0.00    -0.292 OA
BRANCH   5   7
HETATM    7  C19 UNL     1      -1.869  49.475 -18.446  1.00  0.00     0.128 C 
HETATM    8  C14 UNL     1      -1.707  50.517 -19.606  1.00  0.00    -0.002 C 
HETATM    9  C13 UNL     1      -0.277  50.796 -20.109  1.00  0.00     0.013 C 
HETATM   10  C15 UNL     1      -2.361  51.879 -19.231  1.00  0.00     0.019 C 
HETATM   11  C16 UNL     1      -2.476  49.765 -20.732  1.00  0.00     0.002 C 
HETATM   12  C12 UNL     1      -0.270  51.570 -21.445  1.00  0.00     0.007 C 
HETATM   13  C11 UNL     1      -1.106  50.854 -22.533  1.00  0.00     0.002 C 
HETATM   14  C2  UNL     1      -1.110  51.537 -23.941  1.00  0.00    -0.016 C 
HETATM   15  C10 UNL     1      -2.562  50.573 -22.035  1.00  0.00    -0.004 C 
HETATM   16  C1  UNL     1      -1.916  52.859 -23.934  1.00  0.00     0.020 C 
HETATM   17  C3  UNL     1       0.335  51.830 -24.423  1.00  0.00     0.022 C 
HETATM   18  C7  UNL     1      -1.749  50.557 -24.929  1.00  0.00    -0.068 C 
HETATM   19  C4  UNL     1       0.408  52.304 -25.874  1.00  0.00     0.084 C 
HETATM   20  C5  UNL     1      -0.410  51.443 -26.808  1.00  0.00     0.149 C 
HETATM   21  O1  UNL     1      -0.257  51.481 -28.027  1.00  0.00    -0.293 OA
HETATM   22  C6  UNL     1      -1.433  50.537 -26.237  1.00  0.00     0.053 C 
HETATM   23  C8  UNL     1      -2.682  49.500 -24.377  1.00  0.00     0.035 C 
HETATM   24  C9  UNL     1      -3.442  49.923 -23.122  1.00  0.00     0.010 C 
HETATM   25  C17 UNL     1      -3.768  49.331 -20.042  1.00  0.00     0.009 C 
HETATM   26  C18 UNL     1      -3.355  49.044 -18.581  1.00  0.00     0.047 C 
BRANCH   7  27
HETATM   27  O2  UNL     1      -1.103  48.293 -18.708  1.00  0.00    -0.381 OA
HETATM   28  H27 UNL     1      -0.181  48.528 -18.893  1.00  0.00     0.211 HD
ENDBRANCH   7  27
ENDBRANCH   5   7
ENDBRANCH   4   5
ENDBRANCH   3   4
ENDBRANCH   1   3
BRANCH   1  29
HETATM   29  C23 UNL     1      -3.269  52.372 -13.269  1.00  0.00     0.120 C 
BRANCH  29  30
HETATM   30  C24 UNL     1      -3.645  52.249 -11.796  1.00  0.00     0.112 C 
BRANCH  30  31
HETATM   31  C25 UNL     1      -3.200  53.451 -10.986  1.00  0.00     0.218 C 
HETATM   32  O6  UNL     1      -3.965  54.143 -10.327  1.00  0.00    -0.274 OA
HETATM   33  N1  UNL     1      -1.845  53.692 -11.079  1.00  0.00    -0.352 N 
HETATM   34  H34 UNL     1      -1.262  53.107 -11.666  1.00  0.00     0.162 HD
BRANCH  33  35
HETATM   35  C26 UNL     1      -1.226  54.836 -10.415  1.00  0.00     0.225 C 
BRANCH  35  36
HETATM   36  C27 UNL     1       0.016  54.453  -9.595  1.00  0.00     0.236 C 
HETATM   37  O7  UNL     1       0.026  53.507  -8.814  1.00  0.00    -0.272 OA
HETATM   38  N2  UNL     1       1.137  55.200  -9.887  1.00  0.00    -0.345 N 
HETATM   39  H37 UNL     1       0.935  56.071 -10.371  1.00  0.00     0.163 HD
BRANCH  38  40
HETATM   40  C28 UNL     1       2.230  55.343  -8.909  1.00  0.00     0.186 C 
BRANCH  40  41
HETATM   41  C29 UNL     1       3.319  56.265  -9.459  1.00  0.00     0.077 C 
BRANCH  41  42
HETATM   42  C30 UNL     1       4.701  55.836  -9.076  1.00  0.00    -0.028 A 
HETATM   43  C31 UNL     1       5.542  55.012  -9.796  1.00  0.00     0.096 A 
HETATM   44  N3  UNL     1       6.713  54.878  -9.099  1.00  0.00    -0.365 N 
HETATM   45  C32 UNL     1       6.655  55.592  -7.926  1.00  0.00     0.042 A 
HETATM   46  H42 UNL     1       7.512  54.339  -9.404  1.00  0.00     0.165 HD
HETATM   47  C33 UNL     1       7.609  55.747  -6.913  1.00  0.00     0.030 A 
HETATM   48  C37 UNL     1       5.403  56.206  -7.884  1.00  0.00    -0.002 A 
HETATM   49  C34 UNL     1       7.272  56.559  -5.826  1.00  0.00     0.002 A 
HETATM   50  C35 UNL     1       6.032  57.191  -5.757  1.00  0.00     0.001 A 
HETATM   51  C36 UNL     1       5.089  57.022  -6.778  1.00  0.00     0.014 A 
ENDBRANCH  41  42
ENDBRANCH  40  41
BRANCH  40  52
HETATM   52  C38 UNL     1       1.605  55.956  -7.641  1.00  0.00     0.163 C 
HETATM   53  O8  UNL     1       1.087  57.053  -7.521  1.00  0.00    -0.648 OA
BRANCH  52  54
HETATM   54  O9  UNL     1       1.646  55.082  -6.599  1.00  0.00    -0.775 OA
HETATM   55  H47 UNL     1       1.425  55.588  -5.775  1.00  0.00     0.167 HD
ENDBRANCH  52  54
ENDBRANCH  40  52
ENDBRANCH  38  40
ENDBRANCH  35  36
ENDBRANCH  33  35
ENDBRANCH  30  31
ENDBRANCH  29  30
ENDBRANCH   1  29
TORSDOF 15
ENDMDL
MODEL 2
REMARK minimizedAffinity -9.93622112
REMARK CNNscore 0.49311775
REMARK CNNaffinity 7.44425821
REMARK  15 active torsions:
REMARK  status: ('A' for Active; 'I' for Inactive)
REMARK    1  A    between atoms: C19_20  and  O2_21 
REMARK    2  A    between atoms: C19_20  and  C20_22 
REMARK    3  A    between atoms: C20_22  and  C21_24 
REMARK    4  A    between atoms: C21_24  and  O4_25 
REMARK    5  A    between atoms: O4_25  and  C22_26 
REMARK    6  A    between atoms: C22_26  and  C23_28 
REMARK    7  A    between atoms: C23_28  and  C24_29 
REMARK    8  A    between atoms: C24_29  and  C25_30 
REMARK       I    between atoms: C25_30  and  N1_32 
REMARK    9  A    between atoms: N1_32  and  C26_33 
REMARK   10  A    between atoms: C26_33  and  C27_34 
REMARK       I    between atoms: C27_34  and  N2_36 
REMARK   11  A    between atoms: N2_36  and  C28_37 
REMARK   12  A    between atoms: C28_37  and  C29_38 
REMARK   13  A    between atoms: C28_37  and  C38_48 
REMARK   14  A    between atoms: C29_38  and  C30_39 
REMARK   15  A    between atoms: C38_48  and  O9_50 
ROOT
HETATM    1  C22 UNL     1       0.017  51.437 -17.632  1.00  0.00     0.259 C 
HETATM    2  O5  UNL     1       0.292  52.375 -18.371  1.00  0.00    -0.265 OA
ENDROOT
BRANCH   1   3
HETATM    3  O4  UNL     1      -1.091  50.649 -17.750  1.00  0.00    -0.314 OA
BRANCH   3   4
HETATM    4  C21 UNL     1      -0.823  49.281 -18.057  1.00  0.00     0.260 C 
BRANCH   4   5
HETATM    5  C20 UNL     1      -1.979  48.589 -18.784  1.00  0.00     0.185 C 
HETATM    6  O3  UNL     1      -2.986  48.218 -18.173  1.00  0.00    -0.292 OA
BRANCH   5   7
HETATM    7  C19 UNL     1      -1.813  48.380 -20.313  1.00  0.00     0.128 C 
HETATM    8  C14 UNL     1      -1.935  49.667 -21.198  1.00  0.00    -0.002 C 
HETATM    9  C13 UNL     1      -0.690  50.571 -21.304  1.00  0.00     0.013 C 
HETATM   10  C15 UNL     1      -3.134  50.549 -20.741  1.00  0.00     0.019 C 
HETATM   11  C16 UNL     1      -2.166  49.001 -22.585  1.00  0.00     0.002 C 
HETATM   12  C12 UNL     1      -0.818  51.607 -22.441  1.00  0.00     0.007 C 
HETATM   13  C11 UNL     1      -1.131  50.938 -23.801  1.00  0.00     0.002 C 
HETATM   14  C2  UNL     1      -1.222  51.908 -25.027  1.00  0.00    -0.016 C 
HETATM   15  C10 UNL     1      -2.397  50.025 -23.706  1.00  0.00    -0.004 C 
HETATM   16  C1  UNL     1      -2.491  52.792 -24.964  1.00  0.00     0.020 C 
HETATM   17  C3  UNL     1       0.028  52.824 -25.107  1.00  0.00     0.022 C 
HETATM   18  C7  UNL     1      -1.261  51.049 -26.294  1.00  0.00    -0.068 C 
HETATM   19  C4  UNL     1       0.098  53.646 -26.393  1.00  0.00     0.084 C 
HETATM   20  C5  UNL     1      -0.160  52.815 -27.628  1.00  0.00     0.149 C 
HETATM   21  O1  UNL     1       0.129  53.216 -28.753  1.00  0.00    -0.293 OA
HETATM   22  C6  UNL     1      -0.789  51.483 -27.477  1.00  0.00     0.053 C 
HETATM   23  C8  UNL     1      -1.746  49.621 -26.169  1.00  0.00     0.035 C 
HETATM   24  C9  UNL     1      -2.776  49.399 -25.063  1.00  0.00     0.010 C 
HETATM   25  C17 UNL     1      -3.249  47.961 -22.297  1.00  0.00     0.009 C 
HETATM   26  C18 UNL     1      -2.959  47.483 -20.857  1.00  0.00     0.047 C 
BRANCH   7  27
HETATM   27  O2  UNL     1      -0.602  47.671 -20.603  1.00  0.00    -0.381 OA
HETATM   28  H27 UNL     1       0.159  48.267 -20.528  1.00  0.00     0.211 HD
ENDBRANCH   7  27
ENDBRANCH   5   7
ENDBRANCH   4   5
ENDBRANCH   3   4
ENDBRANCH   1   3
BRANCH   1  29
HETATM   29  C23 UNL     1       0.848  50.942 -16.469  1.00  0.00     0.120 C 
BRANCH  29  30
HETATM   30  C24 UNL     1       1.693  52.039 -15.833  1.00  0.00     0.112 C 
BRANCH  30  31
HETATM   31  C25 UNL     1       2.452  51.548 -14.614  1.00  0.00     0.218 C 
HETATM   32  O6  UNL     1       3.477  50.881 -14.679  1.00  0.00    -0.274 OA
HETATM   33  N1  UNL     1       1.860  51.919 -13.426  1.00  0.00    -0.352 N 
HETATM   34  H34 UNL     1       0.992  52.444 -13.429  1.00  0.00     0.162 HD
BRANCH  33  35
HETATM   35  C26 UNL     1       2.406  51.501 -12.137  1.00  0.00     0.225 C 
BRANCH  35  36
HETATM   36  C27 UNL     1       2.692  52.681 -11.195  1.00  0.00     0.236 C 
HETATM   37  O7  UNL     1       3.772  52.830 -10.634  1.00  0.00    -0.272 OA
HETATM   38  N2  UNL     1       1.669  53.602 -11.118  1.00  0.00    -0.345 N 
HETATM   39  H37 UNL     1       0.773  53.248 -11.445  1.00  0.00     0.163 HD
BRANCH  38  40
HETATM   40  C28 UNL     1       1.529  54.483  -9.945  1.00  0.00     0.186 C 
BRANCH  40  41
HETATM   41  C29 UNL     1       2.322  55.774 -10.151  1.00  0.00     0.077 C 
BRANCH  41  42
HETATM   42  C30 UNL     1       3.166  56.139  -8.970  1.00  0.00    -0.028 A 
HETATM   43  C31 UNL     1       2.769  56.848  -7.855  1.00  0.00     0.096 A 
HETATM   44  N3  UNL     1       3.841  56.957  -7.010  1.00  0.00    -0.365 N 
HETATM   45  C32 UNL     1       4.942  56.340  -7.554  1.00  0.00     0.042 A 
HETATM   46  H42 UNL     1       3.828  57.416  -6.110  1.00  0.00     0.165 HD
HETATM   47  C33 UNL     1       6.242  56.200  -7.052  1.00  0.00     0.030 A 
HETATM   48  C37 UNL     1       4.549  55.815  -8.785  1.00  0.00    -0.002 A 
HETATM   49  C34 UNL     1       7.165  55.497  -7.833  1.00  0.00     0.002 A 
HETATM   50  C35 UNL     1       6.801  54.956  -9.064  1.00  0.00     0.001 A 
HETATM   51  C36 UNL     1       5.498  55.109  -9.552  1.00  0.00     0.014 A 
ENDBRANCH  41  42
ENDBRANCH  40  41
BRANCH  40  52
HETATM   52  C38 UNL     1       0.027  54.799  -9.811  1.00  0.00     0.163 C 
HETATM   53  O8  UNL     1      -0.633  54.861  -8.789  1.00  0.00    -0.648 OA
BRANCH  52  54
HETATM   54  O9  UNL     1      -0.531  55.064 -11.024  1.00  0.00    -0.775 OA
HETATM   55  H47 UNL     1      -1.516  55.058 -10.908  1.00  0.00     0.167 HD
ENDBRANCH  52  54
ENDBRANCH  40  52
ENDBRANCH  38  40
ENDBRANCH  35  36
ENDBRANCH  33  35
ENDBRANCH  30  31
ENDBRANCH  29  30
ENDBRANCH   1  29
TORSDOF 15
ENDMDL
MODEL 3
REMARK minimizedAffinity -8.86902905
REMARK CNNscore 0.383301854
REMARK CNNaffinity 6.60089731
REMARK  15 active torsions:
REMARK  status: ('A' for Active; 'I' for Inactive)
REMARK    1  A    between atoms: C19_20  and  O2_21 
REMARK    2  A    between atoms: C19_20  and  C20_22 
REMARK    3  A    between atoms: C20_22  and  C21_24 
REMARK    4  A    between atoms: C21_24  and  O4_25 
REMARK    5  A    between atoms: O4_25  and  C22_26 
REMARK    6  A    between atoms: C22_26  and  C23_28 
REMARK    7  A    between atoms: C23_28  and  C24_29 
REMARK    8  A    between atoms: C24_29  and  C25_30 
REMARK       I    between atoms: C25_30  and  N1_32 
REMARK    9  A    between atoms: N1_32  and  C26_33 
REMARK   10  A    between atoms: C26_33  and  C27_34 
REMARK       I    between atoms: C27_34  and  N2_36 
REMARK   11  A    between atoms: N2_36  and  C28_37 
REMARK   12  A    between atoms: C28_37  and  C29_38 
REMARK   13  A    between atoms: C28_37  and  C38_48 
REMARK   14  A    between atoms: C29_38  and  C30_39 
REMARK   15  A    between atoms: C38_48  and  O9_50 
ROOT
HETATM    1  C22 UNL     1       0.004  48.713 -13.889  1.00  0.00     0.259 C 
HETATM    2  O5  UNL     1      -0.742  47.824 -13.497  1.00  0.00    -0.265 OA
ENDROOT
BRANCH   1   3
HETATM    3  O4  UNL     1       0.304  49.846 -13.189  1.00  0.00    -0.314 OA
BRANCH   3   4
HETATM    4  C21 UNL     1      -0.826  50.637 -12.818  1.00  0.00     0.260 C 
BRANCH   4   5
HETATM    5  C20 UNL     1      -0.499  52.126 -12.676  1.00  0.00     0.185 C 
HETATM    6  O3  UNL     1       0.032  52.752 -13.600  1.00  0.00    -0.292 OA
BRANCH   5   7
HETATM    7  C19 UNL     1      -0.866  52.793 -11.325  1.00  0.00     0.128 C 
HETATM    8  C14 UNL     1       0.338  53.316 -10.469  1.00  0.00    -0.002 C 
HETATM    9  C13 UNL     1       0.933  54.686 -10.851  1.00  0.00     0.013 C 
HETATM   10  C15 UNL     1       1.498  52.278 -10.442  1.00  0.00     0.019 C 
HETATM   11  C16 UNL     1      -0.374  53.466  -9.093  1.00  0.00     0.002 C 
HETATM   12  C12 UNL     1       1.874  55.238  -9.758  1.00  0.00     0.007 C 
HETATM   13  C11 UNL     1       1.179  55.305  -8.377  1.00  0.00     0.002 C 
HETATM   14  C2  UNL     1       2.040  55.906  -7.215  1.00  0.00    -0.016 C 
HETATM   15  C10 UNL     1       0.579  53.916  -7.976  1.00  0.00    -0.004 C 
HETATM   16  C1  UNL     1       3.184  54.952  -6.797  1.00  0.00     0.020 C 
HETATM   17  C3  UNL     1       2.647  57.275  -7.624  1.00  0.00     0.022 C 
HETATM   18  C7  UNL     1       1.109  56.139  -6.023  1.00  0.00    -0.068 C 
HETATM   19  C4  UNL     1       3.323  58.009  -6.466  1.00  0.00     0.084 C 
HETATM   20  C5  UNL     1       2.470  58.040  -5.221  1.00  0.00     0.149 C 
HETATM   21  O1  UNL     1       2.703  58.812  -4.293  1.00  0.00    -0.293 OA
HETATM   22  C6  UNL     1       1.327  57.105  -5.111  1.00  0.00     0.053 C 
HETATM   23  C8  UNL     1      -0.162  55.321  -5.944  1.00  0.00     0.035 C 
HETATM   24  C9  UNL     1      -0.058  53.933  -6.573  1.00  0.00     0.010 C 
HETATM   25  C17 UNL     1      -1.121  52.142  -8.941  1.00  0.00     0.009 C 
HETATM   26  C18 UNL     1      -1.530  51.755 -10.379  1.00  0.00     0.047 C 
BRANCH   7  27
HETATM   27  O2  UNL     1      -1.846  53.821 -11.512  1.00  0.00    -0.381 OA
HETATM   28  H27 UNL     1      -1.429  54.617 -11.875  1.00  0.00     0.211 HD
ENDBRANCH   7  27
ENDBRANCH   5   7
ENDBRANCH   4   5
ENDBRANCH   3   4
ENDBRANCH   1   3
BRANCH   1  29
HETATM   29  C23 UNL     1       0.764  48.732 -15.198  1.00  0.00     0.120 C 
BRANCH  29  30
HETATM   30  C24 UNL     1       0.032  49.490 -16.299  1.00  0.00     0.112 C 
BRANCH  30  31
HETATM   31  C25 UNL     1       0.718  50.794 -16.655  1.00  0.00     0.218 C 
HETATM   32  O6  UNL     1       1.655  51.261 -16.019  1.00  0.00    -0.274 OA
HETATM   33  N1  UNL     1       0.170  51.408 -17.761  1.00  0.00    -0.352 N 
HETATM   34  H34 UNL     1      -0.627  50.994 -18.231  1.00  0.00     0.162 HD
BRANCH  33  35
HETATM   35  C26 UNL     1       0.654  52.701 -18.236  1.00  0.00     0.225 C 
BRANCH  35  36
HETATM   36  C27 UNL     1       0.413  52.916 -19.739  1.00  0.00     0.236 C 
HETATM   37  O7  UNL     1       0.335  54.032 -20.242  1.00  0.00    -0.272 OA
HETATM   38  N2  UNL     1       0.393  51.754 -20.479  1.00  0.00    -0.345 N 
HETATM   39  H37 UNL     1       0.245  50.915 -19.922  1.00  0.00     0.163 HD
BRANCH  38  40
HETATM   40  C28 UNL     1      -0.303  51.692 -21.777  1.00  0.00     0.186 C 
BRANCH  40  41
HETATM   41  C29 UNL     1       0.685  51.916 -22.922  1.00  0.00     0.077 C 
BRANCH  41  42
HETATM   42  C30 UNL     1       0.027  52.373 -24.186  1.00  0.00    -0.028 A 
HETATM   43  C31 UNL     1      -1.173  53.046 -24.298  1.00  0.00     0.096 A 
HETATM   44  N3  UNL     1      -1.410  53.283 -25.626  1.00  0.00    -0.365 N 
HETATM   45  C32 UNL     1      -0.391  52.769 -26.392  1.00  0.00     0.042 A 
HETATM   46  H42 UNL     1      -2.213  53.774 -25.995  1.00  0.00     0.165 HD
HETATM   47  C33 UNL     1      -0.209  52.778 -27.781  1.00  0.00     0.030 A 
HETATM   48  C37 UNL     1       0.527  52.192 -25.515  1.00  0.00    -0.002 A 
HETATM   49  C34 UNL     1       0.950  52.182 -28.285  1.00  0.00     0.002 A 
HETATM   50  C35 UNL     1       1.889  51.602 -27.435  1.00  0.00     0.001 A 
HETATM   51  C36 UNL     1       1.690  51.600 -26.049  1.00  0.00     0.014 A 
ENDBRANCH  41  42
ENDBRANCH  40  41
BRANCH  40  52
HETATM   52  C38 UNL     1      -0.922  50.284 -21.876  1.00  0.00     0.163 C 
HETATM   53  O8  UNL     1      -0.672  49.311 -21.188  1.00  0.00    -0.648 OA
BRANCH  52  54
HETATM   54  O9  UNL     1      -1.875  50.233 -22.845  1.00  0.00    -0.775 OA
HETATM   55  H47 UNL     1      -2.090  49.277 -23.003  1.00  0.00     0.167 HD
ENDBRANCH  52  54
ENDBRANCH  40  52
ENDBRANCH  38  40
ENDBRANCH  35  36
ENDBRANCH  33  35
ENDBRANCH  30  31
ENDBRANCH  29  30
ENDBRANCH   1  29
TORSDOF 15
ENDMDL
MODEL 4
REMARK minimizedAffinity -9.09976673
REMARK CNNscore 0.367543012
REMARK CNNaffinity 6.69687891
REMARK  15 active torsions:
REMARK  status: ('A' for Active; 'I' for Inactive)
REMARK    1  A    between atoms: C19_20  and  O2_21 
REMARK    2  A    between atoms: C19_20  and  C20_22 
REMARK    3  A    between atoms: C20_22  and  C21_24 
REMARK    4  A    between atoms: C21_24  and  O4_25 
REMARK    5  A    between atoms: O4_25  and  C22_26 
REMARK    6  A    between atoms: C22_26  and  C23_28 
REMARK    7  A    between atoms: C23_28  and  C24_29 
REMARK    8  A    between atoms: C24_29  and  C25_30 
REMARK       I    between atoms: C25_30  and  N1_32 
REMARK    9  A    between atoms: N1_32  and  C26_33 
REMARK   10  A    between atoms: C26_33  and  C27_34 
REMARK       I    between atoms: C27_34  and  N2_36 
REMARK   11  A    between atoms: N2_36  and  C28_37 
REMARK   12  A    between atoms: C28_37  and  C29_38 
REMARK   13  A    between atoms: C28_37  and  C38_48 
REMARK   14  A    between atoms: C29_38  and  C30_39 
REMARK   15  A    between atoms: C38_48  and  O9_50 
ROOT
HETATM    1  C22 UNL     1      -1.651  50.233 -14.848  1.00  0.00     0.259 C 
HETATM    2  O5  UNL     1      -0.465  50.439 -15.079  1.00  0.00    -0.265 OA
ENDROOT
BRANCH   1   3
HETATM    3  O4  UNL     1      -2.504  49.567 -15.681  1.00  0.00    -0.314 OA
BRANCH   3   4
HETATM    4  C21 UNL     1      -1.966  49.259 -16.967  1.00  0.00     0.260 C 
BRANCH   4   5
HETATM    5  C20 UNL     1      -2.775  49.860 -18.119  1.00  0.00     0.185 C 
HETATM    6  O3  UNL     1      -3.937  49.500 -18.337  1.00  0.00    -0.292 OA
BRANCH   5   7
HETATM    7  C19 UNL     1      -2.062  50.930 -18.987  1.00  0.00     0.128 C 
HETATM    8  C14 UNL     1      -1.933  50.600 -20.513  1.00  0.00    -0.002 C 
HETATM    9  C13 UNL     1      -3.165  50.871 -21.400  1.00  0.00     0.013 C 
HETATM   10  C15 UNL     1      -1.498  49.121 -20.732  1.00  0.00     0.019 C 
HETATM   11  C16 UNL     1      -0.826  51.622 -20.902  1.00  0.00     0.002 C 
HETATM   12  C12 UNL     1      -2.822  50.824 -22.904  1.00  0.00     0.007 C 
HETATM   13  C11 UNL     1      -1.663  51.785 -23.263  1.00  0.00     0.002 C 
HETATM   14  C2  UNL     1      -1.282  51.847 -24.781  1.00  0.00    -0.016 C 
HETATM   15  C10 UNL     1      -0.405  51.512 -22.375  1.00  0.00    -0.004 C 
HETATM   16  C1  UNL     1      -0.591  50.545 -25.252  1.00  0.00     0.020 C 
HETATM   17  C3  UNL     1      -2.536  52.100 -25.660  1.00  0.00     0.022 C 
HETATM   18  C7  UNL     1      -0.327  53.029 -24.969  1.00  0.00    -0.068 C 
HETATM   19  C4  UNL     1      -2.204  52.378 -27.126  1.00  0.00     0.084 C 
HETATM   20  C5  UNL     1      -1.100  53.396 -27.288  1.00  0.00     0.149 C 
HETATM   21  O1  UNL     1      -0.888  53.959 -28.360  1.00  0.00    -0.293 OA
HETATM   22  C6  UNL     1      -0.241  53.714 -26.124  1.00  0.00     0.053 C 
HETATM   23  C8  UNL     1       0.461  53.503 -23.767  1.00  0.00     0.035 C 
HETATM   24  C9  UNL     1       0.791  52.407 -22.757  1.00  0.00     0.010 C 
HETATM   25  C17 UNL     1       0.228  51.425 -19.813  1.00  0.00     0.009 C 
HETATM   26  C18 UNL     1      -0.580  51.075 -18.544  1.00  0.00     0.047 C 
BRANCH   7  27
HETATM   27  O2  UNL     1      -2.648  52.222 -18.789  1.00  0.00    -0.381 OA
HETATM   28  H27 UNL     1      -3.486  52.284 -19.272  1.00  0.00     0.211 HD
ENDBRANCH   7  27
ENDBRANCH   5   7
ENDBRANCH   4   5
ENDBRANCH   3   4
ENDBRANCH   1   3
BRANCH   1  29
HETATM   29  C23 UNL     1      -2.404  50.639 -13.600  1.00  0.00     0.120 C 
BRANCH  29  30
HETATM   30  C24 UNL     1      -3.172  51.945 -13.768  1.00  0.00     0.112 C 
BRANCH  30  31
HETATM   31  C25 UNL     1      -3.370  52.670 -12.451  1.00  0.00     0.218 C 
HETATM   32  O6  UNL     1      -4.468  52.871 -11.948  1.00  0.00    -0.274 OA
HETATM   33  N1  UNL     1      -2.185  53.092 -11.885  1.00  0.00    -0.352 N 
HETATM   34  H34 UNL     1      -1.306  52.928 -12.361  1.00  0.00     0.162 HD
BRANCH  33  35
HETATM   35  C26 UNL     1      -2.163  53.856 -10.641  1.00  0.00     0.225 C 
BRANCH  35  36
HETATM   36  C27 UNL     1      -0.787  53.844  -9.954  1.00  0.00     0.236 C 
HETATM   37  O7  UNL     1      -0.029  52.882 -10.012  1.00  0.00    -0.272 OA
HETATM   38  N2  UNL     1      -0.445  55.038  -9.358  1.00  0.00    -0.345 N 
HETATM   39  H37 UNL     1      -1.236  55.656  -9.193  1.00  0.00     0.163 HD
BRANCH  38  40
HETATM   40  C28 UNL     1       0.539  55.084  -8.261  1.00  0.00     0.186 C 
BRANCH  40  41
HETATM   41  C29 UNL     1       1.769  55.887  -8.682  1.00  0.00     0.077 C 
BRANCH  41  42
HETATM   42  C30 UNL     1       2.966  55.622  -7.823  1.00  0.00    -0.028 A 
HETATM   43  C31 UNL     1       2.999  55.557  -6.445  1.00  0.00     0.096 A 
HETATM   44  N3  UNL     1       4.284  55.287  -6.058  1.00  0.00    -0.365 N 
HETATM   45  C32 UNL     1       5.102  55.182  -7.157  1.00  0.00     0.042 A 
HETATM   46  H42 UNL     1       4.592  55.170  -5.102  1.00  0.00     0.165 HD
HETATM   47  C33 UNL     1       6.474  54.916  -7.243  1.00  0.00     0.030 A 
HETATM   48  C37 UNL     1       4.302  55.387  -8.281  1.00  0.00    -0.002 A 
HETATM   49  C34 UNL     1       7.043  54.854  -8.519  1.00  0.00     0.002 A 
HETATM   50  C35 UNL     1       6.269  55.047  -9.661  1.00  0.00     0.001 A 
HETATM   51  C36 UNL     1       4.899  55.315  -9.556  1.00  0.00     0.014 A 
ENDBRANCH  41  42
ENDBRANCH  40  41
BRANCH  40  52
HETATM   52  C38 UNL     1      -0.162  55.769  -7.072  1.00  0.00     0.163 C 
HETATM   53  O8  UNL     1      -0.563  55.251  -6.044  1.00  0.00    -0.648 OA
BRANCH  52  54
HETATM   54  O9  UNL     1      -0.261  57.112  -7.266  1.00  0.00    -0.775 OA
HETATM   55  H47 UNL     1      -0.888  57.468  -6.584  1.00  0.00     0.167 HD
ENDBRANCH  52  54
ENDBRANCH  40  52
ENDBRANCH  38  40
ENDBRANCH  35  36
ENDBRANCH  33  35
ENDBRANCH  30  31
ENDBRANCH  29  30
ENDBRANCH   1  29
TORSDOF 15
ENDMDL
MODEL 5
REMARK minimizedAffinity -8.96004391
REMARK CNNscore 0.343588978
REMARK CNNaffinity 6.22029114
REMARK  15 active torsions:
REMARK  status: ('A' for Active; 'I' for Inactive)
REMARK    1  A    between atoms: C19_20  and  O2_21 
REMARK    2  A    between atoms: C19_20  and  C20_22 
REMARK    3  A    between atoms: C20_22  and  C21_24 
REMARK    4  A    between atoms: C21_24  and  O4_25 
REMARK    5  A    between atoms: O4_25  and  C22_26 
REMARK    6  A    between atoms: C22_26  and  C23_28 
REMARK    7  A    between atoms: C23_28  and  C24_29 
REMARK    8  A    between atoms: C24_29  and  C25_30 
REMARK       I    between atoms: C25_30  and  N1_32 
REMARK    9  A    between atoms: N1_32  and  C26_33 
REMARK   10  A    between atoms: C26_33  and  C27_34 
REMARK       I    between atoms: C27_34  and  N2_36 
REMARK   11  A    between atoms: N2_36  and  C28_37 
REMARK   12  A    between atoms: C28_37  and  C29_38 
REMARK   13  A    between atoms: C28_37  and  C38_48 
REMARK   14  A    between atoms: C29_38  and  C30_39 
REMARK   15  A    between atoms: C38_48  and  O9_50 
ROOT
HETATM    1  C22 UNL     1      -9.545  47.874 -18.894  1.00  0.00     0.259 C 
HETATM    2  O5  UNL     1      -9.223  48.040 -17.724  1.00  0.00    -0.265 OA
ENDROOT
BRANCH   1   3
HETATM    3  O4  UNL     1      -8.826  47.159 -19.808  1.00  0.00    -0.314 OA
BRANCH   3   4
HETATM    4  C21 UNL     1      -8.121  47.948 -20.766  1.00  0.00     0.260 C 
BRANCH   4   5
HETATM    5  C20 UNL     1      -6.610  47.985 -20.523  1.00  0.00     0.185 C 
HETATM    6  O3  UNL     1      -6.151  48.114 -19.383  1.00  0.00    -0.292 OA
BRANCH   5   7
HETATM    7  C19 UNL     1      -5.700  47.856 -21.773  1.00  0.00     0.128 C 
HETATM    8  C14 UNL     1      -4.959  49.162 -22.219  1.00  0.00    -0.002 C 
HETATM    9  C13 UNL     1      -3.668  49.535 -21.463  1.00  0.00     0.013 C 
HETATM   10  C15 UNL     1      -5.914  50.391 -22.176  1.00  0.00     0.019 C 
HETATM   11  C16 UNL     1      -4.566  48.750 -23.668  1.00  0.00     0.002 C 
HETATM   12  C12 UNL     1      -2.863  50.633 -22.190  1.00  0.00     0.007 C 
HETATM   13  C11 UNL     1      -2.550  50.246 -23.656  1.00  0.00     0.002 C 
HETATM   14  C2  UNL     1      -1.685  51.276 -24.457  1.00  0.00    -0.016 C 
HETATM   15  C10 UNL     1      -3.855  49.874 -24.434  1.00  0.00    -0.004 C 
HETATM   16  C1  UNL     1      -2.480  52.565 -24.776  1.00  0.00     0.020 C 
HETATM   17  C3  UNL     1      -0.401  51.655 -23.673  1.00  0.00     0.022 C 
HETATM   18  C7  UNL     1      -1.259  50.603 -25.765  1.00  0.00    -0.068 C 
HETATM   19  C4  UNL     1       0.583  52.493 -24.488  1.00  0.00     0.084 C 
HETATM   20  C5  UNL     1       0.826  51.926 -25.866  1.00  0.00     0.149 C 
HETATM   21  O1  UNL     1       1.781  52.280 -26.556  1.00  0.00    -0.293 OA
HETATM   22  C6  UNL     1      -0.120  50.922 -26.406  1.00  0.00     0.053 C 
HETATM   23  C8  UNL     1      -2.104  49.458 -26.282  1.00  0.00     0.035 C 
HETATM   24  C9  UNL     1      -3.584  49.552 -25.918  1.00  0.00     0.010 C 
HETATM   25  C17 UNL     1      -5.866  48.176 -24.231  1.00  0.00     0.009 C 
HETATM   26  C18 UNL     1      -6.555  47.506 -23.022  1.00  0.00     0.047 C 
BRANCH   7  27
HETATM   27  O2  UNL     1      -4.779  46.769 -21.624  1.00  0.00    -0.381 OA
HETATM   28  H27 UNL     1      -4.054  47.025 -21.033  1.00  0.00     0.211 HD
ENDBRANCH   7  27
ENDBRANCH   5   7
ENDBRANCH   4   5
ENDBRANCH   3   4
ENDBRANCH   1   3
BRANCH   1  29
HETATM   29  C23 UNL     1     -10.801  48.392 -19.559  1.00  0.00     0.120 C 
BRANCH  29  30
HETATM   30  C24 UNL     1     -11.993  47.457 -19.389  1.00  0.00     0.112 C 
BRANCH  30  31
HETATM   31  C25 UNL     1     -13.262  48.025 -19.995  1.00  0.00     0.218 C 
HETATM   32  O6  UNL     1     -13.535  49.219 -19.997  1.00  0.00    -0.274 OA
HETATM   33  N1  UNL     1     -14.082  47.057 -20.533  1.00  0.00    -0.352 N 
HETATM   34  H34 UNL     1     -13.823  46.078 -20.475  1.00  0.00     0.162 HD
BRANCH  33  35
HETATM   35  C26 UNL     1     -15.378  47.392 -21.118  1.00  0.00     0.225 C 
BRANCH  35  36
HETATM   36  C27 UNL     1     -15.474  47.031 -22.609  1.00  0.00     0.236 C 
HETATM   37  O7  UNL     1     -14.674  47.445 -23.442  1.00  0.00    -0.272 OA
HETATM   38  N2  UNL     1     -16.472  46.128 -22.907  1.00  0.00    -0.345 N 
HETATM   39  H37 UNL     1     -17.182  46.047 -22.183  1.00  0.00     0.163 HD
BRANCH  38  40
HETATM   40  C28 UNL     1     -17.044  46.050 -24.263  1.00  0.00     0.186 C 
BRANCH  40  41
HETATM   41  C29 UNL     1     -17.128  44.594 -24.723  1.00  0.00     0.077 C 
BRANCH  41  42
HETATM   42  C30 UNL     1     -16.974  44.436 -26.203  1.00  0.00    -0.028 A 
HETATM   43  C31 UNL     1     -15.843  44.696 -26.952  1.00  0.00     0.096 A 
HETATM   44  N3  UNL     1     -16.121  44.413 -28.262  1.00  0.00    -0.365 N 
HETATM   45  C32 UNL     1     -17.419  43.980 -28.393  1.00  0.00     0.042 A 
HETATM   46  H42 UNL     1     -15.466  44.499 -29.027  1.00  0.00     0.165 HD
HETATM   47  C33 UNL     1     -18.131  43.582 -29.531  1.00  0.00     0.030 A 
HETATM   48  C37 UNL     1     -17.980  43.982 -27.116  1.00  0.00    -0.002 A 
HETATM   49  C34 UNL     1     -19.455  43.170 -29.356  1.00  0.00     0.002 A 
HETATM   50  C35 UNL     1     -20.042  43.155 -28.092  1.00  0.00     0.001 A 
HETATM   51  C36 UNL     1     -19.316  43.559 -26.965  1.00  0.00     0.014 A 
ENDBRANCH  41  42
ENDBRANCH  40  41
BRANCH  40  52
HETATM   52  C38 UNL     1     -18.456  46.662 -24.179  1.00  0.00     0.163 C 
HETATM   53  O8  UNL     1     -18.949  47.500 -24.914  1.00  0.00    -0.648 OA
BRANCH  52  54
HETATM   54  O9  UNL     1     -19.172  46.111 -23.162  1.00  0.00    -0.775 OA
HETATM   55  H47 UNL     1     -19.978  46.673 -23.025  1.00  0.00     0.167 HD
ENDBRANCH  52  54
ENDBRANCH  40  52
ENDBRANCH  38  40
ENDBRANCH  35  36
ENDBRANCH  33  35
ENDBRANCH  30  31
ENDBRANCH  29  30
ENDBRANCH   1  29
TORSDOF 15
ENDMDL
MODEL 6
REMARK minimizedAffinity -9.3156929
REMARK CNNscore 0.301988691
REMARK CNNaffinity 7.67571831
REMARK  15 active torsions:
REMARK  status: ('A' for Active; 'I' for Inactive)
REMARK    1  A    between atoms: C19_20  and  O2_21 
REMARK    2  A    between atoms: C19_20  and  C20_22 
REMARK    3  A    between atoms: C20_22  and  C21_24 
REMARK    4  A    between atoms: C21_24  and  O4_25 
REMARK    5  A    between atoms: O4_25  and  C22_26 
REMARK    6  A    between atoms: C22_26  and  C23_28 
REMARK    7  A    between atoms: C23_28  and  C24_29 
REMARK    8  A    between atoms: C24_29  and  C25_30 
REMARK       I    between atoms: C25_30  and  N1_32 
REMARK    9  A    between atoms: N1_32  and  C26_33 
REMARK   10  A    between atoms: C26_33  and  C27_34 
REMARK       I    between atoms: C27_34  and  N2_36 
REMARK   11  A    between atoms: N2_36  and  C28_37 
REMARK   12  A    between atoms: C28_37  and  C29_38 
REMARK   13  A    between atoms: C28_37  and  C38_48 
REMARK   14  A    between atoms: C29_38  and  C30_39 
REMARK   15  A    between atoms: C38_48  and  O9_50 
ROOT
HETATM    1  C22 UNL     1      -1.458  49.622 -15.669  1.00  0.00     0.259 C 
HETATM    2  O5  UNL     1      -2.210  48.658 -15.581  1.00  0.00    -0.265 OA
ENDROOT
BRANCH   1   3
HETATM    3  O4  UNL     1      -1.481  50.708 -14.842  1.00  0.00    -0.314 OA
BRANCH   3   4
HETATM    4  C21 UNL     1      -2.786  51.149 -14.469  1.00  0.00     0.260 C 
BRANCH   4   5
HETATM    5  C20 UNL     1      -3.130  50.849 -13.007  1.00  0.00     0.185 C 
HETATM    6  O3  UNL     1      -3.559  49.741 -12.668  1.00  0.00    -0.292 OA
BRANCH   5   7
HETATM    7  C19 UNL     1      -2.912  52.001 -11.991  1.00  0.00     0.128 C 
HETATM    8  C14 UNL     1      -1.449  52.180 -11.460  1.00  0.00    -0.002 C 
HETATM    9  C13 UNL     1      -0.459  52.945 -12.362  1.00  0.00     0.013 C 
HETATM   10  C15 UNL     1      -0.811  50.805 -11.103  1.00  0.00     0.019 C 
HETATM   11  C16 UNL     1      -1.738  53.058 -10.208  1.00  0.00     0.002 C 
HETATM   12  C12 UNL     1       0.829  53.340 -11.609  1.00  0.00     0.007 C 
HETATM   13  C11 UNL     1       0.524  54.142 -10.321  1.00  0.00     0.002 C 
HETATM   14  C2  UNL     1       1.775  54.636  -9.520  1.00  0.00    -0.016 C 
HETATM   15  C10 UNL     1      -0.473  53.370  -9.395  1.00  0.00    -0.004 C 
HETATM   16  C1  UNL     1       2.514  53.463  -8.833  1.00  0.00     0.020 C 
HETATM   17  C3  UNL     1       2.769  55.386 -10.446  1.00  0.00     0.022 C 
HETATM   18  C7  UNL     1       1.284  55.623  -8.457  1.00  0.00    -0.068 C 
HETATM   19  C4  UNL     1       3.906  56.071  -9.689  1.00  0.00     0.084 C 
HETATM   20  C5  UNL     1       3.416  56.871  -8.505  1.00  0.00     0.149 C 
HETATM   21  O1  UNL     1       4.123  57.711  -7.952  1.00  0.00    -0.293 OA
HETATM   22  C6  UNL     1       2.049  56.626  -7.991  1.00  0.00     0.053 C 
HETATM   23  C8  UNL     1      -0.159  55.522  -8.009  1.00  0.00     0.035 C 
HETATM   24  C9  UNL     1      -0.742  54.112  -8.071  1.00  0.00     0.010 C 
HETATM   25  C17 UNL     1      -2.894  52.326  -9.528  1.00  0.00     0.009 C 
HETATM   26  C18 UNL     1      -3.715  51.724 -10.690  1.00  0.00     0.047 C 
BRANCH   7  27
HETATM   27  O2  UNL     1      -3.427  53.237 -12.501  1.00  0.00    -0.381 OA
HETATM   28  H27 UNL     1      -2.817  53.604 -13.159  1.00  0.00     0.211 HD
ENDBRANCH   7  27
ENDBRANCH   5   7
ENDBRANCH   4   5
ENDBRANCH   3   4
ENDBRANCH   1   3
BRANCH   1  29
HETATM   29  C23 UNL     1      -0.344  49.798 -16.677  1.00  0.00     0.120 C 
BRANCH  29  30
HETATM   30  C24 UNL     1      -0.580  50.967 -17.626  1.00  0.00     0.112 C 
BRANCH  30  31
HETATM   31  C25 UNL     1      -1.944  50.905 -18.287  1.00  0.00     0.218 C 
HETATM   32  O6  UNL     1      -2.706  51.861 -18.358  1.00  0.00    -0.274 OA
HETATM   33  N1  UNL     1      -2.243  49.656 -18.790  1.00  0.00    -0.352 N 
HETATM   34  H34 UNL     1      -1.589  48.890 -18.674  1.00  0.00     0.162 HD
BRANCH  33  35
HETATM   35  C26 UNL     1      -3.530  49.373 -19.418  1.00  0.00     0.225 C 
BRANCH  35  36
HETATM   36  C27 UNL     1      -3.536  49.659 -20.928  1.00  0.00     0.236 C 
HETATM   37  O7  UNL     1      -3.324  48.789 -21.766  1.00  0.00    -0.272 OA
HETATM   38  N2  UNL     1      -3.896  50.949 -21.256  1.00  0.00    -0.345 N 
HETATM   39  H37 UNL     1      -3.824  51.604 -20.482  1.00  0.00     0.163 HD
BRANCH  38  40
HETATM   40  C28 UNL     1      -3.484  51.549 -22.538  1.00  0.00     0.186 C 
BRANCH  40  41
HETATM   41  C29 UNL     1      -2.211  50.879 -23.055  1.00  0.00     0.077 C 
BRANCH  41  42
HETATM   42  C30 UNL     1      -1.109  51.851 -23.337  1.00  0.00    -0.028 A 
HETATM   43  C31 UNL     1      -0.673  52.274 -24.577  1.00  0.00     0.096 A 
HETATM   44  N3  UNL     1       0.346  53.169 -24.392  1.00  0.00    -0.365 N 
HETATM   45  C32 UNL     1       0.597  53.337 -23.051  1.00  0.00     0.042 A 
HETATM   46  H42 UNL     1       0.841  53.648 -25.132  1.00  0.00     0.165 HD
HETATM   47  C33 UNL     1       1.538  54.145 -22.400  1.00  0.00     0.030 A 
HETATM   48  C37 UNL     1      -0.302  52.522 -22.363  1.00  0.00    -0.002 A 
HETATM   49  C34 UNL     1       1.553  54.122 -21.002  1.00  0.00     0.002 A 
HETATM   50  C35 UNL     1       0.664  53.324 -20.286  1.00  0.00     0.001 A 
HETATM   51  C36 UNL     1      -0.267  52.520 -20.953  1.00  0.00     0.014 A 
ENDBRANCH  41  42
ENDBRANCH  40  41
BRANCH  40  52
HETATM   52  C38 UNL     1      -4.645  51.316 -23.524  1.00  0.00     0.163 C 
HETATM   53  O8  UNL     1      -4.776  50.401 -24.318  1.00  0.00    -0.648 OA
BRANCH  52  54
HETATM   54  O9  UNL     1      -5.606  52.270 -23.388  1.00  0.00    -0.775 OA
HETATM   55  H47 UNL     1      -6.216  52.194 -24.166  1.00  0.00     0.167 HD
ENDBRANCH  52  54
ENDBRANCH  40  52
ENDBRANCH  38  40
ENDBRANCH  35  36
ENDBRANCH  33  35
ENDBRANCH  30  31
ENDBRANCH  29  30
ENDBRANCH   1  29
TORSDOF 15
ENDMDL
MODEL 7
REMARK minimizedAffinity -9.1133728
REMARK CNNscore 0.287294716
REMARK CNNaffinity 6.79156876
REMARK  15 active torsions:
REMARK  status: ('A' for Active; 'I' for Inactive)
REMARK    1  A    between atoms: C19_20  and  O2_21 
REMARK    2  A    between atoms: C19_20  and  C20_22 
REMARK    3  A    between atoms: C20_22  and  C21_24 
REMARK    4  A    between atoms: C21_24  and  O4_25 
REMARK    5  A    between atoms: O4_25  and  C22_26 
REMARK    6  A    between atoms: C22_26  and  C23_28 
REMARK    7  A    between atoms: C23_28  and  C24_29 
REMARK    8  A    between atoms: C24_29  and  C25_30 
REMARK       I    between atoms: C25_30  and  N1_32 
REMARK    9  A    between atoms: N1_32  and  C26_33 
REMARK   10  A    between atoms: C26_33  and  C27_34 
REMARK       I    between atoms: C27_34  and  N2_36 
REMARK   11  A    between atoms: N2_36  and  C28_37 
REMARK   12  A    between atoms: C28_37  and  C29_38 
REMARK   13  A    between atoms: C28_37  and  C38_48 
REMARK   14  A    between atoms: C29_38  and  C30_39 
REMARK   15  A    between atoms: C38_48  and  O9_50 
ROOT
HETATM    1  C22 UNL     1      -2.800  50.835 -14.766  1.00  0.00     0.259 C 
HETATM    2  O5  UNL     1      -3.560  51.794 -14.832  1.00  0.00    -0.265 OA
ENDROOT
BRANCH   1   3
HETATM    3  O4  UNL     1      -2.012  50.535 -13.693  1.00  0.00    -0.314 OA
BRANCH   3   4
HETATM    4  C21 UNL     1      -2.290  51.295 -12.516  1.00  0.00     0.260 C 
BRANCH   4   5
HETATM    5  C20 UNL     1      -1.268  52.406 -12.260  1.00  0.00     0.185 C 
HETATM    6  O3  UNL     1      -0.352  52.625 -13.060  1.00  0.00    -0.292 OA
BRANCH   5   7
HETATM    7  C19 UNL     1      -1.446  53.228 -10.957  1.00  0.00     0.128 C 
HETATM    8  C14 UNL     1      -0.129  53.584 -10.186  1.00  0.00    -0.002 C 
HETATM    9  C13 UNL     1       0.685  54.789 -10.697  1.00  0.00     0.013 C 
HETATM   10  C15 UNL     1       0.825  52.355 -10.110  1.00  0.00     0.019 C 
HETATM   11  C16 UNL     1      -0.738  53.964  -8.805  1.00  0.00     0.002 C 
HETATM   12  C12 UNL     1       1.759  55.239  -9.683  1.00  0.00     0.007 C 
HETATM   13  C11 UNL     1       1.152  55.535  -8.290  1.00  0.00     0.002 C 
HETATM   14  C2  UNL     1       2.160  56.053  -7.210  1.00  0.00    -0.016 C 
HETATM   15  C10 UNL     1       0.331  54.314  -7.759  1.00  0.00    -0.004 C 
HETATM   16  C1  UNL     1       3.131  54.939  -6.751  1.00  0.00     0.020 C 
HETATM   17  C3  UNL     1       2.985  57.253  -7.748  1.00  0.00     0.022 C 
HETATM   18  C7  UNL     1       1.342  56.542  -6.011  1.00  0.00    -0.068 C 
HETATM   19  C4  UNL     1       3.835  57.934  -6.676  1.00  0.00     0.084 C 
HETATM   20  C5  UNL     1       3.059  58.215  -5.411  1.00  0.00     0.149 C 
HETATM   21  O1  UNL     1       3.470  58.998  -4.558  1.00  0.00    -0.293 OA
HETATM   22  C6  UNL     1       1.772  57.516  -5.189  1.00  0.00     0.053 C 
HETATM   23  C8  UNL     1      -0.051  55.979  -5.826  1.00  0.00     0.035 C 
HETATM   24  C9  UNL     1      -0.228  54.552  -6.342  1.00  0.00     0.010 C 
HETATM   25  C17 UNL     1      -1.705  52.815  -8.521  1.00  0.00     0.009 C 
HETATM   26  C18 UNL     1      -2.242  52.403  -9.909  1.00  0.00     0.047 C 
BRANCH   7  27
HETATM   27  O2  UNL     1      -2.232  54.402 -11.196  1.00  0.00    -0.381 OA
HETATM   28  H27 UNL     1      -1.695  55.079 -11.636  1.00  0.00     0.211 HD
ENDBRANCH   7  27
ENDBRANCH   5   7
ENDBRANCH   4   5
ENDBRANCH   3   4
ENDBRANCH   1   3
BRANCH   1  29
HETATM   29  C23 UNL     1      -2.598  49.779 -15.831  1.00  0.00     0.120 C 
BRANCH  29  30
HETATM   30  C24 UNL     1      -3.329  50.098 -17.130  1.00  0.00     0.112 C 
BRANCH  30  31
HETATM   31  C25 UNL     1      -2.454  50.853 -18.112  1.00  0.00     0.218 C 
HETATM   32  O6  UNL     1      -2.759  51.936 -18.596  1.00  0.00    -0.274 OA
HETATM   33  N1  UNL     1      -1.285  50.188 -18.415  1.00  0.00    -0.352 N 
HETATM   34  H34 UNL     1      -1.097  49.277 -18.011  1.00  0.00     0.162 HD
BRANCH  33  35
HETATM   35  C26 UNL     1      -0.330  50.723 -19.382  1.00  0.00     0.225 C 
BRANCH  35  36
HETATM   36  C27 UNL     1      -0.733  50.444 -20.839  1.00  0.00     0.236 C 
HETATM   37  O7  UNL     1      -0.817  49.308 -21.294  1.00  0.00    -0.272 OA
HETATM   38  N2  UNL     1      -1.083  51.570 -21.553  1.00  0.00    -0.345 N 
HETATM   39  H37 UNL     1      -0.757  52.438 -21.135  1.00  0.00     0.163 HD
BRANCH  38  40
HETATM   40  C28 UNL     1      -1.001  51.592 -23.024  1.00  0.00     0.186 C 
BRANCH  40  41
HETATM   41  C29 UNL     1      -2.238  52.267 -23.616  1.00  0.00     0.077 C 
BRANCH  41  42
HETATM   42  C30 UNL     1      -2.505  51.866 -25.033  1.00  0.00    -0.028 A 
HETATM   43  C31 UNL     1      -2.305  52.633 -26.163  1.00  0.00     0.096 A 
HETATM   44  N3  UNL     1      -2.666  51.890 -27.256  1.00  0.00    -0.365 N 
HETATM   45  C32 UNL     1      -3.110  50.650 -26.865  1.00  0.00     0.042 A 
HETATM   46  H42 UNL     1      -2.608  52.202 -28.216  1.00  0.00     0.165 HD
HETATM   47  C33 UNL     1      -3.573  49.571 -27.629  1.00  0.00     0.030 A 
HETATM   48  C37 UNL     1      -3.019  50.604 -25.473  1.00  0.00    -0.002 A 
HETATM   49  C34 UNL     1      -3.950  48.410 -26.948  1.00  0.00     0.002 A 
HETATM   50  C35 UNL     1      -3.865  48.331 -25.559  1.00  0.00     0.001 A 
HETATM   51  C36 UNL     1      -3.403  49.420 -24.811  1.00  0.00     0.014 A 
ENDBRANCH  41  42
ENDBRANCH  40  41
BRANCH  40  52
HETATM   52  C38 UNL     1       0.264  52.394 -23.381  1.00  0.00     0.163 C 
HETATM   53  O8  UNL     1       0.871  52.398 -24.438  1.00  0.00    -0.648 OA
BRANCH  52  54
HETATM   54  O9  UNL     1       0.649  53.193 -22.348  1.00  0.00    -0.775 OA
HETATM   55  H47 UNL     1       1.562  53.524 -22.549  1.00  0.00     0.167 HD
ENDBRANCH  52  54
ENDBRANCH  40  52
ENDBRANCH  38  40
ENDBRANCH  35  36
ENDBRANCH  33  35
ENDBRANCH  30  31
ENDBRANCH  29  30
ENDBRANCH   1  29
TORSDOF 15
ENDMDL
MODEL 8
REMARK minimizedAffinity -8.72984028
REMARK CNNscore 0.257795095
REMARK CNNaffinity 6.40472651
REMARK  15 active torsions:
REMARK  status: ('A' for Active; 'I' for Inactive)
REMARK    1  A    between atoms: C19_20  and  O2_21 
REMARK    2  A    between atoms: C19_20  and  C20_22 
REMARK    3  A    between atoms: C20_22  and  C21_24 
REMARK    4  A    between atoms: C21_24  and  O4_25 
REMARK    5  A    between atoms: O4_25  and  C22_26 
REMARK    6  A    between atoms: C22_26  and  C23_28 
REMARK    7  A    between atoms: C23_28  and  C24_29 
REMARK    8  A    between atoms: C24_29  and  C25_30 
REMARK       I    between atoms: C25_30  and  N1_32 
REMARK    9  A    between atoms: N1_32  and  C26_33 
REMARK   10  A    between atoms: C26_33  and  C27_34 
REMARK       I    between atoms: C27_34  and  N2_36 
REMARK   11  A    between atoms: N2_36  and  C28_37 
REMARK   12  A    between atoms: C28_37  and  C29_38 
REMARK   13  A    between atoms: C28_37  and  C38_48 
REMARK   14  A    between atoms: C29_38  and  C30_39 
REMARK   15  A    between atoms: C38_48  and  O9_50 
ROOT
HETATM    1  C22 UNL     1      -6.151  47.665 -27.051  1.00  0.00     0.259 C 
HETATM    2  O5  UNL     1      -5.653  47.860 -28.153  1.00  0.00    -0.265 OA
ENDROOT
BRANCH   1   3
HETATM    3  O4  UNL     1      -7.309  46.978 -26.827  1.00  0.00    -0.314 OA
BRANCH   3   4
HETATM    4  C21 UNL     1      -8.498  47.663 -27.219  1.00  0.00     0.260 C 
BRANCH   4   5
HETATM    5  C20 UNL     1      -8.661  47.768 -28.738  1.00  0.00     0.185 C 
HETATM    6  O3  UNL     1      -8.714  48.868 -29.299  1.00  0.00    -0.292 OA
BRANCH   5   7
HETATM    7  C19 UNL     1      -8.757  46.432 -29.521  1.00  0.00     0.128 C 
HETATM    8  C14 UNL     1      -9.538  46.487 -30.878  1.00  0.00    -0.002 C 
HETATM    9  C13 UNL     1      -8.778  47.019 -32.109  1.00  0.00     0.013 C 
HETATM   10  C15 UNL     1     -10.855  47.307 -30.734  1.00  0.00     0.019 C 
HETATM   11  C16 UNL     1      -9.792  44.966 -31.088  1.00  0.00     0.002 C 
HETATM   12  C12 UNL     1      -9.524  46.723 -33.428  1.00  0.00     0.007 C 
HETATM   13  C11 UNL     1      -9.843  45.216 -33.586  1.00  0.00     0.002 C 
HETATM   14  C2  UNL     1     -10.550  44.812 -34.923  1.00  0.00    -0.016 C 
HETATM   15  C10 UNL     1     -10.622  44.669 -32.345  1.00  0.00    -0.004 C 
HETATM   16  C1  UNL     1     -12.013  45.313 -34.972  1.00  0.00     0.020 C 
HETATM   17  C3  UNL     1      -9.783  45.372 -36.150  1.00  0.00     0.022 C 
HETATM   18  C7  UNL     1     -10.531  43.283 -35.012  1.00  0.00    -0.068 C 
HETATM   19  C4  UNL     1     -10.302  44.840 -37.486  1.00  0.00     0.084 C 
HETATM   20  C5  UNL     1     -10.484  43.340 -37.482  1.00  0.00     0.149 C 
HETATM   21  O1  UNL     1     -10.613  42.699 -38.523  1.00  0.00    -0.293 OA
HETATM   22  C6  UNL     1     -10.519  42.626 -36.185  1.00  0.00     0.053 C 
HETATM   23  C8  UNL     1     -10.405  42.499 -33.722  1.00  0.00     0.035 C 
HETATM   24  C9  UNL     1     -11.017  43.187 -32.504  1.00  0.00     0.010 C 
HETATM   25  C17 UNL     1     -10.316  44.508 -29.728  1.00  0.00     0.009 C 
HETATM   26  C18 UNL     1      -9.569  45.390 -28.703  1.00  0.00     0.047 C 
BRANCH   7  27
HETATM   27  O2  UNL     1      -7.460  45.850 -29.700  1.00  0.00    -0.381 OA
HETATM   28  H27 UNL     1      -6.982  46.313 -30.405  1.00  0.00     0.211 HD
ENDBRANCH   7  27
ENDBRANCH   5   7
ENDBRANCH   4   5
ENDBRANCH   3   4
ENDBRANCH   1   3
BRANCH   1  29
HETATM   29  C23 UNL     1      -5.584  48.113 -25.721  1.00  0.00     0.120 C 
BRANCH  29  30
HETATM   30  C24 UNL     1      -4.106  48.480 -25.799  1.00  0.00     0.112 C 
BRANCH  30  31
HETATM   31  C25 UNL     1      -3.715  49.515 -24.762  1.00  0.00     0.218 C 
HETATM   32  O6  UNL     1      -3.375  50.658 -25.041  1.00  0.00    -0.274 OA
HETATM   33  N1  UNL     1      -3.770  49.033 -23.471  1.00  0.00    -0.352 N 
HETATM   34  H34 UNL     1      -4.027  48.068 -23.298  1.00  0.00     0.162 HD
BRANCH  33  35
HETATM   35  C26 UNL     1      -3.380  49.857 -22.330  1.00  0.00     0.225 C 
BRANCH  35  36
HETATM   36  C27 UNL     1      -1.857  49.937 -22.141  1.00  0.00     0.236 C 
HETATM   37  O7  UNL     1      -1.184  48.972 -21.793  1.00  0.00    -0.272 OA
HETATM   38  N2  UNL     1      -1.308  51.152 -22.489  1.00  0.00    -0.345 N 
HETATM   39  H37 UNL     1      -1.986  51.909 -22.541  1.00  0.00     0.163 HD
BRANCH  38  40
HETATM   40  C28 UNL     1      -0.019  51.592 -21.926  1.00  0.00     0.186 C 
BRANCH  40  41
HETATM   41  C29 UNL     1       0.708  52.507 -22.911  1.00  0.00     0.077 C 
BRANCH  41  42
HETATM   42  C30 UNL     1       0.031  52.591 -24.244  1.00  0.00    -0.028 A 
HETATM   43  C31 UNL     1      -1.255  53.027 -24.494  1.00  0.00     0.096 A 
HETATM   44  N3  UNL     1      -1.479  52.954 -25.842  1.00  0.00    -0.365 N 
HETATM   45  C32 UNL     1      -0.365  52.469 -26.486  1.00  0.00     0.042 A 
HETATM   46  H42 UNL     1      -2.335  53.225 -26.306  1.00  0.00     0.165 HD
HETATM   47  C33 UNL     1      -0.138  52.231 -27.847  1.00  0.00     0.030 A 
HETATM   48  C37 UNL     1       0.600  52.233 -25.507  1.00  0.00    -0.002 A 
HETATM   49  C34 UNL     1       1.118  51.741 -28.217  1.00  0.00     0.002 A 
HETATM   50  C35 UNL     1       2.106  51.501 -27.264  1.00  0.00     0.001 A 
HETATM   51  C36 UNL     1       1.860  51.742 -25.908  1.00  0.00     0.014 A 
ENDBRANCH  41  42
ENDBRANCH  40  41
BRANCH  40  52
HETATM   52  C38 UNL     1      -0.347  52.361 -20.631  1.00  0.00     0.163 C 
HETATM   53  O8  UNL     1      -1.101  52.023 -19.735  1.00  0.00    -0.648 OA
BRANCH  52  54
HETATM   54  O9  UNL     1       0.367  53.516 -20.549  1.00  0.00    -0.775 OA
HETATM   55  H47 UNL     1      -0.025  54.059 -19.817  1.00  0.00     0.167 HD
ENDBRANCH  52  54
ENDBRANCH  40  52
ENDBRANCH  38  40
ENDBRANCH  35  36
ENDBRANCH  33  35
ENDBRANCH  30  31
ENDBRANCH  29  30
ENDBRANCH   1  29
TORSDOF 15
ENDMDL
MODEL 9
REMARK minimizedAffinity -9.36833
REMARK CNNscore 0.256833941
REMARK CNNaffinity 7.24944258
REMARK  15 active torsions:
REMARK  status: ('A' for Active; 'I' for Inactive)
REMARK    1  A    between atoms: C19_20  and  O2_21 
REMARK    2  A    between atoms: C19_20  and  C20_22 
REMARK    3  A    between atoms: C20_22  and  C21_24 
REMARK    4  A    between atoms: C21_24  and  O4_25 
REMARK    5  A    between atoms: O4_25  and  C22_26 
REMARK    6  A    between atoms: C22_26  and  C23_28 
REMARK    7  A    between atoms: C23_28  and  C24_29 
REMARK    8  A    between atoms: C24_29  and  C25_30 
REMARK       I    between atoms: C25_30  and  N1_32 
REMARK    9  A    between atoms: N1_32  and  C26_33 
REMARK   10  A    between atoms: C26_33  and  C27_34 
REMARK       I    between atoms: C27_34  and  N2_36 
REMARK   11  A    between atoms: N2_36  and  C28_37 
REMARK   12  A    between atoms: C28_37  and  C29_38 
REMARK   13  A    between atoms: C28_37  and  C38_48 
REMARK   14  A    between atoms: C29_38  and  C30_39 
REMARK   15  A    between atoms: C38_48  and  O9_50 
ROOT
HETATM    1  C22 UNL     1      -2.211  50.253 -16.603  1.00  0.00     0.259 C 
HETATM    2  O5  UNL     1      -2.792  51.118 -17.248  1.00  0.00    -0.265 OA
ENDROOT
BRANCH   1   3
HETATM    3  O4  UNL     1      -2.133  50.215 -15.241  1.00  0.00    -0.314 OA
BRANCH   3   4
HETATM    4  C21 UNL     1      -2.856  51.247 -14.570  1.00  0.00     0.260 C 
BRANCH   4   5
HETATM    5  C20 UNL     1      -3.137  50.929 -13.099  1.00  0.00     0.185 C 
HETATM    6  O3  UNL     1      -3.519  49.807 -12.752  1.00  0.00    -0.292 OA
BRANCH   5   7
HETATM    7  C19 UNL     1      -2.919  52.082 -12.084  1.00  0.00     0.128 C 
HETATM    8  C14 UNL     1      -1.464  52.235 -11.522  1.00  0.00    -0.002 C 
HETATM    9  C13 UNL     1      -0.440  52.975 -12.405  1.00  0.00     0.013 C 
HETATM   10  C15 UNL     1      -0.862  50.850 -11.143  1.00  0.00     0.019 C 
HETATM   11  C16 UNL     1      -1.764  53.126 -10.281  1.00  0.00     0.002 C 
HETATM   12  C12 UNL     1       0.839  53.348 -11.626  1.00  0.00     0.007 C 
HETATM   13  C11 UNL     1       0.521  54.164 -10.350  1.00  0.00     0.002 C 
HETATM   14  C2  UNL     1       1.764  54.637  -9.523  1.00  0.00    -0.016 C 
HETATM   15  C10 UNL     1      -0.511  53.417  -9.442  1.00  0.00    -0.004 C 
HETATM   16  C1  UNL     1       2.464  53.454  -8.813  1.00  0.00     0.020 C 
HETATM   17  C3  UNL     1       2.794  55.362 -10.430  1.00  0.00     0.022 C 
HETATM   18  C7  UNL     1       1.269  55.640  -8.477  1.00  0.00    -0.068 C 
HETATM   19  C4  UNL     1       3.927  56.029  -9.652  1.00  0.00     0.084 C 
HETATM   20  C5  UNL     1       3.427  56.845  -8.483  1.00  0.00     0.149 C 
HETATM   21  O1  UNL     1       4.137  57.673  -7.918  1.00  0.00    -0.293 OA
HETATM   22  C6  UNL     1       2.044  56.630  -7.998  1.00  0.00     0.053 C 
HETATM   23  C8  UNL     1      -0.185  55.571  -8.060  1.00  0.00     0.035 C 
HETATM   24  C9  UNL     1      -0.795  54.172  -8.128  1.00  0.00     0.010 C 
HETATM   25  C17 UNL     1      -2.949  52.421  -9.623  1.00  0.00     0.009 C 
HETATM   26  C18 UNL     1      -3.756  51.829 -10.800  1.00  0.00     0.047 C 
BRANCH   7  27
HETATM   27  O2  UNL     1      -3.397  53.325 -12.613  1.00  0.00    -0.381 OA
HETATM   28  H27 UNL     1      -2.766  53.677 -13.259  1.00  0.00     0.211 HD
ENDBRANCH   7  27
ENDBRANCH   5   7
ENDBRANCH   4   5
ENDBRANCH   3   4
ENDBRANCH   1   3
BRANCH   1  29
HETATM   29  C23 UNL     1      -1.493  49.047 -17.168  1.00  0.00     0.120 C 
BRANCH  29  30
HETATM   30  C24 UNL     1      -0.882  49.308 -18.540  1.00  0.00     0.112 C 
BRANCH  30  31
HETATM   31  C25 UNL     1      -1.651  48.623 -19.653  1.00  0.00     0.218 C 
HETATM   32  O6  UNL     1      -1.197  47.705 -20.324  1.00  0.00    -0.274 OA
HETATM   33  N1  UNL     1      -2.911  49.151 -19.841  1.00  0.00    -0.352 N 
HETATM   34  H34 UNL     1      -3.225  49.934 -19.279  1.00  0.00     0.162 HD
BRANCH  33  35
HETATM   35  C26 UNL     1      -3.793  48.666 -20.899  1.00  0.00     0.225 C 
BRANCH  35  36
HETATM   36  C27 UNL     1      -4.185  49.762 -21.902  1.00  0.00     0.236 C 
HETATM   37  O7  UNL     1      -5.342  50.142 -22.046  1.00  0.00    -0.272 OA
HETATM   38  N2  UNL     1      -3.115  50.344 -22.548  1.00  0.00    -0.345 N 
HETATM   39  H37 UNL     1      -2.260  49.794 -22.504  1.00  0.00     0.163 HD
BRANCH  38  40
HETATM   40  C28 UNL     1      -3.286  51.010 -23.852  1.00  0.00     0.186 C 
BRANCH  40  41
HETATM   41  C29 UNL     1      -2.128  51.973 -24.114  1.00  0.00     0.077 C 
BRANCH  41  42
HETATM   42  C30 UNL     1      -1.786  52.100 -25.566  1.00  0.00    -0.028 A 
HETATM   43  C31 UNL     1      -2.648  52.425 -26.594  1.00  0.00     0.096 A 
HETATM   44  N3  UNL     1      -1.934  52.442 -27.763  1.00  0.00    -0.365 N 
HETATM   45  C32 UNL     1      -0.618  52.124 -27.523  1.00  0.00     0.042 A 
HETATM   46  H42 UNL     1      -2.313  52.665 -28.673  1.00  0.00     0.165 HD
HETATM   47  C33 UNL     1       0.464  52.023 -28.407  1.00  0.00     0.030 A 
HETATM   48  C37 UNL     1      -0.495  51.905 -26.152  1.00  0.00    -0.002 A 
HETATM   49  C34 UNL     1       1.710  51.692 -27.868  1.00  0.00     0.002 A 
HETATM   50  C35 UNL     1       1.868  51.473 -26.501  1.00  0.00     0.001 A 
HETATM   51  C36 UNL     1       0.774  51.576 -25.633  1.00  0.00     0.014 A 
ENDBRANCH  41  42
ENDBRANCH  40  41
BRANCH  40  52
HETATM   52  C38 UNL     1      -3.300  49.895 -24.914  1.00  0.00     0.163 C 
HETATM   53  O8  UNL     1      -2.422  49.085 -25.156  1.00  0.00    -0.648 OA
BRANCH  52  54
HETATM   54  O9  UNL     1      -4.486  49.863 -25.580  1.00  0.00    -0.775 OA
HETATM   55  H47 UNL     1      -4.370  49.277 -26.372  1.00  0.00     0.167 HD
ENDBRANCH  52  54
ENDBRANCH  40  52
ENDBRANCH  38  40
ENDBRANCH  35  36
ENDBRANCH  33  35
ENDBRANCH  30  31
ENDBRANCH  29  30
ENDBRANCH   1  29
TORSDOF 15
ENDMDL
