MODEL 1
REMARK minimizedAffinity -9.72084141
REMARK  8 active torsions:
REMARK  status: ('A' for Active; 'I' for Inactive)
REMARK    1  A    between atoms: C5_5  and  O1_6 
REMARK    2  A    between atoms: C9_10  and  C10_11 
REMARK    3  A    between atoms: C10_11  and  C11_12 
REMARK    4  A    between atoms: C11_12  and  C12_13 
REMARK    5  A    between atoms: C14_15  and  C15_16 
REMARK    6  A    between atoms: C15_16  and  C16_17 
REMARK    7  A    between atoms: C16_17  and  C17_18 
REMARK    8  A    between atoms: C23_24  and  O2_25 
ROOT
HETATM    1  C12 UNL     1      -1.463   8.114  12.156  1.00  0.00    -0.087 C 
HETATM    2  C13 UNL     1      -1.211   6.667  12.502  1.00  0.00     0.043 C 
HETATM    3  C14 UNL     1      -2.369   8.893  12.785  1.00  0.00    -0.024 C 
ENDROOT
BRANCH   3   4
HETATM    4  C15 UNL     1      -3.269   8.473  13.915  1.00  0.00     0.030 C 
BRANCH   4   5
HETATM    5  C16 UNL     1      -4.705   8.077  13.523  1.00  0.00     0.042 C 
BRANCH   5   6
HETATM    6  C17 UNL     1      -5.182   6.631  13.836  1.00  0.00     0.065 C 
HETATM    7  C18 UNL     1      -4.723   6.186  15.236  1.00  0.00     0.046 C 
HETATM    8  C19 UNL     1      -6.720   6.634  13.708  1.00  0.00     0.043 C 
HETATM    9  C20 UNL     1      -7.296   5.236  13.841  1.00  0.00     0.044 C 
HETATM   10  C21 UNL     1      -6.511   4.269  13.008  1.00  0.00    -0.021 A 
HETATM   11  C22 UNL     1      -7.071   3.024  12.686  1.00  0.00     0.046 A 
HETATM   12  C27 UNL     1      -5.213   4.576  12.577  1.00  0.00     0.082 A 
HETATM   13  C23 UNL     1      -6.347   2.115  11.924  1.00  0.00     0.066 A 
HETATM   14  C24 UNL     1      -5.068   2.420  11.478  1.00  0.00     0.046 A 
HETATM   15  C25 UNL     1      -4.491   3.656  11.796  1.00  0.00    -0.025 A 
HETATM   16  C26 UNL     1      -3.104   3.977  11.325  1.00  0.00     0.051 C 
HETATM   17  O3  UNL     1      -4.587   5.764  12.853  1.00  0.00    -0.340 OA
BRANCH  13  18
HETATM   18  O2  UNL     1      -6.864   0.899  11.586  1.00  0.00    -0.361 OA
HETATM   19  H36 UNL     1      -7.771   0.842  11.930  1.00  0.00     0.217 HD
ENDBRANCH  13  18
ENDBRANCH   5   6
ENDBRANCH   4   5
ENDBRANCH   3   4
BRANCH   1  20
HETATM   20  C11 UNL     1      -0.545   8.689  11.089  1.00  0.00     0.034 C 
BRANCH  20  21
HETATM   21  C10 UNL     1       0.168   7.609  10.257  1.00  0.00     0.014 C 
BRANCH  21  22
HETATM   22  C9  UNL     1       1.709   7.797  10.201  1.00  0.00     0.024 C 
HETATM   23  C2  UNL     1       2.342   7.911   8.818  1.00  0.00    -0.084 C 
HETATM   24  C1  UNL     1       1.792   7.505   7.663  1.00  0.00     0.015 C 
HETATM   25  C3  UNL     1       3.748   8.478   8.842  1.00  0.00     0.036 C 
HETATM   26  C4  UNL     1       4.517   8.041  10.092  1.00  0.00     0.037 C 
HETATM   27  C5  UNL     1       4.018   6.688  10.601  1.00  0.00     0.127 C 
HETATM   28  C6  UNL     1       2.514   6.735  11.055  1.00  0.00    -0.014 C 
HETATM   29  C7  UNL     1       2.402   7.115  12.552  1.00  0.00     0.018 C 
HETATM   30  C8  UNL     1       1.942   5.307  10.901  1.00  0.00     0.018 C 
BRANCH  27  31
HETATM   31  O1  UNL     1       4.880   6.216  11.635  1.00  0.00    -0.395 OA
HETATM   32  H8  UNL     1       4.997   6.931  12.283  1.00  0.00     0.210 HD
ENDBRANCH  27  31
ENDBRANCH  21  22
ENDBRANCH  20  21
ENDBRANCH   1  20
TORSDOF 8
ENDMDL
MODEL 2
REMARK minimizedAffinity -9.60110855
REMARK  8 active torsions:
REMARK  status: ('A' for Active; 'I' for Inactive)
REMARK    1  A    between atoms: C5_5  and  O1_6 
REMARK    2  A    between atoms: C9_10  and  C10_11 
REMARK    3  A    between atoms: C10_11  and  C11_12 
REMARK    4  A    between atoms: C11_12  and  C12_13 
REMARK    5  A    between atoms: C14_15  and  C15_16 
REMARK    6  A    between atoms: C15_16  and  C16_17 
REMARK    7  A    between atoms: C16_17  and  C17_18 
REMARK    8  A    between atoms: C23_24  and  O2_25 
ROOT
HETATM    1  C12 UNL     1       0.330   6.879  12.836  1.00  0.00    -0.087 C 
HETATM    2  C13 UNL     1       1.000   6.721  14.178  1.00  0.00     0.043 C 
HETATM    3  C14 UNL     1      -0.535   5.982  12.313  1.00  0.00    -0.024 C 
ENDROOT
BRANCH   3   4
HETATM    4  C15 UNL     1      -0.975   4.695  12.956  1.00  0.00     0.030 C 
BRANCH   4   5
HETATM    5  C16 UNL     1      -1.357   3.556  11.995  1.00  0.00     0.042 C 
BRANCH   5   6
HETATM    6  C17 UNL     1      -2.840   3.439  11.542  1.00  0.00     0.065 C 
HETATM    7  C18 UNL     1      -2.999   3.824  10.060  1.00  0.00     0.046 C 
HETATM    8  C19 UNL     1      -3.271   1.981  11.807  1.00  0.00     0.043 C 
HETATM    9  C20 UNL     1      -4.753   1.779  11.546  1.00  0.00     0.044 C 
HETATM   10  C21 UNL     1      -5.546   2.885  12.174  1.00  0.00    -0.021 A 
HETATM   11  C22 UNL     1      -6.923   2.712  12.381  1.00  0.00     0.046 A 
HETATM   12  C27 UNL     1      -4.940   4.099  12.523  1.00  0.00     0.082 A 
HETATM   13  C23 UNL     1      -7.670   3.736  12.952  1.00  0.00     0.066 A 
HETATM   14  C24 UNL     1      -7.072   4.935  13.317  1.00  0.00     0.046 A 
HETATM   15  C25 UNL     1      -5.700   5.126  13.110  1.00  0.00    -0.025 A 
HETATM   16  C26 UNL     1      -5.061   6.427  13.492  1.00  0.00     0.051 C 
HETATM   17  O3  UNL     1      -3.604   4.355  12.347  1.00  0.00    -0.340 OA
BRANCH  13  18
HETATM   18  O2  UNL     1      -9.009   3.600  13.174  1.00  0.00    -0.361 OA
HETATM   19  H36 UNL     1      -9.277   2.705  12.910  1.00  0.00     0.217 HD
ENDBRANCH  13  18
ENDBRANCH   5   6
ENDBRANCH   4   5
ENDBRANCH   3   4
BRANCH   1  20
HETATM   20  C11 UNL     1       0.619   8.191  12.124  1.00  0.00     0.034 C 
BRANCH  20  21
HETATM   21  C10 UNL     1       2.072   8.307  11.631  1.00  0.00     0.014 C 
BRANCH  21  22
HETATM   22  C9  UNL     1       2.239   7.953  10.129  1.00  0.00     0.024 C 
HETATM   23  C2  UNL     1       1.032   8.183   9.225  1.00  0.00    -0.084 C 
HETATM   24  C1  UNL     1      -0.243   8.299   9.628  1.00  0.00     0.015 C 
HETATM   25  C3  UNL     1       1.376   8.197   7.749  1.00  0.00     0.036 C 
HETATM   26  C4  UNL     1       2.507   7.219   7.418  1.00  0.00     0.037 C 
HETATM   27  C5  UNL     1       2.523   6.044   8.396  1.00  0.00     0.127 C 
HETATM   28  C6  UNL     1       2.808   6.497   9.875  1.00  0.00    -0.014 C 
HETATM   29  C7  UNL     1       4.329   6.502  10.165  1.00  0.00     0.018 C 
HETATM   30  C8  UNL     1       2.166   5.447  10.810  1.00  0.00     0.018 C 
BRANCH  27  31
HETATM   31  O1  UNL     1       3.449   5.057   7.947  1.00  0.00    -0.395 OA
HETATM   32  H8  UNL     1       4.292   5.498   7.750  1.00  0.00     0.210 HD
ENDBRANCH  27  31
ENDBRANCH  21  22
ENDBRANCH  20  21
ENDBRANCH   1  20
TORSDOF 8
ENDMDL
MODEL 3
REMARK minimizedAffinity -9.45179653
REMARK  8 active torsions:
REMARK  status: ('A' for Active; 'I' for Inactive)
REMARK    1  A    between atoms: C5_5  and  O1_6 
REMARK    2  A    between atoms: C9_10  and  C10_11 
REMARK    3  A    between atoms: C10_11  and  C11_12 
REMARK    4  A    between atoms: C11_12  and  C12_13 
REMARK    5  A    between atoms: C14_15  and  C15_16 
REMARK    6  A    between atoms: C15_16  and  C16_17 
REMARK    7  A    between atoms: C16_17  and  C17_18 
REMARK    8  A    between atoms: C23_24  and  O2_25 
ROOT
HETATM    1  C12 UNL     1      -0.731   6.106  12.207  1.00  0.00    -0.087 C 
HETATM    2  C13 UNL     1      -0.615   5.064  13.292  1.00  0.00     0.043 C 
HETATM    3  C14 UNL     1      -1.346   7.298  12.368  1.00  0.00    -0.024 C 
ENDROOT
BRANCH   3   4
HETATM    4  C15 UNL     1      -2.011   7.791  13.624  1.00  0.00     0.030 C 
BRANCH   4   5
HETATM    5  C16 UNL     1      -3.548   7.856  13.593  1.00  0.00     0.042 C 
BRANCH   5   6
HETATM    6  C17 UNL     1      -4.348   6.611  14.073  1.00  0.00     0.065 C 
HETATM    7  C18 UNL     1      -3.723   6.007  15.343  1.00  0.00     0.046 C 
HETATM    8  C19 UNL     1      -5.798   7.081  14.312  1.00  0.00     0.043 C 
HETATM    9  C20 UNL     1      -6.717   5.918  14.639  1.00  0.00     0.044 C 
HETATM   10  C21 UNL     1      -6.480   4.785  13.687  1.00  0.00    -0.021 A 
HETATM   11  C22 UNL     1      -7.447   3.777  13.561  1.00  0.00     0.046 A 
HETATM   12  C27 UNL     1      -5.292   4.700  12.948  1.00  0.00     0.082 A 
HETATM   13  C23 UNL     1      -7.233   2.716  12.690  1.00  0.00     0.066 A 
HETATM   14  C24 UNL     1      -6.066   2.635  11.941  1.00  0.00     0.046 A 
HETATM   15  C25 UNL     1      -5.087   3.630  12.060  1.00  0.00    -0.025 A 
HETATM   16  C26 UNL     1      -3.821   3.532  11.260  1.00  0.00     0.051 C 
HETATM   17  O3  UNL     1      -4.292   5.636  13.016  1.00  0.00    -0.340 OA
BRANCH  13  18
HETATM   18  O2  UNL     1      -8.155   1.723  12.538  1.00  0.00    -0.361 OA
HETATM   19  H36 UNL     1      -8.927   1.931  13.088  1.00  0.00     0.217 HD
ENDBRANCH  13  18
ENDBRANCH   5   6
ENDBRANCH   4   5
ENDBRANCH   3   4
BRANCH   1  20
HETATM   20  C11 UNL     1      -0.012   5.766  10.911  1.00  0.00     0.034 C 
BRANCH  20  21
HETATM   21  C10 UNL     1       1.376   5.140  11.133  1.00  0.00     0.014 C 
BRANCH  21  22
HETATM   22  C9  UNL     1       2.544   6.109  10.808  1.00  0.00     0.024 C 
HETATM   23  C2  UNL     1       3.023   7.019  11.935  1.00  0.00    -0.084 C 
HETATM   24  C1  UNL     1       2.329   7.341  13.037  1.00  0.00     0.015 C 
HETATM   25  C3  UNL     1       4.385   7.634  11.678  1.00  0.00     0.036 C 
HETATM   26  C4  UNL     1       4.602   7.939  10.193  1.00  0.00     0.037 C 
HETATM   27  C5  UNL     1       3.274   8.220   9.490  1.00  0.00     0.127 C 
HETATM   28  C6  UNL     1       2.312   6.976   9.504  1.00  0.00    -0.014 C 
HETATM   29  C7  UNL     1       2.552   6.081   8.264  1.00  0.00     0.018 C 
HETATM   30  C8  UNL     1       0.865   7.513   9.409  1.00  0.00     0.018 C 
BRANCH  27  31
HETATM   31  O1  UNL     1       3.521   8.696   8.168  1.00  0.00    -0.395 OA
HETATM   32  H8  UNL     1       4.145   8.087   7.738  1.00  0.00     0.210 HD
ENDBRANCH  27  31
ENDBRANCH  21  22
ENDBRANCH  20  21
ENDBRANCH   1  20
TORSDOF 8
ENDMDL
MODEL 4
REMARK minimizedAffinity -9.43586636
REMARK  8 active torsions:
REMARK  status: ('A' for Active; 'I' for Inactive)
REMARK    1  A    between atoms: C5_5  and  O1_6 
REMARK    2  A    between atoms: C9_10  and  C10_11 
REMARK    3  A    between atoms: C10_11  and  C11_12 
REMARK    4  A    between atoms: C11_12  and  C12_13 
REMARK    5  A    between atoms: C14_15  and  C15_16 
REMARK    6  A    between atoms: C15_16  and  C16_17 
REMARK    7  A    between atoms: C16_17  and  C17_18 
REMARK    8  A    between atoms: C23_24  and  O2_25 
ROOT
HETATM    1  C12 UNL     1      -1.348   8.054  13.734  1.00  0.00    -0.087 C 
HETATM    2  C13 UNL     1      -1.236   7.048  14.852  1.00  0.00     0.043 C 
HETATM    3  C14 UNL     1      -2.469   8.755  13.458  1.00  0.00    -0.024 C 
ENDROOT
BRANCH   3   4
HETATM    4  C15 UNL     1      -3.777   8.663  14.196  1.00  0.00     0.030 C 
BRANCH   4   5
HETATM    5  C16 UNL     1      -4.956   8.063  13.410  1.00  0.00     0.042 C 
BRANCH   5   6
HETATM    6  C17 UNL     1      -5.400   6.610  13.743  1.00  0.00     0.065 C 
HETATM    7  C18 UNL     1      -4.993   6.220  15.175  1.00  0.00     0.046 C 
HETATM    8  C19 UNL     1      -6.930   6.559  13.546  1.00  0.00     0.043 C 
HETATM    9  C20 UNL     1      -7.467   5.147  13.694  1.00  0.00     0.044 C 
HETATM   10  C21 UNL     1      -6.614   4.183  12.926  1.00  0.00    -0.021 A 
HETATM   11  C22 UNL     1      -7.120   2.912  12.615  1.00  0.00     0.046 A 
HETATM   12  C27 UNL     1      -5.309   4.521  12.544  1.00  0.00     0.082 A 
HETATM   13  C23 UNL     1      -6.333   2.007  11.913  1.00  0.00     0.066 A 
HETATM   14  C24 UNL     1      -5.045   2.342  11.516  1.00  0.00     0.046 A 
HETATM   15  C25 UNL     1      -4.523   3.605  11.824  1.00  0.00    -0.025 A 
HETATM   16  C26 UNL     1      -3.126   3.958  11.406  1.00  0.00     0.051 C 
HETATM   17  O3  UNL     1      -4.734   5.737  12.813  1.00  0.00    -0.340 OA
BRANCH  13  18
HETATM   18  O2  UNL     1      -6.795   0.765  11.588  1.00  0.00    -0.361 OA
HETATM   19  H36 UNL     1      -7.714   0.688  11.892  1.00  0.00     0.217 HD
ENDBRANCH  13  18
ENDBRANCH   5   6
ENDBRANCH   4   5
ENDBRANCH   3   4
BRANCH   1  20
HETATM   20  C11 UNL     1      -0.059   8.310  12.969  1.00  0.00     0.034 C 
BRANCH  20  21
HETATM   21  C10 UNL     1      -0.271   8.453  11.452  1.00  0.00     0.014 C 
BRANCH  21  22
HETATM   22  C9  UNL     1       0.938   7.955  10.615  1.00  0.00     0.024 C 
HETATM   23  C2  UNL     1       0.889   8.207   9.111  1.00  0.00    -0.084 C 
HETATM   24  C1  UNL     1      -0.213   8.466   8.391  1.00  0.00     0.015 C 
HETATM   25  C3  UNL     1       2.236   8.063   8.430  1.00  0.00     0.036 C 
HETATM   26  C4  UNL     1       3.088   6.967   9.078  1.00  0.00     0.037 C 
HETATM   27  C5  UNL     1       2.208   5.886   9.706  1.00  0.00     0.127 C 
HETATM   28  C6  UNL     1       1.316   6.440  10.876  1.00  0.00    -0.014 C 
HETATM   29  C7  UNL     1       2.062   6.342  12.230  1.00  0.00     0.018 C 
HETATM   30  C8  UNL     1       0.068   5.534  10.972  1.00  0.00     0.018 C 
BRANCH  27  31
HETATM   31  O1  UNL     1       3.019   4.787  10.120  1.00  0.00    -0.395 OA
HETATM   32  H8  UNL     1       3.758   5.136  10.646  1.00  0.00     0.210 HD
ENDBRANCH  27  31
ENDBRANCH  21  22
ENDBRANCH  20  21
ENDBRANCH   1  20
TORSDOF 8
ENDMDL
MODEL 5
REMARK minimizedAffinity -9.31324387
REMARK  8 active torsions:
REMARK  status: ('A' for Active; 'I' for Inactive)
REMARK    1  A    between atoms: C5_5  and  O1_6 
REMARK    2  A    between atoms: C9_10  and  C10_11 
REMARK    3  A    between atoms: C10_11  and  C11_12 
REMARK    4  A    between atoms: C11_12  and  C12_13 
REMARK    5  A    between atoms: C14_15  and  C15_16 
REMARK    6  A    between atoms: C15_16  and  C16_17 
REMARK    7  A    between atoms: C16_17  and  C17_18 
REMARK    8  A    between atoms: C23_24  and  O2_25 
ROOT
HETATM    1  C12 UNL     1      -0.657   8.564  13.931  1.00  0.00    -0.087 C 
HETATM    2  C13 UNL     1      -1.500   9.813  13.991  1.00  0.00     0.043 C 
HETATM    3  C14 UNL     1      -0.902   7.451  14.657  1.00  0.00    -0.024 C 
ENDROOT
BRANCH   3   4
HETATM    4  C15 UNL     1      -2.031   7.260  15.633  1.00  0.00     0.030 C 
BRANCH   4   5
HETATM    5  C16 UNL     1      -3.392   7.844  15.214  1.00  0.00     0.042 C 
BRANCH   5   6
HETATM    6  C17 UNL     1      -4.215   7.091  14.130  1.00  0.00     0.065 C 
HETATM    7  C18 UNL     1      -4.715   8.059  13.043  1.00  0.00     0.046 C 
HETATM    8  C19 UNL     1      -3.290   6.001  13.549  1.00  0.00     0.043 C 
HETATM    9  C20 UNL     1      -4.031   5.094  12.583  1.00  0.00     0.044 C 
HETATM   10  C21 UNL     1      -5.348   4.680  13.166  1.00  0.00    -0.021 A 
HETATM   11  C22 UNL     1      -6.020   3.571  12.630  1.00  0.00     0.046 A 
HETATM   12  C27 UNL     1      -5.933   5.403  14.214  1.00  0.00     0.082 A 
HETATM   13  C23 UNL     1      -7.247   3.184  13.156  1.00  0.00     0.066 A 
HETATM   14  C24 UNL     1      -7.824   3.886  14.206  1.00  0.00     0.046 A 
HETATM   15  C25 UNL     1      -7.170   5.000  14.748  1.00  0.00    -0.025 A 
HETATM   16  C26 UNL     1      -7.802   5.764  15.873  1.00  0.00     0.051 C 
HETATM   17  O3  UNL     1      -5.351   6.503  14.790  1.00  0.00    -0.340 OA
BRANCH  13  18
HETATM   18  O2  UNL     1      -7.923   2.107  12.664  1.00  0.00    -0.361 OA
HETATM   19  H36 UNL     1      -7.386   1.695  11.968  1.00  0.00     0.217 HD
ENDBRANCH  13  18
ENDBRANCH   5   6
ENDBRANCH   4   5
ENDBRANCH   3   4
BRANCH   1  20
HETATM   20  C11 UNL     1       0.465   8.596  12.905  1.00  0.00     0.034 C 
BRANCH  20  21
HETATM   21  C10 UNL     1      -0.040   8.545  11.452  1.00  0.00     0.014 C 
BRANCH  21  22
HETATM   22  C9  UNL     1       1.038   8.058  10.446  1.00  0.00     0.024 C 
HETATM   23  C2  UNL     1       0.757   8.290   8.965  1.00  0.00    -0.084 C 
HETATM   24  C1  UNL     1      -0.447   8.520   8.418  1.00  0.00     0.015 C 
HETATM   25  C3  UNL     1       1.987   8.161   8.088  1.00  0.00     0.036 C 
HETATM   26  C4  UNL     1       2.948   7.089   8.610  1.00  0.00     0.037 C 
HETATM   27  C5  UNL     1       2.195   6.000   9.375  1.00  0.00     0.127 C 
HETATM   28  C6  UNL     1       1.480   6.553  10.661  1.00  0.00    -0.014 C 
HETATM   29  C7  UNL     1       2.424   6.485  11.887  1.00  0.00     0.018 C 
HETATM   30  C8  UNL     1       0.279   5.627  10.955  1.00  0.00     0.018 C 
BRANCH  27  31
HETATM   31  O1  UNL     1       3.080   4.921   9.671  1.00  0.00    -0.395 OA
HETATM   32  H8  UNL     1       3.884   5.290  10.076  1.00  0.00     0.210 HD
ENDBRANCH  27  31
ENDBRANCH  21  22
ENDBRANCH  20  21
ENDBRANCH   1  20
TORSDOF 8
ENDMDL
MODEL 6
REMARK minimizedAffinity -9.16060162
REMARK  8 active torsions:
REMARK  status: ('A' for Active; 'I' for Inactive)
REMARK    1  A    between atoms: C5_5  and  O1_6 
REMARK    2  A    between atoms: C9_10  and  C10_11 
REMARK    3  A    between atoms: C10_11  and  C11_12 
REMARK    4  A    between atoms: C11_12  and  C12_13 
REMARK    5  A    between atoms: C14_15  and  C15_16 
REMARK    6  A    between atoms: C15_16  and  C16_17 
REMARK    7  A    between atoms: C16_17  and  C17_18 
REMARK    8  A    between atoms: C23_24  and  O2_25 
ROOT
HETATM    1  C12 UNL     1      -3.184   7.228  13.597  1.00  0.00    -0.087 C 
HETATM    2  C13 UNL     1      -2.381   7.014  14.857  1.00  0.00     0.043 C 
HETATM    3  C14 UNL     1      -2.835   8.088  12.616  1.00  0.00    -0.024 C 
ENDROOT
BRANCH   3   4
HETATM    4  C15 UNL     1      -1.614   8.968  12.601  1.00  0.00     0.030 C 
BRANCH   4   5
HETATM    5  C16 UNL     1      -0.775   8.935  11.311  1.00  0.00     0.042 C 
BRANCH   5   6
HETATM    6  C17 UNL     1       0.552   8.125  11.315  1.00  0.00     0.065 C 
HETATM    7  C18 UNL     1       1.687   8.922  11.982  1.00  0.00     0.046 C 
HETATM    8  C19 UNL     1       0.262   6.804  12.059  1.00  0.00     0.043 C 
HETATM    9  C20 UNL     1       1.445   5.855  11.998  1.00  0.00     0.044 C 
HETATM   10  C21 UNL     1       1.983   5.786  10.600  1.00  0.00    -0.021 A 
HETATM   11  C22 UNL     1       2.814   4.716  10.234  1.00  0.00     0.046 A 
HETATM   12  C27 UNL     1       1.697   6.791   9.666  1.00  0.00     0.082 A 
HETATM   13  C23 UNL     1       3.327   4.648   8.944  1.00  0.00     0.066 A 
HETATM   14  C24 UNL     1       3.033   5.631   8.009  1.00  0.00     0.046 A 
HETATM   15  C25 UNL     1       2.210   6.709   8.360  1.00  0.00    -0.025 A 
HETATM   16  C26 UNL     1       1.906   7.776   7.351  1.00  0.00     0.051 C 
HETATM   17  O3  UNL     1       0.902   7.874   9.942  1.00  0.00    -0.340 OA
BRANCH  13  18
HETATM   18  O2  UNL     1       4.132   3.619   8.553  1.00  0.00    -0.361 OA
HETATM   19  H36 UNL     1       4.216   2.994   9.292  1.00  0.00     0.217 HD
ENDBRANCH  13  18
ENDBRANCH   5   6
ENDBRANCH   4   5
ENDBRANCH   3   4
BRANCH   1  20
HETATM   20  C11 UNL     1      -4.396   6.322  13.447  1.00  0.00     0.034 C 
BRANCH  20  21
HETATM   21  C10 UNL     1      -4.062   4.829  13.607  1.00  0.00     0.014 C 
BRANCH  21  22
HETATM   22  C9  UNL     1      -5.245   3.894  13.237  1.00  0.00     0.024 C 
HETATM   23  C2  UNL     1      -5.185   3.207  11.876  1.00  0.00    -0.084 C 
HETATM   24  C1  UNL     1      -4.438   3.595  10.830  1.00  0.00     0.015 C 
HETATM   25  C3  UNL     1      -6.137   2.035  11.747  1.00  0.00     0.036 C 
HETATM   26  C4  UNL     1      -7.438   2.270  12.521  1.00  0.00     0.037 C 
HETATM   27  C5  UNL     1      -7.759   3.762  12.617  1.00  0.00     0.127 C 
HETATM   28  C6  UNL     1      -6.669   4.561  13.420  1.00  0.00    -0.014 C 
HETATM   29  C7  UNL     1      -7.011   4.592  14.930  1.00  0.00     0.018 C 
HETATM   30  C8  UNL     1      -6.701   6.020  12.912  1.00  0.00     0.018 C 
BRANCH  27  31
HETATM   31  O1  UNL     1      -9.066   3.938  13.160  1.00  0.00    -0.395 OA
HETATM   32  H8  UNL     1      -9.134   3.404  13.970  1.00  0.00     0.210 HD
ENDBRANCH  27  31
ENDBRANCH  21  22
ENDBRANCH  20  21
ENDBRANCH   1  20
TORSDOF 8
ENDMDL
MODEL 7
REMARK minimizedAffinity -9.08732224
REMARK  8 active torsions:
REMARK  status: ('A' for Active; 'I' for Inactive)
REMARK    1  A    between atoms: C5_5  and  O1_6 
REMARK    2  A    between atoms: C9_10  and  C10_11 
REMARK    3  A    between atoms: C10_11  and  C11_12 
REMARK    4  A    between atoms: C11_12  and  C12_13 
REMARK    5  A    between atoms: C14_15  and  C15_16 
REMARK    6  A    between atoms: C15_16  and  C16_17 
REMARK    7  A    between atoms: C16_17  and  C17_18 
REMARK    8  A    between atoms: C23_24  and  O2_25 
ROOT
HETATM    1  C12 UNL     1       1.334   6.096  10.768  1.00  0.00    -0.087 C 
HETATM    2  C13 UNL     1       0.810   7.154   9.829  1.00  0.00     0.043 C 
HETATM    3  C14 UNL     1       0.546   5.297  11.520  1.00  0.00    -0.024 C 
ENDROOT
BRANCH   3   4
HETATM    4  C15 UNL     1      -0.957   5.316  11.559  1.00  0.00     0.030 C 
BRANCH   4   5
HETATM    5  C16 UNL     1      -1.594   6.308  12.549  1.00  0.00     0.042 C 
BRANCH   5   6
HETATM    6  C17 UNL     1      -2.868   5.861  13.322  1.00  0.00     0.065 C 
HETATM    7  C18 UNL     1      -2.520   5.416  14.754  1.00  0.00     0.046 C 
HETATM    8  C19 UNL     1      -3.836   7.063  13.312  1.00  0.00     0.043 C 
HETATM    9  C20 UNL     1      -5.185   6.701  13.908  1.00  0.00     0.044 C 
HETATM   10  C21 UNL     1      -5.663   5.393  13.354  1.00  0.00    -0.021 A 
HETATM   11  C22 UNL     1      -7.018   5.050  13.468  1.00  0.00     0.046 A 
HETATM   12  C27 UNL     1      -4.770   4.494  12.755  1.00  0.00     0.082 A 
HETATM   13  C23 UNL     1      -7.470   3.835  12.968  1.00  0.00     0.066 A 
HETATM   14  C24 UNL     1      -6.594   2.947  12.358  1.00  0.00     0.046 A 
HETATM   15  C25 UNL     1      -5.236   3.271  12.241  1.00  0.00    -0.025 A 
HETATM   16  C26 UNL     1      -4.289   2.303  11.594  1.00  0.00     0.051 C 
HETATM   17  O3  UNL     1      -3.430   4.744  12.609  1.00  0.00    -0.340 OA
BRANCH  13  18
HETATM   18  O2  UNL     1      -8.782   3.473  13.056  1.00  0.00    -0.361 OA
HETATM   19  H36 UNL     1      -9.277   4.201  13.466  1.00  0.00     0.217 HD
ENDBRANCH  13  18
ENDBRANCH   5   6
ENDBRANCH   4   5
ENDBRANCH   3   4
BRANCH   1  20
HETATM   20  C11 UNL     1       2.843   5.910  10.748  1.00  0.00     0.034 C 
BRANCH  20  21
HETATM   21  C10 UNL     1       3.619   7.234  10.857  1.00  0.00     0.014 C 
BRANCH  21  22
HETATM   22  C9  UNL     1       4.564   7.291  12.088  1.00  0.00     0.024 C 
HETATM   23  C2  UNL     1       4.178   8.247  13.212  1.00  0.00    -0.084 C 
HETATM   24  C1  UNL     1       3.344   9.293  13.105  1.00  0.00     0.015 C 
HETATM   25  C3  UNL     1       4.899   7.969  14.517  1.00  0.00     0.036 C 
HETATM   26  C4  UNL     1       6.327   7.470  14.283  1.00  0.00     0.037 C 
HETATM   27  C5  UNL     1       6.892   8.014  12.970  1.00  0.00     0.127 C 
HETATM   28  C6  UNL     1       6.086   7.514  11.716  1.00  0.00    -0.014 C 
HETATM   29  C7  UNL     1       6.667   6.181  11.184  1.00  0.00     0.018 C 
HETATM   30  C8  UNL     1       6.267   8.571  10.602  1.00  0.00     0.018 C 
BRANCH  27  31
HETATM   31  O1  UNL     1       8.281   7.700  12.878  1.00  0.00    -0.395 OA
HETATM   32  H8  UNL     1       8.392   6.752  13.064  1.00  0.00     0.210 HD
ENDBRANCH  27  31
ENDBRANCH  21  22
ENDBRANCH  20  21
ENDBRANCH   1  20
TORSDOF 8
ENDMDL
MODEL 8
REMARK minimizedAffinity -9.00260353
REMARK  8 active torsions:
REMARK  status: ('A' for Active; 'I' for Inactive)
REMARK    1  A    between atoms: C5_5  and  O1_6 
REMARK    2  A    between atoms: C9_10  and  C10_11 
REMARK    3  A    between atoms: C10_11  and  C11_12 
REMARK    4  A    between atoms: C11_12  and  C12_13 
REMARK    5  A    between atoms: C14_15  and  C15_16 
REMARK    6  A    between atoms: C15_16  and  C16_17 
REMARK    7  A    between atoms: C16_17  and  C17_18 
REMARK    8  A    between atoms: C23_24  and  O2_25 
ROOT
HETATM    1  C12 UNL     1       1.435   5.810  11.035  1.00  0.00    -0.087 C 
HETATM    2  C13 UNL     1       0.708   7.094  10.722  1.00  0.00     0.043 C 
HETATM    3  C14 UNL     1       0.855   4.735  11.611  1.00  0.00    -0.024 C 
ENDROOT
BRANCH   3   4
HETATM    4  C15 UNL     1      -0.584   4.624  12.034  1.00  0.00     0.030 C 
BRANCH   4   5
HETATM    5  C16 UNL     1      -1.261   3.266  11.778  1.00  0.00     0.042 C 
BRANCH   5   6
HETATM    6  C17 UNL     1      -2.768   3.254  11.393  1.00  0.00     0.065 C 
HETATM    7  C18 UNL     1      -2.970   3.677   9.928  1.00  0.00     0.046 C 
HETATM    8  C19 UNL     1      -3.280   1.821  11.654  1.00  0.00     0.043 C 
HETATM    9  C20 UNL     1      -4.783   1.720  11.460  1.00  0.00     0.044 C 
HETATM   10  C21 UNL     1      -5.473   2.862  12.142  1.00  0.00    -0.021 A 
HETATM   11  C22 UNL     1      -6.847   2.774  12.412  1.00  0.00     0.046 A 
HETATM   12  C27 UNL     1      -4.773   4.028  12.483  1.00  0.00     0.082 A 
HETATM   13  C23 UNL     1      -7.499   3.832  13.034  1.00  0.00     0.066 A 
HETATM   14  C24 UNL     1      -6.808   4.983  13.390  1.00  0.00     0.046 A 
HETATM   15  C25 UNL     1      -5.437   5.089  13.122  1.00  0.00    -0.025 A 
HETATM   16  C26 UNL     1      -4.697   6.339  13.496  1.00  0.00     0.051 C 
HETATM   17  O3  UNL     1      -3.433   4.200  12.249  1.00  0.00    -0.340 OA
BRANCH  13  18
HETATM   18  O2  UNL     1      -8.832   3.778  13.317  1.00  0.00    -0.361 OA
HETATM   19  H36 UNL     1      -9.170   2.908  13.050  1.00  0.00     0.217 HD
ENDBRANCH  13  18
ENDBRANCH   5   6
ENDBRANCH   4   5
ENDBRANCH   3   4
BRANCH   1  20
HETATM   20  C11 UNL     1       2.881   5.760  10.566  1.00  0.00     0.034 C 
BRANCH  20  21
HETATM   21  C10 UNL     1       3.598   7.118  10.664  1.00  0.00     0.014 C 
BRANCH  21  22
HETATM   22  C9  UNL     1       4.492   7.249  11.926  1.00  0.00     0.024 C 
HETATM   23  C2  UNL     1       3.987   8.159  13.041  1.00  0.00    -0.084 C 
HETATM   24  C1  UNL     1       3.068   9.128  12.911  1.00  0.00     0.015 C 
HETATM   25  C3  UNL     1       4.685   7.935  14.368  1.00  0.00     0.036 C 
HETATM   26  C4  UNL     1       6.159   7.565  14.180  1.00  0.00     0.037 C 
HETATM   27  C5  UNL     1       6.718   8.166  12.890  1.00  0.00     0.127 C 
HETATM   28  C6  UNL     1       6.001   7.607  11.607  1.00  0.00    -0.014 C 
HETATM   29  C7  UNL     1       6.714   6.334  11.089  1.00  0.00     0.018 C 
HETATM   30  C8  UNL     1       6.125   8.684  10.505  1.00  0.00     0.018 C 
BRANCH  27  31
HETATM   31  O1  UNL     1       8.131   7.977  12.844  1.00  0.00    -0.395 OA
HETATM   32  H8  UNL     1       8.318   7.041  13.029  1.00  0.00     0.210 HD
ENDBRANCH  27  31
ENDBRANCH  21  22
ENDBRANCH  20  21
ENDBRANCH   1  20
TORSDOF 8
ENDMDL
MODEL 9
REMARK minimizedAffinity -8.87404251
REMARK  8 active torsions:
REMARK  status: ('A' for Active; 'I' for Inactive)
REMARK    1  A    between atoms: C5_5  and  O1_6 
REMARK    2  A    between atoms: C9_10  and  C10_11 
REMARK    3  A    between atoms: C10_11  and  C11_12 
REMARK    4  A    between atoms: C11_12  and  C12_13 
REMARK    5  A    between atoms: C14_15  and  C15_16 
REMARK    6  A    between atoms: C15_16  and  C16_17 
REMARK    7  A    between atoms: C16_17  and  C17_18 
REMARK    8  A    between atoms: C23_24  and  O2_25 
ROOT
HETATM    1  C12 UNL     1      -0.437   4.703  11.673  1.00  0.00    -0.087 C 
HETATM    2  C13 UNL     1      -1.584   5.682  11.704  1.00  0.00     0.043 C 
HETATM    3  C14 UNL     1      -0.557   3.411  11.298  1.00  0.00    -0.024 C 
ENDROOT
BRANCH   3   4
HETATM    4  C15 UNL     1      -1.822   2.729  10.856  1.00  0.00     0.030 C 
BRANCH   4   5
HETATM    5  C16 UNL     1      -2.906   2.551  11.934  1.00  0.00     0.042 C 
BRANCH   5   6
HETATM    6  C17 UNL     1      -4.335   3.089  11.639  1.00  0.00     0.065 C 
HETATM    7  C18 UNL     1      -4.474   3.517  10.168  1.00  0.00     0.046 C 
HETATM    8  C19 UNL     1      -5.319   1.957  12.005  1.00  0.00     0.043 C 
HETATM    9  C20 UNL     1      -6.763   2.416  11.904  1.00  0.00     0.044 C 
HETATM   10  C21 UNL     1      -6.930   3.751  12.564  1.00  0.00    -0.021 A 
HETATM   11  C22 UNL     1      -8.216   4.187  12.918  1.00  0.00     0.046 A 
HETATM   12  C27 UNL     1      -5.827   4.582  12.802  1.00  0.00     0.082 A 
HETATM   13  C23 UNL     1      -8.384   5.429  13.520  1.00  0.00     0.066 A 
HETATM   14  C24 UNL     1      -7.294   6.249  13.775  1.00  0.00     0.046 A 
HETATM   15  C25 UNL     1      -6.004   5.831  13.422  1.00  0.00    -0.025 A 
HETATM   16  C26 UNL     1      -4.830   6.727  13.686  1.00  0.00     0.051 C 
HETATM   17  O3  UNL     1      -4.539   4.238  12.482  1.00  0.00    -0.340 OA
BRANCH  13  18
HETATM   18  O2  UNL     1      -9.619   5.881  13.883  1.00  0.00    -0.361 OA
HETATM   19  H36 UNL     1     -10.272   5.192  13.682  1.00  0.00     0.217 HD
ENDBRANCH  13  18
ENDBRANCH   5   6
ENDBRANCH   4   5
ENDBRANCH   3   4
BRANCH   1  20
HETATM   20  C11 UNL     1       0.923   5.296  12.008  1.00  0.00     0.034 C 
BRANCH  20  21
HETATM   21  C10 UNL     1       2.015   4.922  10.992  1.00  0.00     0.014 C 
BRANCH  21  22
HETATM   22  C9  UNL     1       2.905   6.125  10.578  1.00  0.00     0.024 C 
HETATM   23  C2  UNL     1       3.215   7.159  11.656  1.00  0.00    -0.084 C 
HETATM   24  C1  UNL     1       2.524   7.347  12.791  1.00  0.00     0.015 C 
HETATM   25  C3  UNL     1       4.379   8.066  11.307  1.00  0.00     0.036 C 
HETATM   26  C4  UNL     1       4.439   8.363   9.805  1.00  0.00     0.037 C 
HETATM   27  C5  UNL     1       3.047   8.302   9.176  1.00  0.00     0.127 C 
HETATM   28  C6  UNL     1       2.406   6.870   9.273  1.00  0.00    -0.014 C 
HETATM   29  C7  UNL     1       2.784   6.014   8.039  1.00  0.00     0.018 C 
HETATM   30  C8  UNL     1       0.871   7.050   9.253  1.00  0.00     0.018 C 
BRANCH  27  31
HETATM   31  O1  UNL     1       3.105   8.778   7.833  1.00  0.00    -0.395 OA
HETATM   32  H8  UNL     1       3.831   8.318   7.379  1.00  0.00     0.210 HD
ENDBRANCH  27  31
ENDBRANCH  21  22
ENDBRANCH  20  21
ENDBRANCH   1  20
TORSDOF 8
ENDMDL
