MODEL 1
REMARK minimizedAffinity -7.85835218
REMARK CNNscore 0.539553702
REMARK CNNaffinity 6.69885874
REMARK  11 active torsions:
REMARK  status: ('A' for Active; 'I' for Inactive)
REMARK    1  A    between atoms: C2_2  and  C4_4 
REMARK    2  A    between atoms: C5_5  and  C6_6 
REMARK    3  A    between atoms: C6_6  and  C7_7 
REMARK    4  A    between atoms: C7_7  and  C9_9 
REMARK    5  A    between atoms: C27_28  and  O2_29 
REMARK    6  A    between atoms: O2_29  and  C28_30 
REMARK    7  A    between atoms: C29_32  and  C30_33 
REMARK    8  A    between atoms: C30_33  and  O4_34 
REMARK    9  A    between atoms: C31_35  and  O5_36 
REMARK   10  A    between atoms: C32_37  and  O6_38 
REMARK   11  A    between atoms: C33_39  and  O7_40 
ROOT
HETATM    1  C9  UNL     1     -17.441  -2.725  12.646  1.00  0.00    -0.002 C 
HETATM    2  C10 UNL     1     -17.323  -3.107  11.133  1.00  0.00     0.006 C 
HETATM    3  C11 UNL     1     -16.035  -3.940  10.959  1.00  0.00     0.011 C 
HETATM    4  C12 UNL     1     -15.620  -4.304  12.396  1.00  0.00    -0.029 C 
HETATM    5  C13 UNL     1     -16.516  -5.524  12.793  1.00  0.00     0.016 C 
HETATM    6  C14 UNL     1     -14.106  -4.640  12.590  1.00  0.00     0.028 C 
HETATM    7  C15 UNL     1     -13.661  -5.857  11.803  1.00  0.00    -0.021 C 
HETATM    8  C16 UNL     1     -12.986  -6.867  12.380  1.00  0.00     0.008 C 
HETATM    9  C17 UNL     1     -12.655  -6.857  13.868  1.00  0.00     0.092 C 
HETATM   10  O1  UNL     1     -11.571  -5.905  13.980  1.00  0.00    -0.374 OA
HETATM   11  C18 UNL     1     -12.135  -4.601  14.206  1.00  0.00     0.179 C 
HETATM   12  C19 UNL     1     -13.678  -4.726  14.125  1.00  0.00    -0.004 C 
HETATM   13  C20 UNL     1     -14.312  -3.587  14.968  1.00  0.00     0.014 C 
HETATM   14  C21 UNL     1     -15.773  -3.219  14.658  1.00  0.00     0.011 C 
HETATM   15  C22 UNL     1     -15.984  -2.969  13.154  1.00  0.00    -0.032 C 
HETATM   16  C23 UNL     1     -15.113  -1.740  12.734  1.00  0.00     0.016 C 
HETATM   17  C24 UNL     1     -13.833  -6.192  14.629  1.00  0.00     0.036 C 
HETATM   18  C25 UNL     1     -13.788  -6.452  16.145  1.00  0.00     0.011 C 
HETATM   19  C26 UNL     1     -12.424  -6.853  16.669  1.00  0.00     0.033 C 
HETATM   20  C27 UNL     1     -11.894  -8.133  16.008  1.00  0.00     0.136 C 
HETATM   21  C34 UNL     1     -12.202  -8.241  14.459  1.00  0.00     0.014 C 
HETATM   22  C35 UNL     1     -10.956  -8.788  13.712  1.00  0.00     0.021 C 
HETATM   23  C36 UNL     1     -13.330  -9.292  14.269  1.00  0.00     0.021 C 
ENDROOT
BRANCH  20  24
HETATM   24  O2  UNL     1     -10.487  -8.297  16.259  1.00  0.00    -0.352 OA
BRANCH  24  25
HETATM   25  C28 UNL     1     -10.152  -9.297  17.227  1.00  0.00     0.292 C 
HETATM   26  O3  UNL     1     -11.271 -10.152  17.455  1.00  0.00    -0.348 OA
HETATM   27  C29 UNL     1     -10.997 -11.172  18.432  1.00  0.00     0.179 C 
HETATM   28  C31 UNL     1     -10.647 -10.549  19.788  1.00  0.00     0.180 C 
HETATM   29  C32 UNL     1      -9.479  -9.575  19.620  1.00  0.00     0.183 C 
HETATM   30  C33 UNL     1      -9.781  -8.556  18.525  1.00  0.00     0.204 C 
BRANCH  27  31
HETATM   31  C30 UNL     1     -12.242 -12.058  18.529  1.00  0.00     0.198 C 
BRANCH  31  32
HETATM   32  O4  UNL     1     -11.890 -13.402  18.192  1.00  0.00    -0.398 OA
HETATM   33  H44 UNL     1     -11.409 -13.334  17.345  1.00  0.00     0.209 HD
ENDBRANCH  31  32
ENDBRANCH  27  31
BRANCH  28  34
HETATM   34  O5  UNL     1     -10.291 -11.555  20.738  1.00  0.00    -0.390 OA
HETATM   35  H46 UNL     1      -9.873 -11.077  21.483  1.00  0.00     0.210 HD
ENDBRANCH  28  34
BRANCH  29  36
HETATM   36  O6  UNL     1      -9.241  -8.913  20.872  1.00  0.00    -0.390 OA
HETATM   37  H48 UNL     1      -8.618  -8.187  20.660  1.00  0.00     0.210 HD
ENDBRANCH  29  36
BRANCH  30  38
HETATM   38  O7  UNL     1      -8.629  -7.718  18.338  1.00  0.00    -0.388 OA
HETATM   39  H50 UNL     1      -8.861  -7.131  17.590  1.00  0.00     0.210 HD
ENDBRANCH  30  38
ENDBRANCH  24  25
ENDBRANCH  20  24
BRANCH   1  40
HETATM   40  C7  UNL     1     -18.127  -1.334  12.847  1.00  0.00    -0.010 C 
HETATM   41  C8  UNL     1     -17.963  -0.443  11.609  1.00  0.00     0.010 C 
BRANCH  40  42
HETATM   42  C6  UNL     1     -17.531  -0.618  14.094  1.00  0.00     0.031 C 
BRANCH  42  43
HETATM   43  C5  UNL     1     -17.531   0.892  14.156  1.00  0.00    -0.026 C 
HETATM   44  C4  UNL     1     -16.490   1.727  13.992  1.00  0.00     0.002 C 
BRANCH  44  45
HETATM   45  C2  UNL     1     -16.545   3.183  14.038  1.00  0.00    -0.072 C 
HETATM   46  C1  UNL     1     -17.543   3.829  13.412  1.00  0.00     0.018 C 
HETATM   47  C3  UNL     1     -15.495   3.947  14.801  1.00  0.00     0.047 C 
ENDBRANCH  44  45
ENDBRANCH  42  43
ENDBRANCH  40  42
ENDBRANCH   1  40
TORSDOF 11
ENDMDL
MODEL 2
REMARK minimizedAffinity -9.46895313
REMARK CNNscore 0.413527071
REMARK CNNaffinity 7.13796234
REMARK  11 active torsions:
REMARK  status: ('A' for Active; 'I' for Inactive)
REMARK    1  A    between atoms: C2_2  and  C4_4 
REMARK    2  A    between atoms: C5_5  and  C6_6 
REMARK    3  A    between atoms: C6_6  and  C7_7 
REMARK    4  A    between atoms: C7_7  and  C9_9 
REMARK    5  A    between atoms: C27_28  and  O2_29 
REMARK    6  A    between atoms: O2_29  and  C28_30 
REMARK    7  A    between atoms: C29_32  and  C30_33 
REMARK    8  A    between atoms: C30_33  and  O4_34 
REMARK    9  A    between atoms: C31_35  and  O5_36 
REMARK   10  A    between atoms: C32_37  and  O6_38 
REMARK   11  A    between atoms: C33_39  and  O7_40 
ROOT
HETATM    1  C9  UNL     1      -5.634   6.809  14.918  1.00  0.00    -0.002 C 
HETATM    2  C10 UNL     1      -6.103   7.275  13.500  1.00  0.00     0.006 C 
HETATM    3  C11 UNL     1      -4.931   8.035  12.845  1.00  0.00     0.011 C 
HETATM    4  C12 UNL     1      -3.719   7.709  13.737  1.00  0.00    -0.029 C 
HETATM    5  C13 UNL     1      -3.233   6.293  13.280  1.00  0.00     0.016 C 
HETATM    6  C14 UNL     1      -2.549   8.744  13.681  1.00  0.00     0.028 C 
HETATM    7  C15 UNL     1      -1.920   8.857  12.305  1.00  0.00    -0.021 C 
HETATM    8  C16 UNL     1      -0.592   8.767  12.122  1.00  0.00     0.008 C 
HETATM    9  C17 UNL     1       0.358   8.517  13.288  1.00  0.00     0.092 C 
HETATM   10  O1  UNL     1       0.414   9.790  13.975  1.00  0.00    -0.374 OA
HETATM   11  C18 UNL     1      -0.627   9.815  14.967  1.00  0.00     0.179 C 
HETATM   12  C19 UNL     1      -1.458   8.516  14.823  1.00  0.00    -0.004 C 
HETATM   13  C20 UNL     1      -2.113   8.192  16.193  1.00  0.00     0.014 C 
HETATM   14  C21 UNL     1      -3.334   7.256  16.179  1.00  0.00     0.011 C 
HETATM   15  C22 UNL     1      -4.392   7.725  15.163  1.00  0.00    -0.032 C 
HETATM   16  C23 UNL     1      -4.910   9.132  15.609  1.00  0.00     0.016 C 
HETATM   17  C24 UNL     1      -0.341   7.565  14.296  1.00  0.00     0.036 C 
HETATM   18  C25 UNL     1       0.635   6.952  15.314  1.00  0.00     0.011 C 
HETATM   19  C26 UNL     1       1.934   7.717  15.473  1.00  0.00     0.033 C 
HETATM   20  C27 UNL     1       2.715   7.828  14.157  1.00  0.00     0.136 C 
HETATM   21  C34 UNL     1       1.810   8.075  12.882  1.00  0.00     0.014 C 
HETATM   22  C35 UNL     1       2.479   9.130  11.959  1.00  0.00     0.021 C 
HETATM   23  C36 UNL     1       1.753   6.750  12.073  1.00  0.00     0.021 C 
ENDROOT
BRANCH  20  24
HETATM   24  O2  UNL     1       3.744   8.829  14.252  1.00  0.00    -0.352 OA
BRANCH  24  25
HETATM   25  C28 UNL     1       5.028   8.348  14.664  1.00  0.00     0.292 C 
HETATM   26  O3  UNL     1       5.714   9.357  15.403  1.00  0.00    -0.348 OA
HETATM   27  C29 UNL     1       7.020   8.934  15.835  1.00  0.00     0.179 C 
HETATM   28  C31 UNL     1       7.910   8.600  14.632  1.00  0.00     0.180 C 
HETATM   29  C32 UNL     1       7.218   7.553  13.757  1.00  0.00     0.183 C 
HETATM   30  C33 UNL     1       5.811   8.009  13.383  1.00  0.00     0.204 C 
BRANCH  27  31
HETATM   31  C30 UNL     1       7.615  10.070  16.671  1.00  0.00     0.198 C 
BRANCH  31  32
HETATM   32  O4  UNL     1       7.431   9.778  18.059  1.00  0.00    -0.398 OA
HETATM   33  H44 UNL     1       6.485   9.555  18.148  1.00  0.00     0.209 HD
ENDBRANCH  31  32
ENDBRANCH  27  31
BRANCH  28  34
HETATM   34  O5  UNL     1       9.178   8.098  15.057  1.00  0.00    -0.390 OA
HETATM   35  H46 UNL     1       9.586   7.705  14.258  1.00  0.00     0.210 HD
ENDBRANCH  28  34
BRANCH  29  36
HETATM   36  O6  UNL     1       8.008   7.338  12.576  1.00  0.00    -0.390 OA
HETATM   37  H48 UNL     1       7.436   6.808  11.983  1.00  0.00     0.210 HD
ENDBRANCH  29  36
BRANCH  30  38
HETATM   38  O7  UNL     1       5.166   6.963  12.638  1.00  0.00    -0.388 OA
HETATM   39  H50 UNL     1       4.256   7.288  12.481  1.00  0.00     0.210 HD
ENDBRANCH  30  38
ENDBRANCH  24  25
ENDBRANCH  20  24
BRANCH   1  40
HETATM   40  C7  UNL     1      -6.812   6.780  15.946  1.00  0.00    -0.010 C 
HETATM   41  C8  UNL     1      -7.488   5.403  15.986  1.00  0.00     0.010 C 
BRANCH  40  42
HETATM   42  C6  UNL     1      -7.862   7.872  15.590  1.00  0.00     0.031 C 
BRANCH  42  43
HETATM   43  C5  UNL     1      -9.045   7.512  14.721  1.00  0.00    -0.026 C 
HETATM   44  C4  UNL     1     -10.335   7.848  14.897  1.00  0.00     0.002 C 
BRANCH  44  45
HETATM   45  C2  UNL     1     -11.439   7.495  14.015  1.00  0.00    -0.072 C 
HETATM   46  C1  UNL     1     -11.597   8.151  12.854  1.00  0.00     0.018 C 
HETATM   47  C3  UNL     1     -12.382   6.386  14.405  1.00  0.00     0.047 C 
ENDBRANCH  44  45
ENDBRANCH  42  43
ENDBRANCH  40  42
ENDBRANCH   1  40
TORSDOF 11
ENDMDL
MODEL 3
REMARK minimizedAffinity -7.8515625
REMARK CNNscore 0.404799044
REMARK CNNaffinity 6.7463851
REMARK  11 active torsions:
REMARK  status: ('A' for Active; 'I' for Inactive)
REMARK    1  A    between atoms: C2_2  and  C4_4 
REMARK    2  A    between atoms: C5_5  and  C6_6 
REMARK    3  A    between atoms: C6_6  and  C7_7 
REMARK    4  A    between atoms: C7_7  and  C9_9 
REMARK    5  A    between atoms: C27_28  and  O2_29 
REMARK    6  A    between atoms: O2_29  and  C28_30 
REMARK    7  A    between atoms: C29_32  and  C30_33 
REMARK    8  A    between atoms: C30_33  and  O4_34 
REMARK    9  A    between atoms: C31_35  and  O5_36 
REMARK   10  A    between atoms: C32_37  and  O6_38 
REMARK   11  A    between atoms: C33_39  and  O7_40 
ROOT
HETATM    1  C9  UNL     1      -3.008  13.185  18.335  1.00  0.00    -0.002 C 
HETATM    2  C10 UNL     1      -4.535  13.259  18.004  1.00  0.00     0.006 C 
HETATM    3  C11 UNL     1      -4.802  12.316  16.812  1.00  0.00     0.011 C 
HETATM    4  C12 UNL     1      -3.519  11.474  16.697  1.00  0.00    -0.029 C 
HETATM    5  C13 UNL     1      -3.653  10.357  17.785  1.00  0.00     0.016 C 
HETATM    6  C14 UNL     1      -3.252  10.850  15.289  1.00  0.00     0.028 C 
HETATM    7  C15 UNL     1      -4.326   9.868  14.861  1.00  0.00    -0.021 C 
HETATM    8  C16 UNL     1      -4.024   8.635  14.419  1.00  0.00     0.008 C 
HETATM    9  C17 UNL     1      -2.583   8.143  14.351  1.00  0.00     0.092 C 
HETATM   10  O1  UNL     1      -2.033   8.824  13.199  1.00  0.00    -0.374 OA
HETATM   11  C18 UNL     1      -1.473  10.075  13.636  1.00  0.00     0.179 C 
HETATM   12  C19 UNL     1      -1.786  10.237  15.145  1.00  0.00    -0.004 C 
HETATM   13  C20 UNL     1      -0.709  11.160  15.777  1.00  0.00     0.014 C 
HETATM   14  C21 UNL     1      -1.067  11.840  17.110  1.00  0.00     0.011 C 
HETATM   15  C22 UNL     1      -2.425  12.561  17.027  1.00  0.00    -0.032 C 
HETATM   16  C23 UNL     1      -2.312  13.697  15.958  1.00  0.00     0.016 C 
HETATM   17  C24 UNL     1      -1.804   8.734  15.557  1.00  0.00     0.036 C 
HETATM   18  C25 UNL     1      -0.460   8.029  15.805  1.00  0.00     0.011 C 
HETATM   19  C26 UNL     1       0.076   7.268  14.608  1.00  0.00     0.033 C 
HETATM   20  C27 UNL     1      -0.889   6.176  14.126  1.00  0.00     0.136 C 
HETATM   21  C34 UNL     1      -2.416   6.591  14.173  1.00  0.00     0.014 C 
HETATM   22  C35 UNL     1      -3.135   6.094  12.889  1.00  0.00     0.021 C 
HETATM   23  C36 UNL     1      -3.076   5.847  15.366  1.00  0.00     0.021 C 
ENDROOT
BRANCH  20  24
HETATM   24  O2  UNL     1      -0.528   5.714  12.813  1.00  0.00    -0.352 OA
BRANCH  24  25
HETATM   25  C28 UNL     1       0.848   5.895  12.459  1.00  0.00     0.292 C 
HETATM   26  O3  UNL     1       1.130   7.283  12.287  1.00  0.00    -0.348 OA
HETATM   27  C29 UNL     1       2.499   7.527  11.917  1.00  0.00     0.179 C 
HETATM   28  C31 UNL     1       2.832   6.852  10.582  1.00  0.00     0.180 C 
HETATM   29  C32 UNL     1       2.508   5.358  10.668  1.00  0.00     0.183 C 
HETATM   30  C33 UNL     1       1.071   5.144  11.133  1.00  0.00     0.204 C 
BRANCH  27  31
HETATM   31  C30 UNL     1       2.687   9.044  11.836  1.00  0.00     0.198 C 
BRANCH  31  32
HETATM   32  O4  UNL     1       1.901   9.670  12.855  1.00  0.00    -0.398 OA
HETATM   33  H44 UNL     1       1.009   9.286  12.759  1.00  0.00     0.209 HD
ENDBRANCH  31  32
ENDBRANCH  27  31
BRANCH  28  34
HETATM   34  O5  UNL     1       4.211   7.019  10.253  1.00  0.00    -0.390 OA
HETATM   35  H46 UNL     1       4.388   6.384   9.528  1.00  0.00     0.210 HD
ENDBRANCH  28  34
BRANCH  29  36
HETATM   36  O6  UNL     1       2.714   4.763   9.377  1.00  0.00    -0.390 OA
HETATM   37  H48 UNL     1       2.324   3.866   9.447  1.00  0.00     0.210 HD
ENDBRANCH  29  36
BRANCH  30  38
HETATM   38  O7  UNL     1       0.837   3.734  11.286  1.00  0.00    -0.388 OA
HETATM   39  H50 UNL     1      -0.073   3.666  11.641  1.00  0.00     0.210 HD
ENDBRANCH  30  38
ENDBRANCH  24  25
ENDBRANCH  20  24
BRANCH   1  40
HETATM   40  C7  UNL     1      -2.458  14.544  18.878  1.00  0.00    -0.010 C 
HETATM   41  C8  UNL     1      -0.925  14.595  18.813  1.00  0.00     0.010 C 
BRANCH  40  42
HETATM   42  C6  UNL     1      -2.931  14.768  20.344  1.00  0.00     0.031 C 
BRANCH  42  43
HETATM   43  C5  UNL     1      -4.410  14.820  20.649  1.00  0.00    -0.026 C 
HETATM   44  C4  UNL     1      -5.111  14.033  21.484  1.00  0.00     0.002 C 
BRANCH  44  45
HETATM   45  C2  UNL     1      -6.538  14.138  21.763  1.00  0.00    -0.072 C 
HETATM   46  C1  UNL     1      -7.140  13.196  22.507  1.00  0.00     0.018 C 
HETATM   47  C3  UNL     1      -7.319  15.311  21.230  1.00  0.00     0.047 C 
ENDBRANCH  44  45
ENDBRANCH  42  43
ENDBRANCH  40  42
ENDBRANCH   1  40
TORSDOF 11
ENDMDL
MODEL 4
REMARK minimizedAffinity -8.48149681
REMARK CNNscore 0.4044756
REMARK CNNaffinity 7.16675711
REMARK  11 active torsions:
REMARK  status: ('A' for Active; 'I' for Inactive)
REMARK    1  A    between atoms: C2_2  and  C4_4 
REMARK    2  A    between atoms: C5_5  and  C6_6 
REMARK    3  A    between atoms: C6_6  and  C7_7 
REMARK    4  A    between atoms: C7_7  and  C9_9 
REMARK    5  A    between atoms: C27_28  and  O2_29 
REMARK    6  A    between atoms: O2_29  and  C28_30 
REMARK    7  A    between atoms: C29_32  and  C30_33 
REMARK    8  A    between atoms: C30_33  and  O4_34 
REMARK    9  A    between atoms: C31_35  and  O5_36 
REMARK   10  A    between atoms: C32_37  and  O6_38 
REMARK   11  A    between atoms: C33_39  and  O7_40 
ROOT
HETATM    1  C9  UNL     1      -5.708   6.550  14.543  1.00  0.00    -0.002 C 
HETATM    2  C10 UNL     1      -6.133   7.316  13.246  1.00  0.00     0.006 C 
HETATM    3  C11 UNL     1      -4.966   8.242  12.845  1.00  0.00     0.011 C 
HETATM    4  C12 UNL     1      -3.782   7.757  13.700  1.00  0.00    -0.029 C 
HETATM    5  C13 UNL     1      -3.219   6.499  12.958  1.00  0.00     0.016 C 
HETATM    6  C14 UNL     1      -2.655   8.811  13.944  1.00  0.00     0.028 C 
HETATM    7  C15 UNL     1      -1.971   9.257  12.665  1.00  0.00    -0.021 C 
HETATM    8  C16 UNL     1      -0.634   9.252  12.537  1.00  0.00     0.008 C 
HETATM    9  C17 UNL     1       0.274   8.769  13.663  1.00  0.00     0.092 C 
HETATM   10  O1  UNL     1       0.246   9.850  14.624  1.00  0.00    -0.374 OA
HETATM   11  C18 UNL     1      -0.838   9.614  15.541  1.00  0.00     0.179 C 
HETATM   12  C19 UNL     1      -1.607   8.358  15.059  1.00  0.00    -0.004 C 
HETATM   13  C20 UNL     1      -2.308   7.708  16.282  1.00  0.00     0.014 C 
HETATM   14  C21 UNL     1      -3.487   6.764  15.991  1.00  0.00     0.011 C 
HETATM   15  C22 UNL     1      -4.517   7.422  15.056  1.00  0.00    -0.032 C 
HETATM   16  C23 UNL     1      -5.112   8.673  15.783  1.00  0.00     0.016 C 
HETATM   17  C24 UNL     1      -0.429   7.589  14.388  1.00  0.00     0.036 C 
HETATM   18  C25 UNL     1       0.526   6.787  15.289  1.00  0.00     0.011 C 
HETATM   19  C26 UNL     1       1.784   7.534  15.687  1.00  0.00     0.033 C 
HETATM   20  C27 UNL     1       2.617   7.969  14.473  1.00  0.00     0.136 C 
HETATM   21  C34 UNL     1       1.759   8.476  13.243  1.00  0.00     0.014 C 
HETATM   22  C35 UNL     1       2.424   9.735  12.622  1.00  0.00     0.021 C 
HETATM   23  C36 UNL     1       1.793   7.372  12.151  1.00  0.00     0.021 C 
ENDROOT
BRANCH  20  24
HETATM   24  O2  UNL     1       3.598   8.952  14.849  1.00  0.00    -0.352 OA
BRANCH  24  25
HETATM   25  C28 UNL     1       4.855   8.850  14.171  1.00  0.00     0.292 C 
HETATM   26  O3  UNL     1       4.741   7.963  13.060  1.00  0.00    -0.348 OA
HETATM   27  C29 UNL     1       5.981   7.810  12.345  1.00  0.00     0.179 C 
HETATM   28  C31 UNL     1       7.066   7.225  13.254  1.00  0.00     0.180 C 
HETATM   29  C32 UNL     1       7.217   8.099  14.502  1.00  0.00     0.183 C 
HETATM   30  C33 UNL     1       5.868   8.294  15.188  1.00  0.00     0.204 C 
BRANCH  27  31
HETATM   31  C30 UNL     1       5.707   6.899  11.145  1.00  0.00     0.198 C 
BRANCH  31  32
HETATM   32  O4  UNL     1       5.789   5.534  11.564  1.00  0.00    -0.398 OA
HETATM   33  H44 UNL     1       6.638   5.465  12.041  1.00  0.00     0.209 HD
ENDBRANCH  31  32
ENDBRANCH  27  31
BRANCH  28  34
HETATM   34  O5  UNL     1       8.320   7.152  12.574  1.00  0.00    -0.390 OA
HETATM   35  H46 UNL     1       8.988   6.990  13.272  1.00  0.00     0.210 HD
ENDBRANCH  28  34
BRANCH  29  36
HETATM   36  O6  UNL     1       8.151   7.475  15.397  1.00  0.00    -0.390 OA
HETATM   37  H48 UNL     1       8.069   7.974  16.237  1.00  0.00     0.210 HD
ENDBRANCH  29  36
BRANCH  30  38
HETATM   38  O7  UNL     1       6.037   9.190  16.300  1.00  0.00    -0.388 OA
HETATM   39  H50 UNL     1       5.135   9.321  16.658  1.00  0.00     0.210 HD
ENDBRANCH  30  38
ENDBRANCH  24  25
ENDBRANCH  20  24
BRANCH   1  40
HETATM   40  C7  UNL     1      -6.928   6.250  15.474  1.00  0.00    -0.010 C 
HETATM   41  C8  UNL     1      -6.832   4.847  16.089  1.00  0.00     0.010 C 
BRANCH  40  42
HETATM   42  C6  UNL     1      -8.258   6.385  14.676  1.00  0.00     0.031 C 
BRANCH  42  43
HETATM   43  C5  UNL     1      -9.252   7.456  15.062  1.00  0.00    -0.026 C 
HETATM   44  C4  UNL     1      -9.005   8.742  15.371  1.00  0.00     0.002 C 
BRANCH  44  45
HETATM   45  C2  UNL     1     -10.004   9.745  15.715  1.00  0.00    -0.072 C 
HETATM   46  C1  UNL     1     -10.627   9.682  16.903  1.00  0.00     0.018 C 
HETATM   47  C3  UNL     1     -10.315  10.854  14.743  1.00  0.00     0.047 C 
ENDBRANCH  44  45
ENDBRANCH  42  43
ENDBRANCH  40  42
ENDBRANCH   1  40
TORSDOF 11
ENDMDL
MODEL 5
REMARK minimizedAffinity -7.87755871
REMARK CNNscore 0.390884668
REMARK CNNaffinity 6.87603331
REMARK  11 active torsions:
REMARK  status: ('A' for Active; 'I' for Inactive)
REMARK    1  A    between atoms: C2_2  and  C4_4 
REMARK    2  A    between atoms: C5_5  and  C6_6 
REMARK    3  A    between atoms: C6_6  and  C7_7 
REMARK    4  A    between atoms: C7_7  and  C9_9 
REMARK    5  A    between atoms: C27_28  and  O2_29 
REMARK    6  A    between atoms: O2_29  and  C28_30 
REMARK    7  A    between atoms: C29_32  and  C30_33 
REMARK    8  A    between atoms: C30_33  and  O4_34 
REMARK    9  A    between atoms: C31_35  and  O5_36 
REMARK   10  A    between atoms: C32_37  and  O6_38 
REMARK   11  A    between atoms: C33_39  and  O7_40 
ROOT
HETATM    1  C9  UNL     1       0.096   6.776  13.009  1.00  0.00    -0.002 C 
HETATM    2  C10 UNL     1       1.570   7.278  12.862  1.00  0.00     0.006 C 
HETATM    3  C11 UNL     1       1.653   8.681  13.500  1.00  0.00     0.011 C 
HETATM    4  C12 UNL     1       0.339   8.820  14.289  1.00  0.00    -0.029 C 
HETATM    5  C13 UNL     1       0.572   8.047  15.630  1.00  0.00     0.016 C 
HETATM    6  C14 UNL     1      -0.125  10.286  14.566  1.00  0.00     0.028 C 
HETATM    7  C15 UNL     1       0.853  11.068  15.422  1.00  0.00    -0.021 C 
HETATM    8  C16 UNL     1       0.458  11.739  16.517  1.00  0.00     0.008 C 
HETATM    9  C17 UNL     1      -0.997  11.731  16.976  1.00  0.00     0.092 C 
HETATM   10  O1  UNL     1      -1.665  12.611  16.042  1.00  0.00    -0.374 OA
HETATM   11  C18 UNL     1      -2.124  11.826  14.927  1.00  0.00     0.179 C 
HETATM   12  C19 UNL     1      -1.617  10.375  15.124  1.00  0.00    -0.004 C 
HETATM   13  C20 UNL     1      -2.574   9.411  14.373  1.00  0.00     0.014 C 
HETATM   14  C21 UNL     1      -2.028   8.015  14.024  1.00  0.00     0.011 C 
HETATM   15  C22 UNL     1      -0.669   8.106  13.307  1.00  0.00    -0.032 C 
HETATM   16  C23 UNL     1      -0.878   8.858  11.952  1.00  0.00     0.016 C 
HETATM   17  C24 UNL     1      -1.596  10.329  16.681  1.00  0.00     0.036 C 
HETATM   18  C25 UNL     1      -2.920  10.078  17.422  1.00  0.00     0.011 C 
HETATM   19  C26 UNL     1      -3.628  11.338  17.880  1.00  0.00     0.033 C 
HETATM   20  C27 UNL     1      -2.769  12.182  18.831  1.00  0.00     0.136 C 
HETATM   21  C34 UNL     1      -1.235  12.241  18.442  1.00  0.00     0.014 C 
HETATM   22  C35 UNL     1      -0.702  13.688  18.626  1.00  0.00     0.021 C 
HETATM   23  C36 UNL     1      -0.455  11.349  19.447  1.00  0.00     0.021 C 
ENDROOT
BRANCH  20  24
HETATM   24  O2  UNL     1      -3.309  13.508  18.971  1.00  0.00    -0.352 OA
BRANCH  24  25
HETATM   25  C28 UNL     1      -4.193  13.692  20.083  1.00  0.00     0.292 C 
HETATM   26  O3  UNL     1      -5.548  13.550  19.659  1.00  0.00    -0.348 OA
HETATM   27  C29 UNL     1      -6.485  13.738  20.735  1.00  0.00     0.179 C 
HETATM   28  C31 UNL     1      -6.364  15.147  21.324  1.00  0.00     0.180 C 
HETATM   29  C32 UNL     1      -4.919  15.399  21.760  1.00  0.00     0.183 C 
HETATM   30  C33 UNL     1      -3.953  15.118  20.613  1.00  0.00     0.204 C 
BRANCH  27  31
HETATM   31  C30 UNL     1      -7.886  13.488  20.168  1.00  0.00     0.198 C 
BRANCH  31  32
HETATM   32  O4  UNL     1      -8.753  13.072  21.227  1.00  0.00    -0.398 OA
HETATM   33  H44 UNL     1      -8.276  12.348  21.676  1.00  0.00     0.209 HD
ENDBRANCH  31  32
ENDBRANCH  27  31
BRANCH  28  34
HETATM   34  O5  UNL     1      -7.232  15.311  22.446  1.00  0.00    -0.390 OA
HETATM   35  H46 UNL     1      -6.936  16.131  22.891  1.00  0.00     0.210 HD
ENDBRANCH  28  34
BRANCH  29  36
HETATM   36  O6  UNL     1      -4.796  16.761  22.200  1.00  0.00    -0.390 OA
HETATM   37  H48 UNL     1      -3.832  16.911  22.291  1.00  0.00     0.210 HD
ENDBRANCH  29  36
BRANCH  30  38
HETATM   38  O7  UNL     1      -2.607  15.280  21.088  1.00  0.00    -0.388 OA
HETATM   39  H50 UNL     1      -2.039  15.029  20.330  1.00  0.00     0.210 HD
ENDBRANCH  30  38
ENDBRANCH  24  25
ENDBRANCH  20  24
BRANCH   1  40
HETATM   40  C7  UNL     1      -0.336   5.866  11.813  1.00  0.00    -0.010 C 
HETATM   41  C8  UNL     1      -0.900   4.526  12.303  1.00  0.00     0.010 C 
BRANCH  40  42
HETATM   42  C6  UNL     1       0.874   5.613  10.867  1.00  0.00     0.031 C 
BRANCH  42  43
HETATM   43  C5  UNL     1       1.110   6.539   9.696  1.00  0.00    -0.026 C 
HETATM   44  C4  UNL     1       2.186   6.598   8.891  1.00  0.00     0.002 C 
BRANCH  44  45
HETATM   45  C2  UNL     1       2.356   7.496   7.756  1.00  0.00    -0.072 C 
HETATM   46  C1  UNL     1       3.009   8.658   7.922  1.00  0.00     0.018 C 
HETATM   47  C3  UNL     1       1.816   7.105   6.406  1.00  0.00     0.047 C 
ENDBRANCH  44  45
ENDBRANCH  42  43
ENDBRANCH  40  42
ENDBRANCH   1  40
TORSDOF 11
ENDMDL
MODEL 6
REMARK minimizedAffinity -8.54001713
REMARK CNNscore 0.352321833
REMARK CNNaffinity 6.57164145
REMARK  11 active torsions:
REMARK  status: ('A' for Active; 'I' for Inactive)
REMARK    1  A    between atoms: C2_2  and  C4_4 
REMARK    2  A    between atoms: C5_5  and  C6_6 
REMARK    3  A    between atoms: C6_6  and  C7_7 
REMARK    4  A    between atoms: C7_7  and  C9_9 
REMARK    5  A    between atoms: C27_28  and  O2_29 
REMARK    6  A    between atoms: O2_29  and  C28_30 
REMARK    7  A    between atoms: C29_32  and  C30_33 
REMARK    8  A    between atoms: C30_33  and  O4_34 
REMARK    9  A    between atoms: C31_35  and  O5_36 
REMARK   10  A    between atoms: C32_37  and  O6_38 
REMARK   11  A    between atoms: C33_39  and  O7_40 
ROOT
HETATM    1  C9  UNL     1       0.692  12.318  19.832  1.00  0.00    -0.002 C 
HETATM    2  C10 UNL     1      -0.443  13.381  19.659  1.00  0.00     0.006 C 
HETATM    3  C11 UNL     1      -1.149  13.097  18.316  1.00  0.00     0.011 C 
HETATM    4  C12 UNL     1      -0.645  11.702  17.907  1.00  0.00    -0.029 C 
HETATM    5  C13 UNL     1      -1.508  10.688  18.730  1.00  0.00     0.016 C 
HETATM    6  C14 UNL     1      -0.720  11.384  16.379  1.00  0.00     0.028 C 
HETATM    7  C15 UNL     1      -2.138  11.390  15.839  1.00  0.00    -0.021 C 
HETATM    8  C16 UNL     1      -2.624  10.370  15.112  1.00  0.00     0.008 C 
HETATM    9  C17 UNL     1      -1.785   9.133  14.812  1.00  0.00     0.092 C 
HETATM   10  O1  UNL     1      -0.856   9.577  13.796  1.00  0.00    -0.374 OA
HETATM   11  C18 UNL     1       0.321  10.086  14.448  1.00  0.00     0.179 C 
HETATM   12  C19 UNL     1       0.071  10.058  15.977  1.00  0.00    -0.004 C 
HETATM   13  C20 UNL     1       1.440   9.958  16.701  1.00  0.00     0.014 C 
HETATM   14  C21 UNL     1       1.483  10.391  18.177  1.00  0.00     0.011 C 
HETATM   15  C22 UNL     1       0.860  11.785  18.373  1.00  0.00    -0.032 C 
HETATM   16  C23 UNL     1       1.717  12.822  17.575  1.00  0.00     0.016 C 
HETATM   17  C24 UNL     1      -0.892   8.834  16.047  1.00  0.00     0.036 C 
HETATM   18  C25 UNL     1      -0.282   7.423  16.015  1.00  0.00     0.011 C 
HETATM   19  C26 UNL     1      -0.243   6.790  14.639  1.00  0.00     0.033 C 
HETATM   20  C27 UNL     1      -1.638   6.658  14.013  1.00  0.00     0.136 C 
HETATM   21  C34 UNL     1      -2.591   7.893  14.282  1.00  0.00     0.014 C 
HETATM   22  C35 UNL     1      -3.373   8.245  12.988  1.00  0.00     0.021 C 
HETATM   23  C36 UNL     1      -3.647   7.459  15.335  1.00  0.00     0.021 C 
ENDROOT
BRANCH  20  24
HETATM   24  O2  UNL     1      -1.546   6.384  12.604  1.00  0.00    -0.352 OA
BRANCH  24  25
HETATM   25  C28 UNL     1      -0.243   6.549  12.034  1.00  0.00     0.292 C 
HETATM   26  O3  UNL     1      -0.323   7.339  10.849  1.00  0.00    -0.348 OA
HETATM   27  C29 UNL     1       0.959   7.528  10.223  1.00  0.00     0.179 C 
HETATM   28  C31 UNL     1       1.565   6.184   9.804  1.00  0.00     0.180 C 
HETATM   29  C32 UNL     1       1.640   5.255  11.018  1.00  0.00     0.183 C 
HETATM   30  C33 UNL     1       0.277   5.140  11.694  1.00  0.00     0.204 C 
BRANCH  27  31
HETATM   31  C30 UNL     1       0.747   8.445   9.015  1.00  0.00     0.198 C 
BRANCH  31  32
HETATM   32  O4  UNL     1       2.019   8.802   8.467  1.00  0.00    -0.398 OA
HETATM   33  H44 UNL     1       2.544   9.116   9.228  1.00  0.00     0.209 HD
ENDBRANCH  31  32
ENDBRANCH  27  31
BRANCH  28  34
HETATM   34  O5  UNL     1       2.874   6.359   9.260  1.00  0.00    -0.390 OA
HETATM   35  H46 UNL     1       3.269   5.464   9.233  1.00  0.00     0.210 HD
ENDBRANCH  28  34
BRANCH  29  36
HETATM   36  O6  UNL     1       2.099   3.963  10.587  1.00  0.00    -0.390 OA
HETATM   37  H48 UNL     1       1.955   3.374  11.357  1.00  0.00     0.210 HD
ENDBRANCH  29  36
BRANCH  30  38
HETATM   38  O7  UNL     1       0.411   4.333  12.875  1.00  0.00    -0.388 OA
HETATM   39  H50 UNL     1      -0.475   4.347  13.293  1.00  0.00     0.210 HD
ENDBRANCH  30  38
ENDBRANCH  24  25
ENDBRANCH  20  24
BRANCH   1  40
HETATM   40  C7  UNL     1       1.920  12.892  20.611  1.00  0.00    -0.010 C 
HETATM   41  C8  UNL     1       2.613  14.011  19.821  1.00  0.00     0.010 C 
BRANCH  40  42
HETATM   42  C6  UNL     1       2.939  11.757  20.920  1.00  0.00     0.031 C 
BRANCH  42  43
HETATM   43  C5  UNL     1       4.329  12.112  21.394  1.00  0.00    -0.026 C 
HETATM   44  C4  UNL     1       4.677  12.836  22.473  1.00  0.00     0.002 C 
BRANCH  44  45
HETATM   45  C2  UNL     1       6.037  13.132  22.902  1.00  0.00    -0.072 C 
HETATM   46  C1  UNL     1       6.400  14.406  23.126  1.00  0.00     0.018 C 
HETATM   47  C3  UNL     1       7.018  12.007  23.107  1.00  0.00     0.047 C 
ENDBRANCH  44  45
ENDBRANCH  42  43
ENDBRANCH  40  42
ENDBRANCH   1  40
TORSDOF 11
ENDMDL
MODEL 7
REMARK minimizedAffinity -9.9962225
REMARK CNNscore 0.342230678
REMARK CNNaffinity 6.8772316
REMARK  11 active torsions:
REMARK  status: ('A' for Active; 'I' for Inactive)
REMARK    1  A    between atoms: C2_2  and  C4_4 
REMARK    2  A    between atoms: C5_5  and  C6_6 
REMARK    3  A    between atoms: C6_6  and  C7_7 
REMARK    4  A    between atoms: C7_7  and  C9_9 
REMARK    5  A    between atoms: C27_28  and  O2_29 
REMARK    6  A    between atoms: O2_29  and  C28_30 
REMARK    7  A    between atoms: C29_32  and  C30_33 
REMARK    8  A    between atoms: C30_33  and  O4_34 
REMARK    9  A    between atoms: C31_35  and  O5_36 
REMARK   10  A    between atoms: C32_37  and  O6_38 
REMARK   11  A    between atoms: C33_39  and  O7_40 
ROOT
HETATM    1  C9  UNL     1      -0.573  12.639  19.301  1.00  0.00    -0.002 C 
HETATM    2  C10 UNL     1      -1.620  13.765  19.015  1.00  0.00     0.006 C 
HETATM    3  C11 UNL     1      -2.398  13.369  17.742  1.00  0.00     0.011 C 
HETATM    4  C12 UNL     1      -2.029  11.892  17.514  1.00  0.00    -0.029 C 
HETATM    5  C13 UNL     1      -2.942  11.077  18.489  1.00  0.00     0.016 C 
HETATM    6  C14 UNL     1      -2.188  11.381  16.045  1.00  0.00     0.028 C 
HETATM    7  C15 UNL     1      -3.620  11.440  15.547  1.00  0.00    -0.021 C 
HETATM    8  C16 UNL     1      -4.217  10.379  14.979  1.00  0.00     0.008 C 
HETATM    9  C17 UNL     1      -3.496   9.044  14.828  1.00  0.00     0.092 C 
HETATM   10  O1  UNL     1      -2.572   9.265  13.737  1.00  0.00    -0.374 OA
HETATM   11  C18 UNL     1      -1.333   9.751  14.283  1.00  0.00     0.179 C 
HETATM   12  C19 UNL     1      -1.527   9.949  15.807  1.00  0.00    -0.004 C 
HETATM   13  C20 UNL     1      -0.144   9.826  16.502  1.00  0.00     0.014 C 
HETATM   14  C21 UNL     1      -0.009  10.446  17.903  1.00  0.00     0.011 C 
HETATM   15  C22 UNL     1      -0.506  11.904  17.924  1.00  0.00    -0.032 C 
HETATM   16  C23 UNL     1       0.405  12.746  16.971  1.00  0.00     0.016 C 
HETATM   17  C24 UNL     1      -2.585   8.835  16.068  1.00  0.00     0.036 C 
HETATM   18  C25 UNL     1      -2.097   7.384  16.213  1.00  0.00     0.011 C 
HETATM   19  C26 UNL     1      -2.163   6.572  14.935  1.00  0.00     0.033 C 
HETATM   20  C27 UNL     1      -3.588   6.481  14.369  1.00  0.00     0.136 C 
HETATM   21  C34 UNL     1      -4.423   7.820  14.493  1.00  0.00     0.014 C 
HETATM   22  C35 UNL     1      -5.221   8.064  13.184  1.00  0.00     0.021 C 
HETATM   23  C36 UNL     1      -5.471   7.626  15.622  1.00  0.00     0.021 C 
ENDROOT
BRANCH  20  24
HETATM   24  O2  UNL     1      -3.572   6.015  13.009  1.00  0.00    -0.352 OA
BRANCH  24  25
HETATM   25  C28 UNL     1      -3.215   4.639  12.839  1.00  0.00     0.292 C 
HETATM   26  O3  UNL     1      -1.976   4.538  12.138  1.00  0.00    -0.348 OA
HETATM   27  C29 UNL     1      -1.571   3.173  11.925  1.00  0.00     0.179 C 
HETATM   28  C31 UNL     1      -2.607   2.422  11.081  1.00  0.00     0.180 C 
HETATM   29  C32 UNL     1      -3.982   2.526  11.744  1.00  0.00     0.183 C 
HETATM   30  C33 UNL     1      -4.340   3.983  12.017  1.00  0.00     0.204 C 
BRANCH  27  31
HETATM   31  C30 UNL     1      -0.205   3.205  11.235  1.00  0.00     0.198 C 
BRANCH  31  32
HETATM   32  O4  UNL     1       0.285   1.868  11.102  1.00  0.00    -0.398 OA
HETATM   33  H44 UNL     1       0.201   1.476  11.992  1.00  0.00     0.209 HD
ENDBRANCH  31  32
ENDBRANCH  27  31
BRANCH  28  34
HETATM   34  O5  UNL     1      -2.252   1.046  10.939  1.00  0.00    -0.390 OA
HETATM   35  H46 UNL     1      -3.053   0.602  10.595  1.00  0.00     0.210 HD
ENDBRANCH  28  34
BRANCH  29  36
HETATM   36  O6  UNL     1      -4.960   1.920  10.884  1.00  0.00    -0.390 OA
HETATM   37  H48 UNL     1      -5.825   2.173  11.267  1.00  0.00     0.210 HD
ENDBRANCH  29  36
BRANCH  30  38
HETATM   38  O7  UNL     1      -5.594   4.031  12.718  1.00  0.00    -0.388 OA
HETATM   39  H50 UNL     1      -5.738   4.979  12.916  1.00  0.00     0.210 HD
ENDBRANCH  30  38
ENDBRANCH  24  25
ENDBRANCH  20  24
BRANCH   1  40
HETATM   40  C7  UNL     1       0.728  13.201  19.963  1.00  0.00    -0.010 C 
HETATM   41  C8  UNL     1       1.198  14.488  19.270  1.00  0.00     0.010 C 
BRANCH  40  42
HETATM   42  C6  UNL     1       1.859  12.134  19.914  1.00  0.00     0.031 C 
BRANCH  42  43
HETATM   43  C5  UNL     1       2.193  11.346  21.159  1.00  0.00    -0.026 C 
HETATM   44  C4  UNL     1       2.290  10.011  21.293  1.00  0.00     0.002 C 
BRANCH  44  45
HETATM   45  C2  UNL     1       2.639   9.297  22.514  1.00  0.00    -0.072 C 
HETATM   46  C1  UNL     1       2.200   8.041  22.698  1.00  0.00     0.018 C 
HETATM   47  C3  UNL     1       3.503   9.967  23.551  1.00  0.00     0.047 C 
ENDBRANCH  44  45
ENDBRANCH  42  43
ENDBRANCH  40  42
ENDBRANCH   1  40
TORSDOF 11
ENDMDL
MODEL 8
REMARK minimizedAffinity -7.8181901
REMARK CNNscore 0.330183864
REMARK CNNaffinity 6.62310839
REMARK  11 active torsions:
REMARK  status: ('A' for Active; 'I' for Inactive)
REMARK    1  A    between atoms: C2_2  and  C4_4 
REMARK    2  A    between atoms: C5_5  and  C6_6 
REMARK    3  A    between atoms: C6_6  and  C7_7 
REMARK    4  A    between atoms: C7_7  and  C9_9 
REMARK    5  A    between atoms: C27_28  and  O2_29 
REMARK    6  A    between atoms: O2_29  and  C28_30 
REMARK    7  A    between atoms: C29_32  and  C30_33 
REMARK    8  A    between atoms: C30_33  and  O4_34 
REMARK    9  A    between atoms: C31_35  and  O5_36 
REMARK   10  A    between atoms: C32_37  and  O6_38 
REMARK   11  A    between atoms: C33_39  and  O7_40 
ROOT
HETATM    1  C9  UNL     1      -3.334  14.178  19.736  1.00  0.00    -0.002 C 
HETATM    2  C10 UNL     1      -4.879  14.058  19.522  1.00  0.00     0.006 C 
HETATM    3  C11 UNL     1      -5.111  13.287  18.206  1.00  0.00     0.011 C 
HETATM    4  C12 UNL     1      -3.734  12.691  17.864  1.00  0.00    -0.029 C 
HETATM    5  C13 UNL     1      -3.602  11.408  18.751  1.00  0.00     0.016 C 
HETATM    6  C14 UNL     1      -3.506  12.351  16.356  1.00  0.00     0.028 C 
HETATM    7  C15 UNL     1      -4.458  11.290  15.836  1.00  0.00    -0.021 C 
HETATM    8  C16 UNL     1      -4.019  10.208  15.170  1.00  0.00     0.008 C 
HETATM    9  C17 UNL     1      -2.532   9.972  14.925  1.00  0.00     0.092 C 
HETATM   10  O1  UNL     1      -2.196  10.908  13.875  1.00  0.00    -0.374 OA
HETATM   11  C18 UNL     1      -1.790  12.146  14.483  1.00  0.00     0.179 C 
HETATM   12  C19 UNL     1      -1.984  12.013  16.015  1.00  0.00    -0.004 C 
HETATM   13  C20 UNL     1      -1.003  12.984  16.725  1.00  0.00     0.014 C 
HETATM   14  C21 UNL     1      -1.335  13.376  18.175  1.00  0.00     0.011 C 
HETATM   15  C22 UNL     1      -2.786  13.873  18.305  1.00  0.00    -0.032 C 
HETATM   16  C23 UNL     1      -2.940  15.169  17.442  1.00  0.00     0.016 C 
HETATM   17  C24 UNL     1      -1.744  10.481  16.162  1.00  0.00     0.036 C 
HETATM   18  C25 UNL     1      -0.293   9.970  16.197  1.00  0.00     0.011 C 
HETATM   19  C26 UNL     1       0.239   9.506  14.856  1.00  0.00     0.033 C 
HETATM   20  C27 UNL     1      -0.594   8.365  14.256  1.00  0.00     0.136 C 
HETATM   21  C34 UNL     1      -2.155   8.516  14.472  1.00  0.00     0.014 C 
HETATM   22  C35 UNL     1      -2.906   8.121  13.172  1.00  0.00     0.021 C 
HETATM   23  C36 UNL     1      -2.587   7.494  15.560  1.00  0.00     0.021 C 
ENDROOT
BRANCH  20  24
HETATM   24  O2  UNL     1      -0.289   8.183  12.862  1.00  0.00    -0.352 OA
BRANCH  24  25
HETATM   25  C28 UNL     1       0.681   7.169  12.577  1.00  0.00     0.292 C 
HETATM   26  O3  UNL     1       1.571   7.616  11.556  1.00  0.00    -0.348 OA
HETATM   27  C29 UNL     1       2.564   6.630  11.217  1.00  0.00     0.179 C 
HETATM   28  C31 UNL     1       1.905   5.354  10.685  1.00  0.00     0.180 C 
HETATM   29  C32 UNL     1       0.892   4.833  11.708  1.00  0.00     0.183 C 
HETATM   30  C33 UNL     1      -0.096   5.930  12.094  1.00  0.00     0.204 C 
BRANCH  27  31
HETATM   31  C30 UNL     1       3.491   7.257  10.173  1.00  0.00     0.198 C 
BRANCH  31  32
HETATM   32  O4  UNL     1       4.705   6.503  10.110  1.00  0.00    -0.398 OA
HETATM   33  H44 UNL     1       5.003   6.423  11.036  1.00  0.00     0.209 HD
ENDBRANCH  31  32
ENDBRANCH  27  31
BRANCH  28  34
HETATM   34  O5  UNL     1       2.880   4.342  10.428  1.00  0.00    -0.390 OA
HETATM   35  H46 UNL     1       2.374   3.512  10.315  1.00  0.00     0.210 HD
ENDBRANCH  28  34
BRANCH  29  36
HETATM   36  O6  UNL     1       0.200   3.707  11.147  1.00  0.00    -0.390 OA
HETATM   37  H48 UNL     1      -0.544   3.536  11.761  1.00  0.00     0.210 HD
ENDBRANCH  29  36
BRANCH  30  38
HETATM   38  O7  UNL     1      -0.971   5.429  13.118  1.00  0.00    -0.388 OA
HETATM   39  H50 UNL     1      -1.535   6.190  13.363  1.00  0.00     0.210 HD
ENDBRANCH  30  38
ENDBRANCH  24  25
ENDBRANCH  20  24
BRANCH   1  40
HETATM   40  C7  UNL     1      -2.944  15.504  20.467  1.00  0.00    -0.010 C 
HETATM   41  C8  UNL     1      -1.435  15.771  20.378  1.00  0.00     0.010 C 
BRANCH  40  42
HETATM   42  C6  UNL     1      -3.380  15.441  21.960  1.00  0.00     0.031 C 
BRANCH  42  43
HETATM   43  C5  UNL     1      -4.647  14.707  22.336  1.00  0.00    -0.026 C 
HETATM   44  C4  UNL     1      -5.888  15.208  22.461  1.00  0.00     0.002 C 
BRANCH  44  45
HETATM   45  C2  UNL     1      -7.085  14.452  22.804  1.00  0.00    -0.072 C 
HETATM   46  C1  UNL     1      -7.634  14.594  24.021  1.00  0.00     0.018 C 
HETATM   47  C3  UNL     1      -7.706  13.533  21.784  1.00  0.00     0.047 C 
ENDBRANCH  44  45
ENDBRANCH  42  43
ENDBRANCH  40  42
ENDBRANCH   1  40
TORSDOF 11
ENDMDL
MODEL 9
REMARK minimizedAffinity -8.07457829
REMARK CNNscore 0.262550771
REMARK CNNaffinity 6.1376133
REMARK  11 active torsions:
REMARK  status: ('A' for Active; 'I' for Inactive)
REMARK    1  A    between atoms: C2_2  and  C4_4 
REMARK    2  A    between atoms: C5_5  and  C6_6 
REMARK    3  A    between atoms: C6_6  and  C7_7 
REMARK    4  A    between atoms: C7_7  and  C9_9 
REMARK    5  A    between atoms: C27_28  and  O2_29 
REMARK    6  A    between atoms: O2_29  and  C28_30 
REMARK    7  A    between atoms: C29_32  and  C30_33 
REMARK    8  A    between atoms: C30_33  and  O4_34 
REMARK    9  A    between atoms: C31_35  and  O5_36 
REMARK   10  A    between atoms: C32_37  and  O6_38 
REMARK   11  A    between atoms: C33_39  and  O7_40 
ROOT
HETATM    1  C9  UNL     1      -2.897  13.184  16.745  1.00  0.00    -0.002 C 
HETATM    2  C10 UNL     1      -3.699  12.649  17.978  1.00  0.00     0.006 C 
HETATM    3  C11 UNL     1      -2.734  11.803  18.834  1.00  0.00     0.011 C 
HETATM    4  C12 UNL     1      -1.338  12.136  18.277  1.00  0.00    -0.029 C 
HETATM    5  C13 UNL     1      -0.941  13.500  18.933  1.00  0.00     0.016 C 
HETATM    6  C14 UNL     1      -0.239  11.055  18.532  1.00  0.00     0.028 C 
HETATM    7  C15 UNL     1       0.043  10.830  20.006  1.00  0.00    -0.021 C 
HETATM    8  C16 UNL     1       1.292  10.856  20.500  1.00  0.00     0.008 C 
HETATM    9  C17 UNL     1       2.497  11.141  19.610  1.00  0.00     0.092 C 
HETATM   10  O1  UNL     1       2.683   9.913  18.868  1.00  0.00    -0.374 OA
HETATM   11  C18 UNL     1       1.906   9.990  17.659  1.00  0.00     0.179 C 
HETATM   12  C19 UNL     1       1.096  11.310  17.696  1.00  0.00    -0.004 C 
HETATM   13  C20 UNL     1       0.791  11.745  16.237  1.00  0.00     0.014 C 
HETATM   14  C21 UNL     1      -0.376  12.726  16.030  1.00  0.00     0.011 C 
HETATM   15  C22 UNL     1      -1.655  12.237  16.734  1.00  0.00    -0.032 C 
HETATM   16  C23 UNL     1      -2.086  10.882  16.083  1.00  0.00     0.016 C 
HETATM   17  C24 UNL     1       2.079  12.181  18.535  1.00  0.00     0.036 C 
HETATM   18  C25 UNL     1       3.282  12.818  17.820  1.00  0.00     0.011 C 
HETATM   19  C26 UNL     1       4.564  12.014  17.916  1.00  0.00     0.033 C 
HETATM   20  C27 UNL     1       5.009  11.789  19.368  1.00  0.00     0.136 C 
HETATM   21  C34 UNL     1       3.822  11.498  20.375  1.00  0.00     0.014 C 
HETATM   22  C35 UNL     1       4.228  10.362  21.352  1.00  0.00     0.021 C 
HETATM   23  C36 UNL     1       3.607  12.771  21.239  1.00  0.00     0.021 C 
ENDROOT
BRANCH  20  24
HETATM   24  O2  UNL     1       6.006  10.756  19.446  1.00  0.00    -0.352 OA
BRANCH  24  25
HETATM   25  C28 UNL     1       7.221  11.025  18.738  1.00  0.00     0.292 C 
HETATM   26  O3  UNL     1       7.551   9.923  17.894  1.00  0.00    -0.348 OA
HETATM   27  C29 UNL     1       8.773  10.132  17.164  1.00  0.00     0.179 C 
HETATM   28  C31 UNL     1       9.956  10.311  18.122  1.00  0.00     0.180 C 
HETATM   29  C32 UNL     1       9.659  11.450  19.098  1.00  0.00     0.183 C 
HETATM   30  C33 UNL     1       8.321  11.226  19.797  1.00  0.00     0.204 C 
BRANCH  27  31
HETATM   31  C30 UNL     1       8.972   8.920  16.251  1.00  0.00     0.198 C 
BRANCH  31  32
HETATM   32  O4  UNL     1       8.848   7.723  17.025  1.00  0.00    -0.398 OA
HETATM   33  H44 UNL     1       9.438   7.854  17.791  1.00  0.00     0.209 HD
ENDBRANCH  31  32
ENDBRANCH  27  31
BRANCH  28  34
HETATM   34  O5  UNL     1      11.156  10.603  17.404  1.00  0.00    -0.390 OA
HETATM   35  H46 UNL     1      11.794  10.920  18.076  1.00  0.00     0.210 HD
ENDBRANCH  28  34
BRANCH  29  36
HETATM   36  O6  UNL     1      10.722  11.528  20.061  1.00  0.00    -0.390 OA
HETATM   37  H48 UNL     1      10.394  12.140  20.752  1.00  0.00     0.210 HD
ENDBRANCH  29  36
BRANCH  30  38
HETATM   38  O7  UNL     1       8.038  12.358  20.636  1.00  0.00    -0.388 OA
HETATM   39  H50 UNL     1       7.149  12.184  21.005  1.00  0.00     0.210 HD
ENDBRANCH  30  38
ENDBRANCH  24  25
ENDBRANCH  20  24
BRANCH   1  40
HETATM   40  C7  UNL     1      -3.798  13.324  15.475  1.00  0.00    -0.010 C 
HETATM   41  C8  UNL     1      -3.256  14.395  14.518  1.00  0.00     0.010 C 
BRANCH  40  42
HETATM   42  C6  UNL     1      -5.257  13.675  15.887  1.00  0.00     0.031 C 
BRANCH  42  43
HETATM   43  C5  UNL     1      -5.869  14.976  15.420  1.00  0.00    -0.026 C 
HETATM   44  C4  UNL     1      -7.042  15.158  14.789  1.00  0.00     0.002 C 
BRANCH  44  45
HETATM   45  C2  UNL     1      -7.602  16.440  14.378  1.00  0.00    -0.072 C 
HETATM   46  C1  UNL     1      -8.920  16.543  14.144  1.00  0.00     0.018 C 
HETATM   47  C3  UNL     1      -6.701  17.639  14.239  1.00  0.00     0.047 C 
ENDBRANCH  44  45
ENDBRANCH  42  43
ENDBRANCH  40  42
ENDBRANCH   1  40
TORSDOF 11
ENDMDL
