MODEL 1
REMARK minimizedAffinity -8.72732639
REMARK CNNscore 0.780905902
REMARK CNNaffinity 6.74088907
REMARK  12 active torsions:
REMARK  status: ('A' for Active; 'I' for Inactive)
REMARK    1  A    between atoms: C2_2  and  C17_19 
REMARK    2  A    between atoms: C3_3  and  C4_4 
REMARK    3  A    between atoms: C4_4  and  C5_5 
REMARK    4  A    between atoms: C5_5  and  C6_6 
REMARK    5  A    between atoms: C12_12  and  O1_13 
REMARK    6  A    between atoms: C17_19  and  C18_20 
REMARK    7  A    between atoms: C19_21  and  C20_22 
REMARK    8  A    between atoms: C20_22  and  C22_24 
REMARK    9  A    between atoms: C22_24  and  C23_26 
REMARK   10  A    between atoms: C23_26  and  O4_27 
REMARK   11  A    between atoms: C23_26  and  C24_28 
REMARK   12  A    between atoms: C24_28  and  C25_29 
ROOT
HETATM    1  C1  UNL     1      -0.936   7.567  15.749  1.00  0.00     0.043 C 
HETATM    2  C2  UNL     1      -0.890   6.393  14.806  1.00  0.00    -0.084 C 
HETATM    3  C3  UNL     1      -1.905   5.514  14.651  1.00  0.00    -0.024 C 
ENDROOT
BRANCH   3   4
HETATM    4  C4  UNL     1      -3.264   5.591  15.282  1.00  0.00     0.030 C 
BRANCH   4   5
HETATM    5  C5  UNL     1      -4.053   6.880  15.034  1.00  0.00     0.042 C 
BRANCH   5   6
HETATM    6  C6  UNL     1      -4.479   7.224  13.580  1.00  0.00     0.065 C 
HETATM    7  C7  UNL     1      -3.526   8.262  12.961  1.00  0.00     0.046 C 
HETATM    8  C8  UNL     1      -5.920   7.725  13.422  1.00  0.00     0.043 C 
HETATM    9  C9  UNL     1      -6.920   6.664  13.856  1.00  0.00     0.044 C 
HETATM   10  C10 UNL     1      -6.551   5.327  13.287  1.00  0.00    -0.021 A 
HETATM   11  C11 UNL     1      -7.496   4.292  13.293  1.00  0.00     0.046 A 
HETATM   12  C16 UNL     1      -5.264   5.085  12.784  1.00  0.00     0.082 A 
HETATM   13  C12 UNL     1      -7.159   3.049  12.775  1.00  0.00     0.066 A 
HETATM   14  C13 UNL     1      -5.897   2.810  12.247  1.00  0.00     0.046 A 
HETATM   15  C14 UNL     1      -4.935   3.832  12.242  1.00  0.00    -0.025 A 
HETATM   16  C15 UNL     1      -3.567   3.571  11.681  1.00  0.00     0.051 C 
HETATM   17  O2  UNL     1      -4.273   6.034  12.776  1.00  0.00    -0.340 OA
BRANCH  13  18
HETATM   18  O1  UNL     1      -8.048   2.011  12.777  1.00  0.00    -0.361 OA
HETATM   19  H17 UNL     1      -8.872   2.306  13.206  1.00  0.00     0.217 HD
ENDBRANCH  13  18
ENDBRANCH   5   6
ENDBRANCH   4   5
ENDBRANCH   3   4
BRANCH   2  20
HETATM   20  C17 UNL     1       0.406   6.237  14.030  1.00  0.00     0.060 C 
BRANCH  20  21
HETATM   21  C18 UNL     1       0.627   7.389  13.087  1.00  0.00    -0.026 C 
HETATM   22  C19 UNL     1       1.528   7.497  12.096  1.00  0.00    -0.019 C 
BRANCH  22  23
HETATM   23  C20 UNL     1       2.567   6.484  11.679  1.00  0.00     0.076 C 
HETATM   24  C21 UNL     1       3.928   7.130  11.451  1.00  0.00     0.022 C 
BRANCH  23  25
HETATM   25  C22 UNL     1       2.092   5.705  10.446  1.00  0.00     0.162 C 
HETATM   26  O3  UNL     1       1.115   4.950  10.521  1.00  0.00    -0.294 OA
BRANCH  25  27
HETATM   27  C23 UNL     1       2.836   5.903   9.116  1.00  0.00     0.188 C 
BRANCH  27  28
HETATM   28  O4  UNL     1       4.085   5.217   9.113  1.00  0.00    -0.388 OA
HETATM   29  H31 UNL     1       4.720   5.746   9.643  1.00  0.00     0.210 HD
ENDBRANCH  27  28
BRANCH  27  30
HETATM   30  C24 UNL     1       3.014   7.375   8.707  1.00  0.00     0.043 C 
BRANCH  30  31
HETATM   31  C25 UNL     1       2.036   7.987   7.680  1.00  0.00    -0.020 C 
HETATM   32  C26 UNL     1       0.701   8.278   8.375  1.00  0.00     0.009 C 
HETATM   33  C27 UNL     1       1.773   7.103   6.459  1.00  0.00     0.009 C 
ENDBRANCH  30  31
ENDBRANCH  27  30
ENDBRANCH  25  27
ENDBRANCH  23  25
ENDBRANCH  22  23
ENDBRANCH  20  21
ENDBRANCH   2  20
TORSDOF 12
ENDMDL
MODEL 2
REMARK minimizedAffinity -8.109375
REMARK CNNscore 0.773402035
REMARK CNNaffinity 6.97594643
REMARK  12 active torsions:
REMARK  status: ('A' for Active; 'I' for Inactive)
REMARK    1  A    between atoms: C2_2  and  C17_19 
REMARK    2  A    between atoms: C3_3  and  C4_4 
REMARK    3  A    between atoms: C4_4  and  C5_5 
REMARK    4  A    between atoms: C5_5  and  C6_6 
REMARK    5  A    between atoms: C12_12  and  O1_13 
REMARK    6  A    between atoms: C17_19  and  C18_20 
REMARK    7  A    between atoms: C19_21  and  C20_22 
REMARK    8  A    between atoms: C20_22  and  C22_24 
REMARK    9  A    between atoms: C22_24  and  C23_26 
REMARK   10  A    between atoms: C23_26  and  O4_27 
REMARK   11  A    between atoms: C23_26  and  C24_28 
REMARK   12  A    between atoms: C24_28  and  C25_29 
ROOT
HETATM    1  C1  UNL     1       0.147   9.100  13.739  1.00  0.00     0.043 C 
HETATM    2  C2  UNL     1      -0.433   8.822  12.377  1.00  0.00    -0.084 C 
HETATM    3  C3  UNL     1      -1.758   8.725  12.130  1.00  0.00    -0.024 C 
ENDROOT
BRANCH   3   4
HETATM    4  C4  UNL     1      -2.874   8.970  13.104  1.00  0.00     0.030 C 
BRANCH   4   5
HETATM    5  C5  UNL     1      -3.874   7.826  13.286  1.00  0.00     0.042 C 
BRANCH   5   6
HETATM    6  C6  UNL     1      -3.530   6.687  14.285  1.00  0.00     0.065 C 
HETATM    7  C7  UNL     1      -2.523   7.173  15.343  1.00  0.00     0.046 C 
HETATM    8  C8  UNL     1      -2.990   5.399  13.649  1.00  0.00     0.043 C 
HETATM    9  C9  UNL     1      -4.020   4.773  12.721  1.00  0.00     0.044 C 
HETATM   10  C10 UNL     1      -5.371   4.750  13.371  1.00  0.00    -0.021 A 
HETATM   11  C11 UNL     1      -6.380   3.938  12.833  1.00  0.00     0.046 A 
HETATM   12  C16 UNL     1      -5.652   5.555  14.485  1.00  0.00     0.082 A 
HETATM   13  C12 UNL     1      -7.636   3.918  13.425  1.00  0.00     0.066 A 
HETATM   14  C13 UNL     1      -7.912   4.689  14.546  1.00  0.00     0.046 A 
HETATM   15  C14 UNL     1      -6.918   5.514  15.092  1.00  0.00    -0.025 A 
HETATM   16  C15 UNL     1      -7.220   6.355  16.299  1.00  0.00     0.051 C 
HETATM   17  O2  UNL     1      -4.730   6.402  15.047  1.00  0.00    -0.340 OA
BRANCH  13  18
HETATM   18  O1  UNL     1      -8.649   3.152  12.920  1.00  0.00    -0.361 OA
HETATM   19  H17 UNL     1      -8.328   2.697  12.120  1.00  0.00     0.217 HD
ENDBRANCH  13  18
ENDBRANCH   5   6
ENDBRANCH   4   5
ENDBRANCH   3   4
BRANCH   2  20
HETATM   20  C17 UNL     1       0.586   8.632  11.266  1.00  0.00     0.060 C 
BRANCH  20  21
HETATM   21  C18 UNL     1      -0.081   8.337   9.950  1.00  0.00    -0.026 C 
HETATM   22  C19 UNL     1       0.491   8.106   8.757  1.00  0.00    -0.019 C 
BRANCH  22  23
HETATM   23  C20 UNL     1       1.964   8.093   8.426  1.00  0.00     0.076 C 
HETATM   24  C21 UNL     1       2.219   7.638   6.994  1.00  0.00     0.022 C 
BRANCH  23  25
HETATM   25  C22 UNL     1       2.734   7.238   9.441  1.00  0.00     0.162 C 
HETATM   26  O3  UNL     1       2.700   6.004   9.372  1.00  0.00    -0.294 OA
BRANCH  25  27
HETATM   27  C23 UNL     1       3.567   7.947  10.521  1.00  0.00     0.188 C 
BRANCH  27  28
HETATM   28  O4  UNL     1       4.674   8.640   9.952  1.00  0.00    -0.388 OA
HETATM   29  H31 UNL     1       5.365   7.978   9.736  1.00  0.00     0.210 HD
ENDBRANCH  27  28
BRANCH  27  30
HETATM   30  C24 UNL     1       4.023   7.028  11.668  1.00  0.00     0.043 C 
BRANCH  30  31
HETATM   31  C25 UNL     1       5.532   6.753  11.848  1.00  0.00    -0.020 C 
HETATM   32  C26 UNL     1       6.027   7.488  13.098  1.00  0.00     0.009 C 
HETATM   33  C27 UNL     1       6.393   7.173  10.655  1.00  0.00     0.009 C 
ENDBRANCH  30  31
ENDBRANCH  27  30
ENDBRANCH  25  27
ENDBRANCH  23  25
ENDBRANCH  22  23
ENDBRANCH  20  21
ENDBRANCH   2  20
TORSDOF 12
ENDMDL
MODEL 3
REMARK minimizedAffinity -8.2426033
REMARK CNNscore 0.758972704
REMARK CNNaffinity 7.16290903
REMARK  12 active torsions:
REMARK  status: ('A' for Active; 'I' for Inactive)
REMARK    1  A    between atoms: C2_2  and  C17_19 
REMARK    2  A    between atoms: C3_3  and  C4_4 
REMARK    3  A    between atoms: C4_4  and  C5_5 
REMARK    4  A    between atoms: C5_5  and  C6_6 
REMARK    5  A    between atoms: C12_12  and  O1_13 
REMARK    6  A    between atoms: C17_19  and  C18_20 
REMARK    7  A    between atoms: C19_21  and  C20_22 
REMARK    8  A    between atoms: C20_22  and  C22_24 
REMARK    9  A    between atoms: C22_24  and  C23_26 
REMARK   10  A    between atoms: C23_26  and  O4_27 
REMARK   11  A    between atoms: C23_26  and  C24_28 
REMARK   12  A    between atoms: C24_28  and  C25_29 
ROOT
HETATM    1  C1  UNL     1      -4.220   5.023  12.879  1.00  0.00     0.043 C 
HETATM    2  C2  UNL     1      -3.561   6.365  13.065  1.00  0.00    -0.084 C 
HETATM    3  C3  UNL     1      -4.243   7.521  13.222  1.00  0.00    -0.024 C 
ENDROOT
BRANCH   3   4
HETATM    4  C4  UNL     1      -5.730   7.678  13.346  1.00  0.00     0.030 C 
BRANCH   4   5
HETATM    5  C5  UNL     1      -6.251   8.121  14.716  1.00  0.00     0.042 C 
BRANCH   5   6
HETATM    6  C6  UNL     1      -7.711   7.766  15.109  1.00  0.00     0.065 C 
HETATM    7  C7  UNL     1      -8.541   9.041  15.339  1.00  0.00     0.046 C 
HETATM    8  C8  UNL     1      -7.857   6.857  16.336  1.00  0.00     0.043 C 
HETATM    9  C9  UNL     1      -7.203   5.505  16.097  1.00  0.00     0.044 C 
HETATM   10  C10 UNL     1      -7.578   4.968  14.748  1.00  0.00    -0.021 A 
HETATM   11  C11 UNL     1      -7.353   3.614  14.459  1.00  0.00     0.046 A 
HETATM   12  C16 UNL     1      -8.116   5.806  13.759  1.00  0.00     0.082 A 
HETATM   13  C12 UNL     1      -7.692   3.112  13.210  1.00  0.00     0.066 A 
HETATM   14  C13 UNL     1      -8.252   3.929  12.236  1.00  0.00     0.046 A 
HETATM   15  C14 UNL     1      -8.475   5.288  12.505  1.00  0.00    -0.025 A 
HETATM   16  C15 UNL     1      -9.072   6.173  11.450  1.00  0.00     0.051 C 
HETATM   17  O2  UNL     1      -8.331   7.147  13.953  1.00  0.00    -0.340 OA
BRANCH  13  18
HETATM   18  O1  UNL     1      -7.473   1.803  12.885  1.00  0.00    -0.361 OA
HETATM   19  H17 UNL     1      -7.046   1.360  13.642  1.00  0.00     0.217 HD
ENDBRANCH  13  18
ENDBRANCH   5   6
ENDBRANCH   4   5
ENDBRANCH   3   4
BRANCH   2  20
HETATM   20  C17 UNL     1      -2.042   6.348  13.045  1.00  0.00     0.060 C 
BRANCH  20  21
HETATM   21  C18 UNL     1      -1.475   7.742  13.080  1.00  0.00    -0.026 C 
HETATM   22  C19 UNL     1      -0.233   8.146  12.765  1.00  0.00    -0.019 C 
BRANCH  22  23
HETATM   23  C20 UNL     1       0.925   7.295  12.301  1.00  0.00     0.076 C 
HETATM   24  C21 UNL     1       2.019   7.203  13.358  1.00  0.00     0.022 C 
BRANCH  23  25
HETATM   25  C22 UNL     1       1.468   7.812  10.962  1.00  0.00     0.162 C 
HETATM   26  O3  UNL     1       0.947   8.790  10.412  1.00  0.00    -0.294 OA
BRANCH  25  27
HETATM   27  C23 UNL     1       2.683   7.109  10.338  1.00  0.00     0.188 C 
BRANCH  27  28
HETATM   28  O4  UNL     1       3.787   8.000  10.205  1.00  0.00    -0.388 OA
HETATM   29  H31 UNL     1       3.617   8.575   9.429  1.00  0.00     0.210 HD
ENDBRANCH  27  28
BRANCH  27  30
HETATM   30  C24 UNL     1       2.385   6.397   9.007  1.00  0.00     0.043 C 
BRANCH  30  31
HETATM   31  C25 UNL     1       2.722   7.120   7.684  1.00  0.00    -0.020 C 
HETATM   32  C26 UNL     1       2.948   8.608   7.973  1.00  0.00     0.009 C 
HETATM   33  C27 UNL     1       1.646   6.986   6.604  1.00  0.00     0.009 C 
ENDBRANCH  30  31
ENDBRANCH  27  30
ENDBRANCH  25  27
ENDBRANCH  23  25
ENDBRANCH  22  23
ENDBRANCH  20  21
ENDBRANCH   2  20
TORSDOF 12
ENDMDL
MODEL 4
REMARK minimizedAffinity -8.5341692
REMARK CNNscore 0.755717218
REMARK CNNaffinity 6.87978315
REMARK  12 active torsions:
REMARK  status: ('A' for Active; 'I' for Inactive)
REMARK    1  A    between atoms: C2_2  and  C17_19 
REMARK    2  A    between atoms: C3_3  and  C4_4 
REMARK    3  A    between atoms: C4_4  and  C5_5 
REMARK    4  A    between atoms: C5_5  and  C6_6 
REMARK    5  A    between atoms: C12_12  and  O1_13 
REMARK    6  A    between atoms: C17_19  and  C18_20 
REMARK    7  A    between atoms: C19_21  and  C20_22 
REMARK    8  A    between atoms: C20_22  and  C22_24 
REMARK    9  A    between atoms: C22_24  and  C23_26 
REMARK   10  A    between atoms: C23_26  and  O4_27 
REMARK   11  A    between atoms: C23_26  and  C24_28 
REMARK   12  A    between atoms: C24_28  and  C25_29 
ROOT
HETATM    1  C1  UNL     1      -0.992   7.799  14.346  1.00  0.00     0.043 C 
HETATM    2  C2  UNL     1      -1.372   8.582  13.116  1.00  0.00    -0.084 C 
HETATM    3  C3  UNL     1      -2.618   9.048  12.879  1.00  0.00    -0.024 C 
ENDROOT
BRANCH   3   4
HETATM    4  C4  UNL     1      -3.797   8.975  13.805  1.00  0.00     0.030 C 
BRANCH   4   5
HETATM    5  C5  UNL     1      -4.854   7.919  13.470  1.00  0.00     0.042 C 
BRANCH   5   6
HETATM    6  C6  UNL     1      -5.276   6.911  14.575  1.00  0.00     0.065 C 
HETATM    7  C7  UNL     1      -6.044   7.625  15.702  1.00  0.00     0.046 C 
HETATM    8  C8  UNL     1      -4.130   6.103  15.196  1.00  0.00     0.043 C 
HETATM    9  C9  UNL     1      -3.443   5.236  14.152  1.00  0.00     0.044 C 
HETATM   10  C10 UNL     1      -4.456   4.525  13.306  1.00  0.00    -0.021 A 
HETATM   11  C11 UNL     1      -4.052   3.444  12.510  1.00  0.00     0.046 A 
HETATM   12  C16 UNL     1      -5.794   4.947  13.270  1.00  0.00     0.082 A 
HETATM   13  C12 UNL     1      -4.983   2.786  11.718  1.00  0.00     0.066 A 
HETATM   14  C13 UNL     1      -6.315   3.179  11.700  1.00  0.00     0.046 A 
HETATM   15  C14 UNL     1      -6.735   4.265  12.483  1.00  0.00    -0.025 A 
HETATM   16  C15 UNL     1      -8.173   4.696  12.457  1.00  0.00     0.051 C 
HETATM   17  O2  UNL     1      -6.259   6.018  13.992  1.00  0.00    -0.340 OA
BRANCH  13  18
HETATM   18  O1  UNL     1      -4.624   1.739  10.917  1.00  0.00    -0.361 OA
HETATM   19  H17 UNL     1      -3.663   1.596  11.000  1.00  0.00     0.217 HD
ENDBRANCH  13  18
ENDBRANCH   5   6
ENDBRANCH   4   5
ENDBRANCH   3   4
BRANCH   2  20
HETATM   20  C17 UNL     1      -0.249   8.807  12.119  1.00  0.00     0.060 C 
BRANCH  20  21
HETATM   21  C18 UNL     1      -0.367   7.883  10.937  1.00  0.00    -0.026 C 
HETATM   22  C19 UNL     1       0.401   6.827  10.623  1.00  0.00    -0.019 C 
BRANCH  22  23
HETATM   23  C20 UNL     1       1.596   6.297  11.378  1.00  0.00     0.076 C 
HETATM   24  C21 UNL     1       2.602   7.398  11.691  1.00  0.00     0.022 C 
BRANCH  23  25
HETATM   25  C22 UNL     1       2.243   5.135  10.613  1.00  0.00     0.162 C 
HETATM   26  O3  UNL     1       1.795   3.988  10.723  1.00  0.00    -0.294 OA
BRANCH  25  27
HETATM   27  C23 UNL     1       3.436   5.432   9.691  1.00  0.00     0.188 C 
BRANCH  27  28
HETATM   28  O4  UNL     1       4.283   6.436  10.245  1.00  0.00    -0.388 OA
HETATM   29  H31 UNL     1       3.850   7.305  10.103  1.00  0.00     0.210 HD
ENDBRANCH  27  28
BRANCH  27  30
HETATM   30  C24 UNL     1       3.044   5.777   8.244  1.00  0.00     0.043 C 
BRANCH  30  31
HETATM   31  C25 UNL     1       2.290   7.098   7.971  1.00  0.00    -0.020 C 
HETATM   32  C26 UNL     1       1.738   7.069   6.542  1.00  0.00     0.009 C 
HETATM   33  C27 UNL     1       3.144   8.355   8.144  1.00  0.00     0.009 C 
ENDBRANCH  30  31
ENDBRANCH  27  30
ENDBRANCH  25  27
ENDBRANCH  23  25
ENDBRANCH  22  23
ENDBRANCH  20  21
ENDBRANCH   2  20
TORSDOF 12
ENDMDL
MODEL 5
REMARK minimizedAffinity -8.63380909
REMARK CNNscore 0.718531191
REMARK CNNaffinity 6.76761484
REMARK  12 active torsions:
REMARK  status: ('A' for Active; 'I' for Inactive)
REMARK    1  A    between atoms: C2_2  and  C17_19 
REMARK    2  A    between atoms: C3_3  and  C4_4 
REMARK    3  A    between atoms: C4_4  and  C5_5 
REMARK    4  A    between atoms: C5_5  and  C6_6 
REMARK    5  A    between atoms: C12_12  and  O1_13 
REMARK    6  A    between atoms: C17_19  and  C18_20 
REMARK    7  A    between atoms: C19_21  and  C20_22 
REMARK    8  A    between atoms: C20_22  and  C22_24 
REMARK    9  A    between atoms: C22_24  and  C23_26 
REMARK   10  A    between atoms: C23_26  and  O4_27 
REMARK   11  A    between atoms: C23_26  and  C24_28 
REMARK   12  A    between atoms: C24_28  and  C25_29 
ROOT
HETATM    1  C1  UNL     1      -0.535   9.615  13.873  1.00  0.00     0.043 C 
HETATM    2  C2  UNL     1      -0.927   8.992  12.558  1.00  0.00    -0.084 C 
HETATM    3  C3  UNL     1      -2.178   8.572  12.269  1.00  0.00    -0.024 C 
ENDROOT
BRANCH   3   4
HETATM    4  C4  UNL     1      -3.400   8.733  13.125  1.00  0.00     0.030 C 
BRANCH   4   5
HETATM    5  C5  UNL     1      -4.323   7.514  13.222  1.00  0.00     0.042 C 
BRANCH   5   6
HETATM    6  C6  UNL     1      -3.926   6.354  14.175  1.00  0.00     0.065 C 
HETATM    7  C7  UNL     1      -3.769   6.862  15.620  1.00  0.00     0.046 C 
HETATM    8  C8  UNL     1      -2.655   5.590  13.783  1.00  0.00     0.043 C 
HETATM    9  C9  UNL     1      -2.818   4.913  12.430  1.00  0.00     0.044 C 
HETATM   10  C10 UNL     1      -4.141   4.212  12.347  1.00  0.00    -0.021 A 
HETATM   11  C11 UNL     1      -4.358   3.270  11.332  1.00  0.00     0.046 A 
HETATM   12  C16 UNL     1      -5.176   4.510  13.246  1.00  0.00     0.082 A 
HETATM   13  C12 UNL     1      -5.583   2.622  11.244  1.00  0.00     0.066 A 
HETATM   14  C13 UNL     1      -6.602   2.890  12.148  1.00  0.00     0.046 A 
HETATM   15  C14 UNL     1      -6.406   3.837  13.165  1.00  0.00    -0.025 A 
HETATM   16  C15 UNL     1      -7.511   4.134  14.137  1.00  0.00     0.051 C 
HETATM   17  O2  UNL     1      -5.054   5.445  14.243  1.00  0.00    -0.340 OA
BRANCH  13  18
HETATM   18  O1  UNL     1      -5.837   1.710  10.259  1.00  0.00    -0.361 OA
HETATM   19  H17 UNL     1      -5.056   1.648   9.680  1.00  0.00     0.217 HD
ENDBRANCH  13  18
ENDBRANCH   5   6
ENDBRANCH   4   5
ENDBRANCH   3   4
BRANCH   2  20
HETATM   20  C17 UNL     1       0.201   8.840  11.552  1.00  0.00     0.060 C 
BRANCH  20  21
HETATM   21  C18 UNL     1      -0.325   8.552  10.172  1.00  0.00    -0.026 C 
HETATM   22  C19 UNL     1       0.335   8.053   9.113  1.00  0.00    -0.019 C 
BRANCH  22  23
HETATM   23  C20 UNL     1       1.790   7.661   9.034  1.00  0.00     0.076 C 
HETATM   24  C21 UNL     1       2.317   7.724   7.606  1.00  0.00     0.022 C 
BRANCH  23  25
HETATM   25  C22 UNL     1       2.008   6.277   9.661  1.00  0.00     0.162 C 
HETATM   26  O3  UNL     1       1.046   5.621  10.077  1.00  0.00    -0.294 OA
BRANCH  25  27
HETATM   27  C23 UNL     1       3.437   5.718   9.736  1.00  0.00     0.188 C 
BRANCH  27  28
HETATM   28  O4  UNL     1       3.438   4.293   9.733  1.00  0.00    -0.388 OA
HETATM   29  H31 UNL     1       3.185   3.991  10.631  1.00  0.00     0.210 HD
ENDBRANCH  27  28
BRANCH  27  30
HETATM   30  C24 UNL     1       4.269   6.268  10.907  1.00  0.00     0.043 C 
BRANCH  30  31
HETATM   31  C25 UNL     1       5.423   7.249  10.606  1.00  0.00    -0.020 C 
HETATM   32  C26 UNL     1       6.433   7.199  11.758  1.00  0.00     0.009 C 
HETATM   33  C27 UNL     1       4.979   8.699  10.405  1.00  0.00     0.009 C 
ENDBRANCH  30  31
ENDBRANCH  27  30
ENDBRANCH  25  27
ENDBRANCH  23  25
ENDBRANCH  22  23
ENDBRANCH  20  21
ENDBRANCH   2  20
TORSDOF 12
ENDMDL
MODEL 6
REMARK minimizedAffinity -7.80314541
REMARK CNNscore 0.628336489
REMARK CNNaffinity 6.68298292
REMARK  12 active torsions:
REMARK  status: ('A' for Active; 'I' for Inactive)
REMARK    1  A    between atoms: C2_2  and  C17_19 
REMARK    2  A    between atoms: C3_3  and  C4_4 
REMARK    3  A    between atoms: C4_4  and  C5_5 
REMARK    4  A    between atoms: C5_5  and  C6_6 
REMARK    5  A    between atoms: C12_12  and  O1_13 
REMARK    6  A    between atoms: C17_19  and  C18_20 
REMARK    7  A    between atoms: C19_21  and  C20_22 
REMARK    8  A    between atoms: C20_22  and  C22_24 
REMARK    9  A    between atoms: C22_24  and  C23_26 
REMARK   10  A    between atoms: C23_26  and  O4_27 
REMARK   11  A    between atoms: C23_26  and  C24_28 
REMARK   12  A    between atoms: C24_28  and  C25_29 
ROOT
HETATM    1  C1  UNL     1      -0.873   4.984  12.342  1.00  0.00     0.043 C 
HETATM    2  C2  UNL     1      -0.479   5.827  13.527  1.00  0.00    -0.084 C 
HETATM    3  C3  UNL     1      -1.263   6.012  14.611  1.00  0.00    -0.024 C 
ENDROOT
BRANCH   3   4
HETATM    4  C4  UNL     1      -2.584   5.355  14.888  1.00  0.00     0.030 C 
BRANCH   4   5
HETATM    5  C5  UNL     1      -3.799   6.284  14.960  1.00  0.00     0.042 C 
BRANCH   5   6
HETATM    6  C6  UNL     1      -4.416   6.807  13.634  1.00  0.00     0.065 C 
HETATM    7  C7  UNL     1      -3.545   7.921  13.026  1.00  0.00     0.046 C 
HETATM    8  C8  UNL     1      -5.860   7.315  13.739  1.00  0.00     0.043 C 
HETATM    9  C9  UNL     1      -6.803   6.201  14.168  1.00  0.00     0.044 C 
HETATM   10  C10 UNL     1      -6.529   4.949  13.389  1.00  0.00    -0.021 A 
HETATM   11  C11 UNL     1      -7.477   3.915  13.393  1.00  0.00     0.046 A 
HETATM   12  C16 UNL     1      -5.326   4.781  12.688  1.00  0.00     0.082 A 
HETATM   13  C12 UNL     1      -7.227   2.750  12.681  1.00  0.00     0.066 A 
HETATM   14  C13 UNL     1      -6.051   2.589  11.960  1.00  0.00     0.046 A 
HETATM   15  C14 UNL     1      -5.088   3.609  11.952  1.00  0.00    -0.025 A 
HETATM   16  C15 UNL     1      -3.813   3.431  11.180  1.00  0.00     0.051 C 
HETATM   17  O2  UNL     1      -4.335   5.730  12.665  1.00  0.00    -0.340 OA
BRANCH  13  18
HETATM   18  O1  UNL     1      -8.119   1.714  12.673  1.00  0.00    -0.361 OA
HETATM   19  H17 UNL     1      -8.873   1.948  13.244  1.00  0.00     0.217 HD
ENDBRANCH  13  18
ENDBRANCH   5   6
ENDBRANCH   4   5
ENDBRANCH   3   4
BRANCH   2  20
HETATM   20  C17 UNL     1       0.882   6.494  13.422  1.00  0.00     0.060 C 
BRANCH  20  21
HETATM   21  C18 UNL     1       0.754   7.975  13.187  1.00  0.00    -0.026 C 
HETATM   22  C19 UNL     1       1.069   8.676  12.085  1.00  0.00    -0.019 C 
BRANCH  22  23
HETATM   23  C20 UNL     1       1.647   8.153  10.792  1.00  0.00     0.076 C 
HETATM   24  C21 UNL     1       0.692   7.195  10.092  1.00  0.00     0.022 C 
BRANCH  23  25
HETATM   25  C22 UNL     1       3.019   7.511  11.038  1.00  0.00     0.162 C 
HETATM   26  O3  UNL     1       3.198   6.310  10.801  1.00  0.00    -0.294 OA
BRANCH  25  27
HETATM   27  C23 UNL     1       4.165   8.394  11.555  1.00  0.00     0.188 C 
BRANCH  27  28
HETATM   28  O4  UNL     1       4.826   9.066  10.487  1.00  0.00    -0.388 OA
HETATM   29  H31 UNL     1       5.414   8.419  10.043  1.00  0.00     0.210 HD
ENDBRANCH  27  28
BRANCH  27  30
HETATM   30  C24 UNL     1       5.175   7.655  12.451  1.00  0.00     0.043 C 
BRANCH  30  31
HETATM   31  C25 UNL     1       6.643   7.541  11.982  1.00  0.00    -0.020 C 
HETATM   32  C26 UNL     1       6.819   6.227  11.213  1.00  0.00     0.009 C 
HETATM   33  C27 UNL     1       7.669   7.591  13.115  1.00  0.00     0.009 C 
ENDBRANCH  30  31
ENDBRANCH  27  30
ENDBRANCH  25  27
ENDBRANCH  23  25
ENDBRANCH  22  23
ENDBRANCH  20  21
ENDBRANCH   2  20
TORSDOF 12
ENDMDL
MODEL 7
REMARK minimizedAffinity -8.97779274
REMARK CNNscore 0.617945373
REMARK CNNaffinity 6.49643707
REMARK  12 active torsions:
REMARK  status: ('A' for Active; 'I' for Inactive)
REMARK    1  A    between atoms: C2_2  and  C17_19 
REMARK    2  A    between atoms: C3_3  and  C4_4 
REMARK    3  A    between atoms: C4_4  and  C5_5 
REMARK    4  A    between atoms: C5_5  and  C6_6 
REMARK    5  A    between atoms: C12_12  and  O1_13 
REMARK    6  A    between atoms: C17_19  and  C18_20 
REMARK    7  A    between atoms: C19_21  and  C20_22 
REMARK    8  A    between atoms: C20_22  and  C22_24 
REMARK    9  A    between atoms: C22_24  and  C23_26 
REMARK   10  A    between atoms: C23_26  and  O4_27 
REMARK   11  A    between atoms: C23_26  and  C24_28 
REMARK   12  A    between atoms: C24_28  and  C25_29 
ROOT
HETATM    1  C1  UNL     1      -0.605   9.676  14.402  1.00  0.00     0.043 C 
HETATM    2  C2  UNL     1      -0.642   8.863  13.134  1.00  0.00    -0.084 C 
HETATM    3  C3  UNL     1      -1.782   8.437  12.548  1.00  0.00    -0.024 C 
ENDROOT
BRANCH   3   4
HETATM    4  C4  UNL     1      -3.186   8.766  12.968  1.00  0.00     0.030 C 
BRANCH   4   5
HETATM    5  C5  UNL     1      -4.150   7.583  13.084  1.00  0.00     0.042 C 
BRANCH   5   6
HETATM    6  C6  UNL     1      -3.853   6.481  14.139  1.00  0.00     0.065 C 
HETATM    7  C7  UNL     1      -3.739   7.088  15.548  1.00  0.00     0.046 C 
HETATM    8  C8  UNL     1      -2.603   5.634  13.866  1.00  0.00     0.043 C 
HETATM    9  C9  UNL     1      -2.736   4.865  12.560  1.00  0.00     0.044 C 
HETATM   10  C10 UNL     1      -4.085   4.219  12.463  1.00  0.00    -0.021 A 
HETATM   11  C11 UNL     1      -4.299   3.213  11.510  1.00  0.00     0.046 A 
HETATM   12  C16 UNL     1      -5.145   4.629  13.285  1.00  0.00     0.082 A 
HETATM   13  C12 UNL     1      -5.548   2.615  11.409  1.00  0.00     0.066 A 
HETATM   14  C13 UNL     1      -6.594   2.995  12.240  1.00  0.00     0.046 A 
HETATM   15  C14 UNL     1      -6.400   4.006  13.193  1.00  0.00    -0.025 A 
HETATM   16  C15 UNL     1      -7.534   4.423  14.085  1.00  0.00     0.051 C 
HETATM   17  O2  UNL     1      -5.025   5.630  14.217  1.00  0.00    -0.340 OA
BRANCH  13  18
HETATM   18  O1  UNL     1      -5.800   1.643  10.482  1.00  0.00    -0.361 OA
HETATM   19  H17 UNL     1      -4.996   1.504   9.949  1.00  0.00     0.217 HD
ENDBRANCH  13  18
ENDBRANCH   5   6
ENDBRANCH   4   5
ENDBRANCH   3   4
BRANCH   2  20
HETATM   20  C17 UNL     1       0.716   8.523  12.543  1.00  0.00     0.060 C 
BRANCH  20  21
HETATM   21  C18 UNL     1       0.897   7.036  12.398  1.00  0.00    -0.026 C 
HETATM   22  C19 UNL     1       2.011   6.358  12.077  1.00  0.00    -0.019 C 
BRANCH  22  23
HETATM   23  C20 UNL     1       3.377   6.920  11.766  1.00  0.00     0.076 C 
HETATM   24  C21 UNL     1       3.344   8.437  11.616  1.00  0.00     0.022 C 
BRANCH  23  25
HETATM   25  C22 UNL     1       3.970   6.238  10.526  1.00  0.00     0.162 C 
HETATM   26  O3  UNL     1       5.175   6.346  10.270  1.00  0.00    -0.294 OA
BRANCH  25  27
HETATM   27  C23 UNL     1       3.044   5.400   9.632  1.00  0.00     0.188 C 
BRANCH  27  28
HETATM   28  O4  UNL     1       3.370   4.014   9.700  1.00  0.00    -0.388 OA
HETATM   29  H31 UNL     1       4.170   3.866   9.152  1.00  0.00     0.210 HD
ENDBRANCH  27  28
BRANCH  27  30
HETATM   30  C24 UNL     1       2.976   5.878   8.171  1.00  0.00     0.043 C 
BRANCH  30  31
HETATM   31  C25 UNL     1       2.169   7.153   7.841  1.00  0.00    -0.020 C 
HETATM   32  C26 UNL     1       1.676   7.069   6.392  1.00  0.00     0.009 C 
HETATM   33  C27 UNL     1       2.950   8.456   8.021  1.00  0.00     0.009 C 
ENDBRANCH  30  31
ENDBRANCH  27  30
ENDBRANCH  25  27
ENDBRANCH  23  25
ENDBRANCH  22  23
ENDBRANCH  20  21
ENDBRANCH   2  20
TORSDOF 12
ENDMDL
MODEL 8
REMARK minimizedAffinity -7.10202932
REMARK CNNscore 0.554000258
REMARK CNNaffinity 6.96480227
REMARK  12 active torsions:
REMARK  status: ('A' for Active; 'I' for Inactive)
REMARK    1  A    between atoms: C2_2  and  C17_19 
REMARK    2  A    between atoms: C3_3  and  C4_4 
REMARK    3  A    between atoms: C4_4  and  C5_5 
REMARK    4  A    between atoms: C5_5  and  C6_6 
REMARK    5  A    between atoms: C12_12  and  O1_13 
REMARK    6  A    between atoms: C17_19  and  C18_20 
REMARK    7  A    between atoms: C19_21  and  C20_22 
REMARK    8  A    between atoms: C20_22  and  C22_24 
REMARK    9  A    between atoms: C22_24  and  C23_26 
REMARK   10  A    between atoms: C23_26  and  O4_27 
REMARK   11  A    between atoms: C23_26  and  C24_28 
REMARK   12  A    between atoms: C24_28  and  C25_29 
ROOT
HETATM    1  C1  UNL     1      -0.549   5.799  11.238  1.00  0.00     0.043 C 
HETATM    2  C2  UNL     1      -0.119   6.587  12.449  1.00  0.00    -0.084 C 
HETATM    3  C3  UNL     1      -0.724   7.724  12.858  1.00  0.00    -0.024 C 
ENDROOT
BRANCH   3   4
HETATM    4  C4  UNL     1      -1.960   8.344  12.274  1.00  0.00     0.030 C 
BRANCH   4   5
HETATM    5  C5  UNL     1      -3.296   7.821  12.811  1.00  0.00     0.042 C 
BRANCH   5   6
HETATM    6  C6  UNL     1      -3.324   7.150  14.211  1.00  0.00     0.065 C 
HETATM    7  C7  UNL     1      -2.485   7.954  15.221  1.00  0.00     0.046 C 
HETATM    8  C8  UNL     1      -2.865   5.687  14.245  1.00  0.00     0.043 C 
HETATM    9  C9  UNL     1      -3.773   4.807  13.399  1.00  0.00     0.044 C 
HETATM   10  C10 UNL     1      -5.213   5.121  13.670  1.00  0.00    -0.021 A 
HETATM   11  C11 UNL     1      -6.205   4.224  13.248  1.00  0.00     0.046 A 
HETATM   12  C16 UNL     1      -5.587   6.314  14.306  1.00  0.00     0.082 A 
HETATM   13  C12 UNL     1      -7.541   4.512  13.488  1.00  0.00     0.066 A 
HETATM   14  C13 UNL     1      -7.917   5.677  14.144  1.00  0.00     0.046 A 
HETATM   15  C14 UNL     1      -6.939   6.591  14.565  1.00  0.00    -0.025 A 
HETATM   16  C15 UNL     1      -7.346   7.854  15.265  1.00  0.00     0.051 C 
HETATM   17  O2  UNL     1      -4.680   7.259  14.716  1.00  0.00    -0.340 OA
BRANCH  13  18
HETATM   18  O1  UNL     1      -8.537   3.670  13.078  1.00  0.00    -0.361 OA
HETATM   19  H17 UNL     1      -8.135   2.918  12.604  1.00  0.00     0.217 HD
ENDBRANCH  13  18
ENDBRANCH   5   6
ENDBRANCH   4   5
ENDBRANCH   3   4
BRANCH   2  20
HETATM   20  C17 UNL     1       1.079   6.026  13.195  1.00  0.00     0.060 C 
BRANCH  20  21
HETATM   21  C18 UNL     1       1.676   7.046  14.126  1.00  0.00    -0.026 C 
HETATM   22  C19 UNL     1       2.869   7.657  14.041  1.00  0.00    -0.019 C 
BRANCH  22  23
HETATM   23  C20 UNL     1       3.931   7.467  12.985  1.00  0.00     0.076 C 
HETATM   24  C21 UNL     1       5.310   7.875  13.488  1.00  0.00     0.022 C 
BRANCH  23  25
HETATM   25  C22 UNL     1       3.549   8.215  11.700  1.00  0.00     0.162 C 
HETATM   26  O3  UNL     1       2.916   9.275  11.759  1.00  0.00    -0.294 OA
BRANCH  25  27
HETATM   27  C23 UNL     1       3.994   7.633  10.349  1.00  0.00     0.188 C 
BRANCH  27  28
HETATM   28  O4  UNL     1       4.095   8.649   9.355  1.00  0.00    -0.388 OA
HETATM   29  H31 UNL     1       3.186   8.868   9.056  1.00  0.00     0.210 HD
ENDBRANCH  27  28
BRANCH  27  30
HETATM   30  C24 UNL     1       3.130   6.460   9.853  1.00  0.00     0.043 C 
BRANCH  30  31
HETATM   31  C25 UNL     1       1.898   6.761   8.972  1.00  0.00    -0.020 C 
HETATM   32  C26 UNL     1       2.308   6.679   7.498  1.00  0.00     0.009 C 
HETATM   33  C27 UNL     1       1.260   8.128   9.231  1.00  0.00     0.009 C 
ENDBRANCH  30  31
ENDBRANCH  27  30
ENDBRANCH  25  27
ENDBRANCH  23  25
ENDBRANCH  22  23
ENDBRANCH  20  21
ENDBRANCH   2  20
TORSDOF 12
ENDMDL
MODEL 9
REMARK minimizedAffinity -7.98736095
REMARK CNNscore 0.453902513
REMARK CNNaffinity 5.94156885
REMARK  12 active torsions:
REMARK  status: ('A' for Active; 'I' for Inactive)
REMARK    1  A    between atoms: C2_2  and  C17_19 
REMARK    2  A    between atoms: C3_3  and  C4_4 
REMARK    3  A    between atoms: C4_4  and  C5_5 
REMARK    4  A    between atoms: C5_5  and  C6_6 
REMARK    5  A    between atoms: C12_12  and  O1_13 
REMARK    6  A    between atoms: C17_19  and  C18_20 
REMARK    7  A    between atoms: C19_21  and  C20_22 
REMARK    8  A    between atoms: C20_22  and  C22_24 
REMARK    9  A    between atoms: C22_24  and  C23_26 
REMARK   10  A    between atoms: C23_26  and  O4_27 
REMARK   11  A    between atoms: C23_26  and  C24_28 
REMARK   12  A    between atoms: C24_28  and  C25_29 
ROOT
HETATM    1  C1  UNL     1      -0.677   8.794  14.246  1.00  0.00     0.043 C 
HETATM    2  C2  UNL     1      -1.260   8.720  15.633  1.00  0.00    -0.084 C 
HETATM    3  C3  UNL     1      -2.141   7.774  16.027  1.00  0.00    -0.024 C 
ENDROOT
BRANCH   3   4
HETATM    4  C4  UNL     1      -2.611   6.594  15.227  1.00  0.00     0.030 C 
BRANCH   4   5
HETATM    5  C5  UNL     1      -4.128   6.432  15.090  1.00  0.00     0.042 C 
BRANCH   5   6
HETATM    6  C6  UNL     1      -4.815   6.932  13.790  1.00  0.00     0.065 C 
HETATM    7  C7  UNL     1      -4.075   8.153  13.215  1.00  0.00     0.046 C 
HETATM    8  C8  UNL     1      -6.303   7.280  13.929  1.00  0.00     0.043 C 
HETATM    9  C9  UNL     1      -7.117   6.058  14.326  1.00  0.00     0.044 C 
HETATM   10  C10 UNL     1      -6.723   4.870  13.500  1.00  0.00    -0.021 A 
HETATM   11  C11 UNL     1      -7.555   3.742  13.476  1.00  0.00     0.046 A 
HETATM   12  C16 UNL     1      -5.519   4.855  12.781  1.00  0.00     0.082 A 
HETATM   13  C12 UNL     1      -7.194   2.636  12.719  1.00  0.00     0.066 A 
HETATM   14  C13 UNL     1      -6.018   2.626  11.981  1.00  0.00     0.046 A 
HETATM   15  C14 UNL     1      -5.168   3.742  12.001  1.00  0.00    -0.025 A 
HETATM   16  C15 UNL     1      -3.892   3.728  11.210  1.00  0.00     0.051 C 
HETATM   17  O2  UNL     1      -4.634   5.905  12.782  1.00  0.00    -0.340 OA
BRANCH  13  18
HETATM   18  O1  UNL     1      -7.971   1.512  12.683  1.00  0.00    -0.361 OA
HETATM   19  H17 UNL     1      -8.738   1.643  13.270  1.00  0.00     0.217 HD
ENDBRANCH  13  18
ENDBRANCH   5   6
ENDBRANCH   4   5
ENDBRANCH   3   4
BRANCH   2  20
HETATM   20  C17 UNL     1      -0.806   9.812  16.586  1.00  0.00     0.060 C 
BRANCH  20  21
HETATM   21  C18 UNL     1       0.643  10.160  16.374  1.00  0.00    -0.026 C 
HETATM   22  C19 UNL     1       1.547  10.562  17.283  1.00  0.00    -0.019 C 
BRANCH  22  23
HETATM   23  C20 UNL     1       1.335  10.778  18.762  1.00  0.00     0.076 C 
HETATM   24  C21 UNL     1       0.471  12.003  19.038  1.00  0.00     0.022 C 
BRANCH  23  25
HETATM   25  C22 UNL     1       2.683  10.855  19.492  1.00  0.00     0.162 C 
HETATM   26  O3  UNL     1       3.735  10.957  18.851  1.00  0.00    -0.294 OA
BRANCH  25  27
HETATM   27  C23 UNL     1       2.692  10.830  21.028  1.00  0.00     0.188 C 
BRANCH  27  28
HETATM   28  O4  UNL     1       2.897  12.133  21.568  1.00  0.00    -0.388 OA
HETATM   29  H31 UNL     1       3.851  12.347  21.483  1.00  0.00     0.210 HD
ENDBRANCH  27  28
BRANCH  27  30
HETATM   30  C24 UNL     1       3.680   9.820  21.636  1.00  0.00     0.043 C 
BRANCH  30  31
HETATM   31  C25 UNL     1       3.272   9.054  22.914  1.00  0.00    -0.020 C 
HETATM   32  C26 UNL     1       2.071   8.157  22.595  1.00  0.00     0.009 C 
HETATM   33  C27 UNL     1       2.915   9.954  24.098  1.00  0.00     0.009 C 
ENDBRANCH  30  31
ENDBRANCH  27  30
ENDBRANCH  25  27
ENDBRANCH  23  25
ENDBRANCH  22  23
ENDBRANCH  20  21
ENDBRANCH   2  20
TORSDOF 12
ENDMDL
