MODEL 1
REMARK minimizedAffinity -7.22506046
REMARK  5 active torsions:
REMARK  status: ('A' for Active; 'I' for Inactive)
REMARK    1  A    between atoms: O1_2  and  C2_3 
REMARK    2  A    between atoms: C3_4  and  O2_5 
REMARK    3  A    between atoms: C4_6  and  C5_7 
REMARK    4  A    between atoms: C5_7  and  O3_8 
REMARK    5  A    between atoms: C6_10  and  N1_11 
ROOT
HETATM    1  C2  UNL     1      -4.795   6.718  15.117  1.00  0.00     0.201 C 
HETATM    2  C3  UNL     1      -3.377   6.307  15.497  1.00  0.00     0.182 C 
HETATM    3  C4  UNL     1      -2.655   6.358  14.156  1.00  0.00     0.179 C 
HETATM    4  O4  UNL     1      -3.588   5.830  13.204  1.00  0.00    -0.353 OA
HETATM    5  C6  UNL     1      -4.896   6.251  13.640  1.00  0.00     0.264 C 
ENDROOT
BRANCH   5   6
HETATM    6  N1  UNL     1      -5.855   5.187  13.338  1.00  0.00    -0.279 N 
HETATM    7  C7  UNL     1      -5.435   4.116  12.568  1.00  0.00     0.110 A 
HETATM    8  C8  UNL     1      -6.219   3.066  12.294  1.00  0.00     0.022 A 
HETATM    9  C9  UNL     1      -5.805   1.891  11.471  1.00  0.00     0.056 C 
HETATM   10  C10 UNL     1      -7.588   3.058  12.857  1.00  0.00     0.256 A 
HETATM   11  O5  UNL     1      -8.378   2.149  12.632  1.00  0.00    -0.267 OA
HETATM   12  N2  UNL     1      -7.911   4.125  13.643  1.00  0.00    -0.275 N 
HETATM   13  C11 UNL     1      -7.108   5.195  13.931  1.00  0.00     0.331 A 
HETATM   14  H16 UNL     1      -8.831   4.125  14.056  1.00  0.00     0.173 HD
HETATM   15  O6  UNL     1      -7.527   6.091  14.658  1.00  0.00    -0.246 OA
ENDBRANCH   5   6
BRANCH   1  16
HETATM   16  O1  UNL     1      -4.874   8.162  15.222  1.00  0.00    -0.384 OA
HETATM   17  C1  UNL     1      -6.220   8.621  15.300  1.00  0.00     0.202 C 
ENDBRANCH   1  16
BRANCH   2  18
HETATM   18  O2  UNL     1      -2.776   7.167  16.463  1.00  0.00    -0.390 OA
HETATM   19  H6  UNL     1      -3.230   8.030  16.361  1.00  0.00     0.210 HD
ENDBRANCH   2  18
BRANCH   3  20
HETATM   20  C5  UNL     1      -1.350   5.566  14.168  1.00  0.00     0.198 C 
BRANCH  20  21
HETATM   21  O3  UNL     1      -0.789   5.497  15.476  1.00  0.00    -0.398 OA
HETATM   22  H10 UNL     1      -1.515   5.283  16.098  1.00  0.00     0.209 HD
ENDBRANCH  20  21
ENDBRANCH   3  20
TORSDOF 5
ENDMDL
MODEL 2
REMARK minimizedAffinity -7.02115774
REMARK  5 active torsions:
REMARK  status: ('A' for Active; 'I' for Inactive)
REMARK    1  A    between atoms: O1_2  and  C2_3 
REMARK    2  A    between atoms: C3_4  and  O2_5 
REMARK    3  A    between atoms: C4_6  and  C5_7 
REMARK    4  A    between atoms: C5_7  and  O3_8 
REMARK    5  A    between atoms: C6_10  and  N1_11 
ROOT
HETATM    1  C2  UNL     1      -4.292   6.196  14.405  1.00  0.00     0.201 C 
HETATM    2  C3  UNL     1      -3.018   6.076  15.234  1.00  0.00     0.182 C 
HETATM    3  C4  UNL     1      -1.930   6.303  14.192  1.00  0.00     0.179 C 
HETATM    4  O4  UNL     1      -2.383   5.616  13.017  1.00  0.00    -0.353 OA
HETATM    5  C6  UNL     1      -3.818   5.751  12.996  1.00  0.00     0.264 C 
ENDROOT
BRANCH   5   6
HETATM    6  N1  UNL     1      -4.396   4.520  12.452  1.00  0.00    -0.279 N 
HETATM    7  C7  UNL     1      -5.635   4.111  12.912  1.00  0.00     0.110 A 
HETATM    8  C8  UNL     1      -6.272   3.037  12.428  1.00  0.00     0.022 A 
HETATM    9  C9  UNL     1      -7.609   2.564  12.893  1.00  0.00     0.056 C 
HETATM   10  C10 UNL     1      -5.615   2.272  11.344  1.00  0.00     0.256 A 
HETATM   11  O5  UNL     1      -6.116   1.262  10.866  1.00  0.00    -0.267 OA
HETATM   12  N2  UNL     1      -4.418   2.765  10.914  1.00  0.00    -0.275 N 
HETATM   13  C11 UNL     1      -3.770   3.867  11.401  1.00  0.00     0.331 A 
HETATM   14  H16 UNL     1      -3.967   2.272  10.160  1.00  0.00     0.173 HD
HETATM   15  O6  UNL     1      -2.692   4.202  10.918  1.00  0.00    -0.246 OA
ENDBRANCH   5   6
BRANCH   1  16
HETATM   16  O1  UNL     1      -4.688   7.590  14.415  1.00  0.00    -0.384 OA
HETATM   17  C1  UNL     1      -5.003   8.067  13.110  1.00  0.00     0.202 C 
ENDBRANCH   1  16
BRANCH   2  18
HETATM   18  O2  UNL     1      -2.944   7.018  16.302  1.00  0.00    -0.390 OA
HETATM   19  H6  UNL     1      -3.505   7.772  16.023  1.00  0.00     0.210 HD
ENDBRANCH   2  18
BRANCH   3  20
HETATM   20  C5  UNL     1      -0.567   5.794  14.654  1.00  0.00     0.198 C 
BRANCH  20  21
HETATM   21  O3  UNL     1      -0.197   6.351  15.912  1.00  0.00    -0.398 OA
HETATM   22  H10 UNL     1      -0.980   6.301  16.499  1.00  0.00     0.209 HD
ENDBRANCH  20  21
ENDBRANCH   3  20
TORSDOF 5
ENDMDL
MODEL 3
REMARK minimizedAffinity -6.81689787
REMARK  5 active torsions:
REMARK  status: ('A' for Active; 'I' for Inactive)
REMARK    1  A    between atoms: O1_2  and  C2_3 
REMARK    2  A    between atoms: C3_4  and  O2_5 
REMARK    3  A    between atoms: C4_6  and  C5_7 
REMARK    4  A    between atoms: C5_7  and  O3_8 
REMARK    5  A    between atoms: C6_10  and  N1_11 
ROOT
HETATM    1  C2  UNL     1      -5.426   3.413  10.925  1.00  0.00     0.201 C 
HETATM    2  C3  UNL     1      -3.989   3.835  10.642  1.00  0.00     0.182 C 
HETATM    3  C4  UNL     1      -3.248   3.302  11.861  1.00  0.00     0.179 C 
HETATM    4  O4  UNL     1      -4.122   3.546  12.972  1.00  0.00    -0.353 OA
HETATM    5  C6  UNL     1      -5.465   3.375  12.476  1.00  0.00     0.264 C 
ENDROOT
BRANCH   5   6
HETATM    6  N1  UNL     1      -6.338   4.340  13.149  1.00  0.00    -0.279 N 
HETATM    7  C7  UNL     1      -5.837   5.598  13.435  1.00  0.00     0.110 A 
HETATM    8  C8  UNL     1      -6.579   6.566  13.987  1.00  0.00     0.022 A 
HETATM    9  C9  UNL     1      -6.080   7.936  14.309  1.00  0.00     0.056 C 
HETATM   10  C10 UNL     1      -7.998   6.268  14.288  1.00  0.00     0.256 A 
HETATM   11  O5  UNL     1      -8.736   7.089  14.818  1.00  0.00    -0.267 OA
HETATM   12  N2  UNL     1      -8.428   5.023  13.934  1.00  0.00    -0.275 N 
HETATM   13  C11 UNL     1      -7.673   4.035  13.362  1.00  0.00     0.331 A 
HETATM   14  H16 UNL     1      -9.397   4.809  14.108  1.00  0.00     0.173 HD
HETATM   15  O6  UNL     1      -8.191   2.954  13.092  1.00  0.00    -0.246 OA
ENDBRANCH   5   6
BRANCH   1  16
HETATM   16  O1  UNL     1      -5.613   2.092  10.359  1.00  0.00    -0.384 OA
HETATM   17  C1  UNL     1      -6.095   1.159  11.322  1.00  0.00     0.202 C 
ENDBRANCH   1  16
BRANCH   2  18
HETATM   18  O2  UNL     1      -3.471   3.303   9.424  1.00  0.00    -0.390 OA
HETATM   19  H6  UNL     1      -3.985   2.486   9.258  1.00  0.00     0.210 HD
ENDBRANCH   2  18
BRANCH   3  20
HETATM   20  C5  UNL     1      -1.889   3.969  12.054  1.00  0.00     0.198 C 
BRANCH  20  21
HETATM   21  O3  UNL     1      -1.047   3.783  10.920  1.00  0.00    -0.398 OA
HETATM   22  H10 UNL     1      -1.585   3.957  10.120  1.00  0.00     0.209 HD
ENDBRANCH  20  21
ENDBRANCH   3  20
TORSDOF 5
ENDMDL
MODEL 4
REMARK minimizedAffinity -6.6991725
REMARK  5 active torsions:
REMARK  status: ('A' for Active; 'I' for Inactive)
REMARK    1  A    between atoms: O1_2  and  C2_3 
REMARK    2  A    between atoms: C3_4  and  O2_5 
REMARK    3  A    between atoms: C4_6  and  C5_7 
REMARK    4  A    between atoms: C5_7  and  O3_8 
REMARK    5  A    between atoms: C6_10  and  N1_11 
ROOT
HETATM    1  C2  UNL     1      -0.788   5.572  13.568  1.00  0.00     0.201 C 
HETATM    2  C3  UNL     1       0.671   5.379  13.170  1.00  0.00     0.182 C 
HETATM    3  C4  UNL     1       0.685   5.887  11.734  1.00  0.00     0.179 C 
HETATM    4  O4  UNL     1      -0.541   5.419  11.155  1.00  0.00    -0.353 OA
HETATM    5  C6  UNL     1      -1.525   5.454  12.207  1.00  0.00     0.264 C 
ENDROOT
BRANCH   5   6
HETATM    6  N1  UNL     1      -2.435   4.319  12.034  1.00  0.00    -0.279 N 
HETATM    7  C7  UNL     1      -3.781   4.503  12.299  1.00  0.00     0.110 A 
HETATM    8  C8  UNL     1      -4.696   3.545  12.107  1.00  0.00     0.022 A 
HETATM    9  C9  UNL     1      -6.156   3.703  12.377  1.00  0.00     0.056 C 
HETATM   10  C10 UNL     1      -4.236   2.242  11.577  1.00  0.00     0.256 A 
HETATM   11  O5  UNL     1      -5.005   1.304  11.399  1.00  0.00    -0.267 OA
HETATM   12  N2  UNL     1      -2.904   2.154  11.297  1.00  0.00    -0.275 N 
HETATM   13  C11 UNL     1      -1.968   3.135  11.484  1.00  0.00     0.331 A 
HETATM   14  H16 UNL     1      -2.576   1.283  10.912  1.00  0.00     0.173 HD
HETATM   15  O6  UNL     1      -0.796   2.921  11.187  1.00  0.00    -0.246 OA
ENDBRANCH   5   6
BRANCH   1  16
HETATM   16  O1  UNL     1      -0.915   6.905  14.124  1.00  0.00    -0.384 OA
HETATM   17  C1  UNL     1      -1.842   6.948  15.204  1.00  0.00     0.202 C 
ENDBRANCH   1  16
BRANCH   2  18
HETATM   18  O2  UNL     1       1.585   6.091  14.001  1.00  0.00    -0.390 OA
HETATM   19  H6  UNL     1       1.074   6.844  14.364  1.00  0.00     0.210 HD
ENDBRANCH   2  18
BRANCH   3  20
HETATM   20  C5  UNL     1       1.902   5.394  10.954  1.00  0.00     0.198 C 
BRANCH  20  21
HETATM   21  O3  UNL     1       1.898   3.976  10.816  1.00  0.00    -0.398 OA
HETATM   22  H10 UNL     1       0.992   3.706  10.560  1.00  0.00     0.209 HD
ENDBRANCH  20  21
ENDBRANCH   3  20
TORSDOF 5
ENDMDL
MODEL 5
REMARK minimizedAffinity -6.57733536
REMARK  5 active torsions:
REMARK  status: ('A' for Active; 'I' for Inactive)
REMARK    1  A    between atoms: O1_2  and  C2_3 
REMARK    2  A    between atoms: C3_4  and  O2_5 
REMARK    3  A    between atoms: C4_6  and  C5_7 
REMARK    4  A    between atoms: C5_7  and  O3_8 
REMARK    5  A    between atoms: C6_10  and  N1_11 
ROOT
HETATM    1  C2  UNL     1      -1.864   5.938  12.368  1.00  0.00     0.201 C 
HETATM    2  C3  UNL     1      -2.365   7.108  13.209  1.00  0.00     0.182 C 
HETATM    3  C4  UNL     1      -2.325   6.534  14.619  1.00  0.00     0.179 C 
HETATM    4  O4  UNL     1      -2.777   5.179  14.489  1.00  0.00    -0.353 OA
HETATM    5  C6  UNL     1      -2.290   4.710  13.215  1.00  0.00     0.264 C 
ENDROOT
BRANCH   5   6
HETATM    6  N1  UNL     1      -3.290   3.810  12.636  1.00  0.00    -0.279 N 
HETATM    7  C7  UNL     1      -4.630   4.090  12.841  1.00  0.00     0.110 A 
HETATM    8  C8  UNL     1      -5.615   3.364  12.296  1.00  0.00     0.022 A 
HETATM    9  C9  UNL     1      -7.071   3.633  12.490  1.00  0.00     0.056 C 
HETATM   10  C10 UNL     1      -5.240   2.224  11.430  1.00  0.00     0.256 A 
HETATM   11  O5  UNL     1      -6.079   1.494  10.917  1.00  0.00    -0.267 OA
HETATM   12  N2  UNL     1      -3.902   2.042  11.240  1.00  0.00    -0.275 N 
HETATM   13  C11 UNL     1      -2.893   2.788  11.788  1.00  0.00     0.331 A 
HETATM   14  H16 UNL     1      -3.626   1.286  10.633  1.00  0.00     0.173 HD
HETATM   15  O6  UNL     1      -1.724   2.514  11.530  1.00  0.00    -0.246 OA
ENDBRANCH   5   6
BRANCH   1  16
HETATM   16  O1  UNL     1      -0.421   6.048  12.284  1.00  0.00    -0.384 OA
HETATM   17  C1  UNL     1       0.076   5.623  11.019  1.00  0.00     0.202 C 
ENDBRANCH   1  16
BRANCH   2  18
HETATM   18  O2  UNL     1      -1.564   8.281  13.083  1.00  0.00    -0.390 OA
HETATM   19  H6  UNL     1      -0.674   7.962  12.824  1.00  0.00     0.210 HD
ENDBRANCH   2  18
BRANCH   3  20
HETATM   20  C5  UNL     1      -3.191   7.327  15.594  1.00  0.00     0.198 C 
BRANCH  20  21
HETATM   21  O3  UNL     1      -2.594   7.402  16.886  1.00  0.00    -0.398 OA
HETATM   22  H10 UNL     1      -1.647   7.618  16.761  1.00  0.00     0.209 HD
ENDBRANCH  20  21
ENDBRANCH   3  20
TORSDOF 5
ENDMDL
MODEL 6
REMARK minimizedAffinity -6.53752136
REMARK  5 active torsions:
REMARK  status: ('A' for Active; 'I' for Inactive)
REMARK    1  A    between atoms: O1_2  and  C2_3 
REMARK    2  A    between atoms: C3_4  and  O2_5 
REMARK    3  A    between atoms: C4_6  and  C5_7 
REMARK    4  A    between atoms: C5_7  and  O3_8 
REMARK    5  A    between atoms: C6_10  and  N1_11 
ROOT
HETATM    1  C2  UNL     1      -1.329   4.610  11.215  1.00  0.00     0.201 C 
HETATM    2  C3  UNL     1      -0.147   5.562  11.364  1.00  0.00     0.182 C 
HETATM    3  C4  UNL     1       0.235   5.377  12.827  1.00  0.00     0.179 C 
HETATM    4  O4  UNL     1      -1.009   5.268  13.533  1.00  0.00    -0.353 OA
HETATM    5  C6  UNL     1      -1.915   4.575  12.651  1.00  0.00     0.264 C 
ENDROOT
BRANCH   5   6
HETATM    6  N1  UNL     1      -3.260   5.123  12.839  1.00  0.00    -0.279 N 
HETATM    7  C7  UNL     1      -4.324   4.244  12.948  1.00  0.00     0.110 A 
HETATM    8  C8  UNL     1      -5.578   4.648  13.186  1.00  0.00     0.022 A 
HETATM    9  C9  UNL     1      -6.752   3.734  13.313  1.00  0.00     0.056 C 
HETATM   10  C10 UNL     1      -5.821   6.098  13.352  1.00  0.00     0.256 A 
HETATM   11  O5  UNL     1      -6.942   6.552  13.544  1.00  0.00    -0.267 OA
HETATM   12  N2  UNL     1      -4.716   6.895  13.278  1.00  0.00    -0.275 N 
HETATM   13  C11 UNL     1      -3.432   6.484  13.043  1.00  0.00     0.331 A 
HETATM   14  H16 UNL     1      -4.857   7.884  13.412  1.00  0.00     0.173 HD
HETATM   15  O6  UNL     1      -2.526   7.312  13.002  1.00  0.00    -0.246 OA
ENDBRANCH   5   6
BRANCH   1  16
HETATM   16  O1  UNL     1      -0.800   3.317  10.828  1.00  0.00    -0.384 OA
HETATM   17  C1  UNL     1      -1.756   2.275  10.995  1.00  0.00     0.202 C 
ENDBRANCH   1  16
BRANCH   2  18
HETATM   18  O2  UNL     1       0.935   5.267  10.484  1.00  0.00    -0.390 OA
HETATM   19  H6  UNL     1       0.854   4.311  10.284  1.00  0.00     0.210 HD
ENDBRANCH   2  18
BRANCH   3  20
HETATM   20  C5  UNL     1       1.086   6.529  13.357  1.00  0.00     0.198 C 
BRANCH  20  21
HETATM   21  O3  UNL     1       1.798   6.158  14.533  1.00  0.00    -0.398 OA
HETATM   22  H10 UNL     1       2.188   5.274  14.376  1.00  0.00     0.209 HD
ENDBRANCH  20  21
ENDBRANCH   3  20
TORSDOF 5
ENDMDL
MODEL 7
REMARK minimizedAffinity -6.50153303
REMARK  5 active torsions:
REMARK  status: ('A' for Active; 'I' for Inactive)
REMARK    1  A    between atoms: O1_2  and  C2_3 
REMARK    2  A    between atoms: C3_4  and  O2_5 
REMARK    3  A    between atoms: C4_6  and  C5_7 
REMARK    4  A    between atoms: C5_7  and  O3_8 
REMARK    5  A    between atoms: C6_10  and  N1_11 
ROOT
HETATM    1  C2  UNL     1      -6.886   5.622  14.863  1.00  0.00     0.201 C 
HETATM    2  C3  UNL     1      -6.196   6.677  15.719  1.00  0.00     0.182 C 
HETATM    3  C4  UNL     1      -5.772   7.710  14.683  1.00  0.00     0.179 C 
HETATM    4  O4  UNL     1      -5.330   6.950  13.550  1.00  0.00    -0.353 OA
HETATM    5  C6  UNL     1      -6.169   5.779  13.495  1.00  0.00     0.264 C 
ENDROOT
BRANCH   5   6
HETATM    6  N1  UNL     1      -5.365   4.648  13.027  1.00  0.00    -0.279 N 
HETATM    7  C7  UNL     1      -5.983   3.660  12.280  1.00  0.00     0.110 A 
HETATM    8  C8  UNL     1      -5.318   2.624  11.754  1.00  0.00     0.022 A 
HETATM    9  C9  UNL     1      -5.945   1.539  10.942  1.00  0.00     0.056 C 
HETATM   10  C10 UNL     1      -3.856   2.552  11.977  1.00  0.00     0.256 A 
HETATM   11  O5  UNL     1      -3.178   1.624  11.554  1.00  0.00    -0.267 OA
HETATM   12  N2  UNL     1      -3.314   3.587  12.682  1.00  0.00    -0.275 N 
HETATM   13  C11 UNL     1      -3.991   4.651  13.213  1.00  0.00     0.331 A 
HETATM   14  H16 UNL     1      -2.317   3.569  12.823  1.00  0.00     0.173 HD
HETATM   15  O6  UNL     1      -3.375   5.518  13.827  1.00  0.00    -0.246 OA
ENDBRANCH   5   6
BRANCH   1  16
HETATM   16  O1  UNL     1      -8.287   5.984  14.770  1.00  0.00    -0.384 OA
HETATM   17  C1  UNL     1      -8.766   5.932  13.430  1.00  0.00     0.202 C 
ENDBRANCH   1  16
BRANCH   2  18
HETATM   18  O2  UNL     1      -7.042   7.237  16.721  1.00  0.00    -0.390 OA
HETATM   19  H6  UNL     1      -7.954   7.128  16.382  1.00  0.00     0.210 HD
ENDBRANCH   2  18
BRANCH   3  20
HETATM   20  C5  UNL     1      -4.677   8.639  15.201  1.00  0.00     0.198 C 
BRANCH  20  21
HETATM   21  O3  UNL     1      -5.063  10.008  15.106  1.00  0.00    -0.398 OA
HETATM   22  H10 UNL     1      -5.983  10.080  15.434  1.00  0.00     0.209 HD
ENDBRANCH  20  21
ENDBRANCH   3  20
TORSDOF 5
ENDMDL
MODEL 8
REMARK minimizedAffinity -6.49446249
REMARK  5 active torsions:
REMARK  status: ('A' for Active; 'I' for Inactive)
REMARK    1  A    between atoms: O1_2  and  C2_3 
REMARK    2  A    between atoms: C3_4  and  O2_5 
REMARK    3  A    between atoms: C4_6  and  C5_7 
REMARK    4  A    between atoms: C5_7  and  O3_8 
REMARK    5  A    between atoms: C6_10  and  N1_11 
ROOT
HETATM    1  C2  UNL     1      -3.796   6.724  13.000  1.00  0.00     0.201 C 
HETATM    2  C3  UNL     1      -4.166   8.161  13.353  1.00  0.00     0.182 C 
HETATM    3  C4  UNL     1      -4.356   8.086  14.863  1.00  0.00     0.179 C 
HETATM    4  O4  UNL     1      -5.018   6.835  15.099  1.00  0.00    -0.353 OA
HETATM    5  C6  UNL     1      -4.503   5.912  14.118  1.00  0.00     0.264 C 
ENDROOT
BRANCH   5   6
HETATM    6  N1  UNL     1      -5.583   5.011  13.712  1.00  0.00    -0.279 N 
HETATM    7  C7  UNL     1      -5.315   4.043  12.759  1.00  0.00     0.110 A 
HETATM    8  C8  UNL     1      -6.219   3.134  12.373  1.00  0.00     0.022 A 
HETATM    9  C9  UNL     1      -5.969   2.073  11.353  1.00  0.00     0.056 C 
HETATM   10  C10 UNL     1      -7.554   3.170  13.010  1.00  0.00     0.256 A 
HETATM   11  O5  UNL     1      -8.447   2.392  12.693  1.00  0.00    -0.267 OA
HETATM   12  N2  UNL     1      -7.726   4.122  13.971  1.00  0.00    -0.275 N 
HETATM   13  C11 UNL     1      -6.801   5.047  14.373  1.00  0.00     0.331 A 
HETATM   14  H16 UNL     1      -8.621   4.147  14.434  1.00  0.00     0.173 HD
HETATM   15  O6  UNL     1      -7.089   5.851  15.256  1.00  0.00    -0.246 OA
ENDBRANCH   5   6
BRANCH   1  16
HETATM   16  O1  UNL     1      -2.354   6.610  13.094  1.00  0.00    -0.384 OA
HETATM   17  C1  UNL     1      -1.954   5.422  13.770  1.00  0.00     0.202 C 
ENDBRANCH   1  16
BRANCH   2  18
HETATM   18  O2  UNL     1      -3.168   9.111  12.984  1.00  0.00    -0.390 OA
HETATM   19  H6  UNL     1      -2.326   8.610  12.967  1.00  0.00     0.210 HD
ENDBRANCH   2  18
BRANCH   3  20
HETATM   20  C5  UNL     1      -5.160   9.263  15.408  1.00  0.00     0.198 C 
BRANCH  20  21
HETATM   21  O3  UNL     1      -4.527  10.508  15.124  1.00  0.00    -0.398 OA
HETATM   22  H10 UNL     1      -4.236  10.485  14.189  1.00  0.00     0.209 HD
ENDBRANCH  20  21
ENDBRANCH   3  20
TORSDOF 5
ENDMDL
MODEL 9
REMARK minimizedAffinity -6.45766163
REMARK  5 active torsions:
REMARK  status: ('A' for Active; 'I' for Inactive)
REMARK    1  A    between atoms: O1_2  and  C2_3 
REMARK    2  A    between atoms: C3_4  and  O2_5 
REMARK    3  A    between atoms: C4_6  and  C5_7 
REMARK    4  A    between atoms: C5_7  and  O3_8 
REMARK    5  A    between atoms: C6_10  and  N1_11 
ROOT
HETATM    1  C2  UNL     1      -6.239   4.193  13.222  1.00  0.00     0.201 C 
HETATM    2  C3  UNL     1      -7.678   4.336  13.707  1.00  0.00     0.182 C 
HETATM    3  C4  UNL     1      -8.093   5.670  13.101  1.00  0.00     0.179 C 
HETATM    4  O4  UNL     1      -6.944   6.519  13.231  1.00  0.00    -0.353 OA
HETATM    5  C6  UNL     1      -5.792   5.670  13.060  1.00  0.00     0.264 C 
ENDROOT
BRANCH   5   6
HETATM    6  N1  UNL     1      -4.724   6.147  13.942  1.00  0.00    -0.279 N 
HETATM    7  C7  UNL     1      -3.502   6.478  13.383  1.00  0.00     0.110 A 
HETATM    8  C8  UNL     1      -2.490   6.984  14.099  1.00  0.00     0.022 A 
HETATM    9  C9  UNL     1      -1.158   7.357  13.535  1.00  0.00     0.056 C 
HETATM   10  C10 UNL     1      -2.706   7.206  15.546  1.00  0.00     0.256 A 
HETATM   11  O5  UNL     1      -1.822   7.639  16.277  1.00  0.00    -0.267 OA
HETATM   12  N2  UNL     1      -3.950   6.899  16.012  1.00  0.00    -0.275 N 
HETATM   13  C11 UNL     1      -4.989   6.390  15.281  1.00  0.00     0.331 A 
HETATM   14  H16 UNL     1      -4.125   7.067  16.991  1.00  0.00     0.173 HD
HETATM   15  O6  UNL     1      -6.063   6.160  15.830  1.00  0.00    -0.246 OA
ENDBRANCH   5   6
BRANCH   1  16
HETATM   16  O1  UNL     1      -6.276   3.508  11.945  1.00  0.00    -0.384 OA
HETATM   17  C1  UNL     1      -5.005   2.978  11.584  1.00  0.00     0.202 C 
ENDBRANCH   1  16
BRANCH   2  18
HETATM   18  O2  UNL     1      -8.526   3.269  13.290  1.00  0.00    -0.390 OA
HETATM   19  H6  UNL     1      -8.117   2.915  12.473  1.00  0.00     0.210 HD
ENDBRANCH   2  18
BRANCH   3  20
HETATM   20  C5  UNL     1      -9.317   6.267  13.792  1.00  0.00     0.198 C 
BRANCH  20  21
HETATM   21  O3  UNL     1      -9.184   6.241  15.210  1.00  0.00    -0.398 OA
HETATM   22  H10 UNL     1      -8.281   6.551  15.428  1.00  0.00     0.209 HD
ENDBRANCH  20  21
ENDBRANCH   3  20
TORSDOF 5
ENDMDL
