MODEL 1
REMARK minimizedAffinity -8.03500366
REMARK CNNscore 0.819544256
REMARK CNNaffinity 6.84733057
REMARK  7 active torsions:
REMARK  status: ('A' for Active; 'I' for Inactive)
REMARK    1  A    between atoms: C2_2  and  C30_32 
REMARK    2  A    between atoms: C3_3  and  C4_4 
REMARK    3  A    between atoms: C4_4  and  O1_5 
REMARK    4  A    between atoms: C4_4  and  C5_6 
REMARK    5  A    between atoms: C5_6  and  C6_7 
REMARK    6  A    between atoms: C6_7  and  C8_9 
REMARK    7  A    between atoms: C30_32  and  O4_34 
ROOT
HETATM    1  C8  UNL     1       5.773  55.575  -8.101  1.00  0.00    -0.002 C 
HETATM    2  C9  UNL     1       6.600  54.520  -8.875  1.00  0.00     0.006 C 
HETATM    3  C10 UNL     1       5.601  53.711  -9.729  1.00  0.00     0.011 C 
HETATM    4  C11 UNL     1       4.296  54.537  -9.717  1.00  0.00    -0.032 C 
HETATM    5  C12 UNL     1       4.451  55.633 -10.818  1.00  0.00     0.016 C 
HETATM    6  C13 UNL     1       3.002  53.717  -9.965  1.00  0.00     0.004 C 
HETATM    7  C14 UNL     1       2.806  53.280 -11.426  1.00  0.00     0.007 C 
HETATM    8  C15 UNL     1       1.581  52.378 -11.534  1.00  0.00     0.007 C 
HETATM    9  C16 UNL     1       0.292  53.173 -11.281  1.00  0.00     0.010 C 
HETATM   10  C17 UNL     1      -1.020  52.324 -11.297  1.00  0.00     0.018 C 
HETATM   11  C18 UNL     1      -1.576  52.256 -12.731  1.00  0.00     0.023 C 
HETATM   12  C19 UNL     1      -0.820  50.882 -10.792  1.00  0.00     0.023 C 
HETATM   13  C20 UNL     1      -2.105  52.985 -10.429  1.00  0.00     0.135 C 
HETATM   14  O2  UNL     1      -3.017  52.330  -9.918  1.00  0.00    -0.297 OA
HETATM   15  C21 UNL     1      -2.120  54.493 -10.306  1.00  0.00     0.080 C 
HETATM   16  C22 UNL     1      -0.746  55.111 -10.082  1.00  0.00     0.018 C 
HETATM   17  C23 UNL     1       0.360  54.074 -10.047  1.00  0.00    -0.026 A 
HETATM   18  C24 UNL     1       0.736  53.516  -8.702  1.00  0.00     0.021 A 
HETATM   19  C25 UNL     1       1.735  54.425  -9.413  1.00  0.00    -0.027 A 
HETATM   20  C26 UNL     1       1.916  55.842  -8.849  1.00  0.00     0.011 C 
HETATM   21  C27 UNL     1       3.231  56.161  -8.112  1.00  0.00     0.011 C 
HETATM   22  C28 UNL     1       4.303  55.074  -8.237  1.00  0.00    -0.032 C 
HETATM   23  C29 UNL     1       3.998  53.982  -7.177  1.00  0.00     0.016 C 
ENDROOT
BRANCH   1  24
HETATM   24  C6  UNL     1       6.355  56.113  -6.762  1.00  0.00    -0.011 C 
HETATM   25  C7  UNL     1       5.921  57.580  -6.574  1.00  0.00     0.010 C 
BRANCH  24  26
HETATM   26  C5  UNL     1       7.849  55.946  -6.381  1.00  0.00     0.040 C 
BRANCH  26  27
HETATM   27  C4  UNL     1       8.311  56.203  -4.941  1.00  0.00     0.142 C 
BRANCH  27  28
HETATM   28  C3  UNL     1       9.802  56.416  -4.896  1.00  0.00     0.018 C 
HETATM   29  C2  UNL     1      10.476  57.583  -4.833  1.00  0.00     0.010 C 
HETATM   30  C1  UNL     1       9.868  58.955  -4.823  1.00  0.00     0.055 C 
BRANCH  29  31
HETATM   31  C30 UNL     1      11.963  57.591  -4.756  1.00  0.00     0.171 C 
HETATM   32  O3  UNL     1      12.650  58.559  -4.475  1.00  0.00    -0.646 OA
BRANCH  31  33
HETATM   33  O4  UNL     1      12.530  56.402  -5.008  1.00  0.00    -0.773 OA
HETATM   34  H46 UNL     1      13.491  56.577  -4.918  1.00  0.00     0.167 HD
ENDBRANCH  31  33
ENDBRANCH  29  31
ENDBRANCH  27  28
BRANCH  27  35
HETATM   35  O1  UNL     1       8.029  55.077  -4.119  1.00  0.00    -0.392 OA
HETATM   36  H6  UNL     1       8.536  55.181  -3.297  1.00  0.00     0.210 HD
ENDBRANCH  27  35
ENDBRANCH  26  27
ENDBRANCH  24  26
ENDBRANCH   1  24
TORSDOF 7
ENDMDL
MODEL 2
REMARK minimizedAffinity -8.34028244
REMARK CNNscore 0.459300876
REMARK CNNaffinity 6.72053766
REMARK  7 active torsions:
REMARK  status: ('A' for Active; 'I' for Inactive)
REMARK    1  A    between atoms: C2_2  and  C30_32 
REMARK    2  A    between atoms: C3_3  and  C4_4 
REMARK    3  A    between atoms: C4_4  and  O1_5 
REMARK    4  A    between atoms: C4_4  and  C5_6 
REMARK    5  A    between atoms: C5_6  and  C6_7 
REMARK    6  A    between atoms: C6_7  and  C8_9 
REMARK    7  A    between atoms: C30_32  and  O4_34 
ROOT
HETATM    1  C8  UNL     1       2.277  53.481 -11.199  1.00  0.00    -0.002 C 
HETATM    2  C9  UNL     1       1.059  54.405 -10.959  1.00  0.00     0.006 C 
HETATM    3  C10 UNL     1       1.470  55.407  -9.859  1.00  0.00     0.011 C 
HETATM    4  C11 UNL     1       3.006  55.283  -9.752  1.00  0.00    -0.032 C 
HETATM    5  C12 UNL     1       3.606  56.178 -10.883  1.00  0.00     0.016 C 
HETATM    6  C13 UNL     1       3.600  55.697  -8.380  1.00  0.00     0.004 C 
HETATM    7  C14 UNL     1       3.626  57.215  -8.138  1.00  0.00     0.007 C 
HETATM    8  C15 UNL     1       4.105  57.503  -6.719  1.00  0.00     0.007 C 
HETATM    9  C16 UNL     1       5.591  57.147  -6.561  1.00  0.00     0.010 C 
HETATM   10  C17 UNL     1       6.164  57.337  -5.119  1.00  0.00     0.018 C 
HETATM   11  C18 UNL     1       6.693  58.774  -4.957  1.00  0.00     0.023 C 
HETATM   12  C19 UNL     1       5.125  57.081  -4.011  1.00  0.00     0.023 C 
HETATM   13  C20 UNL     1       7.356  56.393  -4.881  1.00  0.00     0.135 C 
HETATM   14  O2  UNL     1       7.674  56.023  -3.748  1.00  0.00    -0.297 OA
HETATM   15  C21 UNL     1       8.231  56.016  -6.055  1.00  0.00     0.080 C 
HETATM   16  C22 UNL     1       7.457  55.659  -7.317  1.00  0.00     0.018 C 
HETATM   17  C23 UNL     1       5.957  55.776  -7.132  1.00  0.00    -0.026 A 
HETATM   18  C24 UNL     1       5.218  54.538  -6.704  1.00  0.00     0.021 A 
HETATM   19  C25 UNL     1       4.993  55.061  -8.120  1.00  0.00    -0.027 A 
HETATM   20  C26 UNL     1       5.621  54.260  -9.269  1.00  0.00     0.011 C 
HETATM   21  C27 UNL     1       4.680  53.449 -10.181  1.00  0.00     0.011 C 
HETATM   22  C28 UNL     1       3.191  53.734  -9.961  1.00  0.00    -0.032 C 
HETATM   23  C29 UNL     1       2.719  52.883  -8.752  1.00  0.00     0.016 C 
ENDROOT
BRANCH   1  24
HETATM   24  C6  UNL     1       2.008  52.057 -11.765  1.00  0.00    -0.011 C 
HETATM   25  C7  UNL     1       0.866  51.401 -10.964  1.00  0.00     0.010 C 
BRANCH  24  26
HETATM   26  C5  UNL     1       3.148  51.032 -12.004  1.00  0.00     0.040 C 
BRANCH  26  27
HETATM   27  C4  UNL     1       3.455  50.537 -13.423  1.00  0.00     0.142 C 
BRANCH  27  28
HETATM   28  C3  UNL     1       2.631  51.293 -14.434  1.00  0.00     0.018 C 
HETATM   29  C2  UNL     1       3.060  51.982 -15.511  1.00  0.00     0.010 C 
HETATM   30  C1  UNL     1       4.490  52.172 -15.926  1.00  0.00     0.055 C 
BRANCH  29  31
HETATM   31  C30 UNL     1       2.084  52.638 -16.425  1.00  0.00     0.171 C 
HETATM   32  O3  UNL     1       2.137  52.623 -17.643  1.00  0.00    -0.646 OA
BRANCH  31  33
HETATM   33  O4  UNL     1       1.078  53.261 -15.792  1.00  0.00    -0.773 OA
HETATM   34  H46 UNL     1       0.537  53.631 -16.522  1.00  0.00     0.167 HD
ENDBRANCH  31  33
ENDBRANCH  29  31
ENDBRANCH  27  28
BRANCH  27  35
HETATM   35  O1  UNL     1       3.114  49.163 -13.556  1.00  0.00    -0.392 OA
HETATM   36  H6  UNL     1       3.099  48.956 -14.505  1.00  0.00     0.210 HD
ENDBRANCH  27  35
ENDBRANCH  26  27
ENDBRANCH  24  26
ENDBRANCH   1  24
TORSDOF 7
ENDMDL
MODEL 3
REMARK minimizedAffinity -7.92333269
REMARK CNNscore 0.423214078
REMARK CNNaffinity 6.38103533
REMARK  7 active torsions:
REMARK  status: ('A' for Active; 'I' for Inactive)
REMARK    1  A    between atoms: C2_2  and  C30_32 
REMARK    2  A    between atoms: C3_3  and  C4_4 
REMARK    3  A    between atoms: C4_4  and  O1_5 
REMARK    4  A    between atoms: C4_4  and  C5_6 
REMARK    5  A    between atoms: C5_6  and  C6_7 
REMARK    6  A    between atoms: C6_7  and  C8_9 
REMARK    7  A    between atoms: C30_32  and  O4_34 
ROOT
HETATM    1  C8  UNL     1      -2.934  48.753 -23.164  1.00  0.00    -0.002 C 
HETATM    2  C9  UNL     1      -2.063  49.141 -21.944  1.00  0.00     0.006 C 
HETATM    3  C10 UNL     1      -2.923  48.894 -20.687  1.00  0.00     0.011 C 
HETATM    4  C11 UNL     1      -4.112  48.036 -21.172  1.00  0.00    -0.032 C 
HETATM    5  C12 UNL     1      -3.613  46.557 -21.202  1.00  0.00     0.016 C 
HETATM    6  C13 UNL     1      -5.393  48.145 -20.302  1.00  0.00     0.004 C 
HETATM    7  C14 UNL     1      -5.304  47.404 -18.957  1.00  0.00     0.007 C 
HETATM    8  C15 UNL     1      -6.556  47.682 -18.132  1.00  0.00     0.007 C 
HETATM    9  C16 UNL     1      -7.786  47.013 -18.765  1.00  0.00     0.010 C 
HETATM   10  C17 UNL     1      -9.139  47.297 -18.033  1.00  0.00     0.018 C 
HETATM   11  C18 UNL     1      -9.369  46.238 -16.940  1.00  0.00     0.023 C 
HETATM   12  C19 UNL     1      -9.196  48.688 -17.374  1.00  0.00     0.023 C 
HETATM   13  C20 UNL     1     -10.319  47.189 -19.016  1.00  0.00     0.135 C 
HETATM   14  O2  UNL     1     -11.380  47.788 -18.824  1.00  0.00    -0.297 OA
HETATM   15  C21 UNL     1     -10.214  46.223 -20.175  1.00  0.00     0.080 C 
HETATM   16  C22 UNL     1      -8.870  46.255 -20.891  1.00  0.00     0.018 C 
HETATM   17  C23 UNL     1      -7.905  47.248 -20.272  1.00  0.00    -0.026 A 
HETATM   18  C24 UNL     1      -7.890  48.639 -20.841  1.00  0.00     0.021 A 
HETATM   19  C25 UNL     1      -6.676  47.746 -21.081  1.00  0.00    -0.027 A 
HETATM   20  C26 UNL     1      -6.487  47.190 -22.500  1.00  0.00     0.011 C 
HETATM   21  C27 UNL     1      -5.343  47.767 -23.354  1.00  0.00     0.011 C 
HETATM   22  C28 UNL     1      -4.380  48.677 -22.585  1.00  0.00    -0.032 C 
HETATM   23  C29 UNL     1      -5.015  50.091 -22.516  1.00  0.00     0.016 C 
ENDROOT
BRANCH   1  24
HETATM   24  C6  UNL     1      -2.613  49.427 -24.529  1.00  0.00    -0.011 C 
HETATM   25  C7  UNL     1      -3.286  50.812 -24.582  1.00  0.00     0.010 C 
BRANCH  24  26
HETATM   26  C5  UNL     1      -2.804  48.690 -25.881  1.00  0.00     0.040 C 
BRANCH  26  27
HETATM   27  C4  UNL     1      -4.215  48.368 -26.390  1.00  0.00     0.142 C 
BRANCH  27  28
HETATM   28  C3  UNL     1      -4.268  48.463 -27.893  1.00  0.00     0.018 C 
HETATM   29  C2  UNL     1      -5.287  48.135 -28.714  1.00  0.00     0.010 C 
HETATM   30  C1  UNL     1      -6.610  47.563 -28.295  1.00  0.00     0.055 C 
BRANCH  29  31
HETATM   31  C30 UNL     1      -5.165  48.337 -30.184  1.00  0.00     0.171 C 
HETATM   32  O3  UNL     1      -5.551  47.557 -31.038  1.00  0.00    -0.646 OA
BRANCH  31  33
HETATM   33  O4  UNL     1      -4.593  49.501 -30.530  1.00  0.00    -0.773 OA
HETATM   34  H46 UNL     1      -4.590  49.477 -31.510  1.00  0.00     0.167 HD
ENDBRANCH  31  33
ENDBRANCH  29  31
ENDBRANCH  27  28
BRANCH  27  35
HETATM   35  O1  UNL     1      -5.155  49.307 -25.882  1.00  0.00    -0.392 OA
HETATM   36  H6  UNL     1      -5.970  49.214 -26.402  1.00  0.00     0.210 HD
ENDBRANCH  27  35
ENDBRANCH  26  27
ENDBRANCH  24  26
ENDBRANCH   1  24
TORSDOF 7
ENDMDL
MODEL 4
REMARK minimizedAffinity -7.76955652
REMARK CNNscore 0.357687533
REMARK CNNaffinity 5.59156656
REMARK  7 active torsions:
REMARK  status: ('A' for Active; 'I' for Inactive)
REMARK    1  A    between atoms: C2_2  and  C30_32 
REMARK    2  A    between atoms: C3_3  and  C4_4 
REMARK    3  A    between atoms: C4_4  and  O1_5 
REMARK    4  A    between atoms: C4_4  and  C5_6 
REMARK    5  A    between atoms: C5_6  and  C6_7 
REMARK    6  A    between atoms: C6_7  and  C8_9 
REMARK    7  A    between atoms: C30_32  and  O4_34 
ROOT
HETATM    1  C8  UNL     1     -14.127  45.614 -26.193  1.00  0.00    -0.002 C 
HETATM    2  C9  UNL     1     -13.837  44.095 -26.129  1.00  0.00     0.006 C 
HETATM    3  C10 UNL     1     -12.627  43.833 -27.050  1.00  0.00     0.011 C 
HETATM    4  C11 UNL     1     -12.023  45.226 -27.332  1.00  0.00    -0.032 C 
HETATM    5  C12 UNL     1     -11.105  45.570 -26.116  1.00  0.00     0.016 C 
HETATM    6  C13 UNL     1     -11.214  45.332 -28.652  1.00  0.00     0.004 C 
HETATM    7  C14 UNL     1      -9.833  44.657 -28.598  1.00  0.00     0.007 C 
HETATM    8  C15 UNL     1      -9.182  44.708 -29.976  1.00  0.00     0.007 C 
HETATM    9  C16 UNL     1      -8.799  46.148 -30.347  1.00  0.00     0.010 C 
HETATM   10  C17 UNL     1      -8.187  46.320 -31.776  1.00  0.00     0.018 C 
HETATM   11  C18 UNL     1      -6.660  46.139 -31.710  1.00  0.00     0.023 C 
HETATM   12  C19 UNL     1      -8.745  45.317 -32.803  1.00  0.00     0.023 C 
HETATM   13  C20 UNL     1      -8.446  47.740 -32.309  1.00  0.00     0.135 C 
HETATM   14  O2  UNL     1      -8.484  47.983 -33.518  1.00  0.00    -0.297 OA
HETATM   15  C21 UNL     1      -8.530  48.884 -31.323  1.00  0.00     0.080 C 
HETATM   16  C22 UNL     1      -9.357  48.575 -30.082  1.00  0.00     0.018 C 
HETATM   17  C23 UNL     1      -9.913  47.164 -30.090  1.00  0.00    -0.026 A 
HETATM   18  C24 UNL     1     -11.286  46.970 -30.672  1.00  0.00     0.021 A 
HETATM   19  C25 UNL     1     -11.107  46.794 -29.167  1.00  0.00    -0.027 A 
HETATM   20  C26 UNL     1     -11.673  47.897 -28.261  1.00  0.00     0.011 C 
HETATM   21  C27 UNL     1     -12.932  47.574 -27.433  1.00  0.00     0.011 C 
HETATM   22  C28 UNL     1     -13.331  46.095 -27.445  1.00  0.00    -0.032 C 
HETATM   23  C29 UNL     1     -14.142  45.833 -28.741  1.00  0.00     0.016 C 
ENDROOT
BRANCH   1  24
HETATM   24  C6  UNL     1     -15.576  46.090 -25.888  1.00  0.00    -0.011 C 
HETATM   25  C7  UNL     1     -15.559  46.997 -24.642  1.00  0.00     0.010 C 
BRANCH  24  26
HETATM   26  C5  UNL     1     -16.773  45.106 -25.814  1.00  0.00     0.040 C 
BRANCH  26  27
HETATM   27  C4  UNL     1     -18.211  45.638 -25.847  1.00  0.00     0.142 C 
BRANCH  27  28
HETATM   28  C3  UNL     1     -19.071  44.895 -24.856  1.00  0.00     0.018 C 
HETATM   29  C2  UNL     1     -19.298  45.194 -23.561  1.00  0.00     0.010 C 
HETATM   30  C1  UNL     1     -18.703  46.345 -22.802  1.00  0.00     0.055 C 
BRANCH  29  31
HETATM   31  C30 UNL     1     -20.217  44.355 -22.743  1.00  0.00     0.171 C 
HETATM   32  O3  UNL     1     -21.067  43.601 -23.187  1.00  0.00    -0.646 OA
BRANCH  31  33
HETATM   33  O4  UNL     1     -20.030  44.471 -21.419  1.00  0.00    -0.773 OA
HETATM   34  H46 UNL     1     -20.700  43.867 -21.035  1.00  0.00     0.167 HD
ENDBRANCH  31  33
ENDBRANCH  29  31
ENDBRANCH  27  28
BRANCH  27  35
HETATM   35  O1  UNL     1     -18.789  45.434 -27.131  1.00  0.00    -0.392 OA
HETATM   36  H6  UNL     1     -19.747  45.562 -27.043  1.00  0.00     0.210 HD
ENDBRANCH  27  35
ENDBRANCH  26  27
ENDBRANCH  24  26
ENDBRANCH   1  24
TORSDOF 7
ENDMDL
MODEL 5
REMARK minimizedAffinity -8.13823128
REMARK CNNscore 0.279719383
REMARK CNNaffinity 6.42387342
REMARK  7 active torsions:
REMARK  status: ('A' for Active; 'I' for Inactive)
REMARK    1  A    between atoms: C2_2  and  C30_32 
REMARK    2  A    between atoms: C3_3  and  C4_4 
REMARK    3  A    between atoms: C4_4  and  O1_5 
REMARK    4  A    between atoms: C4_4  and  C5_6 
REMARK    5  A    between atoms: C5_6  and  C6_7 
REMARK    6  A    between atoms: C6_7  and  C8_9 
REMARK    7  A    between atoms: C30_32  and  O4_34 
ROOT
HETATM    1  C8  UNL     1       1.969  53.505 -11.012  1.00  0.00    -0.002 C 
HETATM    2  C9  UNL     1       0.819  54.517 -10.793  1.00  0.00     0.006 C 
HETATM    3  C10 UNL     1       1.321  55.543  -9.755  1.00  0.00     0.011 C 
HETATM    4  C11 UNL     1       2.848  55.325  -9.676  1.00  0.00    -0.032 C 
HETATM    5  C12 UNL     1       3.475  56.122 -10.864  1.00  0.00     0.016 C 
HETATM    6  C13 UNL     1       3.501  55.766  -8.339  1.00  0.00     0.004 C 
HETATM    7  C14 UNL     1       3.630  57.290  -8.176  1.00  0.00     0.007 C 
HETATM    8  C15 UNL     1       4.162  57.616  -6.784  1.00  0.00     0.007 C 
HETATM    9  C16 UNL     1       5.625  57.172  -6.641  1.00  0.00     0.010 C 
HETATM   10  C17 UNL     1       6.245  57.396  -5.223  1.00  0.00     0.018 C 
HETATM   11  C18 UNL     1       6.869  58.801  -5.146  1.00  0.00     0.023 C 
HETATM   12  C19 UNL     1       5.221  57.262  -4.081  1.00  0.00     0.023 C 
HETATM   13  C20 UNL     1       7.380  56.389  -4.963  1.00  0.00     0.135 C 
HETATM   14  O2  UNL     1       7.702  56.055  -3.820  1.00  0.00    -0.297 OA
HETATM   15  C21 UNL     1       8.200  55.898  -6.136  1.00  0.00     0.080 C 
HETATM   16  C22 UNL     1       7.373  55.530  -7.361  1.00  0.00     0.018 C 
HETATM   17  C23 UNL     1       5.888  55.753  -7.149  1.00  0.00    -0.026 A 
HETATM   18  C24 UNL     1       5.083  54.589  -6.643  1.00  0.00     0.021 A 
HETATM   19  C25 UNL     1       4.857  55.055  -8.078  1.00  0.00    -0.027 A 
HETATM   20  C26 UNL     1       5.403  54.159  -9.199  1.00  0.00     0.011 C 
HETATM   21  C27 UNL     1       4.389  53.368 -10.047  1.00  0.00     0.011 C 
HETATM   22  C28 UNL     1       2.927  53.759  -9.809  1.00  0.00    -0.032 C 
HETATM   23  C29 UNL     1       2.432  53.001  -8.549  1.00  0.00     0.016 C 
ENDROOT
BRANCH   1  24
HETATM   24  C6  UNL     1       1.595  52.075 -11.499  1.00  0.00    -0.011 C 
HETATM   25  C7  UNL     1       2.148  51.864 -12.923  1.00  0.00     0.010 C 
BRANCH  24  26
HETATM   26  C5  UNL     1       0.151  51.518 -11.400  1.00  0.00     0.040 C 
BRANCH  26  27
HETATM   27  C4  UNL     1      -0.694  51.340 -12.668  1.00  0.00     0.142 C 
BRANCH  27  28
HETATM   28  C3  UNL     1      -1.914  52.223 -12.617  1.00  0.00     0.018 C 
HETATM   29  C2  UNL     1      -2.735  52.451 -11.571  1.00  0.00     0.010 C 
HETATM   30  C1  UNL     1      -2.621  51.834 -10.208  1.00  0.00     0.055 C 
BRANCH  29  31
HETATM   31  C30 UNL     1      -3.879  53.396 -11.702  1.00  0.00     0.171 C 
HETATM   32  O3  UNL     1      -4.496  53.891 -10.774  1.00  0.00    -0.646 OA
BRANCH  31  33
HETATM   33  O4  UNL     1      -4.193  53.700 -12.971  1.00  0.00    -0.773 OA
HETATM   34  H46 UNL     1      -4.949  54.319 -12.882  1.00  0.00     0.167 HD
ENDBRANCH  31  33
ENDBRANCH  29  31
ENDBRANCH  27  28
BRANCH  27  35
HETATM   35  O1  UNL     1      -1.158  49.999 -12.774  1.00  0.00    -0.392 OA
HETATM   36  H6  UNL     1      -1.864  49.986 -13.440  1.00  0.00     0.210 HD
ENDBRANCH  27  35
ENDBRANCH  26  27
ENDBRANCH  24  26
ENDBRANCH   1  24
TORSDOF 7
ENDMDL
MODEL 6
REMARK minimizedAffinity -8.16238403
REMARK CNNscore 0.276623249
REMARK CNNaffinity 6.39427137
REMARK  7 active torsions:
REMARK  status: ('A' for Active; 'I' for Inactive)
REMARK    1  A    between atoms: C2_2  and  C30_32 
REMARK    2  A    between atoms: C3_3  and  C4_4 
REMARK    3  A    between atoms: C4_4  and  O1_5 
REMARK    4  A    between atoms: C4_4  and  C5_6 
REMARK    5  A    between atoms: C5_6  and  C6_7 
REMARK    6  A    between atoms: C6_7  and  C8_9 
REMARK    7  A    between atoms: C30_32  and  O4_34 
ROOT
HETATM    1  C8  UNL     1      -1.196  51.014 -22.364  1.00  0.00    -0.002 C 
HETATM    2  C9  UNL     1      -0.765  51.835 -21.125  1.00  0.00     0.006 C 
HETATM    3  C10 UNL     1      -1.196  51.025 -19.884  1.00  0.00     0.011 C 
HETATM    4  C11 UNL     1      -1.525  49.613 -20.415  1.00  0.00    -0.032 C 
HETATM    5  C12 UNL     1      -0.168  48.848 -20.523  1.00  0.00     0.016 C 
HETATM    6  C13 UNL     1      -2.520  48.803 -19.543  1.00  0.00     0.004 C 
HETATM    7  C14 UNL     1      -1.913  48.257 -18.239  1.00  0.00     0.007 C 
HETATM    8  C15 UNL     1      -3.002  47.593 -17.403  1.00  0.00     0.007 C 
HETATM    9  C16 UNL     1      -3.492  46.301 -18.071  1.00  0.00     0.010 C 
HETATM   10  C17 UNL     1      -4.663  45.578 -17.328  1.00  0.00     0.018 C 
HETATM   11  C18 UNL     1      -4.090  44.593 -16.293  1.00  0.00     0.023 C 
HETATM   12  C19 UNL     1      -5.611  46.546 -16.595  1.00  0.00     0.023 C 
HETATM   13  C20 UNL     1      -5.502  44.749 -18.316  1.00  0.00     0.135 C 
HETATM   14  O2  UNL     1      -6.685  44.477 -18.094  1.00  0.00    -0.297 OA
HETATM   15  C21 UNL     1      -4.820  44.148 -19.525  1.00  0.00     0.080 C 
HETATM   16  C22 UNL     1      -3.867  45.100 -20.236  1.00  0.00     0.018 C 
HETATM   17  C23 UNL     1      -3.790  46.457 -19.564  1.00  0.00    -0.026 A 
HETATM   18  C24 UNL     1      -4.727  47.524 -20.058  1.00  0.00     0.021 A 
HETATM   19  C25 UNL     1      -3.236  47.681 -20.344  1.00  0.00    -0.027 A 
HETATM   20  C26 UNL     1      -2.773  47.451 -21.790  1.00  0.00     0.011 C 
HETATM   21  C27 UNL     1      -2.337  48.680 -22.610  1.00  0.00     0.011 C 
HETATM   22  C28 UNL     1      -2.201  49.968 -21.792  1.00  0.00    -0.032 C 
HETATM   23  C29 UNL     1      -3.614  50.592 -21.649  1.00  0.00     0.016 C 
ENDROOT
BRANCH   1  24
HETATM   24  C6  UNL     1      -1.453  51.784 -23.692  1.00  0.00    -0.011 C 
HETATM   25  C7  UNL     1      -0.351  52.844 -23.884  1.00  0.00     0.010 C 
BRANCH  24  26
HETATM   26  C5  UNL     1      -2.838  52.387 -24.044  1.00  0.00     0.040 C 
BRANCH  26  27
HETATM   27  C4  UNL     1      -3.975  51.476 -24.525  1.00  0.00     0.142 C 
BRANCH  27  28
HETATM   28  C3  UNL     1      -3.663  50.920 -25.891  1.00  0.00     0.018 C 
HETATM   29  C2  UNL     1      -3.879  49.672 -26.353  1.00  0.00     0.010 C 
HETATM   30  C1  UNL     1      -4.466  48.531 -25.573  1.00  0.00     0.055 C 
BRANCH  29  31
HETATM   31  C30 UNL     1      -3.536  49.317 -27.758  1.00  0.00     0.171 C 
HETATM   32  O3  UNL     1      -3.563  48.193 -28.228  1.00  0.00    -0.646 OA
BRANCH  31  33
HETATM   33  O4  UNL     1      -3.199  50.369 -28.519  1.00  0.00    -0.773 OA
HETATM   34  H46 UNL     1      -3.007  49.971 -29.395  1.00  0.00     0.167 HD
ENDBRANCH  31  33
ENDBRANCH  29  31
ENDBRANCH  27  28
BRANCH  27  35
HETATM   35  O1  UNL     1      -5.187  52.211 -24.643  1.00  0.00    -0.392 OA
HETATM   36  H6  UNL     1      -5.806  51.672 -25.163  1.00  0.00     0.210 HD
ENDBRANCH  27  35
ENDBRANCH  26  27
ENDBRANCH  24  26
ENDBRANCH   1  24
TORSDOF 7
ENDMDL
MODEL 7
REMARK minimizedAffinity -9.58162785
REMARK CNNscore 0.257118821
REMARK CNNaffinity 6.34826851
REMARK  7 active torsions:
REMARK  status: ('A' for Active; 'I' for Inactive)
REMARK    1  A    between atoms: C2_2  and  C30_32 
REMARK    2  A    between atoms: C3_3  and  C4_4 
REMARK    3  A    between atoms: C4_4  and  O1_5 
REMARK    4  A    between atoms: C4_4  and  C5_6 
REMARK    5  A    between atoms: C5_6  and  C6_7 
REMARK    6  A    between atoms: C6_7  and  C8_9 
REMARK    7  A    between atoms: C30_32  and  O4_34 
ROOT
HETATM    1  C8  UNL     1      -5.561  48.822 -21.562  1.00  0.00    -0.002 C 
HETATM    2  C9  UNL     1      -5.971  47.913 -22.746  1.00  0.00     0.006 C 
HETATM    3  C10 UNL     1      -5.042  48.272 -23.925  1.00  0.00     0.011 C 
HETATM    4  C11 UNL     1      -3.897  49.099 -23.301  1.00  0.00    -0.032 C 
HETATM    5  C12 UNL     1      -2.871  48.075 -22.720  1.00  0.00     0.016 C 
HETATM    6  C13 UNL     1      -3.182  50.066 -24.281  1.00  0.00     0.004 C 
HETATM    7  C14 UNL     1      -2.241  49.368 -25.277  1.00  0.00     0.007 C 
HETATM    8  C15 UNL     1      -1.694  50.388 -26.270  1.00  0.00     0.007 C 
HETATM    9  C16 UNL     1      -0.729  51.362 -25.577  1.00  0.00     0.010 C 
HETATM   10  C17 UNL     1      -0.166  52.496 -26.494  1.00  0.00     0.018 C 
HETATM   11  C18 UNL     1       1.125  52.014 -27.180  1.00  0.00     0.023 C 
HETATM   12  C19 UNL     1      -1.153  52.942 -27.589  1.00  0.00     0.023 C 
HETATM   13  C20 UNL     1       0.207  53.734 -25.659  1.00  0.00     0.135 C 
HETATM   14  O2  UNL     1       0.229  54.865 -26.150  1.00  0.00    -0.297 OA
HETATM   15  C21 UNL     1       0.680  53.536 -24.236  1.00  0.00     0.080 C 
HETATM   16  C22 UNL     1      -0.144  52.532 -23.442  1.00  0.00     0.018 C 
HETATM   17  C23 UNL     1      -1.267  51.924 -24.260  1.00  0.00    -0.026 A 
HETATM   18  C24 UNL     1      -2.608  52.603 -24.198  1.00  0.00     0.021 A 
HETATM   19  C25 UNL     1      -2.461  51.230 -23.547  1.00  0.00    -0.027 A 
HETATM   20  C26 UNL     1      -2.442  51.183 -22.012  1.00  0.00     0.011 C 
HETATM   21  C27 UNL     1      -3.677  50.607 -21.294  1.00  0.00     0.011 C 
HETATM   22  C28 UNL     1      -4.689  49.931 -22.225  1.00  0.00    -0.032 C 
HETATM   23  C29 UNL     1      -5.587  51.040 -22.834  1.00  0.00     0.016 C 
ENDROOT
BRANCH   1  24
HETATM   24  C6  UNL     1      -6.636  49.135 -20.481  1.00  0.00    -0.011 C 
HETATM   25  C7  UNL     1      -6.062  48.815 -19.088  1.00  0.00     0.010 C 
BRANCH  24  26
HETATM   26  C5  UNL     1      -8.094  48.616 -20.589  1.00  0.00     0.040 C 
BRANCH  26  27
HETATM   27  C4  UNL     1      -8.460  47.230 -20.042  1.00  0.00     0.142 C 
BRANCH  27  28
HETATM   28  C3  UNL     1      -9.147  47.354 -18.707  1.00  0.00     0.018 C 
HETATM   29  C2  UNL     1     -10.445  47.621 -18.458  1.00  0.00     0.010 C 
HETATM   30  C1  UNL     1     -11.505  47.887 -19.487  1.00  0.00     0.055 C 
BRANCH  29  31
HETATM   31  C30 UNL     1     -10.952  47.667 -17.058  1.00  0.00     0.171 C 
HETATM   32  O3  UNL     1     -12.069  47.335 -16.701  1.00  0.00    -0.646 OA
BRANCH  31  33
HETATM   33  O4  UNL     1     -10.048  48.098 -16.165  1.00  0.00    -0.773 OA
HETATM   34  H46 UNL     1     -10.531  48.068 -15.312  1.00  0.00     0.167 HD
ENDBRANCH  31  33
ENDBRANCH  29  31
ENDBRANCH  27  28
BRANCH  27  35
HETATM   35  O1  UNL     1      -7.289  46.450 -19.835  1.00  0.00    -0.392 OA
HETATM   36  H6  UNL     1      -7.537  45.692 -19.282  1.00  0.00     0.210 HD
ENDBRANCH  27  35
ENDBRANCH  26  27
ENDBRANCH  24  26
ENDBRANCH   1  24
TORSDOF 7
ENDMDL
MODEL 8
REMARK minimizedAffinity -7.68516493
REMARK CNNscore 0.245353773
REMARK CNNaffinity 5.77596903
REMARK  7 active torsions:
REMARK  status: ('A' for Active; 'I' for Inactive)
REMARK    1  A    between atoms: C2_2  and  C30_32 
REMARK    2  A    between atoms: C3_3  and  C4_4 
REMARK    3  A    between atoms: C4_4  and  O1_5 
REMARK    4  A    between atoms: C4_4  and  C5_6 
REMARK    5  A    between atoms: C5_6  and  C6_7 
REMARK    6  A    between atoms: C6_7  and  C8_9 
REMARK    7  A    between atoms: C30_32  and  O4_34 
ROOT
HETATM    1  C8  UNL     1      -7.304  46.449 -29.692  1.00  0.00    -0.002 C 
HETATM    2  C9  UNL     1      -6.675  45.036 -29.735  1.00  0.00     0.006 C 
HETATM    3  C10 UNL     1      -7.809  44.035 -29.431  1.00  0.00     0.011 C 
HETATM    4  C11 UNL     1      -9.116  44.845 -29.582  1.00  0.00    -0.032 C 
HETATM    5  C12 UNL     1      -9.455  44.865 -31.106  1.00  0.00     0.016 C 
HETATM    6  C13 UNL     1     -10.323  44.291 -28.779  1.00  0.00     0.004 C 
HETATM    7  C14 UNL     1     -10.948  43.021 -29.379  1.00  0.00     0.007 C 
HETATM    8  C15 UNL     1     -12.034  42.492 -28.449  1.00  0.00     0.007 C 
HETATM    9  C16 UNL     1     -13.242  43.441 -28.426  1.00  0.00     0.010 C 
HETATM   10  C17 UNL     1     -14.387  43.026 -27.445  1.00  0.00     0.018 C 
HETATM   11  C18 UNL     1     -15.378  42.097 -28.168  1.00  0.00     0.023 C 
HETATM   12  C19 UNL     1     -13.877  42.298 -26.186  1.00  0.00     0.023 C 
HETATM   13  C20 UNL     1     -15.184  44.261 -26.989  1.00  0.00     0.135 C 
HETATM   14  O2  UNL     1     -15.798  44.279 -25.919  1.00  0.00    -0.297 OA
HETATM   15  C21 UNL     1     -15.317  45.432 -27.937  1.00  0.00     0.080 C 
HETATM   16  C22 UNL     1     -14.022  45.810 -28.643  1.00  0.00     0.018 C 
HETATM   17  C23 UNL     1     -12.863  44.913 -28.253  1.00  0.00    -0.026 A 
HETATM   18  C24 UNL     1     -12.003  45.360 -27.104  1.00  0.00     0.021 A 
HETATM   19  C25 UNL     1     -11.402  45.375 -28.506  1.00  0.00    -0.027 A 
HETATM   20  C26 UNL     1     -11.195  46.748 -29.163  1.00  0.00     0.011 C 
HETATM   21  C27 UNL     1      -9.752  47.267 -29.308  1.00  0.00     0.011 C 
HETATM   22  C28 UNL     1      -8.673  46.230 -28.979  1.00  0.00    -0.032 C 
HETATM   23  C29 UNL     1      -8.489  46.208 -27.439  1.00  0.00     0.016 C 
ENDROOT
BRANCH   1  24
HETATM   24  C6  UNL     1      -6.370  47.650 -29.361  1.00  0.00    -0.011 C 
HETATM   25  C7  UNL     1      -5.400  47.876 -30.538  1.00  0.00     0.010 C 
BRANCH  24  26
HETATM   26  C5  UNL     1      -5.608  47.760 -28.015  1.00  0.00     0.040 C 
BRANCH  26  27
HETATM   27  C4  UNL     1      -4.200  48.368 -27.973  1.00  0.00     0.142 C 
BRANCH  27  28
HETATM   28  C3  UNL     1      -3.722  48.493 -26.549  1.00  0.00     0.018 C 
HETATM   29  C2  UNL     1      -4.450  48.425 -25.416  1.00  0.00     0.010 C 
HETATM   30  C1  UNL     1      -5.936  48.235 -25.331  1.00  0.00     0.055 C 
BRANCH  29  31
HETATM   31  C30 UNL     1      -3.788  48.534 -24.087  1.00  0.00     0.171 C 
HETATM   32  O3  UNL     1      -4.213  48.062 -23.046  1.00  0.00    -0.646 OA
BRANCH  31  33
HETATM   33  O4  UNL     1      -2.624  49.201 -24.110  1.00  0.00    -0.773 OA
HETATM   34  H46 UNL     1      -2.325  49.182 -23.176  1.00  0.00     0.167 HD
ENDBRANCH  31  33
ENDBRANCH  29  31
ENDBRANCH  27  28
BRANCH  27  35
HETATM   35  O1  UNL     1      -4.207  49.679 -28.524  1.00  0.00    -0.392 OA
HETATM   36  H6  UNL     1      -3.374  50.107 -28.269  1.00  0.00     0.210 HD
ENDBRANCH  27  35
ENDBRANCH  26  27
ENDBRANCH  24  26
ENDBRANCH   1  24
TORSDOF 7
ENDMDL
MODEL 9
REMARK minimizedAffinity -9.00538921
REMARK CNNscore 0.239395872
REMARK CNNaffinity 6.5602994
REMARK  7 active torsions:
REMARK  status: ('A' for Active; 'I' for Inactive)
REMARK    1  A    between atoms: C2_2  and  C30_32 
REMARK    2  A    between atoms: C3_3  and  C4_4 
REMARK    3  A    between atoms: C4_4  and  O1_5 
REMARK    4  A    between atoms: C4_4  and  C5_6 
REMARK    5  A    between atoms: C5_6  and  C6_7 
REMARK    6  A    between atoms: C6_7  and  C8_9 
REMARK    7  A    between atoms: C30_32  and  O4_34 
ROOT
HETATM    1  C8  UNL     1       0.027  51.567 -20.644  1.00  0.00    -0.002 C 
HETATM    2  C9  UNL     1      -0.307  52.310 -19.328  1.00  0.00     0.006 C 
HETATM    3  C10 UNL     1      -1.619  51.698 -18.792  1.00  0.00     0.011 C 
HETATM    4  C11 UNL     1      -1.813  50.392 -19.594  1.00  0.00    -0.032 C 
HETATM    5  C12 UNL     1      -0.942  49.303 -18.892  1.00  0.00     0.016 C 
HETATM    6  C13 UNL     1      -3.283  49.905 -19.702  1.00  0.00     0.004 C 
HETATM    7  C14 UNL     1      -3.836  49.286 -18.407  1.00  0.00     0.007 C 
HETATM    8  C15 UNL     1      -5.316  48.962 -18.582  1.00  0.00     0.007 C 
HETATM    9  C16 UNL     1      -5.508  47.806 -19.575  1.00  0.00     0.010 C 
HETATM   10  C17 UNL     1      -6.997  47.442 -19.882  1.00  0.00     0.018 C 
HETATM   11  C18 UNL     1      -7.494  46.395 -18.869  1.00  0.00     0.023 C 
HETATM   12  C19 UNL     1      -7.946  48.654 -19.823  1.00  0.00     0.023 C 
HETATM   13  C20 UNL     1      -7.123  46.807 -21.278  1.00  0.00     0.135 C 
HETATM   14  O2  UNL     1      -8.175  46.856 -21.921  1.00  0.00    -0.297 OA
HETATM   15  C21 UNL     1      -5.966  45.995 -21.816  1.00  0.00     0.080 C 
HETATM   16  C22 UNL     1      -4.602  46.637 -21.596  1.00  0.00     0.018 C 
HETATM   17  C23 UNL     1      -4.694  47.961 -20.861  1.00  0.00    -0.026 A 
HETATM   18  C24 UNL     1      -4.798  49.206 -21.698  1.00  0.00     0.021 A 
HETATM   19  C25 UNL     1      -3.509  48.965 -20.917  1.00  0.00    -0.027 A 
HETATM   20  C26 UNL     1      -2.269  48.555 -21.724  1.00  0.00     0.011 C 
HETATM   21  C27 UNL     1      -1.140  49.592 -21.886  1.00  0.00     0.011 C 
HETATM   22  C28 UNL     1      -1.302  50.841 -21.014  1.00  0.00    -0.032 C 
HETATM   23  C29 UNL     1      -2.268  51.809 -21.745  1.00  0.00     0.016 C 
ENDROOT
BRANCH   1  24
HETATM   24  C6  UNL     1       0.895  52.313 -21.698  1.00  0.00    -0.011 C 
HETATM   25  C7  UNL     1       1.034  53.792 -21.286  1.00  0.00     0.010 C 
BRANCH  24  26
HETATM   26  C5  UNL     1       0.620  52.208 -23.221  1.00  0.00     0.040 C 
BRANCH  26  27
HETATM   27  C4  UNL     1       0.276  53.466 -24.030  1.00  0.00     0.142 C 
BRANCH  27  28
HETATM   28  C3  UNL     1      -0.376  53.090 -25.336  1.00  0.00     0.018 C 
HETATM   29  C2  UNL     1       0.101  52.280 -26.303  1.00  0.00     0.010 C 
HETATM   30  C1  UNL     1       1.430  51.583 -26.296  1.00  0.00     0.055 C 
BRANCH  29  31
HETATM   31  C30 UNL     1      -0.713  51.995 -27.517  1.00  0.00     0.171 C 
HETATM   32  O3  UNL     1      -1.487  51.062 -27.645  1.00  0.00    -0.646 OA
BRANCH  31  33
HETATM   33  O4  UNL     1      -0.548  52.887 -28.506  1.00  0.00    -0.773 OA
HETATM   34  H46 UNL     1      -1.141  52.561 -29.216  1.00  0.00     0.167 HD
ENDBRANCH  31  33
ENDBRANCH  29  31
ENDBRANCH  27  28
BRANCH  27  35
HETATM   35  O1  UNL     1       1.456  54.192 -24.350  1.00  0.00    -0.392 OA
HETATM   36  H6  UNL     1       1.227  54.831 -25.044  1.00  0.00     0.210 HD
ENDBRANCH  27  35
ENDBRANCH  26  27
ENDBRANCH  24  26
ENDBRANCH   1  24
TORSDOF 7
ENDMDL
