MODEL 1
REMARK minimizedAffinity -7.68336248
REMARK CNNscore 0.685968697
REMARK CNNaffinity 6.74832153
REMARK  9 active torsions:
REMARK  status: ('A' for Active; 'I' for Inactive)
REMARK    1  A    between atoms: C2_2  and  C3_3 
REMARK    2  A    between atoms: C2_2  and  C9_12 
REMARK    3  A    between atoms: C3_3  and  C4_4 
REMARK    4  A    between atoms: C4_4  and  C5_5 
REMARK    5  A    between atoms: C5_5  and  O1_6 
REMARK    6  A    between atoms: C5_5  and  C6_7 
REMARK    7  A    between atoms: C6_7  and  O2_9 
REMARK    8  A    between atoms: C6_7  and  C8_10 
REMARK    9  A    between atoms: C8_10  and  O3_11 
ROOT
HETATM    1  C9  UNL     1      -9.537   6.918  15.091  1.00  0.00    -0.002 C 
HETATM    2  C10 UNL     1      -9.598   6.497  13.608  1.00  0.00     0.007 C 
HETATM    3  C11 UNL     1      -8.199   6.069  13.178  1.00  0.00     0.015 C 
HETATM    4  C12 UNL     1      -7.311   6.072  14.440  1.00  0.00    -0.005 C 
HETATM    5  C13 UNL     1      -7.370   4.675  15.119  1.00  0.00     0.021 C 
HETATM    6  C14 UNL     1      -5.857   6.421  14.069  1.00  0.00    -0.000 C 
HETATM    7  C15 UNL     1      -5.259   7.605  14.351  1.00  0.00    -0.060 C 
HETATM    8  C16 UNL     1      -6.056   8.746  14.958  1.00  0.00     0.036 C 
HETATM    9  C17 UNL     1      -7.570   8.567  14.877  1.00  0.00     0.015 C 
HETATM   10  C18 UNL     1      -8.010   7.166  15.350  1.00  0.00    -0.028 C 
HETATM   11  C19 UNL     1      -7.640   6.985  16.842  1.00  0.00     0.016 C 
HETATM   12  C20 UNL     1      -3.768   7.901  14.038  1.00  0.00    -0.014 C 
HETATM   13  C21 UNL     1      -3.748   8.594  12.657  1.00  0.00     0.020 C 
HETATM   14  C22 UNL     1      -3.141   8.841  15.103  1.00  0.00     0.021 C 
HETATM   15  C23 UNL     1      -1.643   9.036  14.936  1.00  0.00     0.080 C 
HETATM   16  C24 UNL     1      -0.926   7.713  14.997  1.00  0.00     0.135 C 
HETATM   17  O4  UNL     1       0.073   7.588  15.706  1.00  0.00    -0.297 OA
HETATM   18  C25 UNL     1      -1.424   6.593  14.070  1.00  0.00     0.018 C 
HETATM   19  C26 UNL     1      -0.860   5.252  14.609  1.00  0.00     0.023 C 
HETATM   20  C27 UNL     1      -0.803   6.815  12.684  1.00  0.00     0.023 C 
HETATM   21  C28 UNL     1      -2.992   6.541  14.105  1.00  0.00     0.020 C 
HETATM   22  C29 UNL     1      -3.591   5.554  13.101  1.00  0.00     0.090 C 
HETATM   23  C30 UNL     1      -5.086   5.407  13.262  1.00  0.00     0.157 C 
HETATM   24  O5  UNL     1      -5.663   4.488  12.683  1.00  0.00    -0.293 OA
ENDROOT
BRANCH   1  25
HETATM   25  C2  UNL     1     -10.574   8.045  15.412  1.00  0.00    -0.014 C 
HETATM   26  C1  UNL     1     -11.087   8.747  14.149  1.00  0.00     0.010 C 
BRANCH  25  27
HETATM   27  C3  UNL     1      -9.948   9.089  16.383  1.00  0.00     0.007 C 
BRANCH  27  28
HETATM   28  C4  UNL     1     -10.851   9.464  17.568  1.00  0.00     0.035 C 
BRANCH  28  29
HETATM   29  C5  UNL     1     -12.361   9.496  17.261  1.00  0.00     0.154 C 
BRANCH  29  30
HETATM   30  O1  UNL     1     -13.040   8.859  18.357  1.00  0.00    -0.392 OA
HETATM   31  H10 UNL     1     -13.990   8.828  18.110  1.00  0.00     0.210 HD
ENDBRANCH  29  30
BRANCH  29  32
HETATM   32  C6  UNL     1     -13.001  10.896  17.013  1.00  0.00     0.101 C 
HETATM   33  C7  UNL     1     -13.851  10.948  15.745  1.00  0.00     0.051 C 
BRANCH  32  34
HETATM   34  O2  UNL     1     -11.959  11.883  16.902  1.00  0.00    -0.385 OA
HETATM   35  H14 UNL     1     -11.197  11.516  17.394  1.00  0.00     0.210 HD
ENDBRANCH  32  34
BRANCH  32  36
HETATM   36  C8  UNL     1     -13.869  11.312  18.223  1.00  0.00     0.204 C 
BRANCH  36  37
HETATM   37  O3  UNL     1     -13.065  11.418  19.402  1.00  0.00    -0.398 OA
HETATM   38  H17 UNL     1     -12.526  12.223  19.269  1.00  0.00     0.209 HD
ENDBRANCH  36  37
ENDBRANCH  32  36
ENDBRANCH  29  32
ENDBRANCH  28  29
ENDBRANCH  27  28
ENDBRANCH  25  27
ENDBRANCH   1  25
TORSDOF 9
ENDMDL
MODEL 2
REMARK minimizedAffinity -7.74800444
REMARK CNNscore 0.609840393
REMARK CNNaffinity 6.89891768
REMARK  9 active torsions:
REMARK  status: ('A' for Active; 'I' for Inactive)
REMARK    1  A    between atoms: C2_2  and  C3_3 
REMARK    2  A    between atoms: C2_2  and  C9_12 
REMARK    3  A    between atoms: C3_3  and  C4_4 
REMARK    4  A    between atoms: C4_4  and  C5_5 
REMARK    5  A    between atoms: C5_5  and  O1_6 
REMARK    6  A    between atoms: C5_5  and  C6_7 
REMARK    7  A    between atoms: C6_7  and  O2_9 
REMARK    8  A    between atoms: C6_7  and  C8_10 
REMARK    9  A    between atoms: C8_10  and  O3_11 
ROOT
HETATM    1  C9  UNL     1      -2.276   9.362  15.800  1.00  0.00    -0.002 C 
HETATM    2  C10 UNL     1      -1.926   7.951  16.319  1.00  0.00     0.007 C 
HETATM    3  C11 UNL     1      -0.734   7.434  15.521  1.00  0.00     0.015 C 
HETATM    4  C12 UNL     1      -0.248   8.590  14.621  1.00  0.00    -0.005 C 
HETATM    5  C13 UNL     1       0.815   9.430  15.384  1.00  0.00     0.021 C 
HETATM    6  C14 UNL     1       0.351   8.035  13.314  1.00  0.00    -0.000 C 
HETATM    7  C15 UNL     1      -0.252   8.115  12.102  1.00  0.00    -0.060 C 
HETATM    8  C16 UNL     1      -1.662   8.663  11.978  1.00  0.00     0.036 C 
HETATM    9  C17 UNL     1      -2.419   8.759  13.300  1.00  0.00     0.015 C 
HETATM   10  C18 UNL     1      -1.572   9.434  14.399  1.00  0.00    -0.028 C 
HETATM   11  C19 UNL     1      -1.256  10.891  13.985  1.00  0.00     0.016 C 
HETATM   12  C20 UNL     1       0.410   7.619  10.789  1.00  0.00    -0.014 C 
HETATM   13  C21 UNL     1      -0.088   6.173  10.576  1.00  0.00     0.020 C 
HETATM   14  C22 UNL     1      -0.005   8.498   9.578  1.00  0.00     0.021 C 
HETATM   15  C23 UNL     1       0.736   8.158   8.296  1.00  0.00     0.080 C 
HETATM   16  C24 UNL     1       2.223   8.300   8.491  1.00  0.00     0.135 C 
HETATM   17  O4  UNL     1       2.896   8.912   7.661  1.00  0.00    -0.297 OA
HETATM   18  C25 UNL     1       2.855   7.564   9.684  1.00  0.00     0.018 C 
HETATM   19  C26 UNL     1       4.249   8.195   9.938  1.00  0.00     0.023 C 
HETATM   20  C27 UNL     1       3.093   6.105   9.268  1.00  0.00     0.023 C 
HETATM   21  C28 UNL     1       1.961   7.764  10.958  1.00  0.00     0.020 C 
HETATM   22  C29 UNL     1       2.428   6.949  12.164  1.00  0.00     0.090 C 
HETATM   23  C30 UNL     1       1.650   7.277  13.416  1.00  0.00     0.157 C 
HETATM   24  O5  UNL     1       2.063   6.870  14.501  1.00  0.00    -0.293 OA
ENDROOT
BRANCH   1  25
HETATM   25  C2  UNL     1      -3.808   9.654  15.917  1.00  0.00    -0.014 C 
HETATM   26  C1  UNL     1      -4.644   8.794  14.962  1.00  0.00     0.010 C 
BRANCH  25  27
HETATM   27  C3  UNL     1      -4.089  11.163  15.656  1.00  0.00     0.007 C 
BRANCH  27  28
HETATM   28  C4  UNL     1      -3.974  12.049  16.906  1.00  0.00     0.035 C 
BRANCH  28  29
HETATM   29  C5  UNL     1      -3.637  13.528  16.636  1.00  0.00     0.154 C 
BRANCH  29  30
HETATM   30  O1  UNL     1      -2.631  13.562  15.609  1.00  0.00    -0.392 OA
HETATM   31  H10 UNL     1      -2.381  14.507  15.502  1.00  0.00     0.210 HD
ENDBRANCH  29  30
BRANCH  29  32
HETATM   32  C6  UNL     1      -4.819  14.455  16.218  1.00  0.00     0.101 C 
HETATM   33  C7  UNL     1      -5.029  14.510  14.706  1.00  0.00     0.051 C 
BRANCH  32  34
HETATM   34  O2  UNL     1      -4.566  15.791  16.690  1.00  0.00    -0.385 OA
HETATM   35  H14 UNL     1      -3.967  15.689  17.457  1.00  0.00     0.210 HD
ENDBRANCH  32  34
BRANCH  32  36
HETATM   36  C8  UNL     1      -6.130  13.993  16.895  1.00  0.00     0.204 C 
BRANCH  36  37
HETATM   37  O3  UNL     1      -7.014  13.414  15.930  1.00  0.00    -0.398 OA
HETATM   38  H17 UNL     1      -6.607  12.556  15.697  1.00  0.00     0.209 HD
ENDBRANCH  36  37
ENDBRANCH  32  36
ENDBRANCH  29  32
ENDBRANCH  28  29
ENDBRANCH  27  28
ENDBRANCH  25  27
ENDBRANCH   1  25
TORSDOF 9
ENDMDL
MODEL 3
REMARK minimizedAffinity -7.28793907
REMARK CNNscore 0.54243201
REMARK CNNaffinity 7.15357733
REMARK  9 active torsions:
REMARK  status: ('A' for Active; 'I' for Inactive)
REMARK    1  A    between atoms: C2_2  and  C3_3 
REMARK    2  A    between atoms: C2_2  and  C9_12 
REMARK    3  A    between atoms: C3_3  and  C4_4 
REMARK    4  A    between atoms: C4_4  and  C5_5 
REMARK    5  A    between atoms: C5_5  and  O1_6 
REMARK    6  A    between atoms: C5_5  and  C6_7 
REMARK    7  A    between atoms: C6_7  and  O2_9 
REMARK    8  A    between atoms: C6_7  and  C8_10 
REMARK    9  A    between atoms: C8_10  and  O3_11 
ROOT
HETATM    1  C9  UNL     1     -10.187  -7.107  -4.102  1.00  0.00    -0.002 C 
HETATM    2  C10 UNL     1     -11.350  -7.940  -3.523  1.00  0.00     0.007 C 
HETATM    3  C11 UNL     1     -10.900  -8.518  -2.185  1.00  0.00     0.015 C 
HETATM    4  C12 UNL     1      -9.518  -7.909  -1.864  1.00  0.00    -0.005 C 
HETATM    5  C13 UNL     1      -9.706  -6.590  -1.063  1.00  0.00     0.021 C 
HETATM    6  C14 UNL     1      -8.670  -8.907  -1.053  1.00  0.00    -0.000 C 
HETATM    7  C15 UNL     1      -7.609  -9.591  -1.550  1.00  0.00    -0.060 C 
HETATM    8  C16 UNL     1      -7.260  -9.505  -3.026  1.00  0.00     0.036 C 
HETATM    9  C17 UNL     1      -8.364  -8.915  -3.899  1.00  0.00     0.015 C 
HETATM   10  C18 UNL     1      -8.931  -7.609  -3.306  1.00  0.00    -0.028 C 
HETATM   11  C19 UNL     1      -7.815  -6.538  -3.254  1.00  0.00     0.016 C 
HETATM   12  C20 UNL     1      -6.722 -10.529  -0.689  1.00  0.00    -0.014 C 
HETATM   13  C21 UNL     1      -7.302 -11.950  -0.865  1.00  0.00     0.020 C 
HETATM   14  C22 UNL     1      -5.244 -10.505  -1.164  1.00  0.00     0.021 C 
HETATM   15  C23 UNL     1      -4.302 -11.281  -0.259  1.00  0.00     0.080 C 
HETATM   16  C24 UNL     1      -4.352 -10.740   1.146  1.00  0.00     0.135 C 
HETATM   17  O4  UNL     1      -3.305 -10.507   1.752  1.00  0.00    -0.297 OA
HETATM   18  C25 UNL     1      -5.734 -10.606   1.805  1.00  0.00     0.018 C 
HETATM   19  C26 UNL     1      -5.585  -9.648   3.016  1.00  0.00     0.023 C 
HETATM   20  C27 UNL     1      -6.126 -11.980   2.367  1.00  0.00     0.023 C 
HETATM   21  C28 UNL     1      -6.747  -9.984   0.780  1.00  0.00     0.020 C 
HETATM   22  C29 UNL     1      -8.187  -9.946   1.294  1.00  0.00     0.090 C 
HETATM   23  C30 UNL     1      -9.111  -9.204   0.358  1.00  0.00     0.157 C 
HETATM   24  O5  UNL     1     -10.238  -8.899   0.747  1.00  0.00    -0.293 OA
ENDROOT
BRANCH   1  25
HETATM   25  C2  UNL     1     -10.181  -7.138  -5.666  1.00  0.00    -0.014 C 
HETATM   26  C1  UNL     1      -9.411  -8.339  -6.227  1.00  0.00     0.010 C 
BRANCH  25  27
HETATM   27  C3  UNL     1      -9.583  -5.814  -6.227  1.00  0.00     0.007 C 
BRANCH  27  28
HETATM   28  C4  UNL     1     -10.483  -4.585  -6.029  1.00  0.00     0.035 C 
BRANCH  28  29
HETATM   29  C5  UNL     1     -10.119  -3.689  -4.829  1.00  0.00     0.154 C 
BRANCH  29  30
HETATM   30  O1  UNL     1      -8.687  -3.695  -4.703  1.00  0.00    -0.392 OA
HETATM   31  H10 UNL     1      -8.481  -3.177  -3.893  1.00  0.00     0.210 HD
ENDBRANCH  29  30
BRANCH  29  32
HETATM   32  C6  UNL     1     -10.618  -2.212  -4.875  1.00  0.00     0.101 C 
HETATM   33  C7  UNL     1      -9.518  -1.222  -5.252  1.00  0.00     0.051 C 
BRANCH  32  34
HETATM   34  O2  UNL     1     -11.137  -1.844  -3.584  1.00  0.00    -0.385 OA
HETATM   35  H14 UNL     1     -11.411  -2.684  -3.162  1.00  0.00     0.210 HD
ENDBRANCH  32  34
BRANCH  32  36
HETATM   36  C8  UNL     1     -11.790  -2.071  -5.874  1.00  0.00     0.204 C 
BRANCH  36  37
HETATM   37  O3  UNL     1     -13.011  -2.520  -5.277  1.00  0.00    -0.398 OA
HETATM   38  H17 UNL     1     -13.238  -1.833  -4.619  1.00  0.00     0.209 HD
ENDBRANCH  36  37
ENDBRANCH  32  36
ENDBRANCH  29  32
ENDBRANCH  28  29
ENDBRANCH  27  28
ENDBRANCH  25  27
ENDBRANCH   1  25
TORSDOF 9
ENDMDL
MODEL 4
REMARK minimizedAffinity -7.47512817
REMARK CNNscore 0.454316467
REMARK CNNaffinity 7.00950432
REMARK  9 active torsions:
REMARK  status: ('A' for Active; 'I' for Inactive)
REMARK    1  A    between atoms: C2_2  and  C3_3 
REMARK    2  A    between atoms: C2_2  and  C9_12 
REMARK    3  A    between atoms: C3_3  and  C4_4 
REMARK    4  A    between atoms: C4_4  and  C5_5 
REMARK    5  A    between atoms: C5_5  and  O1_6 
REMARK    6  A    between atoms: C5_5  and  C6_7 
REMARK    7  A    between atoms: C6_7  and  O2_9 
REMARK    8  A    between atoms: C6_7  and  C8_10 
REMARK    9  A    between atoms: C8_10  and  O3_11 
ROOT
HETATM    1  C9  UNL     1      -2.705   2.270  10.816  1.00  0.00    -0.002 C 
HETATM    2  C10 UNL     1      -3.256   1.113  11.677  1.00  0.00     0.007 C 
HETATM    3  C11 UNL     1      -4.530   1.596  12.361  1.00  0.00     0.015 C 
HETATM    4  C12 UNL     1      -4.852   2.996  11.795  1.00  0.00    -0.005 C 
HETATM    5  C13 UNL     1      -5.756   2.852  10.538  1.00  0.00     0.021 C 
HETATM    6  C14 UNL     1      -5.558   3.854  12.862  1.00  0.00    -0.000 C 
HETATM    7  C15 UNL     1      -4.977   4.889  13.518  1.00  0.00    -0.060 C 
HETATM    8  C16 UNL     1      -3.502   5.194  13.324  1.00  0.00     0.036 C 
HETATM    9  C17 UNL     1      -2.711   4.072  12.656  1.00  0.00     0.015 C 
HETATM   10  C18 UNL     1      -3.419   3.542  11.392  1.00  0.00    -0.028 C 
HETATM   11  C19 UNL     1      -3.517   4.675  10.342  1.00  0.00     0.016 C 
HETATM   12  C20 UNL     1      -5.736   5.789  14.529  1.00  0.00    -0.014 C 
HETATM   13  C21 UNL     1      -5.471   5.183  15.926  1.00  0.00     0.020 C 
HETATM   14  C22 UNL     1      -5.218   7.252  14.488  1.00  0.00     0.021 C 
HETATM   15  C23 UNL     1      -6.031   8.210  15.342  1.00  0.00     0.080 C 
HETATM   16  C24 UNL     1      -7.473   8.211  14.909  1.00  0.00     0.135 C 
HETATM   17  O4  UNL     1      -8.062   9.279  14.735  1.00  0.00    -0.297 OA
HETATM   18  C25 UNL     1      -8.184   6.852  14.809  1.00  0.00     0.018 C 
HETATM   19  C26 UNL     1      -9.459   7.052  13.948  1.00  0.00     0.023 C 
HETATM   20  C27 UNL     1      -8.652   6.458  16.217  1.00  0.00     0.023 C 
HETATM   21  C28 UNL     1      -7.242   5.817  14.099  1.00  0.00     0.020 C 
HETATM   22  C29 UNL     1      -7.803   4.395  14.082  1.00  0.00     0.090 C 
HETATM   23  C30 UNL     1      -6.956   3.453  13.260  1.00  0.00     0.157 C 
HETATM   24  O5  UNL     1      -7.402   2.343  12.971  1.00  0.00    -0.293 OA
ENDROOT
BRANCH   1  25
HETATM   25  C2  UNL     1      -1.143   2.227  10.728  1.00  0.00    -0.014 C 
HETATM   26  C1  UNL     1      -0.593   0.796  10.754  1.00  0.00     0.010 C 
BRANCH  25  27
HETATM   27  C3  UNL     1      -0.517   3.057  11.887  1.00  0.00     0.007 C 
BRANCH  27  28
HETATM   28  C4  UNL     1       0.682   3.920  11.465  1.00  0.00     0.035 C 
BRANCH  28  29
HETATM   29  C5  UNL     1       0.504   5.438  11.669  1.00  0.00     0.154 C 
BRANCH  29  30
HETATM   30  O1  UNL     1       0.938   5.748  13.005  1.00  0.00    -0.392 OA
HETATM   31  H10 UNL     1       0.752   6.704  13.138  1.00  0.00     0.210 HD
ENDBRANCH  29  30
BRANCH  29  32
HETATM   32  C6  UNL     1       1.242   6.375  10.666  1.00  0.00     0.101 C 
HETATM   33  C7  UNL     1       0.328   7.434  10.055  1.00  0.00     0.051 C 
BRANCH  32  34
HETATM   34  O2  UNL     1       1.800   5.586   9.599  1.00  0.00    -0.385 OA
HETATM   35  H14 UNL     1       1.924   4.690   9.973  1.00  0.00     0.210 HD
ENDBRANCH  32  34
BRANCH  32  36
HETATM   36  C8  UNL     1       2.434   7.074  11.361  1.00  0.00     0.204 C 
BRANCH  36  37
HETATM   37  O3  UNL     1       3.478   6.133  11.629  1.00  0.00    -0.398 OA
HETATM   38  H17 UNL     1       3.863   5.926  10.753  1.00  0.00     0.209 HD
ENDBRANCH  36  37
ENDBRANCH  32  36
ENDBRANCH  29  32
ENDBRANCH  28  29
ENDBRANCH  27  28
ENDBRANCH  25  27
ENDBRANCH   1  25
TORSDOF 9
ENDMDL
MODEL 5
REMARK minimizedAffinity -8.08353424
REMARK CNNscore 0.425011933
REMARK CNNaffinity 6.85399103
REMARK  9 active torsions:
REMARK  status: ('A' for Active; 'I' for Inactive)
REMARK    1  A    between atoms: C2_2  and  C3_3 
REMARK    2  A    between atoms: C2_2  and  C9_12 
REMARK    3  A    between atoms: C3_3  and  C4_4 
REMARK    4  A    between atoms: C4_4  and  C5_5 
REMARK    5  A    between atoms: C5_5  and  O1_6 
REMARK    6  A    between atoms: C5_5  and  C6_7 
REMARK    7  A    between atoms: C6_7  and  O2_9 
REMARK    8  A    between atoms: C6_7  and  C8_10 
REMARK    9  A    between atoms: C8_10  and  O3_11 
ROOT
HETATM    1  C9  UNL     1       0.826   7.458  12.673  1.00  0.00    -0.002 C 
HETATM    2  C10 UNL     1       1.145   6.059  13.244  1.00  0.00     0.007 C 
HETATM    3  C11 UNL     1      -0.144   5.243  13.249  1.00  0.00     0.015 C 
HETATM    4  C12 UNL     1      -1.221   6.084  12.531  1.00  0.00    -0.005 C 
HETATM    5  C13 UNL     1      -1.199   5.766  11.009  1.00  0.00     0.021 C 
HETATM    6  C14 UNL     1      -2.613   5.780  13.117  1.00  0.00    -0.000 C 
HETATM    7  C15 UNL     1      -3.309   6.628  13.914  1.00  0.00    -0.060 C 
HETATM    8  C16 UNL     1      -2.679   7.922  14.399  1.00  0.00     0.036 C 
HETATM    9  C17 UNL     1      -1.165   7.989  14.220  1.00  0.00     0.015 C 
HETATM   10  C18 UNL     1      -0.734   7.569  12.799  1.00  0.00    -0.028 C 
HETATM   11  C19 UNL     1      -1.328   8.557  11.766  1.00  0.00     0.016 C 
HETATM   12  C20 UNL     1      -4.745   6.331  14.425  1.00  0.00    -0.014 C 
HETATM   13  C21 UNL     1      -4.580   5.681  15.816  1.00  0.00     0.020 C 
HETATM   14  C22 UNL     1      -5.582   7.633  14.553  1.00  0.00     0.021 C 
HETATM   15  C23 UNL     1      -7.041   7.386  14.895  1.00  0.00     0.080 C 
HETATM   16  C24 UNL     1      -7.689   6.512  13.854  1.00  0.00     0.135 C 
HETATM   17  O4  UNL     1      -8.781   6.828  13.380  1.00  0.00    -0.297 OA
HETATM   18  C25 UNL     1      -6.992   5.187  13.507  1.00  0.00     0.018 C 
HETATM   19  C26 UNL     1      -7.565   4.697  12.151  1.00  0.00     0.023 C 
HETATM   20  C27 UNL     1      -7.394   4.150  14.565  1.00  0.00     0.023 C 
HETATM   21  C28 UNL     1      -5.449   5.429  13.354  1.00  0.00     0.020 C 
HETATM   22  C29 UNL     1      -4.647   4.143  13.154  1.00  0.00     0.090 C 
HETATM   23  C30 UNL     1      -3.192   4.413  12.854  1.00  0.00     0.157 C 
HETATM   24  O5  UNL     1      -2.483   3.493  12.448  1.00  0.00    -0.293 OA
ENDROOT
BRANCH   1  25
HETATM   25  C2  UNL     1       1.738   8.558  13.308  1.00  0.00    -0.014 C 
HETATM   26  C1  UNL     1       2.526   9.347  12.255  1.00  0.00     0.010 C 
BRANCH  25  27
HETATM   27  C3  UNL     1       2.718   7.917  14.334  1.00  0.00     0.007 C 
BRANCH  27  28
HETATM   28  C4  UNL     1       3.640   8.925  15.038  1.00  0.00     0.035 C 
BRANCH  28  29
HETATM   29  C5  UNL     1       5.079   8.995  14.491  1.00  0.00     0.154 C 
BRANCH  29  30
HETATM   30  O1  UNL     1       5.618  10.278  14.852  1.00  0.00    -0.392 OA
HETATM   31  H10 UNL     1       6.506  10.329  14.435  1.00  0.00     0.210 HD
ENDBRANCH  29  30
BRANCH  29  32
HETATM   32  C6  UNL     1       6.065   7.881  14.958  1.00  0.00     0.101 C 
HETATM   33  C7  UNL     1       6.673   7.097  13.797  1.00  0.00     0.051 C 
BRANCH  32  34
HETATM   34  O2  UNL     1       5.369   6.957  15.815  1.00  0.00    -0.385 OA
HETATM   35  H14 UNL     1       4.622   7.464  16.194  1.00  0.00     0.210 HD
ENDBRANCH  32  34
BRANCH  32  36
HETATM   36  C8  UNL     1       7.203   8.493  15.808  1.00  0.00     0.204 C 
BRANCH  36  37
HETATM   37  O3  UNL     1       8.361   7.653  15.771  1.00  0.00    -0.398 OA
HETATM   38  H17 UNL     1       8.720   7.756  14.868  1.00  0.00     0.209 HD
ENDBRANCH  36  37
ENDBRANCH  32  36
ENDBRANCH  29  32
ENDBRANCH  28  29
ENDBRANCH  27  28
ENDBRANCH  25  27
ENDBRANCH   1  25
TORSDOF 9
ENDMDL
MODEL 6
REMARK minimizedAffinity -7.64147186
REMARK CNNscore 0.42207247
REMARK CNNaffinity 6.44023323
REMARK  9 active torsions:
REMARK  status: ('A' for Active; 'I' for Inactive)
REMARK    1  A    between atoms: C2_2  and  C3_3 
REMARK    2  A    between atoms: C2_2  and  C9_12 
REMARK    3  A    between atoms: C3_3  and  C4_4 
REMARK    4  A    between atoms: C4_4  and  C5_5 
REMARK    5  A    between atoms: C5_5  and  O1_6 
REMARK    6  A    between atoms: C5_5  and  C6_7 
REMARK    7  A    between atoms: C6_7  and  O2_9 
REMARK    8  A    between atoms: C6_7  and  C8_10 
REMARK    9  A    between atoms: C8_10  and  O3_11 
ROOT
HETATM    1  C9  UNL     1     -13.280 -12.688  29.086  1.00  0.00    -0.002 C 
HETATM    2  C10 UNL     1     -12.712 -12.872  30.509  1.00  0.00     0.007 C 
HETATM    3  C11 UNL     1     -13.107 -11.656  31.339  1.00  0.00     0.015 C 
HETATM    4  C12 UNL     1     -14.056 -10.799  30.474  1.00  0.00    -0.005 C 
HETATM    5  C13 UNL     1     -15.524 -11.253  30.709  1.00  0.00     0.021 C 
HETATM    6  C14 UNL     1     -13.898  -9.307  30.826  1.00  0.00    -0.000 C 
HETATM    7  C15 UNL     1     -13.287  -8.394  30.031  1.00  0.00    -0.060 C 
HETATM    8  C16 UNL     1     -12.584  -8.830  28.757  1.00  0.00     0.036 C 
HETATM    9  C17 UNL     1     -12.328 -10.332  28.662  1.00  0.00     0.015 C 
HETATM   10  C18 UNL     1     -13.591 -11.152  29.000  1.00  0.00    -0.028 C 
HETATM   11  C19 UNL     1     -14.699 -10.844  27.965  1.00  0.00     0.016 C 
HETATM   12  C20 UNL     1     -13.213  -6.882  30.373  1.00  0.00    -0.014 C 
HETATM   13  C21 UNL     1     -11.864  -6.670  31.095  1.00  0.00     0.020 C 
HETATM   14  C22 UNL     1     -13.261  -6.008  29.090  1.00  0.00     0.021 C 
HETATM   15  C23 UNL     1     -13.353  -4.518  29.372  1.00  0.00     0.080 C 
HETATM   16  C24 UNL     1     -14.575  -4.210  30.197  1.00  0.00     0.135 C 
HETATM   17  O4  UNL     1     -15.320  -3.284  29.869  1.00  0.00    -0.297 OA
HETATM   18  C25 UNL     1     -14.777  -5.011  31.493  1.00  0.00     0.018 C 
HETATM   19  C26 UNL     1     -16.261  -4.852  31.916  1.00  0.00     0.023 C 
HETATM   20  C27 UNL     1     -13.925  -4.358  32.590  1.00  0.00     0.023 C 
HETATM   21  C28 UNL     1     -14.480  -6.528  31.224  1.00  0.00     0.020 C 
HETATM   22  C29 UNL     1     -14.511  -7.388  32.488  1.00  0.00     0.090 C 
HETATM   23  C30 UNL     1     -14.379  -8.862  32.184  1.00  0.00     0.157 C 
HETATM   24  O5  UNL     1     -14.614  -9.680  33.072  1.00  0.00    -0.293 OA
ENDROOT
BRANCH   1  25
HETATM   25  C2  UNL     1     -12.363 -13.357  28.010  1.00  0.00    -0.014 C 
HETATM   26  C1  UNL     1     -11.469 -14.454  28.600  1.00  0.00     0.010 C 
BRANCH  25  27
HETATM   27  C3  UNL     1     -11.487 -12.280  27.306  1.00  0.00     0.007 C 
BRANCH  27  28
HETATM   28  C4  UNL     1     -10.122 -12.797  26.825  1.00  0.00     0.035 C 
BRANCH  28  29
HETATM   29  C5  UNL     1     -10.043 -13.150  25.327  1.00  0.00     0.154 C 
BRANCH  29  30
HETATM   30  O1  UNL     1      -9.970 -11.916  24.594  1.00  0.00    -0.392 OA
HETATM   31  H10 UNL     1      -9.991 -12.160  23.643  1.00  0.00     0.210 HD
ENDBRANCH  29  30
BRANCH  29  32
HETATM   32  C6  UNL     1      -8.869 -14.074  24.881  1.00  0.00     0.101 C 
HETATM   33  C7  UNL     1      -7.837 -13.353  24.017  1.00  0.00     0.051 C 
BRANCH  32  34
HETATM   34  O2  UNL     1      -9.395 -15.184  24.130  1.00  0.00    -0.385 OA
HETATM   35  H14 UNL     1     -10.320 -15.289  24.431  1.00  0.00     0.210 HD
ENDBRANCH  32  34
BRANCH  32  36
HETATM   36  C8  UNL     1      -8.162 -14.679  26.117  1.00  0.00     0.204 C 
BRANCH  36  37
HETATM   37  O3  UNL     1      -7.142 -15.597  25.710  1.00  0.00    -0.398 OA
HETATM   38  H17 UNL     1      -6.432 -15.037  25.338  1.00  0.00     0.209 HD
ENDBRANCH  36  37
ENDBRANCH  32  36
ENDBRANCH  29  32
ENDBRANCH  28  29
ENDBRANCH  27  28
ENDBRANCH  25  27
ENDBRANCH   1  25
TORSDOF 9
ENDMDL
MODEL 7
REMARK minimizedAffinity -8.79680252
REMARK CNNscore 0.394833535
REMARK CNNaffinity 6.66499567
REMARK  9 active torsions:
REMARK  status: ('A' for Active; 'I' for Inactive)
REMARK    1  A    between atoms: C2_2  and  C3_3 
REMARK    2  A    between atoms: C2_2  and  C9_12 
REMARK    3  A    between atoms: C3_3  and  C4_4 
REMARK    4  A    between atoms: C4_4  and  C5_5 
REMARK    5  A    between atoms: C5_5  and  O1_6 
REMARK    6  A    between atoms: C5_5  and  C6_7 
REMARK    7  A    between atoms: C6_7  and  O2_9 
REMARK    8  A    between atoms: C6_7  and  C8_10 
REMARK    9  A    between atoms: C8_10  and  O3_11 
ROOT
HETATM    1  C9  UNL     1      -9.304   6.582  14.416  1.00  0.00    -0.002 C 
HETATM    2  C10 UNL     1      -9.171   6.225  12.921  1.00  0.00     0.007 C 
HETATM    3  C11 UNL     1      -7.713   5.872  12.645  1.00  0.00     0.015 C 
HETATM    4  C12 UNL     1      -6.981   5.854  14.003  1.00  0.00    -0.005 C 
HETATM    5  C13 UNL     1      -7.058   4.428  14.616  1.00  0.00     0.021 C 
HETATM    6  C14 UNL     1      -5.511   6.277  13.823  1.00  0.00    -0.000 C 
HETATM    7  C15 UNL     1      -5.003   7.471  14.220  1.00  0.00    -0.060 C 
HETATM    8  C16 UNL     1      -5.917   8.551  14.771  1.00  0.00     0.036 C 
HETATM    9  C17 UNL     1      -7.401   8.316  14.503  1.00  0.00     0.015 C 
HETATM   10  C18 UNL     1      -7.830   6.879  14.865  1.00  0.00    -0.028 C 
HETATM   11  C19 UNL     1      -7.631   6.648  16.382  1.00  0.00     0.016 C 
HETATM   12  C20 UNL     1      -3.500   7.838  14.099  1.00  0.00    -0.014 C 
HETATM   13  C21 UNL     1      -3.349   8.591  12.758  1.00  0.00     0.020 C 
HETATM   14  C22 UNL     1      -3.045   8.755  15.267  1.00  0.00     0.021 C 
HETATM   15  C23 UNL     1      -1.549   9.017  15.287  1.00  0.00     0.080 C 
HETATM   16  C24 UNL     1      -0.786   7.722  15.383  1.00  0.00     0.135 C 
HETATM   17  O4  UNL     1       0.128   7.606  16.201  1.00  0.00    -0.297 OA
HETATM   18  C25 UNL     1      -1.121   6.625  14.360  1.00  0.00     0.018 C 
HETATM   19  C26 UNL     1      -0.565   5.285  14.910  1.00  0.00     0.023 C 
HETATM   20  C27 UNL     1      -0.352   6.932  13.067  1.00  0.00     0.023 C 
HETATM   21  C28 UNL     1      -2.678   6.509  14.205  1.00  0.00     0.020 C 
HETATM   22  C29 UNL     1      -3.110   5.544  13.100  1.00  0.00     0.090 C 
HETATM   23  C30 UNL     1      -4.605   5.331  13.075  1.00  0.00     0.157 C 
HETATM   24  O5  UNL     1      -5.068   4.416  12.396  1.00  0.00    -0.293 OA
ENDROOT
BRANCH   1  25
HETATM   25  C2  UNL     1     -10.421   7.652  14.654  1.00  0.00    -0.014 C 
HETATM   26  C1  UNL     1     -10.495   8.109  16.115  1.00  0.00     0.010 C 
BRANCH  25  27
HETATM   27  C3  UNL     1     -11.803   7.094  14.202  1.00  0.00     0.007 C 
BRANCH  27  28
HETATM   28  C4  UNL     1     -12.465   7.900  13.073  1.00  0.00     0.035 C 
BRANCH  28  29
HETATM   29  C5  UNL     1     -11.917   9.326  12.873  1.00  0.00     0.154 C 
BRANCH  29  30
HETATM   30  O1  UNL     1     -11.762   9.536  11.459  1.00  0.00    -0.392 OA
HETATM   31  H10 UNL     1     -11.348  10.421  11.357  1.00  0.00     0.210 HD
ENDBRANCH  29  30
BRANCH  29  32
HETATM   32  C6  UNL     1     -12.759  10.495  13.470  1.00  0.00     0.101 C 
HETATM   33  C7  UNL     1     -14.092  10.033  14.054  1.00  0.00     0.051 C 
BRANCH  32  34
HETATM   34  O2  UNL     1     -13.026  11.464  12.440  1.00  0.00    -0.385 OA
HETATM   35  H14 UNL     1     -12.306  11.356  11.785  1.00  0.00     0.210 HD
ENDBRANCH  32  34
BRANCH  32  36
HETATM   36  C8  UNL     1     -11.954  11.232  14.566  1.00  0.00     0.204 C 
BRANCH  36  37
HETATM   37  O3  UNL     1     -10.684  11.651  14.056  1.00  0.00    -0.398 OA
HETATM   38  H17 UNL     1     -10.887  12.384  13.443  1.00  0.00     0.209 HD
ENDBRANCH  36  37
ENDBRANCH  32  36
ENDBRANCH  29  32
ENDBRANCH  28  29
ENDBRANCH  27  28
ENDBRANCH  25  27
ENDBRANCH   1  25
TORSDOF 9
ENDMDL
MODEL 8
REMARK minimizedAffinity -6.96604586
REMARK CNNscore 0.374477118
REMARK CNNaffinity 5.73979425
REMARK  9 active torsions:
REMARK  status: ('A' for Active; 'I' for Inactive)
REMARK    1  A    between atoms: C2_2  and  C3_3 
REMARK    2  A    between atoms: C2_2  and  C9_12 
REMARK    3  A    between atoms: C3_3  and  C4_4 
REMARK    4  A    between atoms: C4_4  and  C5_5 
REMARK    5  A    between atoms: C5_5  and  O1_6 
REMARK    6  A    between atoms: C5_5  and  C6_7 
REMARK    7  A    between atoms: C6_7  and  O2_9 
REMARK    8  A    between atoms: C6_7  and  C8_10 
REMARK    9  A    between atoms: C8_10  and  O3_11 
ROOT
HETATM    1  C9  UNL     1      -7.077 -10.559  10.617  1.00  0.00    -0.002 C 
HETATM    2  C10 UNL     1      -6.289 -11.440  11.609  1.00  0.00     0.007 C 
HETATM    3  C11 UNL     1      -7.271 -11.994  12.636  1.00  0.00     0.015 C 
HETATM    4  C12 UNL     1      -8.688 -11.584  12.181  1.00  0.00    -0.005 C 
HETATM    5  C13 UNL     1      -9.272 -12.683  11.249  1.00  0.00     0.021 C 
HETATM    6  C14 UNL     1      -9.604 -11.384  13.404  1.00  0.00    -0.000 C 
HETATM    7  C15 UNL     1     -10.027 -10.176  13.853  1.00  0.00    -0.060 C 
HETATM    8  C16 UNL     1      -9.500  -8.895  13.231  1.00  0.00     0.036 C 
HETATM    9  C17 UNL     1      -8.256  -9.081  12.366  1.00  0.00     0.015 C 
HETATM   10  C18 UNL     1      -8.418 -10.249  11.370  1.00  0.00    -0.028 C 
HETATM   11  C19 UNL     1      -9.573  -9.935  10.390  1.00  0.00     0.016 C 
HETATM   12  C20 UNL     1     -11.015 -10.007  15.039  1.00  0.00    -0.014 C 
HETATM   13  C21 UNL     1     -10.143  -9.803  16.298  1.00  0.00     0.020 C 
HETATM   14  C22 UNL     1     -11.937  -8.775  14.837  1.00  0.00     0.021 C 
HETATM   15  C23 UNL     1     -13.029  -8.653  15.887  1.00  0.00     0.080 C 
HETATM   16  C24 UNL     1     -13.891  -9.888  15.899  1.00  0.00     0.135 C 
HETATM   17  O4  UNL     1     -15.118  -9.781  15.901  1.00  0.00    -0.297 OA
HETATM   18  C25 UNL     1     -13.183 -11.247  16.022  1.00  0.00     0.018 C 
HETATM   19  C26 UNL     1     -14.186 -12.341  15.574  1.00  0.00     0.023 C 
HETATM   20  C27 UNL     1     -12.885 -11.493  17.508  1.00  0.00     0.023 C 
HETATM   21  C28 UNL     1     -11.934 -11.276  15.071  1.00  0.00     0.020 C 
HETATM   22  C29 UNL     1     -11.077 -12.532  15.230  1.00  0.00     0.090 C 
HETATM   23  C30 UNL     1      -9.975 -12.610  14.200  1.00  0.00     0.157 C 
HETATM   24  O5  UNL     1      -9.357 -13.665  14.063  1.00  0.00    -0.293 OA
ENDROOT
BRANCH   1  25
HETATM   25  C2  UNL     1      -6.201  -9.383  10.072  1.00  0.00    -0.014 C 
HETATM   26  C1  UNL     1      -6.766  -8.777   8.782  1.00  0.00     0.010 C 
BRANCH  25  27
HETATM   27  C3  UNL     1      -4.740  -9.869   9.834  1.00  0.00     0.007 C 
BRANCH  27  28
HETATM   28  C4  UNL     1      -4.507 -10.503   8.454  1.00  0.00     0.035 C 
BRANCH  28  29
HETATM   29  C5  UNL     1      -3.661  -9.662   7.477  1.00  0.00     0.154 C 
BRANCH  29  30
HETATM   30  O1  UNL     1      -2.581  -9.083   8.228  1.00  0.00    -0.392 OA
HETATM   31  H10 UNL     1      -2.097  -8.498   7.605  1.00  0.00     0.210 HD
ENDBRANCH  29  30
BRANCH  29  32
HETATM   32  C6  UNL     1      -3.077 -10.401   6.235  1.00  0.00     0.101 C 
HETATM   33  C7  UNL     1      -4.085 -11.332   5.565  1.00  0.00     0.051 C 
BRANCH  32  34
HETATM   34  O2  UNL     1      -1.936 -11.181   6.637  1.00  0.00    -0.385 OA
HETATM   35  H14 UNL     1      -1.593 -10.747   7.445  1.00  0.00     0.210 HD
ENDBRANCH  32  34
BRANCH  32  36
HETATM   36  C8  UNL     1      -2.562  -9.379   5.195  1.00  0.00     0.204 C 
BRANCH  36  37
HETATM   37  O3  UNL     1      -2.637  -8.050   5.721  1.00  0.00    -0.398 OA
HETATM   38  H17 UNL     1      -1.933  -8.005   6.398  1.00  0.00     0.209 HD
ENDBRANCH  36  37
ENDBRANCH  32  36
ENDBRANCH  29  32
ENDBRANCH  28  29
ENDBRANCH  27  28
ENDBRANCH  25  27
ENDBRANCH   1  25
TORSDOF 9
ENDMDL
MODEL 9
REMARK minimizedAffinity -7.67927551
REMARK CNNscore 0.365992069
REMARK CNNaffinity 6.322577
REMARK  9 active torsions:
REMARK  status: ('A' for Active; 'I' for Inactive)
REMARK    1  A    between atoms: C2_2  and  C3_3 
REMARK    2  A    between atoms: C2_2  and  C9_12 
REMARK    3  A    between atoms: C3_3  and  C4_4 
REMARK    4  A    between atoms: C4_4  and  C5_5 
REMARK    5  A    between atoms: C5_5  and  O1_6 
REMARK    6  A    between atoms: C5_5  and  C6_7 
REMARK    7  A    between atoms: C6_7  and  O2_9 
REMARK    8  A    between atoms: C6_7  and  C8_10 
REMARK    9  A    between atoms: C8_10  and  O3_11 
ROOT
HETATM    1  C9  UNL     1       6.996  11.089  14.960  1.00  0.00    -0.002 C 
HETATM    2  C10 UNL     1       7.787   9.768  14.860  1.00  0.00     0.007 C 
HETATM    3  C11 UNL     1       7.295   9.013  13.630  1.00  0.00     0.015 C 
HETATM    4  C12 UNL     1       6.316   9.943  12.882  1.00  0.00    -0.005 C 
HETATM    5  C13 UNL     1       7.102  10.806  11.856  1.00  0.00     0.021 C 
HETATM    6  C14 UNL     1       5.236   9.113  12.162  1.00  0.00    -0.000 C 
HETATM    7  C15 UNL     1       3.943   9.029  12.561  1.00  0.00    -0.060 C 
HETATM    8  C16 UNL     1       3.495   9.670  13.863  1.00  0.00     0.036 C 
HETATM    9  C17 UNL     1       4.638  10.066  14.794  1.00  0.00     0.015 C 
HETATM   10  C18 UNL     1       5.741  10.848  14.050  1.00  0.00    -0.028 C 
HETATM   11  C19 UNL     1       5.158  12.174  13.507  1.00  0.00     0.016 C 
HETATM   12  C20 UNL     1       2.857   8.251  11.771  1.00  0.00    -0.014 C 
HETATM   13  C21 UNL     1       2.799   6.840  12.396  1.00  0.00     0.020 C 
HETATM   14  C22 UNL     1       1.468   8.934  11.893  1.00  0.00     0.021 C 
HETATM   15  C23 UNL     1       0.401   8.306  11.012  1.00  0.00     0.080 C 
HETATM   16  C24 UNL     1       0.819   8.348   9.565  1.00  0.00     0.135 C 
HETATM   17  O4  UNL     1       0.026   8.741   8.708  1.00  0.00    -0.297 OA
HETATM   18  C25 UNL     1       2.204   7.783   9.210  1.00  0.00     0.018 C 
HETATM   19  C26 UNL     1       2.585   8.322   7.807  1.00  0.00     0.023 C 
HETATM   20  C27 UNL     1       2.075   6.258   9.085  1.00  0.00     0.023 C 
HETATM   21  C28 UNL     1       3.260   8.285  10.257  1.00  0.00     0.020 C 
HETATM   22  C29 UNL     1       4.643   7.659  10.075  1.00  0.00     0.090 C 
HETATM   23  C30 UNL     1       5.676   8.272  10.990  1.00  0.00     0.157 C 
HETATM   24  O5  UNL     1       6.867   8.030  10.796  1.00  0.00    -0.293 OA
ENDROOT
BRANCH   1  25
HETATM   25  C2  UNL     1       6.805  11.532  16.448  1.00  0.00    -0.014 C 
HETATM   26  C1  UNL     1       7.152  13.009  16.671  1.00  0.00     0.010 C 
BRANCH  25  27
HETATM   27  C3  UNL     1       7.665  10.637  17.389  1.00  0.00     0.007 C 
BRANCH  27  28
HETATM   28  C4  UNL     1       8.793  11.389  18.113  1.00  0.00     0.035 C 
BRANCH  28  29
HETATM   29  C5  UNL     1       9.962  10.511  18.599  1.00  0.00     0.154 C 
BRANCH  29  30
HETATM   30  O1  UNL     1      10.157   9.471  17.625  1.00  0.00    -0.392 OA
HETATM   31  H10 UNL     1      10.857   8.884  17.986  1.00  0.00     0.210 HD
ENDBRANCH  29  30
BRANCH  29  32
HETATM   32  C6  UNL     1      11.323  11.227  18.854  1.00  0.00     0.101 C 
HETATM   33  C7  UNL     1      11.666  12.257  17.780  1.00  0.00     0.051 C 
BRANCH  32  34
HETATM   34  O2  UNL     1      12.377  10.248  18.897  1.00  0.00    -0.385 OA
HETATM   35  H14 UNL     1      11.944   9.409  19.156  1.00  0.00     0.210 HD
ENDBRANCH  32  34
BRANCH  32  36
HETATM   36  C8  UNL     1      11.315  11.921  20.236  1.00  0.00     0.204 C 
BRANCH  36  37
HETATM   37  O3  UNL     1      11.484  13.334  20.087  1.00  0.00    -0.398 OA
HETATM   38  H17 UNL     1      10.639  13.651  19.710  1.00  0.00     0.209 HD
ENDBRANCH  36  37
ENDBRANCH  32  36
ENDBRANCH  29  32
ENDBRANCH  28  29
ENDBRANCH  27  28
ENDBRANCH  25  27
ENDBRANCH   1  25
TORSDOF 9
ENDMDL
