MODEL 1
REMARK minimizedAffinity -7.11129904
REMARK CNNscore 0.799067557
REMARK CNNaffinity 6.25774622
REMARK  8 active torsions:
REMARK  status: ('A' for Active; 'I' for Inactive)
REMARK    1  A    between atoms: C4_4  and  C5_5 
REMARK    2  A    between atoms: C5_5  and  C6_6 
REMARK    3  A    between atoms: C6_6  and  C7_7 
REMARK    4  A    between atoms: C7_7  and  C9_9 
REMARK    5  A    between atoms: C25_26  and  C27_28 
REMARK    6  A    between atoms: C27_28  and  O3_30 
REMARK    7  A    between atoms: C28_31  and  O4_32 
REMARK    8  A    between atoms: C30_34  and  O5_35 
ROOT
HETATM    1  C9  UNL     1     -10.940  45.005 -27.714  1.00  0.00    -0.002 C 
HETATM    2  C10 UNL     1     -10.743  46.440 -27.152  1.00  0.00     0.007 C 
HETATM    3  C11 UNL     1     -12.019  46.798 -26.361  1.00  0.00     0.015 C 
HETATM    4  C12 UNL     1     -12.796  45.470 -26.219  1.00  0.00    -0.005 C 
HETATM    5  C13 UNL     1     -12.192  44.724 -24.988  1.00  0.00     0.021 C 
HETATM    6  C14 UNL     1     -14.297  45.463 -25.959  1.00  0.00    -0.000 C 
HETATM    7  C15 UNL     1     -15.089  44.446 -26.394  1.00  0.00    -0.058 C 
HETATM    8  C16 UNL     1     -14.509  43.322 -27.269  1.00  0.00     0.036 C 
HETATM    9  C17 UNL     1     -13.010  43.387 -27.613  1.00  0.00     0.015 C 
HETATM   10  C18 UNL     1     -12.486  44.823 -27.634  1.00  0.00    -0.028 C 
HETATM   11  C19 UNL     1     -13.201  45.574 -28.799  1.00  0.00     0.016 C 
HETATM   12  C20 UNL     1     -16.628  44.365 -26.102  1.00  0.00     0.011 C 
HETATM   13  C21 UNL     1     -17.289  44.869 -27.409  1.00  0.00     0.023 C 
HETATM   14  C22 UNL     1     -16.962  45.257 -24.864  1.00  0.00     0.029 C 
HETATM   15  C23 UNL     1     -16.371  46.663 -24.988  1.00  0.00     0.090 C 
HETATM   16  C24 UNL     1     -14.875  46.589 -25.158  1.00  0.00     0.157 C 
HETATM   17  O1  UNL     1     -14.161  47.464 -24.672  1.00  0.00    -0.293 OA
HETATM   18  C25 UNL     1     -18.453  45.229 -24.356  1.00  0.00     0.072 C 
HETATM   19  C26 UNL     1     -18.386  45.374 -22.801  1.00  0.00     0.030 C 
HETATM   20  C28 UNL     1     -19.154  43.873 -24.650  1.00  0.00     0.139 C 
HETATM   21  C29 UNL     1     -18.160  42.718 -24.683  1.00  0.00     0.065 C 
HETATM   22  C30 UNL     1     -17.050  42.888 -25.738  1.00  0.00     0.133 C 
ENDROOT
BRANCH   1  23
HETATM   23  C7  UNL     1     -10.081  44.733 -28.987  1.00  0.00    -0.014 C 
HETATM   24  C8  UNL     1     -10.390  43.434 -29.744  1.00  0.00     0.010 C 
BRANCH  23  25
HETATM   25  C6  UNL     1      -8.547  44.831 -28.785  1.00  0.00     0.008 C 
BRANCH  25  26
HETATM   26  C5  UNL     1      -7.877  46.086 -29.369  1.00  0.00     0.028 C 
BRANCH  26  27
HETATM   27  C4  UNL     1      -6.932  46.778 -28.424  1.00  0.00    -0.025 C 
HETATM   28  C2  UNL     1      -5.878  47.564 -28.721  1.00  0.00    -0.091 C 
HETATM   29  C1  UNL     1      -5.413  47.895 -30.113  1.00  0.00     0.042 C 
HETATM   30  C3  UNL     1      -5.049  48.191 -27.625  1.00  0.00     0.042 C 
ENDBRANCH  26  27
ENDBRANCH  25  26
ENDBRANCH  23  25
ENDBRANCH   1  23
BRANCH  22  31
HETATM   31  O5  UNL     1     -17.425  42.148 -26.903  1.00  0.00    -0.394 OA
HETATM   32  H46 UNL     1     -18.261  42.535 -27.229  1.00  0.00     0.210 HD
ENDBRANCH  22  31
BRANCH  18  33
HETATM   33  C27 UNL     1     -19.351  46.378 -24.827  1.00  0.00     0.151 C 
HETATM   34  O2  UNL     1     -20.488  46.266 -25.264  1.00  0.00    -0.649 OA
BRANCH  33  35
HETATM   35  O3  UNL     1     -18.785  47.592 -24.755  1.00  0.00    -0.776 OA
HETATM   36  H40 UNL     1     -19.463  48.190 -25.139  1.00  0.00     0.167 HD
ENDBRANCH  33  35
ENDBRANCH  18  33
BRANCH  20  37
HETATM   37  O4  UNL     1     -19.878  43.839 -25.883  1.00  0.00    -0.394 OA
HETATM   38  H42 UNL     1     -20.525  43.117 -25.797  1.00  0.00     0.210 HD
ENDBRANCH  20  37
TORSDOF 8
ENDMDL
MODEL 2
REMARK minimizedAffinity -9.12255192
REMARK CNNscore 0.648888946
REMARK CNNaffinity 6.97118616
REMARK  8 active torsions:
REMARK  status: ('A' for Active; 'I' for Inactive)
REMARK    1  A    between atoms: C4_4  and  C5_5 
REMARK    2  A    between atoms: C5_5  and  C6_6 
REMARK    3  A    between atoms: C6_6  and  C7_7 
REMARK    4  A    between atoms: C7_7  and  C9_9 
REMARK    5  A    between atoms: C25_26  and  C27_28 
REMARK    6  A    between atoms: C27_28  and  O3_30 
REMARK    7  A    between atoms: C28_31  and  O4_32 
REMARK    8  A    between atoms: C30_34  and  O5_35 
ROOT
HETATM    1  C9  UNL     1      -0.872  50.272 -21.773  1.00  0.00    -0.002 C 
HETATM    2  C10 UNL     1      -0.871  49.905 -20.263  1.00  0.00     0.007 C 
HETATM    3  C11 UNL     1      -2.161  49.103 -19.989  1.00  0.00     0.015 C 
HETATM    4  C12 UNL     1      -2.730  48.758 -21.383  1.00  0.00    -0.005 C 
HETATM    5  C13 UNL     1      -1.986  47.473 -21.867  1.00  0.00     0.021 C 
HETATM    6  C14 UNL     1      -4.205  48.424 -21.568  1.00  0.00    -0.000 C 
HETATM    7  C15 UNL     1      -4.852  48.688 -22.735  1.00  0.00    -0.058 C 
HETATM    8  C16 UNL     1      -4.139  49.442 -23.872  1.00  0.00     0.036 C 
HETATM    9  C17 UNL     1      -2.678  49.865 -23.640  1.00  0.00     0.015 C 
HETATM   10  C18 UNL     1      -2.372  50.093 -22.160  1.00  0.00    -0.028 C 
HETATM   11  C19 UNL     1      -3.224  51.307 -21.678  1.00  0.00     0.016 C 
HETATM   12  C20 UNL     1      -6.352  48.313 -22.995  1.00  0.00     0.011 C 
HETATM   13  C21 UNL     1      -7.121  49.639 -22.766  1.00  0.00     0.023 C 
HETATM   14  C22 UNL     1      -6.777  47.182 -22.003  1.00  0.00     0.029 C 
HETATM   15  C23 UNL     1      -6.402  47.511 -20.557  1.00  0.00     0.090 C 
HETATM   16  C24 UNL     1      -4.917  47.744 -20.440  1.00  0.00     0.157 C 
HETATM   17  O1  UNL     1      -4.325  47.408 -19.416  1.00  0.00    -0.293 OA
HETATM   18  C25 UNL     1      -8.231  46.602 -22.176  1.00  0.00     0.072 C 
HETATM   19  C26 UNL     1      -8.138  45.083 -21.819  1.00  0.00     0.030 C 
HETATM   20  C28 UNL     1      -8.734  46.687 -23.645  1.00  0.00     0.139 C 
HETATM   21  C29 UNL     1      -7.582  46.624 -24.640  1.00  0.00     0.065 C 
HETATM   22  C30 UNL     1      -6.541  47.745 -24.456  1.00  0.00     0.133 C 
ENDROOT
BRANCH   1  23
HETATM   23  C7  UNL     1      -0.022  51.541 -22.086  1.00  0.00    -0.014 C 
HETATM   24  C8  UNL     1       0.150  52.538 -20.931  1.00  0.00     0.010 C 
BRANCH  23  25
HETATM   25  C6  UNL     1      -0.445  52.327 -23.354  1.00  0.00     0.008 C 
BRANCH  25  26
HETATM   26  C5  UNL     1       0.692  52.675 -24.331  1.00  0.00     0.028 C 
BRANCH  26  27
HETATM   27  C4  UNL     1       0.353  52.442 -25.778  1.00  0.00    -0.025 C 
HETATM   28  C2  UNL     1       1.127  51.904 -26.742  1.00  0.00    -0.091 C 
HETATM   29  C1  UNL     1       2.544  51.436 -26.550  1.00  0.00     0.042 C 
HETATM   30  C3  UNL     1       0.603  51.733 -28.148  1.00  0.00     0.042 C 
ENDBRANCH  26  27
ENDBRANCH  25  26
ENDBRANCH  23  25
ENDBRANCH   1  23
BRANCH  22  31
HETATM   31  O5  UNL     1      -6.839  48.788 -25.389  1.00  0.00    -0.394 OA
HETATM   32  H46 UNL     1      -7.732  49.118 -25.171  1.00  0.00     0.210 HD
ENDBRANCH  22  31
BRANCH  18  33
HETATM   33  C27 UNL     1      -9.301  47.169 -21.238  1.00  0.00     0.151 C 
HETATM   34  O2  UNL     1      -9.140  48.072 -20.429  1.00  0.00    -0.649 OA
BRANCH  33  35
HETATM   35  O3  UNL     1     -10.500  46.573 -21.336  1.00  0.00    -0.776 OA
HETATM   36  H40 UNL     1     -11.038  47.014 -20.642  1.00  0.00     0.167 HD
ENDBRANCH  33  35
ENDBRANCH  18  33
BRANCH  20  37
HETATM   37  O4  UNL     1      -9.482  47.869 -23.943  1.00  0.00    -0.394 OA
HETATM   38  H42 UNL     1     -10.012  47.661 -24.732  1.00  0.00     0.210 HD
ENDBRANCH  20  37
TORSDOF 8
ENDMDL
MODEL 3
REMARK minimizedAffinity -8.9597168
REMARK CNNscore 0.44141376
REMARK CNNaffinity 6.68143892
REMARK  8 active torsions:
REMARK  status: ('A' for Active; 'I' for Inactive)
REMARK    1  A    between atoms: C4_4  and  C5_5 
REMARK    2  A    between atoms: C5_5  and  C6_6 
REMARK    3  A    between atoms: C6_6  and  C7_7 
REMARK    4  A    between atoms: C7_7  and  C9_9 
REMARK    5  A    between atoms: C25_26  and  C27_28 
REMARK    6  A    between atoms: C27_28  and  O3_30 
REMARK    7  A    between atoms: C28_31  and  O4_32 
REMARK    8  A    between atoms: C30_34  and  O5_35 
ROOT
HETATM    1  C9  UNL     1      -0.226  50.848 -21.210  1.00  0.00    -0.002 C 
HETATM    2  C10 UNL     1      -0.241  51.186 -19.694  1.00  0.00     0.007 C 
HETATM    3  C11 UNL     1      -1.519  50.555 -19.099  1.00  0.00     0.015 C 
HETATM    4  C12 UNL     1      -2.058  49.615 -20.201  1.00  0.00    -0.005 C 
HETATM    5  C13 UNL     1      -1.280  48.269 -20.064  1.00  0.00     0.021 C 
HETATM    6  C14 UNL     1      -3.523  49.197 -20.227  1.00  0.00    -0.000 C 
HETATM    7  C15 UNL     1      -4.157  48.902 -21.394  1.00  0.00    -0.058 C 
HETATM    8  C16 UNL     1      -3.443  49.095 -22.743  1.00  0.00     0.036 C 
HETATM    9  C17 UNL     1      -1.994  49.614 -22.715  1.00  0.00     0.015 C 
HETATM   10  C18 UNL     1      -1.716  50.479 -21.486  1.00  0.00    -0.028 C 
HETATM   11  C19 UNL     1      -2.600  51.759 -21.594  1.00  0.00     0.016 C 
HETATM   12  C20 UNL     1      -5.645  48.413 -21.468  1.00  0.00     0.011 C 
HETATM   13  C21 UNL     1      -6.444  49.684 -21.852  1.00  0.00     0.023 C 
HETATM   14  C22 UNL     1      -6.061  47.826 -20.081  1.00  0.00     0.029 C 
HETATM   15  C23 UNL     1      -5.716  48.769 -18.927  1.00  0.00     0.090 C 
HETATM   16  C24 UNL     1      -4.238  49.067 -18.918  1.00  0.00     0.157 C 
HETATM   17  O1  UNL     1      -3.656  49.233 -17.847  1.00  0.00    -0.293 OA
HETATM   18  C25 UNL     1      -7.501  47.193 -19.987  1.00  0.00     0.072 C 
HETATM   19  C26 UNL     1      -7.382  45.990 -18.995  1.00  0.00     0.030 C 
HETATM   20  C28 UNL     1      -7.982  46.608 -21.344  1.00  0.00     0.139 C 
HETATM   21  C29 UNL     1      -6.814  46.141 -22.205  1.00  0.00     0.065 C 
HETATM   22  C30 UNL     1      -5.800  47.254 -22.529  1.00  0.00     0.133 C 
ENDROOT
BRANCH   1  23
HETATM   23  C7  UNL     1       0.602  51.870 -22.047  1.00  0.00    -0.014 C 
HETATM   24  C8  UNL     1       1.347  52.949 -21.248  1.00  0.00     0.010 C 
BRANCH  23  25
HETATM   25  C6  UNL     1      -0.168  52.560 -23.202  1.00  0.00     0.008 C 
BRANCH  25  26
HETATM   26  C5  UNL     1      -0.198  51.791 -24.534  1.00  0.00     0.028 C 
BRANCH  26  27
HETATM   27  C4  UNL     1       1.106  51.807 -25.285  1.00  0.00    -0.025 C 
HETATM   28  C2  UNL     1       1.310  51.657 -26.610  1.00  0.00    -0.091 C 
HETATM   29  C1  UNL     1       0.229  51.414 -27.628  1.00  0.00     0.042 C 
HETATM   30  C3  UNL     1       2.704  51.721 -27.188  1.00  0.00     0.042 C 
ENDBRANCH  26  27
ENDBRANCH  25  26
ENDBRANCH  23  25
ENDBRANCH   1  23
BRANCH  22  31
HETATM   31  O5  UNL     1      -6.104  47.770 -23.828  1.00  0.00    -0.394 OA
HETATM   32  H46 UNL     1      -7.007  48.140 -23.782  1.00  0.00     0.210 HD
ENDBRANCH  22  31
BRANCH  18  33
HETATM   33  C27 UNL     1      -8.597  48.088 -19.401  1.00  0.00     0.151 C 
HETATM   34  O2  UNL     1      -9.802  47.934 -19.547  1.00  0.00    -0.649 OA
BRANCH  33  35
HETATM   35  O3  UNL     1      -8.144  49.132 -18.691  1.00  0.00    -0.776 OA
HETATM   36  H40 UNL     1      -8.960  49.619 -18.443  1.00  0.00     0.167 HD
ENDBRANCH  33  35
ENDBRANCH  18  33
BRANCH  20  37
HETATM   37  O4  UNL     1      -8.750  47.518 -22.138  1.00  0.00    -0.394 OA
HETATM   38  H42 UNL     1      -9.264  46.969 -22.756  1.00  0.00     0.210 HD
ENDBRANCH  20  37
TORSDOF 8
ENDMDL
MODEL 4
REMARK minimizedAffinity -7.17032099
REMARK CNNscore 0.434108406
REMARK CNNaffinity 6.37819242
REMARK  8 active torsions:
REMARK  status: ('A' for Active; 'I' for Inactive)
REMARK    1  A    between atoms: C4_4  and  C5_5 
REMARK    2  A    between atoms: C5_5  and  C6_6 
REMARK    3  A    between atoms: C6_6  and  C7_7 
REMARK    4  A    between atoms: C7_7  and  C9_9 
REMARK    5  A    between atoms: C25_26  and  C27_28 
REMARK    6  A    between atoms: C27_28  and  O3_30 
REMARK    7  A    between atoms: C28_31  and  O4_32 
REMARK    8  A    between atoms: C30_34  and  O5_35 
ROOT
HETATM    1  C9  UNL     1      -3.453  50.816 -10.520  1.00  0.00    -0.002 C 
HETATM    2  C10 UNL     1      -4.265  52.137 -10.629  1.00  0.00     0.007 C 
HETATM    3  C11 UNL     1      -3.255  53.300 -10.529  1.00  0.00     0.015 C 
HETATM    4  C12 UNL     1      -1.864  52.645 -10.672  1.00  0.00    -0.005 C 
HETATM    5  C13 UNL     1      -1.594  52.488 -12.201  1.00  0.00     0.021 C 
HETATM    6  C14 UNL     1      -0.613  53.336 -10.144  1.00  0.00    -0.000 C 
HETATM    7  C15 UNL     1       0.464  52.626  -9.714  1.00  0.00    -0.058 C 
HETATM    8  C16 UNL     1       0.409  51.090  -9.639  1.00  0.00     0.036 C 
HETATM    9  C17 UNL     1      -0.894  50.401 -10.080  1.00  0.00     0.015 C 
HETATM   10  C18 UNL     1      -2.117  51.296  -9.877  1.00  0.00    -0.028 C 
HETATM   11  C19 UNL     1      -2.284  51.533  -8.345  1.00  0.00     0.016 C 
HETATM   12  C20 UNL     1       1.795  53.291  -9.215  1.00  0.00     0.011 C 
HETATM   13  C21 UNL     1       1.686  53.244  -7.670  1.00  0.00     0.023 C 
HETATM   14  C22 UNL     1       1.883  54.746  -9.779  1.00  0.00     0.029 C 
HETATM   15  C23 UNL     1       0.597  55.538  -9.534  1.00  0.00     0.090 C 
HETATM   16  C24 UNL     1      -0.580  54.834 -10.159  1.00  0.00     0.157 C 
HETATM   17  O1  UNL     1      -1.503  55.492 -10.636  1.00  0.00    -0.293 OA
HETATM   18  C25 UNL     1       3.202  55.545  -9.462  1.00  0.00     0.072 C 
HETATM   19  C26 UNL     1       3.478  56.441 -10.714  1.00  0.00     0.030 C 
HETATM   20  C28 UNL     1       4.436  54.614  -9.298  1.00  0.00     0.139 C 
HETATM   21  C29 UNL     1       4.295  53.339 -10.120  1.00  0.00     0.065 C 
HETATM   22  C30 UNL     1       3.050  52.504  -9.760  1.00  0.00     0.133 C 
ENDROOT
BRANCH   1  23
HETATM   23  C7  UNL     1      -4.310  49.624  -9.995  1.00  0.00    -0.014 C 
HETATM   24  C8  UNL     1      -3.600  48.265  -9.921  1.00  0.00     0.010 C 
BRANCH  23  25
HETATM   25  C6  UNL     1      -5.675  49.426 -10.704  1.00  0.00     0.008 C 
BRANCH  25  26
HETATM   26  C5  UNL     1      -6.903  49.949  -9.940  1.00  0.00     0.028 C 
BRANCH  26  27
HETATM   27  C4  UNL     1      -8.155  49.143 -10.159  1.00  0.00    -0.025 C 
HETATM   28  C2  UNL     1      -9.126  48.847  -9.271  1.00  0.00    -0.091 C 
HETATM   29  C1  UNL     1      -9.131  49.266  -7.826  1.00  0.00     0.042 C 
HETATM   30  C3  UNL     1     -10.328  48.032  -9.685  1.00  0.00     0.042 C 
ENDBRANCH  26  27
ENDBRANCH  25  26
ENDBRANCH  23  25
ENDBRANCH   1  23
BRANCH  22  31
HETATM   31  O5  UNL     1       3.453  51.470  -8.858  1.00  0.00    -0.394 OA
HETATM   32  H46 UNL     1       3.806  51.910  -8.060  1.00  0.00     0.210 HD
ENDBRANCH  22  31
BRANCH  18  33
HETATM   33  C27 UNL     1       3.138  56.517  -8.280  1.00  0.00     0.151 C 
HETATM   34  O2  UNL     1       2.181  56.678  -7.536  1.00  0.00    -0.649 OA
BRANCH  33  35
HETATM   35  O3  UNL     1       4.247  57.251  -8.101  1.00  0.00    -0.776 OA
HETATM   36  H40 UNL     1       4.017  57.845  -7.353  1.00  0.00     0.167 HD
ENDBRANCH  33  35
ENDBRANCH  18  33
BRANCH  20  37
HETATM   37  O4  UNL     1       4.697  54.216  -7.949  1.00  0.00    -0.394 OA
HETATM   38  H42 UNL     1       5.633  53.949  -7.923  1.00  0.00     0.210 HD
ENDBRANCH  20  37
TORSDOF 8
ENDMDL
MODEL 5
REMARK minimizedAffinity -7.86305428
REMARK CNNscore 0.426819235
REMARK CNNaffinity 6.35984945
REMARK  8 active torsions:
REMARK  status: ('A' for Active; 'I' for Inactive)
REMARK    1  A    between atoms: C4_4  and  C5_5 
REMARK    2  A    between atoms: C5_5  and  C6_6 
REMARK    3  A    between atoms: C6_6  and  C7_7 
REMARK    4  A    between atoms: C7_7  and  C9_9 
REMARK    5  A    between atoms: C25_26  and  C27_28 
REMARK    6  A    between atoms: C27_28  and  O3_30 
REMARK    7  A    between atoms: C28_31  and  O4_32 
REMARK    8  A    between atoms: C30_34  and  O5_35 
ROOT
HETATM    1  C9  UNL     1      -3.741  48.745 -22.387  1.00  0.00    -0.002 C 
HETATM    2  C10 UNL     1      -4.399  48.420 -23.757  1.00  0.00     0.007 C 
HETATM    3  C11 UNL     1      -5.886  48.108 -23.485  1.00  0.00     0.015 C 
HETATM    4  C12 UNL     1      -6.134  48.550 -22.026  1.00  0.00    -0.005 C 
HETATM    5  C13 UNL     1      -6.420  50.084 -22.062  1.00  0.00     0.021 C 
HETATM    6  C14 UNL     1      -7.290  47.976 -21.217  1.00  0.00    -0.000 C 
HETATM    7  C15 UNL     1      -7.221  47.855 -19.864  1.00  0.00    -0.058 C 
HETATM    8  C16 UNL     1      -5.920  48.189 -19.114  1.00  0.00     0.036 C 
HETATM    9  C17 UNL     1      -4.720  48.674 -19.949  1.00  0.00     0.015 C 
HETATM   10  C18 UNL     1      -4.752  48.125 -21.375  1.00  0.00    -0.028 C 
HETATM   11  C19 UNL     1      -4.586  46.576 -21.293  1.00  0.00     0.016 C 
HETATM   12  C20 UNL     1      -8.405  47.324 -18.982  1.00  0.00     0.011 C 
HETATM   13  C21 UNL     1      -8.037  45.844 -18.705  1.00  0.00     0.023 C 
HETATM   14  C22 UNL     1      -9.744  47.483 -19.773  1.00  0.00     0.029 C 
HETATM   15  C23 UNL     1      -9.649  46.916 -21.190  1.00  0.00     0.090 C 
HETATM   16  C24 UNL     1      -8.538  47.594 -21.952  1.00  0.00     0.157 C 
HETATM   17  O1  UNL     1      -8.657  47.788 -23.161  1.00  0.00    -0.293 OA
HETATM   18  C25 UNL     1     -11.064  47.090 -19.009  1.00  0.00     0.072 C 
HETATM   19  C26 UNL     1     -12.167  48.076 -19.513  1.00  0.00     0.030 C 
HETATM   20  C28 UNL     1     -10.945  47.297 -17.473  1.00  0.00     0.139 C 
HETATM   21  C29 UNL     1      -9.967  48.413 -17.127  1.00  0.00     0.065 C 
HETATM   22  C30 UNL     1      -8.542  48.175 -17.660  1.00  0.00     0.133 C 
ENDROOT
BRANCH   1  23
HETATM   23  C7  UNL     1      -2.204  48.480 -22.379  1.00  0.00    -0.014 C 
HETATM   24  C8  UNL     1      -1.717  47.367 -21.440  1.00  0.00     0.010 C 
BRANCH  23  25
HETATM   25  C6  UNL     1      -1.317  49.732 -22.158  1.00  0.00     0.008 C 
BRANCH  25  26
HETATM   26  C5  UNL     1      -0.419  49.699 -20.909  1.00  0.00     0.028 C 
BRANCH  26  27
HETATM   27  C4  UNL     1      -0.435  50.971 -20.105  1.00  0.00    -0.025 C 
HETATM   28  C2  UNL     1       0.220  52.124 -20.350  1.00  0.00    -0.091 C 
HETATM   29  C1  UNL     1       1.147  52.360 -21.512  1.00  0.00     0.042 C 
HETATM   30  C3  UNL     1       0.065  53.311 -19.430  1.00  0.00     0.042 C 
ENDBRANCH  26  27
ENDBRANCH  25  26
ENDBRANCH  23  25
ENDBRANCH   1  23
BRANCH  22  31
HETATM   31  O5  UNL     1      -7.756  47.624 -16.599  1.00  0.00    -0.394 OA
HETATM   32  H46 UNL     1      -8.169  46.774 -16.350  1.00  0.00     0.210 HD
ENDBRANCH  22  31
BRANCH  18  33
HETATM   33  C27 UNL     1     -11.618  45.690 -19.292  1.00  0.00     0.151 C 
HETATM   34  O2  UNL     1     -11.062  44.818 -19.945  1.00  0.00    -0.649 OA
BRANCH  33  35
HETATM   35  O3  UNL     1     -12.834  45.457 -18.775  1.00  0.00    -0.776 OA
HETATM   36  H40 UNL     1     -13.055  44.554 -19.092  1.00  0.00     0.167 HD
ENDBRANCH  33  35
ENDBRANCH  18  33
BRANCH  20  37
HETATM   37  O4  UNL     1     -10.526  46.134 -16.753  1.00  0.00    -0.394 OA
HETATM   38  H42 UNL     1     -10.813  46.269 -15.832  1.00  0.00     0.210 HD
ENDBRANCH  20  37
TORSDOF 8
ENDMDL
MODEL 6
REMARK minimizedAffinity -7.23933649
REMARK CNNscore 0.334969759
REMARK CNNaffinity 6.26901674
REMARK  8 active torsions:
REMARK  status: ('A' for Active; 'I' for Inactive)
REMARK    1  A    between atoms: C4_4  and  C5_5 
REMARK    2  A    between atoms: C5_5  and  C6_6 
REMARK    3  A    between atoms: C6_6  and  C7_7 
REMARK    4  A    between atoms: C7_7  and  C9_9 
REMARK    5  A    between atoms: C25_26  and  C27_28 
REMARK    6  A    between atoms: C27_28  and  O3_30 
REMARK    7  A    between atoms: C28_31  and  O4_32 
REMARK    8  A    between atoms: C30_34  and  O5_35 
ROOT
HETATM    1  C9  UNL     1       1.302  50.453 -13.393  1.00  0.00    -0.002 C 
HETATM    2  C10 UNL     1       0.334  49.506 -12.630  1.00  0.00     0.007 C 
HETATM    3  C11 UNL     1      -0.620  48.891 -13.677  1.00  0.00     0.015 C 
HETATM    4  C12 UNL     1      -0.003  49.247 -15.048  1.00  0.00    -0.005 C 
HETATM    5  C13 UNL     1       1.086  48.169 -15.346  1.00  0.00     0.021 C 
HETATM    6  C14 UNL     1      -0.856  49.271 -16.309  1.00  0.00    -0.000 C 
HETATM    7  C15 UNL     1      -0.561  50.094 -17.352  1.00  0.00    -0.058 C 
HETATM    8  C16 UNL     1       0.583  51.116 -17.242  1.00  0.00     0.036 C 
HETATM    9  C17 UNL     1       1.380  51.156 -15.925  1.00  0.00     0.015 C 
HETATM   10  C18 UNL     1       0.540  50.702 -14.731  1.00  0.00    -0.028 C 
HETATM   11  C19 UNL     1      -0.611  51.737 -14.537  1.00  0.00     0.016 C 
HETATM   12  C20 UNL     1      -1.375  50.115 -18.693  1.00  0.00     0.011 C 
HETATM   13  C21 UNL     1      -2.314  51.339 -18.548  1.00  0.00     0.023 C 
HETATM   14  C22 UNL     1      -2.149  48.766 -18.844  1.00  0.00     0.029 C 
HETATM   15  C23 UNL     1      -2.935  48.406 -17.582  1.00  0.00     0.090 C 
HETATM   16  C24 UNL     1      -2.009  48.318 -16.395  1.00  0.00     0.157 C 
HETATM   17  O1  UNL     1      -2.232  47.498 -15.505  1.00  0.00    -0.293 OA
HETATM   18  C25 UNL     1      -2.953  48.560 -20.183  1.00  0.00     0.072 C 
HETATM   19  C26 UNL     1      -2.856  47.036 -20.517  1.00  0.00     0.030 C 
HETATM   20  C28 UNL     1      -2.316  49.322 -21.379  1.00  0.00     0.139 C 
HETATM   21  C29 UNL     1      -0.810  49.480 -21.213  1.00  0.00     0.065 C 
HETATM   22  C30 UNL     1      -0.405  50.235 -19.932  1.00  0.00     0.133 C 
ENDROOT
BRANCH   1  23
HETATM   23  C7  UNL     1       1.886  51.577 -12.484  1.00  0.00    -0.014 C 
HETATM   24  C8  UNL     1       3.210  51.252 -11.778  1.00  0.00     0.010 C 
BRANCH  23  25
HETATM   25  C6  UNL     1       0.902  52.162 -11.437  1.00  0.00     0.008 C 
BRANCH  25  26
HETATM   26  C5  UNL     1       0.407  53.591 -11.716  1.00  0.00     0.028 C 
BRANCH  26  27
HETATM   27  C4  UNL     1       0.417  54.493 -10.511  1.00  0.00    -0.025 C 
HETATM   28  C2  UNL     1      -0.635  54.996  -9.834  1.00  0.00    -0.091 C 
HETATM   29  C1  UNL     1      -2.079  54.759 -10.183  1.00  0.00     0.042 C 
HETATM   30  C3  UNL     1      -0.426  55.877  -8.626  1.00  0.00     0.042 C 
ENDBRANCH  26  27
ENDBRANCH  25  26
ENDBRANCH  23  25
ENDBRANCH   1  23
BRANCH  22  31
HETATM   31  O5  UNL     1      -0.164  51.602 -20.279  1.00  0.00    -0.394 OA
HETATM   32  H46 UNL     1      -1.004  51.959 -20.628  1.00  0.00     0.210 HD
ENDBRANCH  22  31
BRANCH  18  33
HETATM   33  C27 UNL     1      -4.453  48.864 -20.126  1.00  0.00     0.151 C 
HETATM   34  O2  UNL     1      -4.955  49.972 -19.999  1.00  0.00    -0.649 OA
BRANCH  33  35
HETATM   35  O3  UNL     1      -5.244  47.783 -20.203  1.00  0.00    -0.776 OA
HETATM   36  H40 UNL     1      -6.150  48.147 -20.097  1.00  0.00     0.167 HD
ENDBRANCH  33  35
ENDBRANCH  18  33
BRANCH  20  37
HETATM   37  O4  UNL     1      -2.854  50.629 -21.597  1.00  0.00    -0.394 OA
HETATM   38  H42 UNL     1      -2.651  50.854 -22.522  1.00  0.00     0.210 HD
ENDBRANCH  20  37
TORSDOF 8
ENDMDL
MODEL 7
REMARK minimizedAffinity -7.55812979
REMARK CNNscore 0.326749533
REMARK CNNaffinity 6.3021431
REMARK  8 active torsions:
REMARK  status: ('A' for Active; 'I' for Inactive)
REMARK    1  A    between atoms: C4_4  and  C5_5 
REMARK    2  A    between atoms: C5_5  and  C6_6 
REMARK    3  A    between atoms: C6_6  and  C7_7 
REMARK    4  A    between atoms: C7_7  and  C9_9 
REMARK    5  A    between atoms: C25_26  and  C27_28 
REMARK    6  A    between atoms: C27_28  and  O3_30 
REMARK    7  A    between atoms: C28_31  and  O4_32 
REMARK    8  A    between atoms: C30_34  and  O5_35 
ROOT
HETATM    1  C9  UNL     1      -3.278  50.799 -23.467  1.00  0.00    -0.002 C 
HETATM    2  C10 UNL     1      -3.931  50.529 -24.851  1.00  0.00     0.007 C 
HETATM    3  C11 UNL     1      -4.960  49.395 -24.655  1.00  0.00     0.015 C 
HETATM    4  C12 UNL     1      -5.107  49.239 -23.125  1.00  0.00    -0.005 C 
HETATM    5  C13 UNL     1      -6.140  50.313 -22.660  1.00  0.00     0.021 C 
HETATM    6  C14 UNL     1      -5.620  47.941 -22.515  1.00  0.00    -0.000 C 
HETATM    7  C15 UNL     1      -5.234  47.538 -21.274  1.00  0.00    -0.058 C 
HETATM    8  C16 UNL     1      -4.170  48.326 -20.491  1.00  0.00     0.036 C 
HETATM    9  C17 UNL     1      -3.581  49.583 -21.156  1.00  0.00     0.015 C 
HETATM   10  C18 UNL     1      -3.606  49.493 -22.682  1.00  0.00    -0.028 C 
HETATM   11  C19 UNL     1      -2.657  48.330 -23.106  1.00  0.00     0.016 C 
HETATM   12  C20 UNL     1      -5.777  46.240 -20.580  1.00  0.00     0.011 C 
HETATM   13  C21 UNL     1      -4.657  45.193 -20.802  1.00  0.00     0.023 C 
HETATM   14  C22 UNL     1      -7.133  45.834 -21.242  1.00  0.00     0.029 C 
HETATM   15  C23 UNL     1      -7.042  45.797 -22.769  1.00  0.00     0.090 C 
HETATM   16  C24 UNL     1      -6.611  47.140 -23.301  1.00  0.00     0.157 C 
HETATM   17  O1  UNL     1      -7.048  47.538 -24.380  1.00  0.00    -0.293 OA
HETATM   18  C25 UNL     1      -7.885  44.602 -20.612  1.00  0.00     0.072 C 
HETATM   19  C26 UNL     1      -9.412  44.910 -20.744  1.00  0.00     0.030 C 
HETATM   20  C28 UNL     1      -7.590  44.440 -19.094  1.00  0.00     0.139 C 
HETATM   21  C29 UNL     1      -7.277  45.777 -18.433  1.00  0.00     0.065 C 
HETATM   22  C30 UNL     1      -6.068  46.505 -19.051  1.00  0.00     0.133 C 
ENDROOT
BRANCH   1  23
HETATM   23  C7  UNL     1      -1.857  51.429 -23.584  1.00  0.00    -0.014 C 
HETATM   24  C8  UNL     1      -1.316  52.113 -22.320  1.00  0.00     0.010 C 
BRANCH  23  25
HETATM   25  C6  UNL     1      -1.653  52.388 -24.785  1.00  0.00     0.008 C 
BRANCH  25  26
HETATM   26  C5  UNL     1      -0.353  53.210 -24.768  1.00  0.00     0.028 C 
BRANCH  26  27
HETATM   27  C4  UNL     1       0.875  52.427 -25.146  1.00  0.00    -0.025 C 
HETATM   28  C2  UNL     1       1.281  52.049 -26.375  1.00  0.00    -0.091 C 
HETATM   29  C1  UNL     1       0.539  52.331 -27.654  1.00  0.00     0.042 C 
HETATM   30  C3  UNL     1       2.565  51.275 -26.561  1.00  0.00     0.042 C 
ENDBRANCH  26  27
ENDBRANCH  25  26
ENDBRANCH  23  25
ENDBRANCH   1  23
BRANCH  22  31
HETATM   31  O5  UNL     1      -4.920  46.227 -18.244  1.00  0.00    -0.394 OA
HETATM   32  H46 UNL     1      -4.781  45.260 -18.271  1.00  0.00     0.210 HD
ENDBRANCH  22  31
BRANCH  18  33
HETATM   33  C27 UNL     1      -7.686  43.255 -21.315  1.00  0.00     0.151 C 
HETATM   34  O2  UNL     1      -8.250  42.208 -21.030  1.00  0.00    -0.649 OA
BRANCH  33  35
HETATM   35  O3  UNL     1      -6.786  43.274 -22.310  1.00  0.00    -0.776 OA
HETATM   36  H40 UNL     1      -6.744  42.339 -22.607  1.00  0.00     0.167 HD
ENDBRANCH  33  35
ENDBRANCH  18  33
BRANCH  20  37
HETATM   37  O4  UNL     1      -6.502  43.560 -18.797  1.00  0.00    -0.394 OA
HETATM   38  H42 UNL     1      -6.629  43.275 -17.875  1.00  0.00     0.210 HD
ENDBRANCH  20  37
TORSDOF 8
ENDMDL
MODEL 8
REMARK minimizedAffinity -7.15868425
REMARK CNNscore 0.300360382
REMARK CNNaffinity 5.91539955
REMARK  8 active torsions:
REMARK  status: ('A' for Active; 'I' for Inactive)
REMARK    1  A    between atoms: C4_4  and  C5_5 
REMARK    2  A    between atoms: C5_5  and  C6_6 
REMARK    3  A    between atoms: C6_6  and  C7_7 
REMARK    4  A    between atoms: C7_7  and  C9_9 
REMARK    5  A    between atoms: C25_26  and  C27_28 
REMARK    6  A    between atoms: C27_28  and  O3_30 
REMARK    7  A    between atoms: C28_31  and  O4_32 
REMARK    8  A    between atoms: C30_34  and  O5_35 
ROOT
HETATM    1  C9  UNL     1      -4.553  48.723 -22.718  1.00  0.00    -0.002 C 
HETATM    2  C10 UNL     1      -3.945  49.561 -21.559  1.00  0.00     0.007 C 
HETATM    3  C11 UNL     1      -4.747  49.224 -20.284  1.00  0.00     0.015 C 
HETATM    4  C12 UNL     1      -5.594  47.986 -20.651  1.00  0.00    -0.005 C 
HETATM    5  C13 UNL     1      -4.677  46.738 -20.454  1.00  0.00     0.021 C 
HETATM    6  C14 UNL     1      -6.860  47.643 -19.876  1.00  0.00    -0.000 C 
HETATM    7  C15 UNL     1      -7.899  46.991 -20.463  1.00  0.00    -0.058 C 
HETATM    8  C16 UNL     1      -7.876  46.680 -21.970  1.00  0.00     0.036 C 
HETATM    9  C17 UNL     1      -6.636  47.119 -22.770  1.00  0.00     0.015 C 
HETATM   10  C18 UNL     1      -5.956  48.341 -22.154  1.00  0.00    -0.028 C 
HETATM   11  C19 UNL     1      -6.948  49.541 -22.257  1.00  0.00     0.016 C 
HETATM   12  C20 UNL     1      -9.198  46.566 -19.694  1.00  0.00     0.011 C 
HETATM   13  C21 UNL     1     -10.233  47.659 -20.064  1.00  0.00     0.023 C 
HETATM   14  C22 UNL     1      -8.891  46.508 -18.163  1.00  0.00     0.029 C 
HETATM   15  C23 UNL     1      -8.194  47.775 -17.665  1.00  0.00     0.090 C 
HETATM   16  C24 UNL     1      -6.909  47.999 -18.422  1.00  0.00     0.157 C 
HETATM   17  O1  UNL     1      -5.942  48.499 -17.849  1.00  0.00    -0.293 OA
HETATM   18  C25 UNL     1     -10.055  46.004 -17.229  1.00  0.00     0.072 C 
HETATM   19  C26 UNL     1      -9.369  45.211 -16.070  1.00  0.00     0.030 C 
HETATM   20  C28 UNL     1     -11.006  45.008 -17.951  1.00  0.00     0.139 C 
HETATM   21  C29 UNL     1     -10.285  44.228 -19.043  1.00  0.00     0.065 C 
HETATM   22  C30 UNL     1      -9.658  45.121 -20.131  1.00  0.00     0.133 C 
ENDROOT
BRANCH   1  23
HETATM   23  C7  UNL     1      -4.305  49.361 -24.118  1.00  0.00    -0.014 C 
HETATM   24  C8  UNL     1      -4.716  50.833 -24.270  1.00  0.00     0.010 C 
BRANCH  23  25
HETATM   25  C6  UNL     1      -4.877  48.566 -25.320  1.00  0.00     0.008 C 
BRANCH  25  26
HETATM   26  C5  UNL     1      -3.911  48.356 -26.499  1.00  0.00     0.028 C 
BRANCH  26  27
HETATM   27  C4  UNL     1      -2.552  48.970 -26.299  1.00  0.00    -0.025 C 
HETATM   28  C2  UNL     1      -2.083  50.138 -26.781  1.00  0.00    -0.091 C 
HETATM   29  C1  UNL     1      -2.855  51.079 -27.666  1.00  0.00     0.042 C 
HETATM   30  C3  UNL     1      -0.683  50.602 -26.455  1.00  0.00     0.042 C 
ENDBRANCH  26  27
ENDBRANCH  25  26
ENDBRANCH  23  25
ENDBRANCH   1  23
BRANCH  22  31
HETATM   31  O5  UNL     1     -10.560  45.171 -21.240  1.00  0.00    -0.394 OA
HETATM   32  H46 UNL     1     -11.390  45.570 -20.914  1.00  0.00     0.210 HD
ENDBRANCH  22  31
BRANCH  18  33
HETATM   33  C27 UNL     1     -10.885  47.089 -16.536  1.00  0.00     0.151 C 
HETATM   34  O2  UNL     1     -12.104  47.109 -16.446  1.00  0.00    -0.649 OA
BRANCH  33  35
HETATM   35  O3  UNL     1     -10.165  48.096 -16.019  1.00  0.00    -0.776 OA
HETATM   36  H40 UNL     1     -10.843  48.714 -15.670  1.00  0.00     0.167 HD
ENDBRANCH  33  35
ENDBRANCH  18  33
BRANCH  20  37
HETATM   37  O4  UNL     1     -12.148  45.620 -18.558  1.00  0.00    -0.394 OA
HETATM   38  H42 UNL     1     -12.809  44.914 -18.662  1.00  0.00     0.210 HD
ENDBRANCH  20  37
TORSDOF 8
ENDMDL
MODEL 9
REMARK minimizedAffinity -9.3536253
REMARK CNNscore 0.288023263
REMARK CNNaffinity 6.70347357
REMARK  8 active torsions:
REMARK  status: ('A' for Active; 'I' for Inactive)
REMARK    1  A    between atoms: C4_4  and  C5_5 
REMARK    2  A    between atoms: C5_5  and  C6_6 
REMARK    3  A    between atoms: C6_6  and  C7_7 
REMARK    4  A    between atoms: C7_7  and  C9_9 
REMARK    5  A    between atoms: C25_26  and  C27_28 
REMARK    6  A    between atoms: C27_28  and  O3_30 
REMARK    7  A    between atoms: C28_31  and  O4_32 
REMARK    8  A    between atoms: C30_34  and  O5_35 
ROOT
HETATM    1  C9  UNL     1      -1.333  50.859 -23.081  1.00  0.00    -0.002 C 
HETATM    2  C10 UNL     1      -0.813  52.323 -23.122  1.00  0.00     0.007 C 
HETATM    3  C11 UNL     1      -0.271  52.652 -21.715  1.00  0.00     0.015 C 
HETATM    4  C12 UNL     1      -0.203  51.296 -20.977  1.00  0.00    -0.005 C 
HETATM    5  C13 UNL     1       1.147  50.629 -21.386  1.00  0.00     0.021 C 
HETATM    6  C14 UNL     1      -0.204  51.230 -19.455  1.00  0.00    -0.000 C 
HETATM    7  C15 UNL     1      -0.720  50.162 -18.791  1.00  0.00    -0.058 C 
HETATM    8  C16 UNL     1      -1.429  49.031 -19.557  1.00  0.00     0.036 C 
HETATM    9  C17 UNL     1      -1.513  49.152 -21.089  1.00  0.00     0.015 C 
HETATM   10  C18 UNL     1      -1.511  50.609 -21.553  1.00  0.00    -0.028 C 
HETATM   11  C19 UNL     1      -2.816  51.280 -21.023  1.00  0.00     0.016 C 
HETATM   12  C20 UNL     1      -0.694  50.021 -17.229  1.00  0.00     0.011 C 
HETATM   13  C21 UNL     1      -2.117  50.442 -16.785  1.00  0.00     0.023 C 
HETATM   14  C22 UNL     1       0.425  50.945 -16.650  1.00  0.00     0.029 C 
HETATM   15  C23 UNL     1       0.339  52.370 -17.199  1.00  0.00     0.090 C 
HETATM   16  C24 UNL     1       0.432  52.359 -18.704  1.00  0.00     0.157 C 
HETATM   17  O1  UNL     1       0.992  53.285 -19.288  1.00  0.00    -0.293 OA
HETATM   18  C25 UNL     1       0.670  50.868 -15.096  1.00  0.00     0.072 C 
HETATM   19  C26 UNL     1       2.205  51.078 -14.887  1.00  0.00     0.030 C 
HETATM   20  C28 UNL     1       0.324  49.470 -14.509  1.00  0.00     0.139 C 
HETATM   21  C29 UNL     1       0.516  48.363 -15.538  1.00  0.00     0.065 C 
HETATM   22  C30 UNL     1      -0.338  48.542 -16.807  1.00  0.00     0.133 C 
ENDROOT
BRANCH   1  23
HETATM   23  C7  UNL     1      -2.425  50.577 -24.158  1.00  0.00    -0.014 C 
HETATM   24  C8  UNL     1      -2.760  49.100 -24.408  1.00  0.00     0.010 C 
BRANCH  23  25
HETATM   25  C6  UNL     1      -2.200  51.268 -25.528  1.00  0.00     0.008 C 
BRANCH  25  26
HETATM   26  C5  UNL     1      -1.319  50.496 -26.525  1.00  0.00     0.028 C 
BRANCH  26  27
HETATM   27  C4  UNL     1       0.159  50.677 -26.310  1.00  0.00    -0.025 C 
HETATM   28  C2  UNL     1       1.022  51.434 -27.019  1.00  0.00    -0.091 C 
HETATM   29  C1  UNL     1       0.657  52.258 -28.224  1.00  0.00     0.042 C 
HETATM   30  C3  UNL     1       2.481  51.504 -26.638  1.00  0.00     0.042 C 
ENDBRANCH  26  27
ENDBRANCH  25  26
ENDBRANCH  23  25
ENDBRANCH   1  23
BRANCH  22  31
HETATM   31  O5  UNL     1      -1.515  47.739 -16.669  1.00  0.00    -0.394 OA
HETATM   32  H46 UNL     1      -1.997  48.074 -15.888  1.00  0.00     0.210 HD
ENDBRANCH  22  31
BRANCH  18  33
HETATM   33  C27 UNL     1      -0.002  51.955 -14.250  1.00  0.00     0.151 C 
HETATM   34  O2  UNL     1      -1.181  51.984 -13.927  1.00  0.00    -0.649 OA
BRANCH  33  35
HETATM   35  O3  UNL     1       0.814  52.952 -13.875  1.00  0.00    -0.776 OA
HETATM   36  H40 UNL     1       0.220  53.573 -13.398  1.00  0.00     0.167 HD
ENDBRANCH  33  35
ENDBRANCH  18  33
BRANCH  20  37
HETATM   37  O4  UNL     1      -1.012  49.355 -14.013  1.00  0.00    -0.394 OA
HETATM   38  H42 UNL     1      -1.005  48.607 -13.389  1.00  0.00     0.210 HD
ENDBRANCH  20  37
TORSDOF 8
ENDMDL
