MODEL 1
REMARK minimizedAffinity -7.29948854
REMARK CNNscore 0.484291166
REMARK CNNaffinity 6.39177942
REMARK  4 active torsions:
REMARK  status: ('A' for Active; 'I' for Inactive)
REMARK    1  A    between atoms: C2_2  and  C4_4 
REMARK    2  A    between atoms: C4_4  and  C5_5 
REMARK    3  A    between atoms: C5_5  and  O1_6 
REMARK    4  A    between atoms: C8_9  and  C9_10 
ROOT
HETATM    1  C9  UNL     1      -0.759  10.026  16.548  1.00  0.00     0.001 C 
HETATM    2  C10 UNL     1       0.439  11.002  16.393  1.00  0.00     0.007 C 
HETATM    3  C11 UNL     1       0.069  12.301  17.130  1.00  0.00     0.011 C 
HETATM    4  C12 UNL     1      -1.137  11.929  18.012  1.00  0.00    -0.032 C 
HETATM    5  C13 UNL     1      -0.553  11.275  19.304  1.00  0.00     0.016 C 
HETATM    6  C14 UNL     1      -2.053  13.126  18.381  1.00  0.00     0.004 C 
HETATM    7  C15 UNL     1      -1.428  14.118  19.370  1.00  0.00     0.007 C 
HETATM    8  C16 UNL     1      -2.376  15.289  19.620  1.00  0.00     0.007 C 
HETATM    9  C17 UNL     1      -3.603  14.810  20.406  1.00  0.00     0.010 C 
HETATM   10  C18 UNL     1      -4.642  15.927  20.747  1.00  0.00     0.018 C 
HETATM   11  C19 UNL     1      -5.185  16.660  19.511  1.00  0.00     0.023 C 
HETATM   12  C20 UNL     1      -4.021  16.960  21.705  1.00  0.00     0.023 C 
HETATM   13  C21 UNL     1      -5.836  15.297  21.480  1.00  0.00     0.135 C 
HETATM   14  O2  UNL     1      -6.832  15.954  21.793  1.00  0.00    -0.297 OA
HETATM   15  C22 UNL     1      -5.714  13.851  21.893  1.00  0.00     0.080 C 
HETATM   16  C23 UNL     1      -5.362  12.980  20.697  1.00  0.00     0.018 C 
HETATM   17  C24 UNL     1      -4.288  13.584  19.788  1.00  0.00    -0.026 A 
HETATM   18  C25 UNL     1      -4.595  13.534  18.309  1.00  0.00     0.021 A 
HETATM   19  C26 UNL     1      -3.465  12.670  18.833  1.00  0.00    -0.027 A 
HETATM   20  C27 UNL     1      -3.719  11.161  18.915  1.00  0.00     0.011 C 
HETATM   21  C28 UNL     1      -3.010  10.252  17.892  1.00  0.00     0.011 C 
HETATM   22  C29 UNL     1      -1.917  10.942  17.064  1.00  0.00    -0.032 C 
HETATM   23  C30 UNL     1      -2.611  11.638  15.860  1.00  0.00     0.016 C 
ENDROOT
BRANCH   1  24
HETATM   24  C8  UNL     1      -0.911   9.030  15.364  1.00  0.00     0.014 C 
HETATM   25  C7  UNL     1      -0.254   9.534  14.075  1.00  0.00     0.010 C 
HETATM   26  C6  UNL     1      -0.574   8.606  12.903  1.00  0.00     0.041 C 
HETATM   27  C4  UNL     1      -0.287   7.114  13.199  1.00  0.00     0.085 C 
HETATM   28  O3  UNL     1      -0.877   6.755  14.471  1.00  0.00    -0.377 OA
HETATM   29  C31 UNL     1      -0.516   7.568  15.594  1.00  0.00     0.174 C 
BRANCH  27  30
HETATM   30  C2  UNL     1      -1.029   6.224  12.133  1.00  0.00     0.014 C 
HETATM   31  C1  UNL     1      -2.283   5.511  12.659  1.00  0.00     0.012 C 
HETATM   32  C3  UNL     1      -0.131   5.196  11.435  1.00  0.00     0.012 C 
ENDBRANCH  27  30
BRANCH  27  33
HETATM   33  C5  UNL     1       1.244   6.851  13.247  1.00  0.00     0.202 C 
BRANCH  33  34
HETATM   34  O1  UNL     1       1.586   5.904  14.257  1.00  0.00    -0.398 OA
HETATM   35  H10 UNL     1       0.944   6.043  14.980  1.00  0.00     0.209 HD
ENDBRANCH  33  34
ENDBRANCH  27  33
ENDBRANCH   1  24
TORSDOF 4
ENDMDL
MODEL 2
REMARK minimizedAffinity -6.94112539
REMARK CNNscore 0.479613453
REMARK CNNaffinity 6.5037179
REMARK  4 active torsions:
REMARK  status: ('A' for Active; 'I' for Inactive)
REMARK    1  A    between atoms: C2_2  and  C4_4 
REMARK    2  A    between atoms: C4_4  and  C5_5 
REMARK    3  A    between atoms: C5_5  and  O1_6 
REMARK    4  A    between atoms: C8_9  and  C9_10 
ROOT
HETATM    1  C9  UNL     1      -4.057  13.296  18.518  1.00  0.00     0.001 C 
HETATM    2  C10 UNL     1      -2.757  13.850  19.162  1.00  0.00     0.007 C 
HETATM    3  C11 UNL     1      -1.571  13.180  18.447  1.00  0.00     0.011 C 
HETATM    4  C12 UNL     1      -2.172  12.566  17.169  1.00  0.00    -0.032 C 
HETATM    5  C13 UNL     1      -2.250  13.721  16.120  1.00  0.00     0.016 C 
HETATM    6  C14 UNL     1      -1.368  11.370  16.594  1.00  0.00     0.004 C 
HETATM    7  C15 UNL     1      -0.020  11.756  15.972  1.00  0.00     0.007 C 
HETATM    8  C16 UNL     1       0.722  10.509  15.496  1.00  0.00     0.007 C 
HETATM    9  C17 UNL     1      -0.004   9.896  14.291  1.00  0.00     0.010 C 
HETATM   10  C18 UNL     1       0.675   8.622  13.693  1.00  0.00     0.018 C 
HETATM   11  C19 UNL     1       0.852   7.484  14.711  1.00  0.00     0.023 C 
HETATM   12  C20 UNL     1       2.051   8.978  13.101  1.00  0.00     0.023 C 
HETATM   13  C21 UNL     1      -0.185   8.087  12.538  1.00  0.00     0.135 C 
HETATM   14  O2  UNL     1       0.092   7.041  11.946  1.00  0.00    -0.297 OA
HETATM   15  C22 UNL     1      -1.344   8.939  12.083  1.00  0.00     0.080 C 
HETATM   16  C23 UNL     1      -2.255   9.275  13.255  1.00  0.00     0.018 C 
HETATM   17  C24 UNL     1      -1.502   9.667  14.529  1.00  0.00    -0.026 A 
HETATM   18  C25 UNL     1      -1.991   9.002  15.794  1.00  0.00     0.021 A 
HETATM   19  C26 UNL     1      -2.218  10.493  15.639  1.00  0.00    -0.027 A 
HETATM   20  C27 UNL     1      -3.651  10.957  15.354  1.00  0.00     0.011 C 
HETATM   21  C28 UNL     1      -4.420  11.663  16.487  1.00  0.00     0.011 C 
HETATM   22  C29 UNL     1      -3.565  12.057  17.700  1.00  0.00    -0.032 C 
HETATM   23  C30 UNL     1      -3.473  10.817  18.631  1.00  0.00     0.016 C 
ENDROOT
BRANCH   1  24
HETATM   24  C8  UNL     1      -5.270  13.260  19.490  1.00  0.00     0.014 C 
HETATM   25  C7  UNL     1      -4.940  13.828  20.874  1.00  0.00     0.010 C 
HETATM   26  C6  UNL     1      -6.106  13.616  21.840  1.00  0.00     0.041 C 
HETATM   27  C4  UNL     1      -7.467  14.100  21.284  1.00  0.00     0.085 C 
HETATM   28  O3  UNL     1      -7.650  13.579  19.945  1.00  0.00    -0.377 OA
HETATM   29  C31 UNL     1      -6.601  13.845  19.008  1.00  0.00     0.174 C 
BRANCH  27  30
HETATM   30  C2  UNL     1      -8.628  13.467  22.137  1.00  0.00     0.014 C 
HETATM   31  C1  UNL     1      -8.176  12.838  23.464  1.00  0.00     0.012 C 
HETATM   32  C3  UNL     1      -9.489  12.451  21.376  1.00  0.00     0.012 C 
ENDBRANCH  27  30
BRANCH  27  33
HETATM   33  C5  UNL     1      -7.521  15.653  21.246  1.00  0.00     0.202 C 
BRANCH  33  34
HETATM   34  O1  UNL     1      -7.137  16.227  22.494  1.00  0.00    -0.398 OA
HETATM   35  H10 UNL     1      -7.437  15.598  23.179  1.00  0.00     0.209 HD
ENDBRANCH  33  34
ENDBRANCH  27  33
ENDBRANCH   1  24
TORSDOF 4
ENDMDL
MODEL 3
REMARK minimizedAffinity -6.47377253
REMARK CNNscore 0.464292467
REMARK CNNaffinity 7.087677
REMARK  4 active torsions:
REMARK  status: ('A' for Active; 'I' for Inactive)
REMARK    1  A    between atoms: C2_2  and  C4_4 
REMARK    2  A    between atoms: C4_4  and  C5_5 
REMARK    3  A    between atoms: C5_5  and  O1_6 
REMARK    4  A    between atoms: C8_9  and  C9_10 
ROOT
HETATM    1  C9  UNL     1     -13.669   9.798  14.744  1.00  0.00     0.001 C 
HETATM    2  C10 UNL     1     -13.973   9.323  13.297  1.00  0.00     0.007 C 
HETATM    3  C11 UNL     1     -12.750   8.525  12.812  1.00  0.00     0.011 C 
HETATM    4  C12 UNL     1     -11.944   8.217  14.087  1.00  0.00    -0.032 C 
HETATM    5  C13 UNL     1     -12.603   6.959  14.734  1.00  0.00     0.016 C 
HETATM    6  C14 UNL     1     -10.432   7.968  13.843  1.00  0.00     0.004 C 
HETATM    7  C15 UNL     1     -10.118   6.647  13.129  1.00  0.00     0.007 C 
HETATM    8  C16 UNL     1      -8.617   6.523  12.877  1.00  0.00     0.007 C 
HETATM    9  C17 UNL     1      -7.876   6.332  14.207  1.00  0.00     0.010 C 
HETATM   10  C18 UNL     1      -6.328   6.167  14.079  1.00  0.00     0.018 C 
HETATM   11  C19 UNL     1      -5.639   7.345  13.372  1.00  0.00     0.023 C 
HETATM   12  C20 UNL     1      -5.989   4.868  13.326  1.00  0.00     0.023 C 
HETATM   13  C21 UNL     1      -5.717   6.043  15.484  1.00  0.00     0.135 C 
HETATM   14  O2  UNL     1      -4.498   5.980  15.664  1.00  0.00    -0.297 OA
HETATM   15  C22 UNL     1      -6.669   5.907  16.646  1.00  0.00     0.080 C 
HETATM   16  C23 UNL     1      -7.675   7.049  16.651  1.00  0.00     0.018 C 
HETATM   17  C24 UNL     1      -8.238   7.382  15.266  1.00  0.00    -0.026 A 
HETATM   18  C25 UNL     1      -8.266   8.852  14.920  1.00  0.00     0.021 A 
HETATM   19  C26 UNL     1      -9.589   8.144  15.133  1.00  0.00    -0.027 A 
HETATM   20  C27 UNL     1     -10.350   8.456  16.426  1.00  0.00     0.011 C 
HETATM   21  C28 UNL     1     -11.621   9.320  16.326  1.00  0.00     0.011 C 
HETATM   22  C29 UNL     1     -12.132   9.555  14.897  1.00  0.00    -0.032 C 
HETATM   23  C30 UNL     1     -11.349  10.764  14.314  1.00  0.00     0.016 C 
ENDROOT
BRANCH   1  24
HETATM   24  C8  UNL     1     -14.373  11.131  15.126  1.00  0.00     0.014 C 
HETATM   25  C7  UNL     1     -13.713  11.831  16.319  1.00  0.00     0.010 C 
HETATM   26  C6  UNL     1     -14.536  13.041  16.761  1.00  0.00     0.041 C 
HETATM   27  C4  UNL     1     -14.895  14.003  15.603  1.00  0.00     0.085 C 
HETATM   28  O3  UNL     1     -15.434  13.240  14.496  1.00  0.00    -0.377 OA
HETATM   29  C31 UNL     1     -14.630  12.156  14.017  1.00  0.00     0.174 C 
BRANCH  27  30
HETATM   30  C2  UNL     1     -16.066  14.949  16.062  1.00  0.00     0.014 C 
HETATM   31  C1  UNL     1     -17.138  15.204  14.991  1.00  0.00     0.012 C 
HETATM   32  C3  UNL     1     -15.603  16.297  16.629  1.00  0.00     0.012 C 
ENDBRANCH  27  30
BRANCH  27  33
HETATM   33  C5  UNL     1     -13.637  14.783  15.129  1.00  0.00     0.202 C 
BRANCH  33  34
HETATM   34  O1  UNL     1     -13.829  15.363  13.840  1.00  0.00    -0.398 OA
HETATM   35  H10 UNL     1     -14.413  14.748  13.356  1.00  0.00     0.209 HD
ENDBRANCH  33  34
ENDBRANCH  27  33
ENDBRANCH   1  24
TORSDOF 4
ENDMDL
MODEL 4
REMARK minimizedAffinity -7.73692274
REMARK CNNscore 0.443876952
REMARK CNNaffinity 6.72911835
REMARK  4 active torsions:
REMARK  status: ('A' for Active; 'I' for Inactive)
REMARK    1  A    between atoms: C2_2  and  C4_4 
REMARK    2  A    between atoms: C4_4  and  C5_5 
REMARK    3  A    between atoms: C5_5  and  O1_6 
REMARK    4  A    between atoms: C8_9  and  C9_10 
ROOT
HETATM    1  C9  UNL     1      -1.452   9.499  15.127  1.00  0.00     0.001 C 
HETATM    2  C10 UNL     1      -0.308   8.489  14.837  1.00  0.00     0.007 C 
HETATM    3  C11 UNL     1      -0.961   7.192  14.328  1.00  0.00     0.011 C 
HETATM    4  C12 UNL     1      -2.402   7.589  13.961  1.00  0.00    -0.032 C 
HETATM    5  C13 UNL     1      -2.338   8.209  12.529  1.00  0.00     0.016 C 
HETATM    6  C14 UNL     1      -3.418   6.417  13.996  1.00  0.00     0.004 C 
HETATM    7  C15 UNL     1      -3.239   5.393  12.868  1.00  0.00     0.007 C 
HETATM    8  C16 UNL     1      -4.238   4.249  13.025  1.00  0.00     0.007 C 
HETATM    9  C17 UNL     1      -5.660   4.754  12.753  1.00  0.00     0.010 C 
HETATM   10  C18 UNL     1      -6.776   3.666  12.858  1.00  0.00     0.018 C 
HETATM   11  C19 UNL     1      -6.826   2.966  14.225  1.00  0.00     0.023 C 
HETATM   12  C20 UNL     1      -6.590   2.602  11.761  1.00  0.00     0.023 C 
HETATM   13  C21 UNL     1      -8.145   4.323  12.619  1.00  0.00     0.135 C 
HETATM   14  O2  UNL     1      -9.200   3.692  12.724  1.00  0.00    -0.297 OA
HETATM   15  C22 UNL     1      -8.155   5.758  12.156  1.00  0.00     0.080 C 
HETATM   16  C23 UNL     1      -7.354   6.634  13.108  1.00  0.00     0.018 C 
HETATM   17  C24 UNL     1      -6.029   6.009  13.556  1.00  0.00    -0.026 A 
HETATM   18  C25 UNL     1      -5.750   6.088  15.038  1.00  0.00     0.021 A 
HETATM   19  C26 UNL     1      -4.884   6.910  14.104  1.00  0.00    -0.027 A 
HETATM   20  C27 UNL     1      -5.115   8.425  14.088  1.00  0.00     0.011 C 
HETATM   21  C28 UNL     1      -4.049   9.324  14.744  1.00  0.00     0.011 C 
HETATM   22  C29 UNL     1      -2.740   8.612  15.111  1.00  0.00    -0.032 C 
HETATM   23  C30 UNL     1      -2.940   7.954  16.504  1.00  0.00     0.016 C 
ENDROOT
BRANCH   1  24
HETATM   24  C8  UNL     1      -1.118  10.515  16.255  1.00  0.00     0.014 C 
HETATM   25  C7  UNL     1      -1.803  10.173  17.583  1.00  0.00     0.010 C 
HETATM   26  C6  UNL     1      -1.584  11.286  18.609  1.00  0.00     0.041 C 
HETATM   27  C4  UNL     1      -0.100  11.698  18.768  1.00  0.00     0.085 C 
HETATM   28  O3  UNL     1       0.479  11.919  17.459  1.00  0.00    -0.377 OA
HETATM   29  C31 UNL     1       0.354  10.848  16.517  1.00  0.00     0.174 C 
BRANCH  27  30
HETATM   30  C2  UNL     1      -0.027  13.093  19.494  1.00  0.00     0.014 C 
HETATM   31  C1  UNL     1      -0.024  14.305  18.549  1.00  0.00     0.012 C 
HETATM   32  C3  UNL     1       1.140  13.231  20.479  1.00  0.00     0.012 C 
ENDBRANCH  27  30
BRANCH  27  33
HETATM   33  C5  UNL     1       0.700  10.589  19.506  1.00  0.00     0.202 C 
BRANCH  33  34
HETATM   34  O1  UNL     1       1.933  10.301  18.849  1.00  0.00    -0.398 OA
HETATM   35  H10 UNL     1       1.763  10.432  17.896  1.00  0.00     0.209 HD
ENDBRANCH  33  34
ENDBRANCH  27  33
ENDBRANCH   1  24
TORSDOF 4
ENDMDL
MODEL 5
REMARK minimizedAffinity -7.67522287
REMARK CNNscore 0.435219735
REMARK CNNaffinity 5.603302
REMARK  4 active torsions:
REMARK  status: ('A' for Active; 'I' for Inactive)
REMARK    1  A    between atoms: C2_2  and  C4_4 
REMARK    2  A    between atoms: C4_4  and  C5_5 
REMARK    3  A    between atoms: C5_5  and  O1_6 
REMARK    4  A    between atoms: C8_9  and  C9_10 
ROOT
HETATM    1  C9  UNL     1      -4.568 -10.450   6.671  1.00  0.00     0.001 C 
HETATM    2  C10 UNL     1      -3.157 -11.093   6.583  1.00  0.00     0.007 C 
HETATM    3  C11 UNL     1      -2.917 -11.470   5.111  1.00  0.00     0.011 C 
HETATM    4  C12 UNL     1      -3.995 -10.704   4.322  1.00  0.00    -0.032 C 
HETATM    5  C13 UNL     1      -3.446  -9.256   4.119  1.00  0.00     0.016 C 
HETATM    6  C14 UNL     1      -4.360 -11.339   2.955  1.00  0.00     0.004 C 
HETATM    7  C15 UNL     1      -3.262 -11.219   1.890  1.00  0.00     0.007 C 
HETATM    8  C16 UNL     1      -3.688 -11.928   0.606  1.00  0.00     0.007 C 
HETATM    9  C17 UNL     1      -4.840 -11.162  -0.058  1.00  0.00     0.010 C 
HETATM   10  C18 UNL     1      -5.350 -11.776  -1.401  1.00  0.00     0.018 C 
HETATM   11  C19 UNL     1      -5.824 -13.233  -1.270  1.00  0.00     0.023 C 
HETATM   12  C20 UNL     1      -4.248 -11.707  -2.474  1.00  0.00     0.023 C 
HETATM   13  C21 UNL     1      -6.533 -10.944  -1.919  1.00  0.00     0.135 C 
HETATM   14  O2  UNL     1      -7.168 -11.266  -2.926  1.00  0.00    -0.297 OA
HETATM   15  C22 UNL     1      -6.842  -9.655  -1.200  1.00  0.00     0.080 C 
HETATM   16  C23 UNL     1      -7.036  -9.903   0.289  1.00  0.00     0.018 C 
HETATM   17  C24 UNL     1      -6.005 -10.860   0.894  1.00  0.00    -0.026 A 
HETATM   18  C25 UNL     1      -6.574 -11.939   1.784  1.00  0.00     0.021 A 
HETATM   19  C26 UNL     1      -5.735 -10.853   2.428  1.00  0.00    -0.027 A 
HETATM   20  C27 UNL     1      -6.472  -9.802   3.264  1.00  0.00     0.011 C 
HETATM   21  C28 UNL     1      -6.318  -9.861   4.796  1.00  0.00     0.011 C 
HETATM   22  C29 UNL     1      -5.226 -10.815   5.300  1.00  0.00    -0.032 C 
HETATM   23  C30 UNL     1      -5.845 -12.237   5.377  1.00  0.00     0.016 C 
ENDROOT
BRANCH   1  24
HETATM   24  C8  UNL     1      -5.267 -10.659   8.044  1.00  0.00     0.014 C 
HETATM   25  C7  UNL     1      -4.427 -10.151   9.221  1.00  0.00     0.010 C 
HETATM   26  C6  UNL     1      -5.074 -10.530  10.553  1.00  0.00     0.041 C 
HETATM   27  C4  UNL     1      -6.569 -10.140  10.648  1.00  0.00     0.085 C 
HETATM   28  O3  UNL     1      -7.259 -10.591   9.457  1.00  0.00    -0.377 OA
HETATM   29  C31 UNL     1      -6.709 -10.170   8.204  1.00  0.00     0.174 C 
BRANCH  27  30
HETATM   30  C2  UNL     1      -7.235 -10.931  11.836  1.00  0.00     0.014 C 
HETATM   31  C1  UNL     1      -7.502 -10.089  13.093  1.00  0.00     0.012 C 
HETATM   32  C3  UNL     1      -6.486 -12.205  12.244  1.00  0.00     0.012 C 
ENDBRANCH  27  30
BRANCH  27  33
HETATM   33  C5  UNL     1      -6.726  -8.600  10.784  1.00  0.00     0.202 C 
BRANCH  33  34
HETATM   34  O1  UNL     1      -5.698  -8.034  11.595  1.00  0.00    -0.398 OA
HETATM   35  H10 UNL     1      -5.486  -8.712  12.267  1.00  0.00     0.209 HD
ENDBRANCH  33  34
ENDBRANCH  27  33
ENDBRANCH   1  24
TORSDOF 4
ENDMDL
MODEL 6
REMARK minimizedAffinity -6.77216911
REMARK CNNscore 0.413308382
REMARK CNNaffinity 7.05922461
REMARK  4 active torsions:
REMARK  status: ('A' for Active; 'I' for Inactive)
REMARK    1  A    between atoms: C2_2  and  C4_4 
REMARK    2  A    between atoms: C4_4  and  C5_5 
REMARK    3  A    between atoms: C5_5  and  O1_6 
REMARK    4  A    between atoms: C8_9  and  C9_10 
ROOT
HETATM    1  C9  UNL     1     -10.736   8.139  15.568  1.00  0.00     0.001 C 
HETATM    2  C10 UNL     1     -10.847   9.081  16.798  1.00  0.00     0.007 C 
HETATM    3  C11 UNL     1     -12.054  10.005  16.559  1.00  0.00     0.011 C 
HETATM    4  C12 UNL     1     -12.842   9.342  15.414  1.00  0.00    -0.032 C 
HETATM    5  C13 UNL     1     -13.725   8.234  16.071  1.00  0.00     0.016 C 
HETATM    6  C14 UNL     1     -13.725  10.320  14.595  1.00  0.00     0.004 C 
HETATM    7  C15 UNL     1     -14.950  10.848  15.353  1.00  0.00     0.007 C 
HETATM    8  C16 UNL     1     -15.717  11.849  14.491  1.00  0.00     0.007 C 
HETATM    9  C17 UNL     1     -16.379  11.125  13.311  1.00  0.00     0.010 C 
HETATM   10  C18 UNL     1     -17.218  12.042  12.364  1.00  0.00     0.018 C 
HETATM   11  C19 UNL     1     -16.412  13.201  11.757  1.00  0.00     0.023 C 
HETATM   12  C20 UNL     1     -18.430  12.620  13.116  1.00  0.00     0.023 C 
HETATM   13  C21 UNL     1     -17.770  11.198  11.205  1.00  0.00     0.135 C 
HETATM   14  O2  UNL     1     -18.404  11.701  10.274  1.00  0.00    -0.297 OA
HETATM   15  C22 UNL     1     -17.589   9.703  11.287  1.00  0.00     0.080 C 
HETATM   16  C23 UNL     1     -16.124   9.350  11.491  1.00  0.00     0.018 C 
HETATM   17  C24 UNL     1     -15.411  10.240  12.514  1.00  0.00    -0.026 A 
HETATM   18  C25 UNL     1     -14.063  10.764  12.081  1.00  0.00     0.021 A 
HETATM   19  C26 UNL     1     -14.105   9.748  13.205  1.00  0.00    -0.027 A 
HETATM   20  C27 UNL     1     -13.634   8.326  12.882  1.00  0.00     0.011 C 
HETATM   21  C28 UNL     1     -12.278   7.868  13.454  1.00  0.00     0.011 C 
HETATM   22  C29 UNL     1     -11.671   8.805  14.507  1.00  0.00    -0.032 C 
HETATM   23  C30 UNL     1     -10.896   9.919  13.751  1.00  0.00     0.016 C 
ENDROOT
BRANCH   1  24
HETATM   24  C8  UNL     1      -9.283   7.674  15.265  1.00  0.00     0.014 C 
HETATM   25  C7  UNL     1      -8.568   7.118  16.501  1.00  0.00     0.010 C 
HETATM   26  C6  UNL     1      -7.097   6.834  16.195  1.00  0.00     0.041 C 
HETATM   27  C4  UNL     1      -6.883   5.979  14.923  1.00  0.00     0.085 C 
HETATM   28  O3  UNL     1      -7.661   6.535  13.835  1.00  0.00    -0.377 OA
HETATM   29  C31 UNL     1      -9.059   6.726  14.083  1.00  0.00     0.174 C 
BRANCH  27  30
HETATM   30  C2  UNL     1      -5.383   6.103  14.463  1.00  0.00     0.014 C 
HETATM   31  C1  UNL     1      -4.383   6.338  15.606  1.00  0.00     0.012 C 
HETATM   32  C3  UNL     1      -5.141   7.152  13.371  1.00  0.00     0.012 C 
ENDBRANCH  27  30
BRANCH  27  33
HETATM   33  C5  UNL     1      -7.321   4.508  15.171  1.00  0.00     0.202 C 
BRANCH  33  34
HETATM   34  O1  UNL     1      -7.220   3.720  13.987  1.00  0.00    -0.398 OA
HETATM   35  H10 UNL     1      -7.422   4.325  13.247  1.00  0.00     0.209 HD
ENDBRANCH  33  34
ENDBRANCH  27  33
ENDBRANCH   1  24
TORSDOF 4
ENDMDL
MODEL 7
REMARK minimizedAffinity -6.81800222
REMARK CNNscore 0.393654466
REMARK CNNaffinity 6.38809776
REMARK  4 active torsions:
REMARK  status: ('A' for Active; 'I' for Inactive)
REMARK    1  A    between atoms: C2_2  and  C4_4 
REMARK    2  A    between atoms: C4_4  and  C5_5 
REMARK    3  A    between atoms: C5_5  and  O1_6 
REMARK    4  A    between atoms: C8_9  and  C9_10 
ROOT
HETATM    1  C9  UNL     1     -13.725   8.010  24.221  1.00  0.00     0.001 C 
HETATM    2  C10 UNL     1     -14.679   8.718  25.222  1.00  0.00     0.007 C 
HETATM    3  C11 UNL     1     -14.239  10.190  25.309  1.00  0.00     0.011 C 
HETATM    4  C12 UNL     1     -13.318  10.403  24.094  1.00  0.00    -0.032 C 
HETATM    5  C13 UNL     1     -14.252  10.675  22.873  1.00  0.00     0.016 C 
HETATM    6  C14 UNL     1     -12.297  11.560  24.260  1.00  0.00     0.004 C 
HETATM    7  C15 UNL     1     -12.922  12.960  24.238  1.00  0.00     0.007 C 
HETATM    8  C16 UNL     1     -11.852  14.024  24.473  1.00  0.00     0.007 C 
HETATM    9  C17 UNL     1     -10.908  14.094  23.265  1.00  0.00     0.010 C 
HETATM   10  C18 UNL     1      -9.779  15.167  23.374  1.00  0.00     0.018 C 
HETATM   11  C19 UNL     1      -8.880  14.992  24.608  1.00  0.00     0.023 C 
HETATM   12  C20 UNL     1     -10.386  16.581  23.398  1.00  0.00     0.023 C 
HETATM   13  C21 UNL     1      -8.883  15.085  22.128  1.00  0.00     0.135 C 
HETATM   14  O2  UNL     1      -7.870  15.776  22.005  1.00  0.00    -0.297 OA
HETATM   15  C22 UNL     1      -9.337  14.186  21.005  1.00  0.00     0.080 C 
HETATM   16  C23 UNL     1      -9.592  12.776  21.515  1.00  0.00     0.018 C 
HETATM   17  C24 UNL     1     -10.341  12.729  22.850  1.00  0.00    -0.026 A 
HETATM   18  C25 UNL     1      -9.760  11.789  23.880  1.00  0.00     0.021 A 
HETATM   19  C26 UNL     1     -11.106  11.441  23.275  1.00  0.00    -0.027 A 
HETATM   20  C27 UNL     1     -11.143  10.284  22.270  1.00  0.00     0.011 C 
HETATM   21  C28 UNL     1     -11.782   8.957  22.720  1.00  0.00     0.011 C 
HETATM   22  C29 UNL     1     -12.550   9.027  24.048  1.00  0.00    -0.032 C 
HETATM   23  C30 UNL     1     -11.520   8.838  25.195  1.00  0.00     0.016 C 
ENDROOT
BRANCH   1  24
HETATM   24  C8  UNL     1     -13.519   6.497  24.517  1.00  0.00     0.014 C 
HETATM   25  C7  UNL     1     -14.523   5.949  25.536  1.00  0.00     0.010 C 
HETATM   26  C6  UNL     1     -14.176   4.510  25.920  1.00  0.00     0.041 C 
HETATM   27  C4  UNL     1     -13.962   3.579  24.703  1.00  0.00     0.085 C 
HETATM   28  O3  UNL     1     -13.066   4.217  23.761  1.00  0.00    -0.377 OA
HETATM   29  C31 UNL     1     -13.427   5.534  23.329  1.00  0.00     0.174 C 
BRANCH  27  30
HETATM   30  C2  UNL     1     -13.210   2.278  25.173  1.00  0.00     0.014 C 
HETATM   31  C1  UNL     1     -13.050   2.149  26.695  1.00  0.00     0.012 C 
HETATM   32  C3  UNL     1     -11.842   2.067  24.513  1.00  0.00     0.012 C 
ENDBRANCH  27  30
BRANCH  27  33
HETATM   33  C5  UNL     1     -15.316   3.275  24.002  1.00  0.00     0.202 C 
BRANCH  33  34
HETATM   34  O1  UNL     1     -15.921   2.088  24.513  1.00  0.00    -0.398 OA
HETATM   35  H10 UNL     1     -15.181   1.494  24.749  1.00  0.00     0.209 HD
ENDBRANCH  33  34
ENDBRANCH  27  33
ENDBRANCH   1  24
TORSDOF 4
ENDMDL
MODEL 8
REMARK minimizedAffinity -6.19536543
REMARK CNNscore 0.381012708
REMARK CNNaffinity 5.64172888
REMARK  4 active torsions:
REMARK  status: ('A' for Active; 'I' for Inactive)
REMARK    1  A    between atoms: C2_2  and  C4_4 
REMARK    2  A    between atoms: C4_4  and  C5_5 
REMARK    3  A    between atoms: C5_5  and  O1_6 
REMARK    4  A    between atoms: C8_9  and  C9_10 
ROOT
HETATM    1  C9  UNL     1      -6.380  -9.814   9.659  1.00  0.00     0.001 C 
HETATM    2  C10 UNL     1      -6.824  -8.329   9.549  1.00  0.00     0.007 C 
HETATM    3  C11 UNL     1      -8.092  -8.167  10.405  1.00  0.00     0.011 C 
HETATM    4  C12 UNL     1      -8.138  -9.425  11.292  1.00  0.00    -0.032 C 
HETATM    5  C13 UNL     1      -7.194  -9.145  12.503  1.00  0.00     0.016 C 
HETATM    6  C14 UNL     1      -9.557  -9.804  11.791  1.00  0.00     0.004 C 
HETATM    7  C15 UNL     1     -10.135  -8.844  12.839  1.00  0.00     0.007 C 
HETATM    8  C16 UNL     1     -11.554  -9.263  13.219  1.00  0.00     0.007 C 
HETATM    9  C17 UNL     1     -11.519 -10.582  14.002  1.00  0.00     0.010 C 
HETATM   10  C18 UNL     1     -12.915 -11.105  14.471  1.00  0.00     0.018 C 
HETATM   11  C19 UNL     1     -13.911 -11.317  13.320  1.00  0.00     0.023 C 
HETATM   12  C20 UNL     1     -13.534 -10.133  15.491  1.00  0.00     0.023 C 
HETATM   13  C21 UNL     1     -12.733 -12.452  15.187  1.00  0.00     0.135 C 
HETATM   14  O2  UNL     1     -13.694 -13.115  15.586  1.00  0.00    -0.297 OA
HETATM   15  C22 UNL     1     -11.322 -12.903  15.471  1.00  0.00     0.080 C 
HETATM   16  C23 UNL     1     -10.495 -12.915  14.194  1.00  0.00     0.018 C 
HETATM   17  C24 UNL     1     -10.716 -11.688  13.304  1.00  0.00    -0.026 A 
HETATM   18  C25 UNL     1     -10.924 -11.987  11.838  1.00  0.00     0.021 A 
HETATM   19  C26 UNL     1      -9.645 -11.283  12.249  1.00  0.00    -0.027 A 
HETATM   20  C27 UNL     1      -8.352 -12.104  12.211  1.00  0.00     0.011 C 
HETATM   21  C28 UNL     1      -7.337 -11.802  11.092  1.00  0.00     0.011 C 
HETATM   22  C29 UNL     1      -7.622 -10.525  10.289  1.00  0.00    -0.032 C 
HETATM   23  C30 UNL     1      -8.638 -10.890   9.172  1.00  0.00     0.016 C 
ENDROOT
BRANCH   1  24
HETATM   24  C8  UNL     1      -5.633 -10.338   8.401  1.00  0.00     0.014 C 
HETATM   25  C7  UNL     1      -5.920  -9.504   7.148  1.00  0.00     0.010 C 
HETATM   26  C6  UNL     1      -5.304 -10.153   5.909  1.00  0.00     0.041 C 
HETATM   27  C4  UNL     1      -3.808 -10.515   6.079  1.00  0.00     0.085 C 
HETATM   28  O3  UNL     1      -3.626 -11.228   7.326  1.00  0.00    -0.377 OA
HETATM   29  C31 UNL     1      -4.125 -10.588   8.506  1.00  0.00     0.174 C 
BRANCH  27  30
HETATM   30  C2  UNL     1      -3.392 -11.535   4.955  1.00  0.00     0.014 C 
HETATM   31  C1  UNL     1      -2.547 -12.719   5.448  1.00  0.00     0.012 C 
HETATM   32  C3  UNL     1      -2.692 -10.895   3.750  1.00  0.00     0.012 C 
ENDBRANCH  27  30
BRANCH  27  33
HETATM   33  C5  UNL     1      -2.932  -9.230   6.085  1.00  0.00     0.202 C 
BRANCH  33  34
HETATM   34  O1  UNL     1      -2.655  -8.786   7.412  1.00  0.00    -0.398 OA
HETATM   35  H10 UNL     1      -3.444  -9.018   7.940  1.00  0.00     0.209 HD
ENDBRANCH  33  34
ENDBRANCH  27  33
ENDBRANCH   1  24
TORSDOF 4
ENDMDL
MODEL 9
REMARK minimizedAffinity -8.07679653
REMARK CNNscore 0.360353172
REMARK CNNaffinity 6.99390268
REMARK  4 active torsions:
REMARK  status: ('A' for Active; 'I' for Inactive)
REMARK    1  A    between atoms: C2_2  and  C4_4 
REMARK    2  A    between atoms: C4_4  and  C5_5 
REMARK    3  A    between atoms: C5_5  and  O1_6 
REMARK    4  A    between atoms: C8_9  and  C9_10 
ROOT
HETATM    1  C9  UNL     1      -8.530   6.115  14.574  1.00  0.00     0.001 C 
HETATM    2  C10 UNL     1      -8.926   5.429  13.238  1.00  0.00     0.007 C 
HETATM    3  C11 UNL     1      -7.623   5.102  12.488  1.00  0.00     0.011 C 
HETATM    4  C12 UNL     1      -6.511   5.236  13.544  1.00  0.00    -0.032 C 
HETATM    5  C13 UNL     1      -6.485   3.888  14.331  1.00  0.00     0.016 C 
HETATM    6  C14 UNL     1      -5.108   5.546  12.959  1.00  0.00     0.004 C 
HETATM    7  C15 UNL     1      -4.470   4.377  12.198  1.00  0.00     0.007 C 
HETATM    8  C16 UNL     1      -3.126   4.798  11.607  1.00  0.00     0.007 C 
HETATM    9  C17 UNL     1      -2.106   5.020  12.732  1.00  0.00     0.010 C 
HETATM   10  C18 UNL     1      -0.677   5.432  12.252  1.00  0.00     0.018 C 
HETATM   11  C19 UNL     1      -0.659   6.711  11.399  1.00  0.00     0.023 C 
HETATM   12  C20 UNL     1      -0.034   4.289  11.446  1.00  0.00     0.023 C 
HETATM   13  C21 UNL     1       0.216   5.675  13.478  1.00  0.00     0.135 C 
HETATM   14  O2  UNL     1       1.374   6.087  13.373  1.00  0.00    -0.297 OA
HETATM   15  C22 UNL     1      -0.343   5.303  14.829  1.00  0.00     0.080 C 
HETATM   16  C23 UNL     1      -1.684   5.983  15.060  1.00  0.00     0.018 C 
HETATM   17  C24 UNL     1      -2.610   5.953  13.841  1.00  0.00    -0.026 A 
HETATM   18  C25 UNL     1      -3.272   7.268  13.504  1.00  0.00     0.021 A 
HETATM   19  C26 UNL     1      -4.146   6.142  14.019  1.00  0.00    -0.027 A 
HETATM   20  C27 UNL     1      -4.675   6.266  15.452  1.00  0.00     0.011 C 
HETATM   21  C28 UNL     1      -6.171   6.582  15.643  1.00  0.00     0.011 C 
HETATM   22  C29 UNL     1      -7.022   6.477  14.370  1.00  0.00    -0.032 C 
HETATM   23  C30 UNL     1      -6.905   7.830  13.616  1.00  0.00     0.016 C 
ENDROOT
BRANCH   1  24
HETATM   24  C8  UNL     1      -9.593   7.119  15.101  1.00  0.00     0.014 C 
HETATM   25  C7  UNL     1      -9.005   8.500  15.411  1.00  0.00     0.010 C 
HETATM   26  C6  UNL     1     -10.046   9.396  16.082  1.00  0.00     0.041 C 
HETATM   27  C4  UNL     1     -11.393   9.456  15.323  1.00  0.00     0.085 C 
HETATM   28  O3  UNL     1     -11.825   8.111  15.005  1.00  0.00    -0.377 OA
HETATM   29  C31 UNL     1     -10.887   7.290  14.299  1.00  0.00     0.174 C 
BRANCH  27  30
HETATM   30  C2  UNL     1     -12.501  10.030  16.282  1.00  0.00     0.014 C 
HETATM   31  C1  UNL     1     -12.923  11.475  15.977  1.00  0.00     0.012 C 
HETATM   32  C3  UNL     1     -12.165   9.918  17.774  1.00  0.00     0.012 C 
ENDBRANCH  27  30
BRANCH  27  33
HETATM   33  C5  UNL     1     -11.246  10.275  14.010  1.00  0.00     0.202 C 
BRANCH  33  34
HETATM   34  O1  UNL     1     -10.341  11.367  14.167  1.00  0.00    -0.398 OA
HETATM   35  H10 UNL     1     -10.443  11.665  15.092  1.00  0.00     0.209 HD
ENDBRANCH  33  34
ENDBRANCH  27  33
ENDBRANCH   1  24
TORSDOF 4
ENDMDL
