MODEL 1
REMARK minimizedAffinity -9.22010899
REMARK CNNscore 0.537467659
REMARK CNNaffinity 7.35983467
REMARK  11 active torsions:
REMARK  status: ('A' for Active; 'I' for Inactive)
REMARK    1  A    between atoms: C2_2  and  C4_4 
REMARK    2  A    between atoms: C4_4  and  C6_6 
REMARK    3  A    between atoms: C7_7  and  C8_8 
REMARK    4  A    between atoms: C8_8  and  C10_10 
REMARK    5  A    between atoms: C24_24  and  O1_25 
REMARK    6  A    between atoms: O1_25  and  C25_26 
REMARK    7  A    between atoms: C26_28  and  C27_29 
REMARK    8  A    between atoms: C27_29  and  O3_30 
REMARK    9  A    between atoms: C28_31  and  O4_32 
REMARK   10  A    between atoms: C29_33  and  O5_34 
REMARK   11  A    between atoms: C30_35  and  O6_36 
ROOT
HETATM    1  C10 UNL     1      -2.112   6.407  12.958  1.00  0.00     0.001 C 
HETATM    2  C11 UNL     1      -2.478   5.145  12.119  1.00  0.00     0.006 C 
HETATM    3  C12 UNL     1      -3.965   4.848  12.375  1.00  0.00     0.009 C 
HETATM    4  C13 UNL     1      -4.438   6.063  13.162  1.00  0.00     0.032 C 
HETATM    5  C14 UNL     1      -3.227   6.436  14.054  1.00  0.00    -0.033 C 
HETATM    6  C15 UNL     1      -2.901   5.426  15.174  1.00  0.00     0.016 C 
HETATM    7  C16 UNL     1      -3.517   7.823  14.662  1.00  0.00     0.010 C 
HETATM    8  C17 UNL     1      -4.868   7.864  15.399  1.00  0.00     0.009 C 
HETATM    9  C18 UNL     1      -6.050   7.427  14.513  1.00  0.00     0.035 C 
HETATM   10  C19 UNL     1      -5.828   6.052  13.814  1.00  0.00     0.105 C 
HETATM   11  C20 UNL     1      -6.164   4.871  14.729  1.00  0.00     0.045 C 
HETATM   12  C21 UNL     1      -7.676   4.876  14.985  1.00  0.00     0.045 C 
HETATM   13  C22 UNL     1      -8.256   6.246  14.585  1.00  0.00     0.106 C 
HETATM   14  C23 UNL     1      -9.757   6.296  14.900  1.00  0.00     0.074 C 
HETATM   15  C24 UNL     1     -10.399   7.641  14.541  1.00  0.00     0.127 C 
HETATM   16  C31 UNL     1      -9.652   8.799  15.206  1.00  0.00     0.033 C 
HETATM   17  C32 UNL     1      -8.166   8.782  14.855  1.00  0.00     0.015 C 
HETATM   18  C33 UNL     1      -7.463   7.438  15.207  1.00  0.00    -0.003 C 
HETATM   19  C34 UNL     1      -7.388   7.322  16.747  1.00  0.00     0.019 C 
HETATM   20  O7  UNL     1      -8.115   6.390  13.152  1.00  0.00    -0.228 OA
HETATM   21  O8  UNL     1      -6.780   5.924  12.725  1.00  0.00    -0.228 OA
ENDROOT
BRANCH  15  22
HETATM   22  O1  UNL     1     -11.773   7.567  14.954  1.00  0.00    -0.353 OA
BRANCH  22  23
HETATM   23  C25 UNL     1     -12.575   6.718  14.138  1.00  0.00     0.292 C 
HETATM   24  O2  UNL     1     -12.883   7.348  12.897  1.00  0.00    -0.348 OA
HETATM   25  C26 UNL     1     -13.614   8.590  13.003  1.00  0.00     0.179 C 
HETATM   26  C28 UNL     1     -14.478   8.689  14.274  1.00  0.00     0.180 C 
HETATM   27  C29 UNL     1     -15.022   7.303  14.592  1.00  0.00     0.183 C 
HETATM   28  C30 UNL     1     -13.875   6.329  14.888  1.00  0.00     0.204 C 
BRANCH  25  29
HETATM   29  C27 UNL     1     -12.694   9.816  12.876  1.00  0.00     0.198 C 
BRANCH  29  30
HETATM   30  O3  UNL     1     -12.614  10.242  11.515  1.00  0.00    -0.398 OA
HETATM   31  H43 UNL     1     -12.371  11.184  11.524  1.00  0.00     0.209 HD
ENDBRANCH  29  30
ENDBRANCH  25  29
BRANCH  26  32
HETATM   32  O4  UNL     1     -15.564   9.602  14.077  1.00  0.00    -0.390 OA
HETATM   33  H45 UNL     1     -16.210   9.380  14.783  1.00  0.00     0.210 HD
ENDBRANCH  26  32
BRANCH  27  34
HETATM   34  O5  UNL     1     -15.922   7.387  15.712  1.00  0.00    -0.390 OA
HETATM   35  H47 UNL     1     -16.171   6.466  15.921  1.00  0.00     0.210 HD
ENDBRANCH  27  34
BRANCH  28  36
HETATM   36  O6  UNL     1     -14.329   5.012  14.511  1.00  0.00    -0.388 OA
HETATM   37  H49 UNL     1     -14.291   4.961  13.538  1.00  0.00     0.210 HD
ENDBRANCH  28  36
ENDBRANCH  22  23
ENDBRANCH  15  22
BRANCH   1  38
HETATM   38  C8  UNL     1      -0.617   6.414  13.372  1.00  0.00     0.008 C 
HETATM   39  C9  UNL     1      -0.236   7.620  14.233  1.00  0.00     0.014 C 
BRANCH  38  40
HETATM   40  C7  UNL     1       0.264   6.425  12.136  1.00  0.00    -0.026 C 
HETATM   41  C6  UNL     1       0.779   7.541  11.595  1.00  0.00    -0.026 C 
BRANCH  41  42
HETATM   42  C4  UNL     1       1.672   7.642  10.371  1.00  0.00     0.007 C 
HETATM   43  C5  UNL     1       0.912   8.079   9.108  1.00  0.00     0.014 C 
BRANCH  42  44
HETATM   44  C2  UNL     1       2.470   6.324  10.142  1.00  0.00    -0.015 C 
HETATM   45  C1  UNL     1       2.636   6.003   8.652  1.00  0.00     0.010 C 
HETATM   46  C3  UNL     1       3.861   6.361  10.790  1.00  0.00     0.010 C 
ENDBRANCH  42  44
ENDBRANCH  41  42
ENDBRANCH  38  40
ENDBRANCH   1  38
TORSDOF 11
ENDMDL
MODEL 2
REMARK minimizedAffinity -7.78790569
REMARK CNNscore 0.375589222
REMARK CNNaffinity 7.06890726
REMARK  11 active torsions:
REMARK  status: ('A' for Active; 'I' for Inactive)
REMARK    1  A    between atoms: C2_2  and  C4_4 
REMARK    2  A    between atoms: C4_4  and  C6_6 
REMARK    3  A    between atoms: C7_7  and  C8_8 
REMARK    4  A    between atoms: C8_8  and  C10_10 
REMARK    5  A    between atoms: C24_24  and  O1_25 
REMARK    6  A    between atoms: O1_25  and  C25_26 
REMARK    7  A    between atoms: C26_28  and  C27_29 
REMARK    8  A    between atoms: C27_29  and  O3_30 
REMARK    9  A    between atoms: C28_31  and  O4_32 
REMARK   10  A    between atoms: C29_33  and  O5_34 
REMARK   11  A    between atoms: C30_35  and  O6_36 
ROOT
HETATM    1  C10 UNL     1      -6.945   6.844  13.933  1.00  0.00     0.001 C 
HETATM    2  C11 UNL     1      -7.341   5.610  13.066  1.00  0.00     0.006 C 
HETATM    3  C12 UNL     1      -8.867   5.659  12.883  1.00  0.00     0.009 C 
HETATM    4  C13 UNL     1      -9.250   7.017  13.454  1.00  0.00     0.032 C 
HETATM    5  C14 UNL     1      -8.284   7.215  14.650  1.00  0.00    -0.033 C 
HETATM    6  C15 UNL     1      -8.525   6.275  15.850  1.00  0.00     0.016 C 
HETATM    7  C16 UNL     1      -8.407   8.684  15.099  1.00  0.00     0.010 C 
HETATM    8  C17 UNL     1      -9.863   9.081  15.404  1.00  0.00     0.009 C 
HETATM    9  C18 UNL     1     -10.818   8.815  14.224  1.00  0.00     0.035 C 
HETATM   10  C19 UNL     1     -10.730   7.362  13.668  1.00  0.00     0.105 C 
HETATM   11  C20 UNL     1     -11.570   6.374  14.483  1.00  0.00     0.045 C 
HETATM   12  C21 UNL     1     -13.050   6.721  14.282  1.00  0.00     0.045 C 
HETATM   13  C22 UNL     1     -13.165   8.136  13.683  1.00  0.00     0.106 C 
HETATM   14  C23 UNL     1     -14.642   8.531  13.540  1.00  0.00     0.074 C 
HETATM   15  C24 UNL     1     -14.832   9.938  12.963  1.00  0.00     0.127 C 
HETATM   16  C31 UNL     1     -14.055  10.973  13.780  1.00  0.00     0.033 C 
HETATM   17  C32 UNL     1     -12.576  10.611  13.882  1.00  0.00     0.015 C 
HETATM   18  C33 UNL     1     -12.326   9.191  14.471  1.00  0.00    -0.003 C 
HETATM   19  C34 UNL     1     -12.713   9.215  15.967  1.00  0.00     0.019 C 
HETATM   20  O7  UNL     1     -12.601   8.104  12.351  1.00  0.00    -0.228 OA
HETATM   21  O8  UNL     1     -11.344   7.329  12.352  1.00  0.00    -0.228 OA
ENDROOT
BRANCH  15  22
HETATM   22  O1  UNL     1     -16.244  10.194  12.955  1.00  0.00    -0.353 OA
BRANCH  22  23
HETATM   23  C25 UNL     1     -16.913   9.704  11.797  1.00  0.00     0.292 C 
HETATM   24  O2  UNL     1     -17.176  10.759  10.876  1.00  0.00    -0.348 OA
HETATM   25  C26 UNL     1     -18.009  11.824  11.384  1.00  0.00     0.179 C 
HETATM   26  C28 UNL     1     -18.972  11.375  12.499  1.00  0.00     0.180 C 
HETATM   27  C29 UNL     1     -19.426   9.953  12.195  1.00  0.00     0.183 C 
HETATM   28  C30 UNL     1     -18.231   8.993  12.200  1.00  0.00     0.204 C 
BRANCH  25  29
HETATM   29  C27 UNL     1     -17.183  13.039  11.838  1.00  0.00     0.198 C 
BRANCH  29  30
HETATM   30  O3  UNL     1     -18.006  14.206  11.905  1.00  0.00    -0.398 OA
HETATM   31  H43 UNL     1     -17.582  14.818  12.532  1.00  0.00     0.209 HD
ENDBRANCH  29  30
ENDBRANCH  25  29
BRANCH  26  32
HETATM   32  O4  UNL     1     -20.109  12.243  12.566  1.00  0.00    -0.390 OA
HETATM   33  H45 UNL     1     -20.786  11.732  13.060  1.00  0.00     0.210 HD
ENDBRANCH  26  32
BRANCH  27  34
HETATM   34  O5  UNL     1     -20.412   9.548  13.162  1.00  0.00    -0.390 OA
HETATM   35  H47 UNL     1     -20.601   8.610  12.969  1.00  0.00     0.210 HD
ENDBRANCH  27  34
BRANCH  28  36
HETATM   36  O6  UNL     1     -18.548   7.914  11.296  1.00  0.00    -0.388 OA
HETATM   37  H49 UNL     1     -18.433   8.254  10.389  1.00  0.00     0.210 HD
ENDBRANCH  28  36
ENDBRANCH  22  23
ENDBRANCH  15  22
BRANCH   1  38
HETATM   38  C8  UNL     1      -5.666   6.579  14.768  1.00  0.00     0.008 C 
HETATM   39  C9  UNL     1      -5.153   7.822  15.498  1.00  0.00     0.014 C 
BRANCH  38  40
HETATM   40  C7  UNL     1      -4.553   6.073  13.867  1.00  0.00    -0.026 C 
HETATM   41  C6  UNL     1      -3.249   6.134  14.184  1.00  0.00    -0.026 C 
BRANCH  41  42
HETATM   42  C4  UNL     1      -2.076   5.647  13.350  1.00  0.00     0.007 C 
HETATM   43  C5  UNL     1      -2.359   4.315  12.639  1.00  0.00     0.014 C 
BRANCH  42  44
HETATM   44  C2  UNL     1      -0.768   5.590  14.194  1.00  0.00    -0.015 C 
HETATM   45  C1  UNL     1       0.487   5.622  13.313  1.00  0.00     0.010 C 
HETATM   46  C3  UNL     1      -0.678   6.734  15.214  1.00  0.00     0.010 C 
ENDBRANCH  42  44
ENDBRANCH  41  42
ENDBRANCH  38  40
ENDBRANCH   1  38
TORSDOF 11
ENDMDL
MODEL 3
REMARK minimizedAffinity -8.477108
REMARK CNNscore 0.372176051
REMARK CNNaffinity 7.39849091
REMARK  11 active torsions:
REMARK  status: ('A' for Active; 'I' for Inactive)
REMARK    1  A    between atoms: C2_2  and  C4_4 
REMARK    2  A    between atoms: C4_4  and  C6_6 
REMARK    3  A    between atoms: C7_7  and  C8_8 
REMARK    4  A    between atoms: C8_8  and  C10_10 
REMARK    5  A    between atoms: C24_24  and  O1_25 
REMARK    6  A    between atoms: O1_25  and  C25_26 
REMARK    7  A    between atoms: C26_28  and  C27_29 
REMARK    8  A    between atoms: C27_29  and  O3_30 
REMARK    9  A    between atoms: C28_31  and  O4_32 
REMARK   10  A    between atoms: C29_33  and  O5_34 
REMARK   11  A    between atoms: C30_35  and  O6_36 
ROOT
HETATM    1  C10 UNL     1      -3.491   3.852  10.784  1.00  0.00     0.001 C 
HETATM    2  C11 UNL     1      -4.590   2.856  10.303  1.00  0.00     0.006 C 
HETATM    3  C12 UNL     1      -5.863   3.165  11.108  1.00  0.00     0.009 C 
HETATM    4  C13 UNL     1      -5.512   4.450  11.846  1.00  0.00     0.032 C 
HETATM    5  C14 UNL     1      -4.009   4.294  12.191  1.00  0.00    -0.033 C 
HETATM    6  C15 UNL     1      -3.686   3.213  13.244  1.00  0.00     0.016 C 
HETATM    7  C16 UNL     1      -3.507   5.669  12.676  1.00  0.00     0.010 C 
HETATM    8  C17 UNL     1      -4.357   6.224  13.834  1.00  0.00     0.009 C 
HETATM    9  C18 UNL     1      -5.857   6.308  13.493  1.00  0.00     0.035 C 
HETATM   10  C19 UNL     1      -6.446   4.973  12.946  1.00  0.00     0.105 C 
HETATM   11  C20 UNL     1      -6.825   4.001  14.067  1.00  0.00     0.045 C 
HETATM   12  C21 UNL     1      -8.006   4.597  14.842  1.00  0.00     0.045 C 
HETATM   13  C22 UNL     1      -8.138   6.093  14.499  1.00  0.00     0.106 C 
HETATM   14  C23 UNL     1      -9.272   6.725  15.319  1.00  0.00     0.074 C 
HETATM   15  C24 UNL     1      -9.450   8.221  15.040  1.00  0.00     0.127 C 
HETATM   16  C31 UNL     1      -8.132   8.975  15.238  1.00  0.00     0.033 C 
HETATM   17  C32 UNL     1      -7.014   8.381  14.386  1.00  0.00     0.015 C 
HETATM   18  C33 UNL     1      -6.786   6.861  14.637  1.00  0.00    -0.003 C 
HETATM   19  C34 UNL     1      -6.182   6.691  16.050  1.00  0.00     0.019 C 
HETATM   20  O7  UNL     1      -8.508   6.201  13.105  1.00  0.00    -0.228 OA
HETATM   21  O8  UNL     1      -7.714   5.256  12.295  1.00  0.00    -0.228 OA
ENDROOT
BRANCH  15  22
HETATM   22  O1  UNL     1     -10.484   8.686  15.921  1.00  0.00    -0.353 OA
BRANCH  22  23
HETATM   23  C25 UNL     1     -11.734   8.911  15.275  1.00  0.00     0.292 C 
HETATM   24  O2  UNL     1     -11.741  10.167  14.603  1.00  0.00    -0.348 OA
HETATM   25  C26 UNL     1     -11.529  11.318  15.451  1.00  0.00     0.179 C 
HETATM   26  C28 UNL     1     -11.980  11.101  16.908  1.00  0.00     0.180 C 
HETATM   27  C29 UNL     1     -13.217  10.214  16.899  1.00  0.00     0.183 C 
HETATM   28  C30 UNL     1     -12.889   8.838  16.306  1.00  0.00     0.204 C 
BRANCH  25  29
HETATM   29  C27 UNL     1     -10.075  11.815  15.401  1.00  0.00     0.198 C 
BRANCH  29  30
HETATM   30  O3  UNL     1      -9.818  12.487  14.167  1.00  0.00    -0.398 OA
HETATM   31  H43 UNL     1      -9.072  13.093  14.322  1.00  0.00     0.209 HD
ENDBRANCH  29  30
ENDBRANCH  25  29
BRANCH  26  32
HETATM   32  O4  UNL     1     -12.284  12.352  17.535  1.00  0.00    -0.390 OA
HETATM   33  H45 UNL     1     -12.834  12.115  18.313  1.00  0.00     0.210 HD
ENDBRANCH  26  32
BRANCH  27  34
HETATM   34  O5  UNL     1     -13.723  10.085  18.240  1.00  0.00    -0.390 OA
HETATM   35  H47 UNL     1     -14.458   9.444  18.184  1.00  0.00     0.210 HD
ENDBRANCH  27  34
BRANCH  28  36
HETATM   36  O6  UNL     1     -14.102   8.334  15.707  1.00  0.00    -0.388 OA
HETATM   37  H49 UNL     1     -14.227   8.809  14.864  1.00  0.00     0.210 HD
ENDBRANCH  28  36
ENDBRANCH  22  23
ENDBRANCH  15  22
BRANCH   1  38
HETATM   38  C8  UNL     1      -2.066   3.259  10.634  1.00  0.00     0.008 C 
HETATM   39  C9  UNL     1      -1.970   1.799  11.081  1.00  0.00     0.014 C 
BRANCH  38  40
HETATM   40  C7  UNL     1      -1.078   4.066  11.458  1.00  0.00    -0.026 C 
HETATM   41  C6  UNL     1      -0.462   5.173  11.012  1.00  0.00    -0.026 C 
BRANCH  41  42
HETATM   42  C4  UNL     1       0.528   6.042  11.768  1.00  0.00     0.007 C 
HETATM   43  C5  UNL     1      -0.146   7.185  12.543  1.00  0.00     0.014 C 
BRANCH  42  44
HETATM   44  C2  UNL     1       1.656   6.564  10.828  1.00  0.00    -0.015 C 
HETATM   45  C1  UNL     1       2.581   5.435  10.357  1.00  0.00     0.010 C 
HETATM   46  C3  UNL     1       1.100   7.286   9.592  1.00  0.00     0.010 C 
ENDBRANCH  42  44
ENDBRANCH  41  42
ENDBRANCH  38  40
ENDBRANCH   1  38
TORSDOF 11
ENDMDL
MODEL 4
REMARK minimizedAffinity -7.57219172
REMARK CNNscore 0.364542842
REMARK CNNaffinity 6.43061018
REMARK  11 active torsions:
REMARK  status: ('A' for Active; 'I' for Inactive)
REMARK    1  A    between atoms: C2_2  and  C4_4 
REMARK    2  A    between atoms: C4_4  and  C6_6 
REMARK    3  A    between atoms: C7_7  and  C8_8 
REMARK    4  A    between atoms: C8_8  and  C10_10 
REMARK    5  A    between atoms: C24_24  and  O1_25 
REMARK    6  A    between atoms: O1_25  and  C25_26 
REMARK    7  A    between atoms: C26_28  and  C27_29 
REMARK    8  A    between atoms: C27_29  and  O3_30 
REMARK    9  A    between atoms: C28_31  and  O4_32 
REMARK   10  A    between atoms: C29_33  and  O5_34 
REMARK   11  A    between atoms: C30_35  and  O6_36 
ROOT
HETATM    1  C10 UNL     1     -11.237   8.558  14.326  1.00  0.00     0.001 C 
HETATM    2  C11 UNL     1     -11.250   7.071  13.857  1.00  0.00     0.006 C 
HETATM    3  C12 UNL     1     -12.651   6.790  13.288  1.00  0.00     0.009 C 
HETATM    4  C13 UNL     1     -13.301   8.167  13.250  1.00  0.00     0.032 C 
HETATM    5  C14 UNL     1     -12.755   8.882  14.512  1.00  0.00    -0.033 C 
HETATM    6  C15 UNL     1     -13.261   8.319  15.856  1.00  0.00     0.016 C 
HETATM    7  C16 UNL     1     -13.130  10.373  14.390  1.00  0.00     0.010 C 
HETATM    8  C17 UNL     1     -14.640  10.577  14.164  1.00  0.00     0.009 C 
HETATM    9  C18 UNL     1     -15.174   9.804  12.943  1.00  0.00     0.035 C 
HETATM   10  C19 UNL     1     -14.802   8.291  12.953  1.00  0.00     0.105 C 
HETATM   11  C20 UNL     1     -15.758   7.460  13.812  1.00  0.00     0.045 C 
HETATM   12  C21 UNL     1     -17.135   7.462  13.139  1.00  0.00     0.045 C 
HETATM   13  C22 UNL     1     -17.187   8.587  12.088  1.00  0.00     0.106 C 
HETATM   14  C23 UNL     1     -18.583   8.651  11.451  1.00  0.00     0.074 C 
HETATM   15  C24 UNL     1     -18.712   9.763  10.404  1.00  0.00     0.127 C 
HETATM   16  C31 UNL     1     -18.304  11.116  10.990  1.00  0.00     0.033 C 
HETATM   17  C32 UNL     1     -16.897  11.071  11.580  1.00  0.00     0.015 C 
HETATM   18  C33 UNL     1     -16.714   9.962  12.657  1.00  0.00    -0.003 C 
HETATM   19  C34 UNL     1     -17.529  10.364  13.908  1.00  0.00     0.019 C 
HETATM   20  O7  UNL     1     -16.252   8.258  11.034  1.00  0.00    -0.228 OA
HETATM   21  O8  UNL     1     -14.991   7.756  11.615  1.00  0.00    -0.228 OA
ENDROOT
BRANCH  15  22
HETATM   22  O1  UNL     1     -20.075   9.749   9.953  1.00  0.00    -0.353 OA
BRANCH  22  23
HETATM   23  C25 UNL     1     -20.486   8.503   9.398  1.00  0.00     0.292 C 
HETATM   24  O2  UNL     1     -20.095   8.400   8.032  1.00  0.00    -0.348 OA
HETATM   25  C26 UNL     1     -20.640   9.413   7.158  1.00  0.00     0.179 C 
HETATM   26  C28 UNL     1     -21.986   9.985   7.643  1.00  0.00     0.180 C 
HETATM   27  C29 UNL     1     -22.771   8.863   8.308  1.00  0.00     0.183 C 
HETATM   28  C30 UNL     1     -22.021   8.337   9.538  1.00  0.00     0.204 C 
BRANCH  25  29
HETATM   29  C27 UNL     1     -19.636  10.546   6.887  1.00  0.00     0.198 C 
BRANCH  29  30
HETATM   30  O3  UNL     1     -18.304  10.108   7.159  1.00  0.00    -0.398 OA
HETATM   31  H43 UNL     1     -17.706  10.670   6.634  1.00  0.00     0.209 HD
ENDBRANCH  29  30
ENDBRANCH  25  29
BRANCH  26  32
HETATM   32  O4  UNL     1     -22.735  10.515   6.544  1.00  0.00    -0.390 OA
HETATM   33  H45 UNL     1     -23.659  10.569   6.872  1.00  0.00     0.210 HD
ENDBRANCH  26  32
BRANCH  27  34
HETATM   34  O5  UNL     1     -24.078   9.343   8.672  1.00  0.00    -0.390 OA
HETATM   35  H47 UNL     1     -24.499   8.612   9.164  1.00  0.00     0.210 HD
ENDBRANCH  27  34
BRANCH  28  36
HETATM   36  O6  UNL     1     -22.390   6.951   9.699  1.00  0.00    -0.388 OA
HETATM   37  H49 UNL     1     -21.902   6.441   9.027  1.00  0.00     0.210 HD
ENDBRANCH  28  36
ENDBRANCH  22  23
ENDBRANCH  15  22
BRANCH   1  38
HETATM   38  C8  UNL     1     -10.246   8.788  15.497  1.00  0.00     0.008 C 
HETATM   39  C9  UNL     1      -9.507  10.125  15.408  1.00  0.00     0.014 C 
BRANCH  38  40
HETATM   40  C7  UNL     1      -9.208   7.680  15.523  1.00  0.00    -0.026 C 
HETATM   41  C6  UNL     1      -7.968   7.806  15.021  1.00  0.00    -0.026 C 
BRANCH  41  42
HETATM   42  C4  UNL     1      -6.869   6.758  15.012  1.00  0.00     0.007 C 
HETATM   43  C5  UNL     1      -7.080   5.659  16.065  1.00  0.00     0.014 C 
BRANCH  42  44
HETATM   44  C2  UNL     1      -5.461   7.414  15.129  1.00  0.00    -0.015 C 
HETATM   45  C1  UNL     1      -4.337   6.371  15.113  1.00  0.00     0.010 C 
HETATM   46  C3  UNL     1      -5.195   8.435  14.013  1.00  0.00     0.010 C 
ENDBRANCH  42  44
ENDBRANCH  41  42
ENDBRANCH  38  40
ENDBRANCH   1  38
TORSDOF 11
ENDMDL
MODEL 5
REMARK minimizedAffinity -10.2951841
REMARK CNNscore 0.348270744
REMARK CNNaffinity 7.02007437
REMARK  11 active torsions:
REMARK  status: ('A' for Active; 'I' for Inactive)
REMARK    1  A    between atoms: C2_2  and  C4_4 
REMARK    2  A    between atoms: C4_4  and  C6_6 
REMARK    3  A    between atoms: C7_7  and  C8_8 
REMARK    4  A    between atoms: C8_8  and  C10_10 
REMARK    5  A    between atoms: C24_24  and  O1_25 
REMARK    6  A    between atoms: O1_25  and  C25_26 
REMARK    7  A    between atoms: C26_28  and  C27_29 
REMARK    8  A    between atoms: C27_29  and  O3_30 
REMARK    9  A    between atoms: C28_31  and  O4_32 
REMARK   10  A    between atoms: C29_33  and  O5_34 
REMARK   11  A    between atoms: C30_35  and  O6_36 
ROOT
HETATM    1  C10 UNL     1      -5.936   7.404  13.934  1.00  0.00     0.001 C 
HETATM    2  C11 UNL     1      -5.895   8.732  14.750  1.00  0.00     0.006 C 
HETATM    3  C12 UNL     1      -4.415   9.124  14.899  1.00  0.00     0.009 C 
HETATM    4  C13 UNL     1      -3.695   8.141  13.986  1.00  0.00     0.032 C 
HETATM    5  C14 UNL     1      -4.498   6.824  14.133  1.00  0.00    -0.033 C 
HETATM    6  C15 UNL     1      -4.385   6.136  15.509  1.00  0.00     0.016 C 
HETATM    7  C16 UNL     1      -4.014   5.868  13.024  1.00  0.00     0.010 C 
HETATM    8  C17 UNL     1      -2.487   5.671  13.051  1.00  0.00     0.009 C 
HETATM    9  C18 UNL     1      -1.708   6.998  12.970  1.00  0.00     0.035 C 
HETATM   10  C19 UNL     1      -2.163   8.051  14.026  1.00  0.00     0.105 C 
HETATM   11  C20 UNL     1      -1.508   7.828  15.392  1.00  0.00     0.045 C 
HETATM   12  C21 UNL     1      -0.007   8.113  15.258  1.00  0.00     0.045 C 
HETATM   13  C22 UNL     1       0.378   8.129  13.766  1.00  0.00     0.106 C 
HETATM   14  C23 UNL     1       1.890   8.342  13.614  1.00  0.00     0.074 C 
HETATM   15  C24 UNL     1       2.348   8.353  12.151  1.00  0.00     0.127 C 
HETATM   16  C31 UNL     1       1.889   7.087  11.425  1.00  0.00     0.033 C 
HETATM   17  C32 UNL     1       0.378   6.897  11.531  1.00  0.00     0.015 C 
HETATM   18  C33 UNL     1      -0.140   6.871  13.000  1.00  0.00    -0.003 C 
HETATM   19  C34 UNL     1       0.354   5.565  13.663  1.00  0.00     0.019 C 
HETATM   20  O7  UNL     1      -0.278   9.260  13.148  1.00  0.00    -0.228 OA
HETATM   21  O8  UNL     1      -1.674   9.357  13.621  1.00  0.00    -0.228 OA
ENDROOT
BRANCH  15  22
HETATM   22  O1  UNL     1       3.778   8.487  12.166  1.00  0.00    -0.353 OA
BRANCH  22  23
HETATM   23  C25 UNL     1       4.288   9.084  13.356  1.00  0.00     0.292 C 
HETATM   24  O2  UNL     1       5.338   9.999  13.056  1.00  0.00    -0.348 OA
HETATM   25  C26 UNL     1       6.483   9.423  12.388  1.00  0.00     0.179 C 
HETATM   26  C28 UNL     1       6.685   7.927  12.692  1.00  0.00     0.180 C 
HETATM   27  C29 UNL     1       6.271   7.671  14.135  1.00  0.00     0.183 C 
HETATM   28  C30 UNL     1       4.784   7.987  14.333  1.00  0.00     0.204 C 
BRANCH  25  29
HETATM   29  C27 UNL     1       6.452   9.669  10.870  1.00  0.00     0.198 C 
BRANCH  29  30
HETATM   30  O3  UNL     1       6.750  11.035  10.579  1.00  0.00    -0.398 OA
HETATM   31  H43 UNL     1       7.093  11.064   9.669  1.00  0.00     0.209 HD
ENDBRANCH  29  30
ENDBRANCH  25  29
BRANCH  26  32
HETATM   32  O4  UNL     1       8.055   7.554  12.507  1.00  0.00    -0.390 OA
HETATM   33  H45 UNL     1       8.154   6.709  12.999  1.00  0.00     0.210 HD
ENDBRANCH  26  32
BRANCH  27  34
HETATM   34  O5  UNL     1       6.554   6.303  14.479  1.00  0.00    -0.390 OA
HETATM   35  H47 UNL     1       6.194   6.177  15.379  1.00  0.00     0.210 HD
ENDBRANCH  27  34
BRANCH  28  36
HETATM   36  O6  UNL     1       4.615   8.389  15.709  1.00  0.00    -0.388 OA
HETATM   37  H49 UNL     1       4.949   9.302  15.786  1.00  0.00     0.210 HD
ENDBRANCH  28  36
ENDBRANCH  22  23
ENDBRANCH  15  22
BRANCH   1  38
HETATM   38  C8  UNL     1      -7.176   6.543  14.291  1.00  0.00     0.008 C 
HETATM   39  C9  UNL     1      -7.060   5.855  15.653  1.00  0.00     0.014 C 
BRANCH  38  40
HETATM   40  C7  UNL     1      -7.380   5.466  13.240  1.00  0.00    -0.026 C 
HETATM   41  C6  UNL     1      -6.645   4.345  13.166  1.00  0.00    -0.026 C 
BRANCH  41  42
HETATM   42  C4  UNL     1      -6.785   3.217  12.158  1.00  0.00     0.007 C 
HETATM   43  C5  UNL     1      -7.724   2.099  12.636  1.00  0.00     0.014 C 
BRANCH  42  44
HETATM   44  C2  UNL     1      -5.393   2.664  11.730  1.00  0.00    -0.015 C 
HETATM   45  C1  UNL     1      -5.442   1.165  11.411  1.00  0.00     0.010 C 
HETATM   46  C3  UNL     1      -4.819   3.403  10.512  1.00  0.00     0.010 C 
ENDBRANCH  42  44
ENDBRANCH  41  42
ENDBRANCH  38  40
ENDBRANCH   1  38
TORSDOF 11
ENDMDL
MODEL 6
REMARK minimizedAffinity -9.77867985
REMARK CNNscore 0.343788296
REMARK CNNaffinity 7.19428205
REMARK  11 active torsions:
REMARK  status: ('A' for Active; 'I' for Inactive)
REMARK    1  A    between atoms: C2_2  and  C4_4 
REMARK    2  A    between atoms: C4_4  and  C6_6 
REMARK    3  A    between atoms: C7_7  and  C8_8 
REMARK    4  A    between atoms: C8_8  and  C10_10 
REMARK    5  A    between atoms: C24_24  and  O1_25 
REMARK    6  A    between atoms: O1_25  and  C25_26 
REMARK    7  A    between atoms: C26_28  and  C27_29 
REMARK    8  A    between atoms: C27_29  and  O3_30 
REMARK    9  A    between atoms: C28_31  and  O4_32 
REMARK   10  A    between atoms: C29_33  and  O5_34 
REMARK   11  A    between atoms: C30_35  and  O6_36 
ROOT
HETATM    1  C10 UNL     1      -2.048   5.599  12.606  1.00  0.00     0.001 C 
HETATM    2  C11 UNL     1      -2.622   4.442  11.732  1.00  0.00     0.006 C 
HETATM    3  C12 UNL     1      -4.126   4.346  12.041  1.00  0.00     0.009 C 
HETATM    4  C13 UNL     1      -4.390   5.577  12.899  1.00  0.00     0.032 C 
HETATM    5  C14 UNL     1      -3.105   5.732  13.751  1.00  0.00    -0.033 C 
HETATM    6  C15 UNL     1      -2.884   4.634  14.812  1.00  0.00     0.016 C 
HETATM    7  C16 UNL     1      -3.171   7.116  14.428  1.00  0.00     0.010 C 
HETATM    8  C17 UNL     1      -4.473   7.311  15.226  1.00  0.00     0.009 C 
HETATM    9  C18 UNL     1      -5.738   7.088  14.377  1.00  0.00     0.035 C 
HETATM   10  C19 UNL     1      -5.741   5.730  13.611  1.00  0.00     0.105 C 
HETATM   11  C20 UNL     1      -6.207   4.566  14.490  1.00  0.00     0.045 C 
HETATM   12  C21 UNL     1      -7.692   4.772  14.813  1.00  0.00     0.045 C 
HETATM   13  C22 UNL     1      -8.085   6.227  14.496  1.00  0.00     0.106 C 
HETATM   14  C23 UNL     1      -9.551   6.473  14.880  1.00  0.00     0.074 C 
HETATM   15  C24 UNL     1     -10.008   7.910  14.607  1.00  0.00     0.127 C 
HETATM   16  C31 UNL     1      -9.078   8.918  15.286  1.00  0.00     0.033 C 
HETATM   17  C32 UNL     1      -7.625   8.710  14.868  1.00  0.00     0.015 C 
HETATM   18  C33 UNL     1      -7.107   7.265  15.132  1.00  0.00    -0.003 C 
HETATM   19  C34 UNL     1      -6.991   7.066  16.661  1.00  0.00     0.019 C 
HETATM   20  O7  UNL     1      -7.981   6.417  13.066  1.00  0.00    -0.228 OA
HETATM   21  O8  UNL     1      -6.743   5.789  12.561  1.00  0.00    -0.228 OA
ENDROOT
BRANCH  15  22
HETATM   22  O1  UNL     1     -11.361   8.010  15.077  1.00  0.00    -0.353 OA
BRANCH  22  23
HETATM   23  C25 UNL     1     -11.857   9.346  15.127  1.00  0.00     0.292 C 
HETATM   24  O2  UNL     1     -13.239   9.363  15.474  1.00  0.00    -0.348 OA
HETATM   25  C26 UNL     1     -14.110   8.659  14.561  1.00  0.00     0.179 C 
HETATM   26  C28 UNL     1     -13.568   8.594  13.120  1.00  0.00     0.180 C 
HETATM   27  C29 UNL     1     -12.829   9.893  12.827  1.00  0.00     0.183 C 
HETATM   28  C30 UNL     1     -11.628  10.052  13.767  1.00  0.00     0.204 C 
BRANCH  25  29
HETATM   29  C27 UNL     1     -14.468   7.253  15.069  1.00  0.00     0.198 C 
BRANCH  29  30
HETATM   30  O3  UNL     1     -13.847   6.255  14.258  1.00  0.00    -0.398 OA
HETATM   31  H43 UNL     1     -13.769   5.452  14.803  1.00  0.00     0.209 HD
ENDBRANCH  29  30
ENDBRANCH  25  29
BRANCH  26  32
HETATM   32  O4  UNL     1     -14.639   8.424  12.185  1.00  0.00    -0.390 OA
HETATM   33  H45 UNL     1     -14.262   8.695  11.319  1.00  0.00     0.210 HD
ENDBRANCH  26  32
BRANCH  27  34
HETATM   34  O5  UNL     1     -12.408   9.904  11.451  1.00  0.00    -0.390 OA
HETATM   35  H47 UNL     1     -11.872  10.714  11.346  1.00  0.00     0.210 HD
ENDBRANCH  27  34
BRANCH  28  36
HETATM   36  O6  UNL     1     -11.407  11.468  13.937  1.00  0.00    -0.388 OA
HETATM   37  H49 UNL     1     -12.090  11.796  14.550  1.00  0.00     0.210 HD
ENDBRANCH  28  36
ENDBRANCH  22  23
ENDBRANCH  15  22
BRANCH   1  38
HETATM   38  C8  UNL     1      -0.553   5.376  12.953  1.00  0.00     0.008 C 
HETATM   39  C9  UNL     1       0.044   6.502  13.798  1.00  0.00     0.014 C 
BRANCH  38  40
HETATM   40  C7  UNL     1       0.265   5.263  11.679  1.00  0.00    -0.026 C 
HETATM   41  C6  UNL     1       0.691   6.320  10.968  1.00  0.00    -0.026 C 
BRANCH  41  42
HETATM   42  C4  UNL     1       1.516   6.299   9.693  1.00  0.00     0.007 C 
HETATM   43  C5  UNL     1       2.958   5.819   9.920  1.00  0.00     0.014 C 
BRANCH  42  44
HETATM   44  C2  UNL     1       1.469   7.676   8.966  1.00  0.00    -0.015 C 
HETATM   45  C1  UNL     1       1.963   7.579   7.518  1.00  0.00     0.010 C 
HETATM   46  C3  UNL     1       0.061   8.288   8.962  1.00  0.00     0.010 C 
ENDBRANCH  42  44
ENDBRANCH  41  42
ENDBRANCH  38  40
ENDBRANCH   1  38
TORSDOF 11
ENDMDL
MODEL 7
REMARK minimizedAffinity -10.7239714
REMARK CNNscore 0.271969974
REMARK CNNaffinity 7.04921103
REMARK  11 active torsions:
REMARK  status: ('A' for Active; 'I' for Inactive)
REMARK    1  A    between atoms: C2_2  and  C4_4 
REMARK    2  A    between atoms: C4_4  and  C6_6 
REMARK    3  A    between atoms: C7_7  and  C8_8 
REMARK    4  A    between atoms: C8_8  and  C10_10 
REMARK    5  A    between atoms: C24_24  and  O1_25 
REMARK    6  A    between atoms: O1_25  and  C25_26 
REMARK    7  A    between atoms: C26_28  and  C27_29 
REMARK    8  A    between atoms: C27_29  and  O3_30 
REMARK    9  A    between atoms: C28_31  and  O4_32 
REMARK   10  A    between atoms: C29_33  and  O5_34 
REMARK   11  A    between atoms: C30_35  and  O6_36 
ROOT
HETATM    1  C10 UNL     1      -5.984   7.096  13.992  1.00  0.00     0.001 C 
HETATM    2  C11 UNL     1      -6.019   8.572  14.494  1.00  0.00     0.006 C 
HETATM    3  C12 UNL     1      -4.578   9.106  14.426  1.00  0.00     0.009 C 
HETATM    4  C13 UNL     1      -3.827   8.005  13.690  1.00  0.00     0.032 C 
HETATM    5  C14 UNL     1      -4.486   6.693  14.187  1.00  0.00    -0.033 C 
HETATM    6  C15 UNL     1      -4.216   6.343  15.665  1.00  0.00     0.016 C 
HETATM    7  C16 UNL     1      -3.986   5.556  13.275  1.00  0.00     0.010 C 
HETATM    8  C17 UNL     1      -2.449   5.493  13.212  1.00  0.00     0.009 C 
HETATM    9  C18 UNL     1      -1.810   6.826  12.779  1.00  0.00     0.035 C 
HETATM   10  C19 UNL     1      -2.294   8.048  13.616  1.00  0.00     0.105 C 
HETATM   11  C20 UNL     1      -1.532   8.190  14.936  1.00  0.00     0.045 C 
HETATM   12  C21 UNL     1      -0.078   8.558  14.615  1.00  0.00     0.045 C 
HETATM   13  C22 UNL     1       0.204   8.270  13.128  1.00  0.00     0.106 C 
HETATM   14  C23 UNL     1       1.675   8.565  12.803  1.00  0.00     0.074 C 
HETATM   15  C24 UNL     1       2.032   8.285  11.339  1.00  0.00     0.127 C 
HETATM   16  C31 UNL     1       1.651   6.856  10.947  1.00  0.00     0.033 C 
HETATM   17  C32 UNL     1       0.176   6.574  11.222  1.00  0.00     0.015 C 
HETATM   18  C33 UNL     1      -0.238   6.835  12.700  1.00  0.00    -0.003 C 
HETATM   19  C34 UNL     1       0.423   5.755  13.585  1.00  0.00     0.019 C 
HETATM   20  O7  UNL     1      -0.599   9.178  12.337  1.00  0.00    -0.228 OA
HETATM   21  O8  UNL     1      -1.963   9.266  12.896  1.00  0.00    -0.228 OA
ENDROOT
BRANCH  15  22
HETATM   22  O1  UNL     1       3.439   8.534  11.201  1.00  0.00    -0.353 OA
BRANCH  22  23
HETATM   23  C25 UNL     1       4.241   7.855  12.164  1.00  0.00     0.292 C 
HETATM   24  O2  UNL     1       4.823   8.775  13.082  1.00  0.00    -0.348 OA
HETATM   25  C26 UNL     1       5.687   9.771  12.490  1.00  0.00     0.179 C 
HETATM   26  C28 UNL     1       6.343   9.312  11.174  1.00  0.00     0.180 C 
HETATM   27  C29 UNL     1       6.640   7.823  11.281  1.00  0.00     0.183 C 
HETATM   28  C30 UNL     1       5.342   7.026  11.452  1.00  0.00     0.204 C 
BRANCH  25  29
HETATM   29  C27 UNL     1       4.971  11.118  12.298  1.00  0.00     0.198 C 
BRANCH  29  30
HETATM   30  O3  UNL     1       5.778  12.007  11.524  1.00  0.00    -0.398 OA
HETATM   31  H43 UNL     1       5.177  12.652  11.111  1.00  0.00     0.209 HD
ENDBRANCH  29  30
ENDBRANCH  25  29
BRANCH  26  32
HETATM   32  O4  UNL     1       7.558  10.033  10.937  1.00  0.00    -0.390 OA
HETATM   33  H45 UNL     1       8.048   9.490  10.282  1.00  0.00     0.210 HD
ENDBRANCH  26  32
BRANCH  27  34
HETATM   34  O5  UNL     1       7.354   7.392  10.108  1.00  0.00    -0.390 OA
HETATM   35  H47 UNL     1       7.441   6.423  10.194  1.00  0.00     0.210 HD
ENDBRANCH  27  34
BRANCH  28  36
HETATM   36  O6  UNL     1       5.670   5.834  12.197  1.00  0.00    -0.388 OA
HETATM   37  H49 UNL     1       5.781   6.097  13.129  1.00  0.00     0.210 HD
ENDBRANCH  28  36
ENDBRANCH  22  23
ENDBRANCH  15  22
BRANCH   1  38
HETATM   38  C8  UNL     1      -7.108   6.240  14.633  1.00  0.00     0.008 C 
HETATM   39  C9  UNL     1      -6.723   5.665  15.997  1.00  0.00     0.014 C 
BRANCH  38  40
HETATM   40  C7  UNL     1      -7.462   5.080  13.719  1.00  0.00    -0.026 C 
HETATM   41  C6  UNL     1      -6.558   4.383  13.012  1.00  0.00    -0.026 C 
BRANCH  41  42
HETATM   42  C4  UNL     1      -6.822   3.210  12.084  1.00  0.00     0.007 C 
HETATM   43  C5  UNL     1      -7.703   2.126  12.725  1.00  0.00     0.014 C 
BRANCH  42  44
HETATM   44  C2  UNL     1      -5.492   2.622  11.523  1.00  0.00    -0.015 C 
HETATM   45  C1  UNL     1      -5.597   1.116  11.254  1.00  0.00     0.010 C 
HETATM   46  C3  UNL     1      -5.043   3.318  10.231  1.00  0.00     0.010 C 
ENDBRANCH  42  44
ENDBRANCH  41  42
ENDBRANCH  38  40
ENDBRANCH   1  38
TORSDOF 11
ENDMDL
MODEL 8
REMARK minimizedAffinity -7.74445391
REMARK CNNscore 0.239109844
REMARK CNNaffinity 6.19020844
REMARK  11 active torsions:
REMARK  status: ('A' for Active; 'I' for Inactive)
REMARK    1  A    between atoms: C2_2  and  C4_4 
REMARK    2  A    between atoms: C4_4  and  C6_6 
REMARK    3  A    between atoms: C7_7  and  C8_8 
REMARK    4  A    between atoms: C8_8  and  C10_10 
REMARK    5  A    between atoms: C24_24  and  O1_25 
REMARK    6  A    between atoms: O1_25  and  C25_26 
REMARK    7  A    between atoms: C26_28  and  C27_29 
REMARK    8  A    between atoms: C27_29  and  O3_30 
REMARK    9  A    between atoms: C28_31  and  O4_32 
REMARK   10  A    between atoms: C29_33  and  O5_34 
REMARK   11  A    between atoms: C30_35  and  O6_36 
ROOT
HETATM    1  C10 UNL     1       3.278   9.586  12.912  1.00  0.00     0.001 C 
HETATM    2  C11 UNL     1       2.738  10.656  13.910  1.00  0.00     0.006 C 
HETATM    3  C12 UNL     1       3.917  11.068  14.808  1.00  0.00     0.009 C 
HETATM    4  C13 UNL     1       5.115  10.394  14.154  1.00  0.00     0.032 C 
HETATM    5  C14 UNL     1       4.557   9.046  13.631  1.00  0.00    -0.033 C 
HETATM    6  C15 UNL     1       4.165   8.030  14.725  1.00  0.00     0.016 C 
HETATM    7  C16 UNL     1       5.627   8.437  12.704  1.00  0.00     0.010 C 
HETATM    8  C17 UNL     1       6.997   8.316  13.397  1.00  0.00     0.009 C 
HETATM    9  C18 UNL     1       7.503   9.655  13.966  1.00  0.00     0.035 C 
HETATM   10  C19 UNL     1       6.466  10.372  14.882  1.00  0.00     0.105 C 
HETATM   11  C20 UNL     1       6.482   9.834  16.315  1.00  0.00     0.045 C 
HETATM   12  C21 UNL     1       7.820  10.218  16.959  1.00  0.00     0.045 C 
HETATM   13  C22 UNL     1       8.811  10.641  15.858  1.00  0.00     0.106 C 
HETATM   14  C23 UNL     1      10.180  10.962  16.476  1.00  0.00     0.074 C 
HETATM   15  C24 UNL     1      11.225  11.376  15.433  1.00  0.00     0.127 C 
HETATM   16  C31 UNL     1      11.344  10.321  14.331  1.00  0.00     0.033 C 
HETATM   17  C32 UNL     1       9.994  10.035  13.679  1.00  0.00     0.015 C 
HETATM   18  C33 UNL     1       8.897   9.602  14.696  1.00  0.00    -0.003 C 
HETATM   19  C34 UNL     1       9.256   8.194  15.224  1.00  0.00     0.019 C 
HETATM   20  O7  UNL     1       8.318  11.860  15.256  1.00  0.00    -0.228 OA
HETATM   21  O8  UNL     1       6.861  11.762  15.034  1.00  0.00    -0.228 OA
ENDROOT
BRANCH  15  22
HETATM   22  O1  UNL     1      12.459  11.572  16.140  1.00  0.00    -0.353 OA
BRANCH  22  23
HETATM   23  C25 UNL     1      12.684  12.920  16.544  1.00  0.00     0.292 C 
HETATM   24  O2  UNL     1      13.972  13.367  16.130  1.00  0.00    -0.348 OA
HETATM   25  C26 UNL     1      15.084  12.612  16.659  1.00  0.00     0.179 C 
HETATM   26  C28 UNL     1      14.783  11.939  18.012  1.00  0.00     0.180 C 
HETATM   27  C29 UNL     1      13.866  12.856  18.810  1.00  0.00     0.183 C 
HETATM   28  C30 UNL     1      12.531  13.049  18.081  1.00  0.00     0.204 C 
BRANCH  25  29
HETATM   29  C27 UNL     1      15.619  11.583  15.649  1.00  0.00     0.198 C 
BRANCH  29  30
HETATM   30  O3  UNL     1      16.541  12.199  14.749  1.00  0.00    -0.398 OA
HETATM   31  H43 UNL     1      17.121  11.496  14.409  1.00  0.00     0.209 HD
ENDBRANCH  29  30
ENDBRANCH  25  29
BRANCH  26  32
HETATM   32  O4  UNL     1      15.993  11.708  18.742  1.00  0.00    -0.390 OA
HETATM   33  H45 UNL     1      15.704  11.575  19.671  1.00  0.00     0.210 HD
ENDBRANCH  26  32
BRANCH  27  34
HETATM   34  O5  UNL     1      13.658  12.303  20.122  1.00  0.00    -0.390 OA
HETATM   35  H47 UNL     1      13.002  12.885  20.553  1.00  0.00     0.210 HD
ENDBRANCH  27  34
BRANCH  28  36
HETATM   36  O6  UNL     1      12.027  14.349  18.455  1.00  0.00    -0.388 OA
HETATM   37  H49 UNL     1      12.539  15.012  17.956  1.00  0.00     0.210 HD
ENDBRANCH  28  36
ENDBRANCH  22  23
ENDBRANCH  15  22
BRANCH   1  38
HETATM   38  C8  UNL     1       2.167   8.601  12.462  1.00  0.00     0.008 C 
HETATM   39  C9  UNL     1       2.002   7.408  13.405  1.00  0.00     0.014 C 
BRANCH  38  40
HETATM   40  C7  UNL     1       2.480   8.063  11.077  1.00  0.00    -0.026 C 
HETATM   41  C6  UNL     1       1.668   7.240  10.394  1.00  0.00    -0.026 C 
BRANCH  41  42
HETATM   42  C4  UNL     1       1.897   6.663   9.008  1.00  0.00     0.007 C 
HETATM   43  C5  UNL     1       3.163   5.797   8.921  1.00  0.00     0.014 C 
BRANCH  42  44
HETATM   44  C2  UNL     1       1.880   7.779   7.921  1.00  0.00    -0.015 C 
HETATM   45  C1  UNL     1       3.141   8.649   7.970  1.00  0.00     0.010 C 
HETATM   46  C3  UNL     1       1.733   7.212   6.502  1.00  0.00     0.010 C 
ENDBRANCH  42  44
ENDBRANCH  41  42
ENDBRANCH  38  40
ENDBRANCH   1  38
TORSDOF 11
ENDMDL
MODEL 9
REMARK minimizedAffinity -9.398839
REMARK CNNscore 0.223806694
REMARK CNNaffinity 6.76226997
REMARK  11 active torsions:
REMARK  status: ('A' for Active; 'I' for Inactive)
REMARK    1  A    between atoms: C2_2  and  C4_4 
REMARK    2  A    between atoms: C4_4  and  C6_6 
REMARK    3  A    between atoms: C7_7  and  C8_8 
REMARK    4  A    between atoms: C8_8  and  C10_10 
REMARK    5  A    between atoms: C24_24  and  O1_25 
REMARK    6  A    between atoms: O1_25  and  C25_26 
REMARK    7  A    between atoms: C26_28  and  C27_29 
REMARK    8  A    between atoms: C27_29  and  O3_30 
REMARK    9  A    between atoms: C28_31  and  O4_32 
REMARK   10  A    between atoms: C29_33  and  O5_34 
REMARK   11  A    between atoms: C30_35  and  O6_36 
ROOT
HETATM    1  C10 UNL     1      -7.284   7.557  14.298  1.00  0.00     0.001 C 
HETATM    2  C11 UNL     1      -6.990   8.847  15.122  1.00  0.00     0.006 C 
HETATM    3  C12 UNL     1      -5.461   8.977  15.227  1.00  0.00     0.009 C 
HETATM    4  C13 UNL     1      -4.949   7.896  14.284  1.00  0.00     0.032 C 
HETATM    5  C14 UNL     1      -5.963   6.735  14.447  1.00  0.00    -0.033 C 
HETATM    6  C15 UNL     1      -5.929   6.021  15.814  1.00  0.00     0.016 C 
HETATM    7  C16 UNL     1      -5.684   5.724  13.317  1.00  0.00     0.010 C 
HETATM    8  C17 UNL     1      -4.214   5.266  13.294  1.00  0.00     0.009 C 
HETATM    9  C18 UNL     1      -3.221   6.440  13.198  1.00  0.00     0.035 C 
HETATM   10  C19 UNL     1      -3.455   7.542  14.275  1.00  0.00     0.105 C 
HETATM   11  C20 UNL     1      -2.808   7.192  15.618  1.00  0.00     0.045 C 
HETATM   12  C21 UNL     1      -1.285   7.216  15.439  1.00  0.00     0.045 C 
HETATM   13  C22 UNL     1      -0.948   7.184  13.936  1.00  0.00     0.106 C 
HETATM   14  C23 UNL     1       0.573   7.136  13.737  1.00  0.00     0.074 C 
HETATM   15  C24 UNL     1       0.982   7.086  12.261  1.00  0.00     0.127 C 
HETATM   16  C31 UNL     1       0.290   5.927  11.541  1.00  0.00     0.033 C 
HETATM   17  C32 UNL     1      -1.228   5.999  11.693  1.00  0.00     0.015 C 
HETATM   18  C33 UNL     1      -1.698   6.044  13.177  1.00  0.00    -0.003 C 
HETATM   19  C34 UNL     1      -1.417   4.664  13.815  1.00  0.00     0.019 C 
HETATM   20  O7  UNL     1      -1.417   8.419  13.346  1.00  0.00    -0.228 OA
HETATM   21  O8  UNL     1      -2.760   8.750  13.864  1.00  0.00    -0.228 OA
ENDROOT
BRANCH  15  22
HETATM   22  O1  UNL     1       2.413   6.972  12.232  1.00  0.00    -0.353 OA
BRANCH  22  23
HETATM   23  C25 UNL     1       3.063   8.036  11.543  1.00  0.00     0.292 C 
HETATM   24  O2  UNL     1       3.325   7.682  10.188  1.00  0.00    -0.348 OA
HETATM   25  C26 UNL     1       4.175   6.527  10.009  1.00  0.00     0.179 C 
HETATM   26  C28 UNL     1       5.147   6.290  11.180  1.00  0.00     0.180 C 
HETATM   27  C29 UNL     1       5.583   7.645  11.722  1.00  0.00     0.183 C 
HETATM   28  C30 UNL     1       4.378   8.419  12.270  1.00  0.00     0.204 C 
BRANCH  25  29
HETATM   29  C27 UNL     1       3.367   5.254   9.709  1.00  0.00     0.198 C 
BRANCH  29  30
HETATM   30  O3  UNL     1       3.340   4.999   8.304  1.00  0.00    -0.398 OA
HETATM   31  H43 UNL     1       3.179   4.046   8.190  1.00  0.00     0.209 HD
ENDBRANCH  29  30
ENDBRANCH  25  29
BRANCH  26  32
HETATM   32  O4  UNL     1       6.293   5.550  10.745  1.00  0.00    -0.390 OA
HETATM   33  H45 UNL     1       6.971   5.707  11.437  1.00  0.00     0.210 HD
ENDBRANCH  26  32
BRANCH  27  34
HETATM   34  O5  UNL     1       6.576   7.454  12.746  1.00  0.00    -0.390 OA
HETATM   35  H47 UNL     1       6.754   8.342  13.110  1.00  0.00     0.210 HD
ENDBRANCH  27  34
BRANCH  28  36
HETATM   36  O6  UNL     1       4.674   9.824  12.123  1.00  0.00    -0.388 OA
HETATM   37  H49 UNL     1       4.551  10.048  11.182  1.00  0.00     0.210 HD
ENDBRANCH  28  36
ENDBRANCH  22  23
ENDBRANCH  15  22
BRANCH   1  38
HETATM   38  C8  UNL     1      -8.643   6.917  14.687  1.00  0.00     0.008 C 
HETATM   39  C9  UNL     1      -9.198   5.980  13.614  1.00  0.00     0.014 C 
BRANCH  38  40
HETATM   40  C7  UNL     1      -9.674   8.003  14.939  1.00  0.00    -0.026 C 
HETATM   41  C6  UNL     1     -10.920   7.980  14.440  1.00  0.00    -0.026 C 
BRANCH  41  42
HETATM   42  C4  UNL     1     -12.013   9.014  14.646  1.00  0.00     0.007 C 
HETATM   43  C5  UNL     1     -12.481   9.108  16.107  1.00  0.00     0.014 C 
BRANCH  42  44
HETATM   44  C2  UNL     1     -13.204   8.783  13.668  1.00  0.00    -0.015 C 
HETATM   45  C1  UNL     1     -13.260   9.849  12.568  1.00  0.00     0.010 C 
HETATM   46  C3  UNL     1     -13.156   7.399  13.005  1.00  0.00     0.010 C 
ENDBRANCH  42  44
ENDBRANCH  41  42
ENDBRANCH  38  40
ENDBRANCH   1  38
TORSDOF 11
ENDMDL
