MODEL 1
REMARK minimizedAffinity -8.45369911
REMARK CNNscore 0.764811635
REMARK CNNaffinity 7.90275002
REMARK  19 active torsions:
REMARK  status: ('A' for Active; 'I' for Inactive)
REMARK    1  A    between atoms: C19_20  and  O2_21 
REMARK    2  A    between atoms: C19_20  and  C20_22 
REMARK    3  A    between atoms: C20_22  and  C21_24 
REMARK    4  A    between atoms: C21_24  and  O4_25 
REMARK    5  A    between atoms: O4_25  and  C22_26 
REMARK    6  A    between atoms: C22_26  and  C23_28 
REMARK    7  A    between atoms: C23_28  and  C24_29 
REMARK    8  A    between atoms: C24_29  and  C25_30 
REMARK       I    between atoms: C25_30  and  N1_32 
REMARK    9  A    between atoms: N1_32  and  C26_33 
REMARK   10  A    between atoms: C26_33  and  C27_34 
REMARK   11  A    between atoms: C27_34  and  C28_35 
REMARK   12  A    between atoms: C28_35  and  C29_36 
REMARK   13  A    between atoms: C29_36  and  C30_37 
REMARK   14  A    between atoms: C30_37  and  C31_38 
REMARK       I    between atoms: C31_38  and  N2_40 
REMARK   15  A    between atoms: N2_40  and  C32_41 
REMARK   16  A    between atoms: C32_41  and  C33_42 
REMARK   17  A    between atoms: C33_42  and  C34_43 
REMARK   18  A    between atoms: C37_46  and  O8_47 
REMARK   19  A    between atoms: C38_48  and  O9_49 
ROOT
HETATM    1  C22 UNL     1      -3.832   3.107  11.805  1.00  0.00     0.259 C 
HETATM    2  O5  UNL     1      -3.028   3.254  10.894  1.00  0.00    -0.265 OA
ENDROOT
BRANCH   1   3
HETATM    3  O4  UNL     1      -3.672   3.592  13.064  1.00  0.00    -0.314 OA
BRANCH   3   4
HETATM    4  C21 UNL     1      -3.015   4.847  13.174  1.00  0.00     0.260 C 
BRANCH   4   5
HETATM    5  C20 UNL     1      -3.639   6.074  13.861  1.00  0.00     0.185 C 
HETATM    6  O3  UNL     1      -4.740   6.487  13.480  1.00  0.00    -0.292 OA
BRANCH   5   7
HETATM    7  C19 UNL     1      -2.928   6.670  15.102  1.00  0.00     0.128 C 
HETATM    8  C14 UNL     1      -2.969   8.232  15.169  1.00  0.00    -0.002 C 
HETATM    9  C13 UNL     1      -4.246   8.874  15.744  1.00  0.00     0.013 C 
HETATM   10  C15 UNL     1      -2.692   8.835  13.761  1.00  0.00     0.019 C 
HETATM   11  C16 UNL     1      -1.822   8.489  16.188  1.00  0.00     0.002 C 
HETATM   12  C12 UNL     1      -4.058  10.374  16.052  1.00  0.00     0.007 C 
HETATM   13  C11 UNL     1      -2.844  10.644  16.970  1.00  0.00     0.002 C 
HETATM   14  C2  UNL     1      -2.592  12.147  17.334  1.00  0.00    -0.016 C 
HETATM   15  C10 UNL     1      -1.547   9.982  16.407  1.00  0.00    -0.004 C 
HETATM   16  C1  UNL     1      -2.088  12.954  16.112  1.00  0.00     0.020 C 
HETATM   17  C3  UNL     1      -3.881  12.811  17.883  1.00  0.00     0.022 C 
HETATM   18  C7  UNL     1      -1.536  12.190  18.442  1.00  0.00    -0.068 C 
HETATM   19  C4  UNL     1      -3.651  14.219  18.429  1.00  0.00     0.084 C 
HETATM   20  C5  UNL     1      -2.435  14.313  19.319  1.00  0.00     0.149 C 
HETATM   21  O1  UNL     1      -2.218  15.305  20.015  1.00  0.00    -0.293 OA
HETATM   22  C6  UNL     1      -1.465  13.194  19.334  1.00  0.00     0.053 C 
HETATM   23  C8  UNL     1      -0.620  10.994  18.590  1.00  0.00     0.035 C 
HETATM   24  C9  UNL     1      -0.309  10.278  17.278  1.00  0.00     0.010 C 
HETATM   25  C17 UNL     1      -0.691   7.606  15.674  1.00  0.00     0.009 C 
HETATM   26  C18 UNL     1      -1.399   6.366  15.096  1.00  0.00     0.047 C 
BRANCH   7  27
HETATM   27  O2  UNL     1      -3.457   6.118  16.309  1.00  0.00    -0.381 OA
HETATM   28  H27 UNL     1      -3.238   5.165  16.298  1.00  0.00     0.211 HD
ENDBRANCH   7  27
ENDBRANCH   5   7
ENDBRANCH   4   5
ENDBRANCH   3   4
ENDBRANCH   1   3
BRANCH   1  29
HETATM   29  C23 UNL     1      -5.151   2.393  11.668  1.00  0.00     0.120 C 
BRANCH  29  30
HETATM   30  C24 UNL     1      -6.261   3.420  11.489  1.00  0.00     0.112 C 
BRANCH  30  31
HETATM   31  C25 UNL     1      -7.191   3.463  12.687  1.00  0.00     0.217 C 
HETATM   32  O6  UNL     1      -8.055   2.619  12.891  1.00  0.00    -0.274 OA
HETATM   33  N1  UNL     1      -6.919   4.503  13.553  1.00  0.00    -0.361 N 
HETATM   34  H34 UNL     1      -6.361   5.274  13.207  1.00  0.00     0.162 HD
BRANCH  33  35
HETATM   35  C26 UNL     1      -7.782   4.764  14.689  1.00  0.00     0.122 C 
BRANCH  35  36
HETATM   36  C27 UNL     1      -6.993   5.178  15.933  1.00  0.00     0.020 C 
BRANCH  36  37
HETATM   37  C28 UNL     1      -6.979   6.688  16.211  1.00  0.00     0.002 C 
BRANCH  37  38
HETATM   38  C29 UNL     1      -7.584   7.571  15.112  1.00  0.00     0.009 C 
BRANCH  38  39
HETATM   39  C30 UNL     1      -8.666   8.537  15.596  1.00  0.00     0.103 C 
BRANCH  39  40
HETATM   40  C31 UNL     1     -10.008   8.325  14.919  1.00  0.00     0.217 C 
HETATM   41  O7  UNL     1     -10.629   9.209  14.340  1.00  0.00    -0.274 OA
HETATM   42  N2  UNL     1     -10.475   7.033  15.045  1.00  0.00    -0.361 N 
HETATM   43  H45 UNL     1      -9.825   6.313  15.336  1.00  0.00     0.162 HD
BRANCH  42  44
HETATM   44  C32 UNL     1     -11.702   6.606  14.396  1.00  0.00     0.127 C 
BRANCH  44  45
HETATM   45  C33 UNL     1     -12.895   7.526  14.686  1.00  0.00     0.058 C 
BRANCH  45  46
HETATM   46  C34 UNL     1     -14.152   7.105  13.956  1.00  0.00    -0.054 A 
HETATM   47  C35 UNL     1     -14.944   6.064  14.474  1.00  0.00     0.010 A 
HETATM   48  C36 UNL     1     -16.127   5.685  13.836  1.00  0.00     0.040 A 
HETATM   49  C37 UNL     1     -16.515   6.349  12.683  1.00  0.00     0.098 A 
HETATM   50  C38 UNL     1     -15.738   7.377  12.154  1.00  0.00     0.099 A 
HETATM   51  C39 UNL     1     -14.557   7.763  12.783  1.00  0.00     0.046 A 
BRANCH  49  52
HETATM   52  O8  UNL     1     -17.678   5.986  12.067  1.00  0.00    -0.358 OA
HETATM   53  H52 UNL     1     -17.736   6.572  11.287  1.00  0.00     0.217 HD
ENDBRANCH  49  52
BRANCH  50  54
HETATM   54  O9  UNL     1     -16.183   7.984  11.013  1.00  0.00    -0.358 OA
HETATM   55  H53 UNL     1     -15.528   8.652  10.750  1.00  0.00     0.217 HD
ENDBRANCH  50  54
ENDBRANCH  45  46
ENDBRANCH  44  45
ENDBRANCH  42  44
ENDBRANCH  39  40
ENDBRANCH  38  39
ENDBRANCH  37  38
ENDBRANCH  36  37
ENDBRANCH  35  36
ENDBRANCH  33  35
ENDBRANCH  30  31
ENDBRANCH  29  30
ENDBRANCH   1  29
TORSDOF 19
ENDMDL
MODEL 2
REMARK minimizedAffinity -8.09029293
REMARK CNNscore 0.56694144
REMARK CNNaffinity 7.6125474
REMARK  19 active torsions:
REMARK  status: ('A' for Active; 'I' for Inactive)
REMARK    1  A    between atoms: C19_20  and  O2_21 
REMARK    2  A    between atoms: C19_20  and  C20_22 
REMARK    3  A    between atoms: C20_22  and  C21_24 
REMARK    4  A    between atoms: C21_24  and  O4_25 
REMARK    5  A    between atoms: O4_25  and  C22_26 
REMARK    6  A    between atoms: C22_26  and  C23_28 
REMARK    7  A    between atoms: C23_28  and  C24_29 
REMARK    8  A    between atoms: C24_29  and  C25_30 
REMARK       I    between atoms: C25_30  and  N1_32 
REMARK    9  A    between atoms: N1_32  and  C26_33 
REMARK   10  A    between atoms: C26_33  and  C27_34 
REMARK   11  A    between atoms: C27_34  and  C28_35 
REMARK   12  A    between atoms: C28_35  and  C29_36 
REMARK   13  A    between atoms: C29_36  and  C30_37 
REMARK   14  A    between atoms: C30_37  and  C31_38 
REMARK       I    between atoms: C31_38  and  N2_40 
REMARK   15  A    between atoms: N2_40  and  C32_41 
REMARK   16  A    between atoms: C32_41  and  C33_42 
REMARK   17  A    between atoms: C33_42  and  C34_43 
REMARK   18  A    between atoms: C37_46  and  O8_47 
REMARK   19  A    between atoms: C38_48  and  O9_49 
ROOT
HETATM    1  C22 UNL     1     -11.106   7.783  14.462  1.00  0.00     0.259 C 
HETATM    2  O5  UNL     1     -11.149   6.983  13.537  1.00  0.00    -0.265 OA
ENDROOT
BRANCH   1   3
HETATM    3  O4  UNL     1      -9.992   8.458  14.850  1.00  0.00    -0.314 OA
BRANCH   3   4
HETATM    4  C21 UNL     1      -9.139   7.785  15.766  1.00  0.00     0.260 C 
BRANCH   4   5
HETATM    5  C20 UNL     1      -7.673   7.434  15.462  1.00  0.00     0.185 C 
HETATM    6  O3  UNL     1      -6.796   8.288  15.639  1.00  0.00    -0.292 OA
BRANCH   5   7
HETATM    7  C19 UNL     1      -7.325   5.975  15.074  1.00  0.00     0.128 C 
HETATM    8  C14 UNL     1      -6.158   5.853  14.041  1.00  0.00    -0.002 C 
HETATM    9  C13 UNL     1      -4.723   5.918  14.598  1.00  0.00     0.013 C 
HETATM   10  C15 UNL     1      -6.316   6.928  12.927  1.00  0.00     0.019 C 
HETATM   11  C16 UNL     1      -6.394   4.400  13.537  1.00  0.00     0.002 C 
HETATM   12  C12 UNL     1      -3.672   5.479  13.556  1.00  0.00     0.007 C 
HETATM   13  C11 UNL     1      -3.971   4.082  12.965  1.00  0.00     0.002 C 
HETATM   14  C2  UNL     1      -2.942   3.563  11.903  1.00  0.00    -0.016 C 
HETATM   15  C10 UNL     1      -5.429   3.999  12.415  1.00  0.00    -0.004 C 
HETATM   16  C1  UNL     1      -3.040   4.356  10.577  1.00  0.00     0.020 C 
HETATM   17  C3  UNL     1      -1.491   3.656  12.442  1.00  0.00     0.022 C 
HETATM   18  C7  UNL     1      -3.249   2.087  11.636  1.00  0.00    -0.068 C 
HETATM   19  C4  UNL     1      -0.462   2.992  11.527  1.00  0.00     0.084 C 
HETATM   20  C5  UNL     1      -0.897   1.629  11.045  1.00  0.00     0.149 C 
HETATM   21  O1  UNL     1      -0.115   0.862  10.484  1.00  0.00    -0.293 OA
HETATM   22  C6  UNL     1      -2.307   1.216  11.229  1.00  0.00     0.053 C 
HETATM   23  C8  UNL     1      -4.641   1.586  11.957  1.00  0.00     0.035 C 
HETATM   24  C9  UNL     1      -5.739   2.631  11.772  1.00  0.00     0.010 C 
HETATM   25  C17 UNL     1      -7.892   4.363  13.261  1.00  0.00     0.009 C 
HETATM   26  C18 UNL     1      -8.508   5.272  14.341  1.00  0.00     0.047 C 
BRANCH   7  27
HETATM   27  O2  UNL     1      -7.032   5.193  16.234  1.00  0.00    -0.381 OA
HETATM   28  H27 UNL     1      -7.858   5.150  16.756  1.00  0.00     0.211 HD
ENDBRANCH   7  27
ENDBRANCH   5   7
ENDBRANCH   4   5
ENDBRANCH   3   4
ENDBRANCH   1   3
BRANCH   1  29
HETATM   29  C23 UNL     1     -12.293   8.178  15.301  1.00  0.00     0.120 C 
BRANCH  29  30
HETATM   30  C24 UNL     1     -13.564   7.651  14.649  1.00  0.00     0.112 C 
BRANCH  30  31
HETATM   31  C25 UNL     1     -14.517   7.053  15.668  1.00  0.00     0.217 C 
HETATM   32  O6  UNL     1     -15.179   6.045  15.450  1.00  0.00    -0.274 OA
HETATM   33  N1  UNL     1     -14.507   7.714  16.879  1.00  0.00    -0.361 N 
HETATM   34  H34 UNL     1     -14.122   8.650  16.904  1.00  0.00     0.162 HD
BRANCH  33  35
HETATM   35  C26 UNL     1     -15.440   7.350  17.928  1.00  0.00     0.122 C 
BRANCH  35  36
HETATM   36  C27 UNL     1     -14.947   7.769  19.313  1.00  0.00     0.020 C 
BRANCH  36  37
HETATM   37  C28 UNL     1     -14.173   6.683  20.075  1.00  0.00     0.002 C 
BRANCH  37  38
HETATM   38  C29 UNL     1     -13.741   7.051  21.500  1.00  0.00     0.009 C 
BRANCH  38  39
HETATM   39  C30 UNL     1     -14.689   6.564  22.597  1.00  0.00     0.103 C 
BRANCH  39  40
HETATM   40  C31 UNL     1     -14.207   5.303  23.292  1.00  0.00     0.217 C 
HETATM   41  O7  UNL     1     -13.096   5.182  23.795  1.00  0.00    -0.274 OA
HETATM   42  N2  UNL     1     -15.144   4.291  23.279  1.00  0.00    -0.361 N 
HETATM   43  H45 UNL     1     -16.102   4.525  23.049  1.00  0.00     0.162 HD
BRANCH  42  44
HETATM   44  C32 UNL     1     -14.907   3.033  23.964  1.00  0.00     0.127 C 
BRANCH  44  45
HETATM   45  C33 UNL     1     -13.433   2.803  24.321  1.00  0.00     0.058 C 
BRANCH  45  46
HETATM   46  C34 UNL     1     -13.209   2.630  25.808  1.00  0.00    -0.054 A 
HETATM   47  C35 UNL     1     -12.175   1.794  26.266  1.00  0.00     0.010 A 
HETATM   48  C36 UNL     1     -11.928   1.651  27.632  1.00  0.00     0.040 A 
HETATM   49  C37 UNL     1     -12.715   2.345  28.537  1.00  0.00     0.098 A 
HETATM   50  C38 UNL     1     -13.747   3.171  28.100  1.00  0.00     0.099 A 
HETATM   51  C39 UNL     1     -14.001   3.321  26.739  1.00  0.00     0.046 A 
BRANCH  49  52
HETATM   52  O8  UNL     1     -12.465   2.213  29.873  1.00  0.00    -0.358 OA
HETATM   53  H52 UNL     1     -13.138   2.774  30.305  1.00  0.00     0.217 HD
ENDBRANCH  49  52
BRANCH  50  54
HETATM   54  O9  UNL     1     -14.483   3.822  29.051  1.00  0.00    -0.358 OA
HETATM   55  H53 UNL     1     -15.178   4.331  28.601  1.00  0.00     0.217 HD
ENDBRANCH  50  54
ENDBRANCH  45  46
ENDBRANCH  44  45
ENDBRANCH  42  44
ENDBRANCH  39  40
ENDBRANCH  38  39
ENDBRANCH  37  38
ENDBRANCH  36  37
ENDBRANCH  35  36
ENDBRANCH  33  35
ENDBRANCH  30  31
ENDBRANCH  29  30
ENDBRANCH   1  29
TORSDOF 19
ENDMDL
MODEL 3
REMARK minimizedAffinity -8.7804594
REMARK CNNscore 0.511642218
REMARK CNNaffinity 7.47552681
REMARK  19 active torsions:
REMARK  status: ('A' for Active; 'I' for Inactive)
REMARK    1  A    between atoms: C19_20  and  O2_21 
REMARK    2  A    between atoms: C19_20  and  C20_22 
REMARK    3  A    between atoms: C20_22  and  C21_24 
REMARK    4  A    between atoms: C21_24  and  O4_25 
REMARK    5  A    between atoms: O4_25  and  C22_26 
REMARK    6  A    between atoms: C22_26  and  C23_28 
REMARK    7  A    between atoms: C23_28  and  C24_29 
REMARK    8  A    between atoms: C24_29  and  C25_30 
REMARK       I    between atoms: C25_30  and  N1_32 
REMARK    9  A    between atoms: N1_32  and  C26_33 
REMARK   10  A    between atoms: C26_33  and  C27_34 
REMARK   11  A    between atoms: C27_34  and  C28_35 
REMARK   12  A    between atoms: C28_35  and  C29_36 
REMARK   13  A    between atoms: C29_36  and  C30_37 
REMARK   14  A    between atoms: C30_37  and  C31_38 
REMARK       I    between atoms: C31_38  and  N2_40 
REMARK   15  A    between atoms: N2_40  and  C32_41 
REMARK   16  A    between atoms: C32_41  and  C33_42 
REMARK   17  A    between atoms: C33_42  and  C34_43 
REMARK   18  A    between atoms: C37_46  and  O8_47 
REMARK   19  A    between atoms: C38_48  and  O9_49 
ROOT
HETATM    1  C22 UNL     1       0.870   6.751  10.749  1.00  0.00     0.259 C 
HETATM    2  O5  UNL     1       0.920   5.665  10.187  1.00  0.00    -0.265 OA
ENDROOT
BRANCH   1   3
HETATM    3  O4  UNL     1       1.192   6.964  12.052  1.00  0.00    -0.314 OA
BRANCH   3   4
HETATM    4  C21 UNL     1       0.661   6.037  12.988  1.00  0.00     0.260 C 
BRANCH   4   5
HETATM    5  C20 UNL     1      -0.626   6.286  13.792  1.00  0.00     0.185 C 
HETATM    6  O3  UNL     1      -0.544   6.677  14.963  1.00  0.00    -0.292 OA
BRANCH   5   7
HETATM    7  C19 UNL     1      -1.990   6.170  13.065  1.00  0.00     0.128 C 
HETATM    8  C14 UNL     1      -3.227   6.234  14.019  1.00  0.00    -0.002 C 
HETATM    9  C13 UNL     1      -3.710   7.635  14.441  1.00  0.00     0.013 C 
HETATM   10  C15 UNL     1      -2.962   5.386  15.296  1.00  0.00     0.019 C 
HETATM   11  C16 UNL     1      -4.317   5.629  13.089  1.00  0.00     0.002 C 
HETATM   12  C12 UNL     1      -5.100   7.595  15.112  1.00  0.00     0.007 C 
HETATM   13  C11 UNL     1      -6.160   6.887  14.239  1.00  0.00     0.002 C 
HETATM   14  C2  UNL     1      -7.601   6.813  14.851  1.00  0.00    -0.016 C 
HETATM   15  C10 UNL     1      -5.673   5.474  13.789  1.00  0.00    -0.004 C 
HETATM   16  C1  UNL     1      -7.662   5.838  16.052  1.00  0.00     0.020 C 
HETATM   17  C3  UNL     1      -8.083   8.214  15.310  1.00  0.00     0.022 C 
HETATM   18  C7  UNL     1      -8.552   6.328  13.753  1.00  0.00    -0.068 C 
HETATM   19  C4  UNL     1      -9.549   8.237  15.741  1.00  0.00     0.084 C 
HETATM   20  C5  UNL     1     -10.458   7.514  14.776  1.00  0.00     0.149 C 
HETATM   21  O1  UNL     1     -11.682   7.613  14.844  1.00  0.00    -0.293 OA
HETATM   22  C6  UNL     1      -9.859   6.643  13.739  1.00  0.00     0.053 C 
HETATM   23  C8  UNL     1      -7.955   5.561  12.592  1.00  0.00     0.035 C 
HETATM   24  C9  UNL     1      -6.733   4.723  12.957  1.00  0.00     0.010 C 
HETATM   25  C17 UNL     1      -3.643   4.388  12.519  1.00  0.00     0.009 C 
HETATM   26  C18 UNL     1      -2.161   4.783  12.374  1.00  0.00     0.047 C 
BRANCH   7  27
HETATM   27  O2  UNL     1      -2.111   7.161  12.043  1.00  0.00    -0.381 OA
HETATM   28  H27 UNL     1      -1.425   6.959  11.376  1.00  0.00     0.211 HD
ENDBRANCH   7  27
ENDBRANCH   5   7
ENDBRANCH   4   5
ENDBRANCH   3   4
ENDBRANCH   1   3
BRANCH   1  29
HETATM   29  C23 UNL     1       0.474   8.039  10.076  1.00  0.00     0.120 C 
BRANCH  29  30
HETATM   30  C24 UNL     1       1.001   8.039   8.647  1.00  0.00     0.112 C 
BRANCH  30  31
HETATM   31  C25 UNL     1       2.491   8.327   8.594  1.00  0.00     0.217 C 
HETATM   32  O6  UNL     1       3.041   8.812   7.612  1.00  0.00    -0.274 OA
HETATM   33  N1  UNL     1       3.143   8.053   9.778  1.00  0.00    -0.361 N 
HETATM   34  H34 UNL     1       2.677   7.451  10.447  1.00  0.00     0.162 HD
BRANCH  33  35
HETATM   35  C26 UNL     1       4.586   8.159   9.870  1.00  0.00     0.122 C 
BRANCH  35  36
HETATM   36  C27 UNL     1       5.084   8.053  11.312  1.00  0.00     0.020 C 
BRANCH  36  37
HETATM   37  C28 UNL     1       4.112   8.600  12.368  1.00  0.00     0.002 C 
BRANCH  37  38
HETATM   38  C29 UNL     1       4.632   9.779  13.202  1.00  0.00     0.009 C 
BRANCH  38  39
HETATM   39  C30 UNL     1       5.951  10.374  12.709  1.00  0.00     0.103 C 
BRANCH  39  40
HETATM   40  C31 UNL     1       7.095  10.199  13.691  1.00  0.00     0.217 C 
HETATM   41  O7  UNL     1       8.270  10.418  13.418  1.00  0.00    -0.274 OA
HETATM   42  N2  UNL     1       6.678   9.740  14.923  1.00  0.00    -0.361 N 
HETATM   43  H45 UNL     1       5.692   9.790  15.148  1.00  0.00     0.162 HD
BRANCH  42  44
HETATM   44  C32 UNL     1       7.610   9.586  16.026  1.00  0.00     0.127 C 
BRANCH  44  45
HETATM   45  C33 UNL     1       7.182  10.336  17.294  1.00  0.00     0.058 C 
BRANCH  45  46
HETATM   46  C34 UNL     1       8.356  10.864  18.090  1.00  0.00    -0.054 A 
HETATM   47  C35 UNL     1       8.170  11.937  18.980  1.00  0.00     0.010 A 
HETATM   48  C36 UNL     1       9.232  12.414  19.750  1.00  0.00     0.040 A 
HETATM   49  C37 UNL     1      10.476  11.817  19.630  1.00  0.00     0.098 A 
HETATM   50  C38 UNL     1      10.678  10.758  18.747  1.00  0.00     0.099 A 
HETATM   51  C39 UNL     1       9.626  10.274  17.974  1.00  0.00     0.046 A 
BRANCH  49  52
HETATM   52  O8  UNL     1      11.511  12.277  20.392  1.00  0.00    -0.358 OA
HETATM   53  H52 UNL     1      12.273  11.722  20.132  1.00  0.00     0.217 HD
ENDBRANCH  49  52
BRANCH  50  54
HETATM   54  O9  UNL     1      11.934  10.220  18.680  1.00  0.00    -0.358 OA
HETATM   55  H53 UNL     1      11.928   9.520  18.006  1.00  0.00     0.217 HD
ENDBRANCH  50  54
ENDBRANCH  45  46
ENDBRANCH  44  45
ENDBRANCH  42  44
ENDBRANCH  39  40
ENDBRANCH  38  39
ENDBRANCH  37  38
ENDBRANCH  36  37
ENDBRANCH  35  36
ENDBRANCH  33  35
ENDBRANCH  30  31
ENDBRANCH  29  30
ENDBRANCH   1  29
TORSDOF 19
ENDMDL
MODEL 4
REMARK minimizedAffinity -8.05823803
REMARK CNNscore 0.487998873
REMARK CNNaffinity 6.97166777
REMARK  19 active torsions:
REMARK  status: ('A' for Active; 'I' for Inactive)
REMARK    1  A    between atoms: C19_20  and  O2_21 
REMARK    2  A    between atoms: C19_20  and  C20_22 
REMARK    3  A    between atoms: C20_22  and  C21_24 
REMARK    4  A    between atoms: C21_24  and  O4_25 
REMARK    5  A    between atoms: O4_25  and  C22_26 
REMARK    6  A    between atoms: C22_26  and  C23_28 
REMARK    7  A    between atoms: C23_28  and  C24_29 
REMARK    8  A    between atoms: C24_29  and  C25_30 
REMARK       I    between atoms: C25_30  and  N1_32 
REMARK    9  A    between atoms: N1_32  and  C26_33 
REMARK   10  A    between atoms: C26_33  and  C27_34 
REMARK   11  A    between atoms: C27_34  and  C28_35 
REMARK   12  A    between atoms: C28_35  and  C29_36 
REMARK   13  A    between atoms: C29_36  and  C30_37 
REMARK   14  A    between atoms: C30_37  and  C31_38 
REMARK       I    between atoms: C31_38  and  N2_40 
REMARK   15  A    between atoms: N2_40  and  C32_41 
REMARK   16  A    between atoms: C32_41  and  C33_42 
REMARK   17  A    between atoms: C33_42  and  C34_43 
REMARK   18  A    between atoms: C37_46  and  O8_47 
REMARK   19  A    between atoms: C38_48  and  O9_49 
ROOT
HETATM    1  C22 UNL     1     -10.545   8.207  14.481  1.00  0.00     0.259 C 
HETATM    2  O5  UNL     1     -11.140   9.264  14.319  1.00  0.00    -0.265 OA
ENDROOT
BRANCH   1   3
HETATM    3  O4  UNL     1      -9.254   8.101  14.891  1.00  0.00    -0.314 OA
BRANCH   3   4
HETATM    4  C21 UNL     1      -8.840   6.817  15.336  1.00  0.00     0.260 C 
BRANCH   4   5
HETATM    5  C20 UNL     1      -7.388   6.318  15.258  1.00  0.00     0.185 C 
HETATM    6  O3  UNL     1      -7.053   5.322  15.912  1.00  0.00    -0.292 OA
BRANCH   5   7
HETATM    7  C19 UNL     1      -6.422   6.998  14.255  1.00  0.00     0.128 C 
HETATM    8  C14 UNL     1      -4.964   6.435  14.295  1.00  0.00    -0.002 C 
HETATM    9  C13 UNL     1      -4.691   5.146  13.496  1.00  0.00     0.013 C 
HETATM   10  C15 UNL     1      -4.514   6.219  15.769  1.00  0.00     0.019 C 
HETATM   11  C16 UNL     1      -4.208   7.591  13.581  1.00  0.00     0.002 C 
HETATM   12  C12 UNL     1      -3.182   4.859  13.348  1.00  0.00     0.007 C 
HETATM   13  C11 UNL     1      -2.407   6.054  12.747  1.00  0.00     0.002 C 
HETATM   14  C2  UNL     1      -0.866   5.836  12.559  1.00  0.00    -0.016 C 
HETATM   15  C10 UNL     1      -2.691   7.370  13.538  1.00  0.00    -0.004 C 
HETATM   16  C1  UNL     1      -0.126   5.793  13.919  1.00  0.00     0.020 C 
HETATM   17  C3  UNL     1      -0.581   4.524  11.785  1.00  0.00     0.022 C 
HETATM   18  C7  UNL     1      -0.327   7.000  11.723  1.00  0.00    -0.068 C 
HETATM   19  C4  UNL     1       0.890   4.352  11.408  1.00  0.00     0.084 C 
HETATM   20  C5  UNL     1       1.498   5.605  10.824  1.00  0.00     0.149 C 
HETATM   21  O1  UNL     1       2.596   5.592  10.268  1.00  0.00    -0.293 OA
HETATM   22  C6  UNL     1       0.764   6.885  10.945  1.00  0.00     0.053 C 
HETATM   23  C8  UNL     1      -1.131   8.282  11.698  1.00  0.00     0.035 C 
HETATM   24  C9  UNL     1      -1.890   8.570  12.991  1.00  0.00     0.010 C 
HETATM   25  C17 UNL     1      -4.745   8.840  14.269  1.00  0.00     0.009 C 
HETATM   26  C18 UNL     1      -6.216   8.508  14.582  1.00  0.00     0.047 C 
BRANCH   7  27
HETATM   27  O2  UNL     1      -6.935   6.927  12.923  1.00  0.00    -0.381 OA
HETATM   28  H27 UNL     1      -7.758   7.455  12.914  1.00  0.00     0.211 HD
ENDBRANCH   7  27
ENDBRANCH   5   7
ENDBRANCH   4   5
ENDBRANCH   3   4
ENDBRANCH   1   3
BRANCH   1  29
HETATM   29  C23 UNL     1     -11.160   6.846  14.285  1.00  0.00     0.120 C 
BRANCH  29  30
HETATM   30  C24 UNL     1     -12.447   6.990  13.483  1.00  0.00     0.112 C 
BRANCH  30  31
HETATM   31  C25 UNL     1     -13.674   6.986  14.377  1.00  0.00     0.217 C 
HETATM   32  O6  UNL     1     -14.151   5.961  14.850  1.00  0.00    -0.274 OA
HETATM   33  N1  UNL     1     -14.151   8.250  14.657  1.00  0.00    -0.361 N 
HETATM   34  H34 UNL     1     -13.857   9.010  14.056  1.00  0.00     0.162 HD
BRANCH  33  35
HETATM   35  C26 UNL     1     -15.384   8.428  15.400  1.00  0.00     0.122 C 
BRANCH  35  36
HETATM   36  C27 UNL     1     -15.131   8.784  16.866  1.00  0.00     0.020 C 
BRANCH  36  37
HETATM   37  C28 UNL     1     -16.082   8.106  17.863  1.00  0.00     0.002 C 
BRANCH  37  38
HETATM   38  C29 UNL     1     -15.579   6.790  18.471  1.00  0.00     0.009 C 
BRANCH  38  39
HETATM   39  C30 UNL     1     -15.977   6.570  19.931  1.00  0.00     0.103 C 
BRANCH  39  40
HETATM   40  C31 UNL     1     -14.810   6.184  20.821  1.00  0.00     0.217 C 
HETATM   41  O7  UNL     1     -13.661   6.575  20.650  1.00  0.00    -0.274 OA
HETATM   42  N2  UNL     1     -15.171   5.322  21.836  1.00  0.00    -0.361 N 
HETATM   43  H45 UNL     1     -16.155   5.217  22.050  1.00  0.00     0.162 HD
BRANCH  42  44
HETATM   44  C32 UNL     1     -14.215   4.901  22.845  1.00  0.00     0.127 C 
BRANCH  44  45
HETATM   45  C33 UNL     1     -13.795   3.432  22.709  1.00  0.00     0.058 C 
BRANCH  45  46
HETATM   46  C34 UNL     1     -13.295   2.841  24.009  1.00  0.00    -0.054 A 
HETATM   47  C35 UNL     1     -12.031   2.227  24.057  1.00  0.00     0.010 A 
HETATM   48  C36 UNL     1     -11.537   1.708  25.255  1.00  0.00     0.040 A 
HETATM   49  C37 UNL     1     -12.307   1.806  26.402  1.00  0.00     0.098 A 
HETATM   50  C38 UNL     1     -13.565   2.404  26.370  1.00  0.00     0.099 A 
HETATM   51  C39 UNL     1     -14.067   2.925  25.180  1.00  0.00     0.046 A 
BRANCH  49  52
HETATM   52  O8  UNL     1     -11.818   1.308  27.575  1.00  0.00    -0.358 OA
HETATM   53  H52 UNL     1     -12.526   1.477  28.228  1.00  0.00     0.217 HD
ENDBRANCH  49  52
BRANCH  50  54
HETATM   54  O9  UNL     1     -14.269   2.461  27.540  1.00  0.00    -0.358 OA
HETATM   55  H53 UNL     1     -15.130   2.873  27.356  1.00  0.00     0.217 HD
ENDBRANCH  50  54
ENDBRANCH  45  46
ENDBRANCH  44  45
ENDBRANCH  42  44
ENDBRANCH  39  40
ENDBRANCH  38  39
ENDBRANCH  37  38
ENDBRANCH  36  37
ENDBRANCH  35  36
ENDBRANCH  33  35
ENDBRANCH  30  31
ENDBRANCH  29  30
ENDBRANCH   1  29
TORSDOF 19
ENDMDL
MODEL 5
REMARK minimizedAffinity -9.65384102
REMARK CNNscore 0.378162295
REMARK CNNaffinity 7.30658102
REMARK  19 active torsions:
REMARK  status: ('A' for Active; 'I' for Inactive)
REMARK    1  A    between atoms: C19_20  and  O2_21 
REMARK    2  A    between atoms: C19_20  and  C20_22 
REMARK    3  A    between atoms: C20_22  and  C21_24 
REMARK    4  A    between atoms: C21_24  and  O4_25 
REMARK    5  A    between atoms: O4_25  and  C22_26 
REMARK    6  A    between atoms: C22_26  and  C23_28 
REMARK    7  A    between atoms: C23_28  and  C24_29 
REMARK    8  A    between atoms: C24_29  and  C25_30 
REMARK       I    between atoms: C25_30  and  N1_32 
REMARK    9  A    between atoms: N1_32  and  C26_33 
REMARK   10  A    between atoms: C26_33  and  C27_34 
REMARK   11  A    between atoms: C27_34  and  C28_35 
REMARK   12  A    between atoms: C28_35  and  C29_36 
REMARK   13  A    between atoms: C29_36  and  C30_37 
REMARK   14  A    between atoms: C30_37  and  C31_38 
REMARK       I    between atoms: C31_38  and  N2_40 
REMARK   15  A    between atoms: N2_40  and  C32_41 
REMARK   16  A    between atoms: C32_41  and  C33_42 
REMARK   17  A    between atoms: C33_42  and  C34_43 
REMARK   18  A    between atoms: C37_46  and  O8_47 
REMARK   19  A    between atoms: C38_48  and  O9_49 
ROOT
HETATM    1  C22 UNL     1       5.891   7.122  11.121  1.00  0.00     0.259 C 
HETATM    2  O5  UNL     1       6.949   6.782  10.608  1.00  0.00    -0.265 OA
ENDROOT
BRANCH   1   3
HETATM    3  O4  UNL     1       4.671   6.988  10.537  1.00  0.00    -0.314 OA
BRANCH   3   4
HETATM    4  C21 UNL     1       3.587   6.706  11.410  1.00  0.00     0.260 C 
BRANCH   4   5
HETATM    5  C20 UNL     1       2.252   7.469  11.381  1.00  0.00     0.185 C 
HETATM    6  O3  UNL     1       2.257   8.703  11.461  1.00  0.00    -0.292 OA
BRANCH   5   7
HETATM    7  C19 UNL     1       0.948   6.675  11.112  1.00  0.00     0.128 C 
HETATM    8  C14 UNL     1      -0.133   6.832  12.230  1.00  0.00    -0.002 C 
HETATM    9  C13 UNL     1      -1.029   8.084  12.164  1.00  0.00     0.013 C 
HETATM   10  C15 UNL     1       0.534   6.762  13.634  1.00  0.00     0.019 C 
HETATM   11  C16 UNL     1      -1.032   5.603  11.910  1.00  0.00     0.002 C 
HETATM   12  C12 UNL     1      -2.245   7.983  13.110  1.00  0.00     0.007 C 
HETATM   13  C11 UNL     1      -3.074   6.700  12.874  1.00  0.00     0.002 C 
HETATM   14  C2  UNL     1      -4.332   6.529  13.793  1.00  0.00    -0.016 C 
HETATM   15  C10 UNL     1      -2.174   5.425  12.919  1.00  0.00    -0.004 C 
HETATM   16  C1  UNL     1      -3.931   6.230  15.259  1.00  0.00     0.020 C 
HETATM   17  C3  UNL     1      -5.222   7.798  13.760  1.00  0.00     0.022 C 
HETATM   18  C7  UNL     1      -5.158   5.363  13.244  1.00  0.00    -0.068 C 
HETATM   19  C4  UNL     1      -6.555   7.621  14.487  1.00  0.00     0.084 C 
HETATM   20  C5  UNL     1      -7.246   6.325  14.139  1.00  0.00     0.149 C 
HETATM   21  O1  UNL     1      -8.416   6.112  14.455  1.00  0.00    -0.293 OA
HETATM   22  C6  UNL     1      -6.488   5.274  13.422  1.00  0.00     0.053 C 
HETATM   23  C8  UNL     1      -4.451   4.344  12.376  1.00  0.00     0.035 C 
HETATM   24  C9  UNL     1      -2.984   4.125  12.737  1.00  0.00     0.010 C 
HETATM   25  C17 UNL     1      -0.029   4.469  11.736  1.00  0.00     0.009 C 
HETATM   26  C18 UNL     1       1.202   5.136  11.092  1.00  0.00     0.047 C 
BRANCH   7  27
HETATM   27  O2  UNL     1       0.391   7.020   9.843  1.00  0.00    -0.381 OA
HETATM   28  H27 UNL     1       1.035   6.729   9.167  1.00  0.00     0.211 HD
ENDBRANCH   7  27
ENDBRANCH   5   7
ENDBRANCH   4   5
ENDBRANCH   3   4
ENDBRANCH   1   3
BRANCH   1  29
HETATM   29  C23 UNL     1       5.766   7.716  12.499  1.00  0.00     0.120 C 
BRANCH  29  30
HETATM   30  C24 UNL     1       6.654   6.939  13.461  1.00  0.00     0.112 C 
BRANCH  30  31
HETATM   31  C25 UNL     1       7.805   7.784  13.978  1.00  0.00     0.217 C 
HETATM   32  O6  UNL     1       8.486   8.498  13.252  1.00  0.00    -0.274 OA
HETATM   33  N1  UNL     1       7.957   7.720  15.348  1.00  0.00    -0.361 N 
HETATM   34  H34 UNL     1       7.521   6.949  15.837  1.00  0.00     0.162 HD
BRANCH  33  35
HETATM   35  C26 UNL     1       9.077   8.373  15.998  1.00  0.00     0.122 C 
BRANCH  35  36
HETATM   36  C27 UNL     1       8.645   9.182  17.222  1.00  0.00     0.020 C 
BRANCH  36  37
HETATM   37  C28 UNL     1       9.514  10.413  17.517  1.00  0.00     0.002 C 
BRANCH  37  38
HETATM   38  C29 UNL     1       8.753  11.687  17.907  1.00  0.00     0.009 C 
BRANCH  38  39
HETATM   39  C30 UNL     1       7.510  11.447  18.765  1.00  0.00     0.103 C 
BRANCH  39  40
HETATM   40  C31 UNL     1       7.676  11.901  20.204  1.00  0.00     0.217 C 
HETATM   41  O7  UNL     1       8.762  12.062  20.749  1.00  0.00    -0.274 OA
HETATM   42  N2  UNL     1       6.472  12.090  20.849  1.00  0.00    -0.361 N 
HETATM   43  H45 UNL     1       5.630  12.153  20.289  1.00  0.00     0.162 HD
BRANCH  42  44
HETATM   44  C32 UNL     1       6.415  12.603  22.206  1.00  0.00     0.127 C 
BRANCH  44  45
HETATM   45  C33 UNL     1       4.987  12.701  22.760  1.00  0.00     0.058 C 
BRANCH  45  46
HETATM   46  C34 UNL     1       4.177  11.445  22.524  1.00  0.00    -0.054 A 
HETATM   47  C35 UNL     1       4.518  10.258  23.197  1.00  0.00     0.010 A 
HETATM   48  C36 UNL     1       3.761   9.099  23.021  1.00  0.00     0.040 A 
HETATM   49  C37 UNL     1       2.666   9.129  22.173  1.00  0.00     0.098 A 
HETATM   50  C38 UNL     1       2.321  10.294  21.493  1.00  0.00     0.099 A 
HETATM   51  C39 UNL     1       3.069  11.457  21.662  1.00  0.00     0.046 A 
BRANCH  49  52
HETATM   52  O8  UNL     1       1.920   7.997  22.010  1.00  0.00    -0.358 OA
HETATM   53  H52 UNL     1       1.224   8.251  21.372  1.00  0.00     0.217 HD
ENDBRANCH  49  52
BRANCH  50  54
HETATM   54  O9  UNL     1       1.229  10.248  20.671  1.00  0.00    -0.358 OA
HETATM   55  H53 UNL     1       1.132  11.117  20.246  1.00  0.00     0.217 HD
ENDBRANCH  50  54
ENDBRANCH  45  46
ENDBRANCH  44  45
ENDBRANCH  42  44
ENDBRANCH  39  40
ENDBRANCH  38  39
ENDBRANCH  37  38
ENDBRANCH  36  37
ENDBRANCH  35  36
ENDBRANCH  33  35
ENDBRANCH  30  31
ENDBRANCH  29  30
ENDBRANCH   1  29
TORSDOF 19
ENDMDL
MODEL 6
REMARK minimizedAffinity -8.24738693
REMARK CNNscore 0.308979511
REMARK CNNaffinity 7.16722822
REMARK  19 active torsions:
REMARK  status: ('A' for Active; 'I' for Inactive)
REMARK    1  A    between atoms: C19_20  and  O2_21 
REMARK    2  A    between atoms: C19_20  and  C20_22 
REMARK    3  A    between atoms: C20_22  and  C21_24 
REMARK    4  A    between atoms: C21_24  and  O4_25 
REMARK    5  A    between atoms: O4_25  and  C22_26 
REMARK    6  A    between atoms: C22_26  and  C23_28 
REMARK    7  A    between atoms: C23_28  and  C24_29 
REMARK    8  A    between atoms: C24_29  and  C25_30 
REMARK       I    between atoms: C25_30  and  N1_32 
REMARK    9  A    between atoms: N1_32  and  C26_33 
REMARK   10  A    between atoms: C26_33  and  C27_34 
REMARK   11  A    between atoms: C27_34  and  C28_35 
REMARK   12  A    between atoms: C28_35  and  C29_36 
REMARK   13  A    between atoms: C29_36  and  C30_37 
REMARK   14  A    between atoms: C30_37  and  C31_38 
REMARK       I    between atoms: C31_38  and  N2_40 
REMARK   15  A    between atoms: N2_40  and  C32_41 
REMARK   16  A    between atoms: C32_41  and  C33_42 
REMARK   17  A    between atoms: C33_42  and  C34_43 
REMARK   18  A    between atoms: C37_46  and  O8_47 
REMARK   19  A    between atoms: C38_48  and  O9_49 
ROOT
HETATM    1  C22 UNL     1      -9.522   8.415  16.257  1.00  0.00     0.259 C 
HETATM    2  O5  UNL     1     -10.197   8.899  17.156  1.00  0.00    -0.265 OA
ENDROOT
BRANCH   1   3
HETATM    3  O4  UNL     1      -8.400   7.672  16.446  1.00  0.00    -0.314 OA
BRANCH   3   4
HETATM    4  C21 UNL     1      -8.419   6.358  15.906  1.00  0.00     0.260 C 
BRANCH   4   5
HETATM    5  C20 UNL     1      -7.234   5.733  15.151  1.00  0.00     0.185 C 
HETATM    6  O3  UNL     1      -7.033   4.516  15.240  1.00  0.00    -0.292 OA
BRANCH   5   7
HETATM    7  C19 UNL     1      -6.410   6.628  14.191  1.00  0.00     0.128 C 
HETATM    8  C14 UNL     1      -4.882   6.299  14.170  1.00  0.00    -0.002 C 
HETATM    9  C13 UNL     1      -4.431   5.132  13.271  1.00  0.00     0.013 C 
HETATM   10  C15 UNL     1      -4.368   6.049  15.617  1.00  0.00     0.019 C 
HETATM   11  C16 UNL     1      -4.332   7.610  13.537  1.00  0.00     0.002 C 
HETATM   12  C12 UNL     1      -2.899   5.097  13.083  1.00  0.00     0.007 C 
HETATM   13  C11 UNL     1      -2.334   6.440  12.566  1.00  0.00     0.002 C 
HETATM   14  C2  UNL     1      -0.784   6.480  12.343  1.00  0.00    -0.016 C 
HETATM   15  C10 UNL     1      -2.801   7.633  13.458  1.00  0.00    -0.004 C 
HETATM   16  C1  UNL     1      -0.013   6.454  13.686  1.00  0.00     0.020 C 
HETATM   17  C3  UNL     1      -0.316   5.289  11.467  1.00  0.00     0.022 C 
HETATM   18  C7  UNL     1      -0.453   7.772  11.592  1.00  0.00    -0.068 C 
HETATM   19  C4  UNL     1       1.154   5.379  11.060  1.00  0.00     0.084 C 
HETATM   20  C5  UNL     1       1.545   6.751  10.566  1.00  0.00     0.149 C 
HETATM   21  O1  UNL     1       2.618   6.951   9.997  1.00  0.00    -0.293 OA
HETATM   22  C6  UNL     1       0.624   7.888  10.794  1.00  0.00     0.053 C 
HETATM   23  C8  UNL     1      -1.446   8.911  11.675  1.00  0.00     0.035 C 
HETATM   24  C9  UNL     1      -2.210   8.980  12.995  1.00  0.00     0.010 C 
HETATM   25  C17 UNL     1      -5.040   8.705  14.325  1.00  0.00     0.009 C 
HETATM   26  C18 UNL     1      -6.434   8.124  14.630  1.00  0.00     0.047 C 
BRANCH   7  27
HETATM   27  O2  UNL     1      -6.937   6.576  12.864  1.00  0.00    -0.381 OA
HETATM   28  H27 UNL     1      -7.833   6.968  12.905  1.00  0.00     0.211 HD
ENDBRANCH   7  27
ENDBRANCH   5   7
ENDBRANCH   4   5
ENDBRANCH   3   4
ENDBRANCH   1   3
BRANCH   1  29
HETATM   29  C23 UNL     1      -9.845   8.537  14.791  1.00  0.00     0.120 C 
BRANCH  29  30
HETATM   30  C24 UNL     1     -11.337   8.794  14.628  1.00  0.00     0.112 C 
BRANCH  30  31
HETATM   31  C25 UNL     1     -12.042   7.630  13.955  1.00  0.00     0.217 C 
HETATM   32  O6  UNL     1     -11.901   7.362  12.768  1.00  0.00    -0.274 OA
HETATM   33  N1  UNL     1     -12.796   6.871  14.825  1.00  0.00    -0.361 N 
HETATM   34  H34 UNL     1     -13.046   7.281  15.717  1.00  0.00     0.162 HD
BRANCH  33  35
HETATM   35  C26 UNL     1     -13.629   5.790  14.334  1.00  0.00     0.122 C 
BRANCH  35  36
HETATM   36  C27 UNL     1     -15.021   5.797  14.967  1.00  0.00     0.020 C 
BRANCH  36  37
HETATM   37  C28 UNL     1     -16.024   4.829  14.322  1.00  0.00     0.002 C 
BRANCH  37  38
HETATM   38  C29 UNL     1     -16.272   3.523  15.087  1.00  0.00     0.009 C 
BRANCH  38  39
HETATM   39  C30 UNL     1     -15.304   2.391  14.742  1.00  0.00     0.103 C 
BRANCH  39  40
HETATM   40  C31 UNL     1     -15.921   1.319  13.861  1.00  0.00     0.217 C 
HETATM   41  O7  UNL     1     -16.961   1.468  13.231  1.00  0.00    -0.274 OA
HETATM   42  N2  UNL     1     -15.201   0.142  13.864  1.00  0.00    -0.361 N 
HETATM   43  H45 UNL     1     -14.254   0.158  14.222  1.00  0.00     0.162 HD
BRANCH  42  44
HETATM   44  C32 UNL     1     -15.581  -0.977  13.020  1.00  0.00     0.127 C 
BRANCH  44  45
HETATM   45  C33 UNL     1     -16.536  -1.961  13.708  1.00  0.00     0.058 C 
BRANCH  45  46
HETATM   46  C34 UNL     1     -15.840  -3.215  14.191  1.00  0.00    -0.054 A 
HETATM   47  C35 UNL     1     -16.535  -4.438  14.205  1.00  0.00     0.010 A 
HETATM   48  C36 UNL     1     -15.900  -5.612  14.612  1.00  0.00     0.040 A 
HETATM   49  C37 UNL     1     -14.572  -5.561  15.004  1.00  0.00     0.098 A 
HETATM   50  C38 UNL     1     -13.872  -4.357  15.003  1.00  0.00     0.099 A 
HETATM   51  C39 UNL     1     -14.496  -3.180  14.598  1.00  0.00     0.046 A 
BRANCH  49  52
HETATM   52  O8  UNL     1     -13.949  -6.713  15.391  1.00  0.00    -0.358 OA
HETATM   53  H52 UNL     1     -13.042  -6.433  15.627  1.00  0.00     0.217 HD
ENDBRANCH  49  52
BRANCH  50  54
HETATM   54  O9  UNL     1     -12.565  -4.383  15.404  1.00  0.00    -0.358 OA
HETATM   55  H53 UNL     1     -12.222  -3.474  15.380  1.00  0.00     0.217 HD
ENDBRANCH  50  54
ENDBRANCH  45  46
ENDBRANCH  44  45
ENDBRANCH  42  44
ENDBRANCH  39  40
ENDBRANCH  38  39
ENDBRANCH  37  38
ENDBRANCH  36  37
ENDBRANCH  35  36
ENDBRANCH  33  35
ENDBRANCH  30  31
ENDBRANCH  29  30
ENDBRANCH   1  29
TORSDOF 19
ENDMDL
MODEL 7
REMARK minimizedAffinity -8.08427334
REMARK CNNscore 0.298667997
REMARK CNNaffinity 6.60582542
REMARK  19 active torsions:
REMARK  status: ('A' for Active; 'I' for Inactive)
REMARK    1  A    between atoms: C19_20  and  O2_21 
REMARK    2  A    between atoms: C19_20  and  C20_22 
REMARK    3  A    between atoms: C20_22  and  C21_24 
REMARK    4  A    between atoms: C21_24  and  O4_25 
REMARK    5  A    between atoms: O4_25  and  C22_26 
REMARK    6  A    between atoms: C22_26  and  C23_28 
REMARK    7  A    between atoms: C23_28  and  C24_29 
REMARK    8  A    between atoms: C24_29  and  C25_30 
REMARK       I    between atoms: C25_30  and  N1_32 
REMARK    9  A    between atoms: N1_32  and  C26_33 
REMARK   10  A    between atoms: C26_33  and  C27_34 
REMARK   11  A    between atoms: C27_34  and  C28_35 
REMARK   12  A    between atoms: C28_35  and  C29_36 
REMARK   13  A    between atoms: C29_36  and  C30_37 
REMARK   14  A    between atoms: C30_37  and  C31_38 
REMARK       I    between atoms: C31_38  and  N2_40 
REMARK   15  A    between atoms: N2_40  and  C32_41 
REMARK   16  A    between atoms: C32_41  and  C33_42 
REMARK   17  A    between atoms: C33_42  and  C34_43 
REMARK   18  A    between atoms: C37_46  and  O8_47 
REMARK   19  A    between atoms: C38_48  and  O9_49 
ROOT
HETATM    1  C22 UNL     1       1.439   7.039  11.866  1.00  0.00     0.259 C 
HETATM    2  O5  UNL     1       0.599   7.688  11.257  1.00  0.00    -0.265 OA
ENDROOT
BRANCH   1   3
HETATM    3  O4  UNL     1       1.195   5.865  12.504  1.00  0.00    -0.314 OA
BRANCH   3   4
HETATM    4  C21 UNL     1       0.479   5.952  13.728  1.00  0.00     0.260 C 
BRANCH   4   5
HETATM    5  C20 UNL     1      -0.693   6.921  13.959  1.00  0.00     0.185 C 
HETATM    6  O3  UNL     1      -0.518   7.929  14.655  1.00  0.00    -0.292 OA
BRANCH   5   7
HETATM    7  C19 UNL     1      -2.021   6.675  13.198  1.00  0.00     0.128 C 
HETATM    8  C14 UNL     1      -3.286   6.666  14.116  1.00  0.00    -0.002 C 
HETATM    9  C13 UNL     1      -3.893   8.034  14.483  1.00  0.00     0.013 C 
HETATM   10  C15 UNL     1      -2.993   5.877  15.425  1.00  0.00     0.019 C 
HETATM   11  C16 UNL     1      -4.297   5.949  13.175  1.00  0.00     0.002 C 
HETATM   12  C12 UNL     1      -5.294   7.900  15.117  1.00  0.00     0.007 C 
HETATM   13  C11 UNL     1      -6.268   7.084  14.236  1.00  0.00     0.002 C 
HETATM   14  C2  UNL     1      -7.716   6.911  14.810  1.00  0.00    -0.016 C 
HETATM   15  C10 UNL     1      -5.656   5.704  13.842  1.00  0.00    -0.004 C 
HETATM   16  C1  UNL     1      -7.734   5.968  16.038  1.00  0.00     0.020 C 
HETATM   17  C3  UNL     1      -8.322   8.280  15.214  1.00  0.00     0.022 C 
HETATM   18  C7  UNL     1      -8.591   6.320  13.702  1.00  0.00    -0.068 C 
HETATM   19  C4  UNL     1      -9.797   8.197  15.605  1.00  0.00     0.084 C 
HETATM   20  C5  UNL     1     -10.616   7.376  14.637  1.00  0.00     0.149 C 
HETATM   21  O1  UNL     1     -11.846   7.378  14.668  1.00  0.00    -0.293 OA
HETATM   22  C6  UNL     1      -9.919   6.528  13.643  1.00  0.00     0.053 C 
HETATM   23  C8  UNL     1      -7.901   5.573  12.581  1.00  0.00     0.035 C 
HETATM   24  C9  UNL     1      -6.627   4.846  13.004  1.00  0.00     0.010 C 
HETATM   25  C17 UNL     1      -3.508   4.751  12.661  1.00  0.00     0.009 C 
HETATM   26  C18 UNL     1      -2.059   5.261  12.544  1.00  0.00     0.047 C 
BRANCH   7  27
HETATM   27  O2  UNL     1      -2.190   7.625  12.145  1.00  0.00    -0.381 OA
HETATM   28  H27 UNL     1      -1.470   7.461  11.503  1.00  0.00     0.211 HD
ENDBRANCH   7  27
ENDBRANCH   5   7
ENDBRANCH   4   5
ENDBRANCH   3   4
ENDBRANCH   1   3
BRANCH   1  29
HETATM   29  C23 UNL     1       2.891   7.422  11.981  1.00  0.00     0.120 C 
BRANCH  29  30
HETATM   30  C24 UNL     1       3.712   6.555  11.035  1.00  0.00     0.112 C 
BRANCH  30  31
HETATM   31  C25 UNL     1       5.203   6.719  11.268  1.00  0.00     0.217 C 
HETATM   32  O6  UNL     1       6.021   6.746  10.356  1.00  0.00    -0.274 OA
HETATM   33  N1  UNL     1       5.531   6.903  12.595  1.00  0.00    -0.361 N 
HETATM   34  H34 UNL     1       4.846   6.639  13.293  1.00  0.00     0.162 HD
BRANCH  33  35
HETATM   35  C26 UNL     1       6.919   6.959  13.013  1.00  0.00     0.122 C 
BRANCH  35  36
HETATM   36  C27 UNL     1       7.430   8.396  13.135  1.00  0.00     0.020 C 
BRANCH  36  37
HETATM   37  C28 UNL     1       6.880   9.172  14.341  1.00  0.00     0.002 C 
BRANCH  37  38
HETATM   38  C29 UNL     1       7.932   9.700  15.326  1.00  0.00     0.009 C 
BRANCH  38  39
HETATM   39  C30 UNL     1       9.372   9.317  14.984  1.00  0.00     0.103 C 
BRANCH  39  40
HETATM   40  C31 UNL     1      10.208  10.488  14.501  1.00  0.00     0.217 C 
HETATM   41  O7  UNL     1      10.322  11.545  15.112  1.00  0.00    -0.274 OA
HETATM   42  N2  UNL     1      10.810  10.251  13.283  1.00  0.00    -0.361 N 
HETATM   43  H45 UNL     1      10.855   9.298  12.945  1.00  0.00     0.162 HD
BRANCH  42  44
HETATM   44  C32 UNL     1      11.718  11.217  12.689  1.00  0.00     0.127 C 
BRANCH  44  45
HETATM   45  C33 UNL     1      13.193  10.806  12.788  1.00  0.00     0.058 C 
BRANCH  45  46
HETATM   46  C34 UNL     1      13.888  11.399  13.995  1.00  0.00    -0.054 A 
HETATM   47  C35 UNL     1      14.614  12.596  13.864  1.00  0.00     0.010 A 
HETATM   48  C36 UNL     1      15.231  13.179  14.972  1.00  0.00     0.040 A 
HETATM   49  C37 UNL     1      15.121  12.562  16.208  1.00  0.00     0.098 A 
HETATM   50  C38 UNL     1      14.413  11.371  16.353  1.00  0.00     0.099 A 
HETATM   51  C39 UNL     1      13.793  10.783  15.253  1.00  0.00     0.046 A 
BRANCH  49  52
HETATM   52  O8  UNL     1      15.716  13.139  17.293  1.00  0.00    -0.358 OA
HETATM   53  H52 UNL     1      15.517  12.532  18.034  1.00  0.00     0.217 HD
ENDBRANCH  49  52
BRANCH  50  54
HETATM   54  O9  UNL     1      14.350  10.820  17.602  1.00  0.00    -0.358 OA
HETATM   55  H53 UNL     1      13.855   9.986  17.541  1.00  0.00     0.217 HD
ENDBRANCH  50  54
ENDBRANCH  45  46
ENDBRANCH  44  45
ENDBRANCH  42  44
ENDBRANCH  39  40
ENDBRANCH  38  39
ENDBRANCH  37  38
ENDBRANCH  36  37
ENDBRANCH  35  36
ENDBRANCH  33  35
ENDBRANCH  30  31
ENDBRANCH  29  30
ENDBRANCH   1  29
TORSDOF 19
ENDMDL
MODEL 8
REMARK minimizedAffinity -9.32077217
REMARK CNNscore 0.298247635
REMARK CNNaffinity 6.9361186
REMARK  19 active torsions:
REMARK  status: ('A' for Active; 'I' for Inactive)
REMARK    1  A    between atoms: C19_20  and  O2_21 
REMARK    2  A    between atoms: C19_20  and  C20_22 
REMARK    3  A    between atoms: C20_22  and  C21_24 
REMARK    4  A    between atoms: C21_24  and  O4_25 
REMARK    5  A    between atoms: O4_25  and  C22_26 
REMARK    6  A    between atoms: C22_26  and  C23_28 
REMARK    7  A    between atoms: C23_28  and  C24_29 
REMARK    8  A    between atoms: C24_29  and  C25_30 
REMARK       I    between atoms: C25_30  and  N1_32 
REMARK    9  A    between atoms: N1_32  and  C26_33 
REMARK   10  A    between atoms: C26_33  and  C27_34 
REMARK   11  A    between atoms: C27_34  and  C28_35 
REMARK   12  A    between atoms: C28_35  and  C29_36 
REMARK   13  A    between atoms: C29_36  and  C30_37 
REMARK   14  A    between atoms: C30_37  and  C31_38 
REMARK       I    between atoms: C31_38  and  N2_40 
REMARK   15  A    between atoms: N2_40  and  C32_41 
REMARK   16  A    between atoms: C32_41  and  C33_42 
REMARK   17  A    between atoms: C33_42  and  C34_43 
REMARK   18  A    between atoms: C37_46  and  O8_47 
REMARK   19  A    between atoms: C38_48  and  O9_49 
ROOT
HETATM    1  C22 UNL     1       1.321   6.151  10.931  1.00  0.00     0.259 C 
HETATM    2  O5  UNL     1       0.685   5.155  10.612  1.00  0.00    -0.265 OA
ENDROOT
BRANCH   1   3
HETATM    3  O4  UNL     1       1.159   6.831  12.097  1.00  0.00    -0.314 OA
BRANCH   3   4
HETATM    4  C21 UNL     1       0.718   6.068  13.212  1.00  0.00     0.260 C 
BRANCH   4   5
HETATM    5  C20 UNL     1      -0.605   6.330  13.950  1.00  0.00     0.185 C 
HETATM    6  O3  UNL     1      -0.578   6.766  15.107  1.00  0.00    -0.292 OA
BRANCH   5   7
HETATM    7  C19 UNL     1      -1.935   6.168  13.170  1.00  0.00     0.128 C 
HETATM    8  C14 UNL     1      -3.211   6.212  14.073  1.00  0.00    -0.002 C 
HETATM    9  C13 UNL     1      -3.747   7.605  14.456  1.00  0.00     0.013 C 
HETATM   10  C15 UNL     1      -2.976   5.387  15.372  1.00  0.00     0.019 C 
HETATM   11  C16 UNL     1      -4.246   5.566  13.109  1.00  0.00     0.002 C 
HETATM   12  C12 UNL     1      -5.161   7.537  15.072  1.00  0.00     0.007 C 
HETATM   13  C11 UNL     1      -6.167   6.789  14.167  1.00  0.00     0.002 C 
HETATM   14  C2  UNL     1      -7.628   6.685  14.721  1.00  0.00    -0.016 C 
HETATM   15  C10 UNL     1      -5.625   5.384  13.756  1.00  0.00    -0.004 C 
HETATM   16  C1  UNL     1      -7.712   5.724  15.933  1.00  0.00     0.020 C 
HETATM   17  C3  UNL     1      -8.165   8.077  15.141  1.00  0.00     0.022 C 
HETATM   18  C7  UNL     1      -8.521   6.160  13.594  1.00  0.00    -0.068 C 
HETATM   19  C4  UNL     1      -9.647   8.068  15.513  1.00  0.00     0.084 C 
HETATM   20  C5  UNL     1     -10.497   7.308  14.523  1.00  0.00     0.149 C 
HETATM   21  O1  UNL     1     -11.726   7.375  14.540  1.00  0.00    -0.293 OA
HETATM   22  C6  UNL     1      -9.835   6.439  13.523  1.00  0.00     0.053 C 
HETATM   23  C8  UNL     1      -7.859   5.394  12.468  1.00  0.00     0.035 C 
HETATM   24  C9  UNL     1      -6.631   4.594  12.893  1.00  0.00     0.010 C 
HETATM   25  C17 UNL     1      -3.518   4.335  12.584  1.00  0.00     0.009 C 
HETATM   26  C18 UNL     1      -2.042   4.768  12.492  1.00  0.00     0.047 C 
BRANCH   7  27
HETATM   27  O2  UNL     1      -2.040   7.142  12.131  1.00  0.00    -0.381 OA
HETATM   28  H27 UNL     1      -1.323   6.950  11.495  1.00  0.00     0.211 HD
ENDBRANCH   7  27
ENDBRANCH   5   7
ENDBRANCH   4   5
ENDBRANCH   3   4
ENDBRANCH   1   3
BRANCH   1  29
HETATM   29  C23 UNL     1       2.411   6.769  10.096  1.00  0.00     0.120 C 
BRANCH  29  30
HETATM   30  C24 UNL     1       3.753   6.183  10.512  1.00  0.00     0.112 C 
BRANCH  30  31
HETATM   31  C25 UNL     1       4.809   7.258  10.691  1.00  0.00     0.217 C 
HETATM   32  O6  UNL     1       4.829   8.290  10.030  1.00  0.00    -0.274 OA
HETATM   33  N1  UNL     1       5.696   6.989  11.713  1.00  0.00    -0.361 N 
HETATM   34  H34 UNL     1       5.757   6.035  12.048  1.00  0.00     0.162 HD
BRANCH  33  35
HETATM   35  C26 UNL     1       6.838   7.851  11.949  1.00  0.00     0.122 C 
BRANCH  35  36
HETATM   36  C27 UNL     1       6.831   8.452  13.355  1.00  0.00     0.020 C 
BRANCH  36  37
HETATM   37  C28 UNL     1       7.477   7.569  14.433  1.00  0.00     0.002 C 
BRANCH  37  38
HETATM   38  C29 UNL     1       8.856   8.026  14.927  1.00  0.00     0.009 C 
BRANCH  38  39
HETATM   39  C30 UNL     1       8.969   8.182  16.444  1.00  0.00     0.103 C 
BRANCH  39  40
HETATM   40  C31 UNL     1       9.160   9.621  16.888  1.00  0.00     0.217 C 
HETATM   41  O7  UNL     1       9.818  10.447  16.266  1.00  0.00    -0.274 OA
HETATM   42  N2  UNL     1       8.535   9.900  18.085  1.00  0.00    -0.361 N 
HETATM   43  H45 UNL     1       7.839   9.250  18.428  1.00  0.00     0.162 HD
BRANCH  42  44
HETATM   44  C32 UNL     1       8.530  11.243  18.640  1.00  0.00     0.127 C 
BRANCH  44  45
HETATM   45  C33 UNL     1       7.334  11.516  19.560  1.00  0.00     0.058 C 
BRANCH  45  46
HETATM   46  C34 UNL     1       7.692  12.385  20.747  1.00  0.00    -0.054 A 
HETATM   47  C35 UNL     1       7.009  12.219  21.965  1.00  0.00     0.010 A 
HETATM   48  C36 UNL     1       7.350  12.984  23.081  1.00  0.00     0.040 A 
HETATM   49  C37 UNL     1       8.372  13.914  22.977  1.00  0.00     0.098 A 
HETATM   50  C38 UNL     1       9.053  14.096  21.775  1.00  0.00     0.099 A 
HETATM   51  C39 UNL     1       8.721  13.336  20.656  1.00  0.00     0.046 A 
BRANCH  49  52
HETATM   52  O8  UNL     1       8.712  14.653  24.073  1.00  0.00    -0.358 OA
HETATM   53  H52 UNL     1       9.433  15.235  23.762  1.00  0.00     0.217 HD
ENDBRANCH  49  52
BRANCH  50  54
HETATM   54  O9  UNL     1      10.048  15.033  21.747  1.00  0.00    -0.358 OA
HETATM   55  H53 UNL     1      10.406  15.068  20.844  1.00  0.00     0.217 HD
ENDBRANCH  50  54
ENDBRANCH  45  46
ENDBRANCH  44  45
ENDBRANCH  42  44
ENDBRANCH  39  40
ENDBRANCH  38  39
ENDBRANCH  37  38
ENDBRANCH  36  37
ENDBRANCH  35  36
ENDBRANCH  33  35
ENDBRANCH  30  31
ENDBRANCH  29  30
ENDBRANCH   1  29
TORSDOF 19
ENDMDL
MODEL 9
REMARK minimizedAffinity -9.37711048
REMARK CNNscore 0.293345332
REMARK CNNaffinity 6.63388634
REMARK  19 active torsions:
REMARK  status: ('A' for Active; 'I' for Inactive)
REMARK    1  A    between atoms: C19_20  and  O2_21 
REMARK    2  A    between atoms: C19_20  and  C20_22 
REMARK    3  A    between atoms: C20_22  and  C21_24 
REMARK    4  A    between atoms: C21_24  and  O4_25 
REMARK    5  A    between atoms: O4_25  and  C22_26 
REMARK    6  A    between atoms: C22_26  and  C23_28 
REMARK    7  A    between atoms: C23_28  and  C24_29 
REMARK    8  A    between atoms: C24_29  and  C25_30 
REMARK       I    between atoms: C25_30  and  N1_32 
REMARK    9  A    between atoms: N1_32  and  C26_33 
REMARK   10  A    between atoms: C26_33  and  C27_34 
REMARK   11  A    between atoms: C27_34  and  C28_35 
REMARK   12  A    between atoms: C28_35  and  C29_36 
REMARK   13  A    between atoms: C29_36  and  C30_37 
REMARK   14  A    between atoms: C30_37  and  C31_38 
REMARK       I    between atoms: C31_38  and  N2_40 
REMARK   15  A    between atoms: N2_40  and  C32_41 
REMARK   16  A    between atoms: C32_41  and  C33_42 
REMARK   17  A    between atoms: C33_42  and  C34_43 
REMARK   18  A    between atoms: C37_46  and  O8_47 
REMARK   19  A    between atoms: C38_48  and  O9_49 
ROOT
HETATM    1  C22 UNL     1       0.284  10.597  17.928  1.00  0.00     0.259 C 
HETATM    2  O5  UNL     1       1.088   9.746  17.574  1.00  0.00    -0.265 OA
ENDROOT
BRANCH   1   3
HETATM    3  O4  UNL     1      -0.410  11.404  17.084  1.00  0.00    -0.314 OA
BRANCH   3   4
HETATM    4  C21 UNL     1      -0.099  11.283  15.703  1.00  0.00     0.260 C 
BRANCH   4   5
HETATM    5  C20 UNL     1      -1.161  11.114  14.604  1.00  0.00     0.185 C 
HETATM    6  O3  UNL     1      -1.751  12.111  14.173  1.00  0.00    -0.292 OA
BRANCH   5   7
HETATM    7  C19 UNL     1      -1.360   9.712  13.973  1.00  0.00     0.128 C 
HETATM    8  C14 UNL     1      -2.687   9.005  14.402  1.00  0.00    -0.002 C 
HETATM    9  C13 UNL     1      -3.965   9.396  13.636  1.00  0.00     0.013 C 
HETATM   10  C15 UNL     1      -2.931   9.204  15.926  1.00  0.00     0.019 C 
HETATM   11  C16 UNL     1      -2.346   7.536  14.016  1.00  0.00     0.002 C 
HETATM   12  C12 UNL     1      -5.134   8.428  13.918  1.00  0.00     0.007 C 
HETATM   13  C11 UNL     1      -4.760   6.952  13.649  1.00  0.00     0.002 C 
HETATM   14  C2  UNL     1      -5.900   5.908  13.907  1.00  0.00    -0.016 C 
HETATM   15  C10 UNL     1      -3.455   6.550  14.405  1.00  0.00    -0.004 C 
HETATM   16  C1  UNL     1      -6.203   5.755  15.418  1.00  0.00     0.020 C 
HETATM   17  C3  UNL     1      -7.202   6.311  13.167  1.00  0.00     0.022 C 
HETATM   18  C7  UNL     1      -5.438   4.562  13.342  1.00  0.00    -0.068 C 
HETATM   19  C4  UNL     1      -8.288   5.238  13.227  1.00  0.00     0.084 C 
HETATM   20  C5  UNL     1      -7.765   3.854  12.928  1.00  0.00     0.149 C 
HETATM   21  O1  UNL     1      -8.523   2.907  12.719  1.00  0.00    -0.293 OA
HETATM   22  C6  UNL     1      -6.302   3.625  12.912  1.00  0.00     0.053 C 
HETATM   23  C8  UNL     1      -3.951   4.344  13.166  1.00  0.00     0.035 C 
HETATM   24  C9  UNL     1      -3.086   5.067  14.195  1.00  0.00     0.010 C 
HETATM   25  C17 UNL     1      -0.952   7.334  14.597  1.00  0.00     0.009 C 
HETATM   26  C18 UNL     1      -0.266   8.705  14.443  1.00  0.00     0.047 C 
BRANCH   7  27
HETATM   27  O2  UNL     1      -1.281   9.776  12.548  1.00  0.00    -0.381 OA
HETATM   28  H27 UNL     1      -0.366  10.048  12.332  1.00  0.00     0.211 HD
ENDBRANCH   7  27
ENDBRANCH   5   7
ENDBRANCH   4   5
ENDBRANCH   3   4
ENDBRANCH   1   3
BRANCH   1  29
HETATM   29  C23 UNL     1      -0.093  10.868  19.361  1.00  0.00     0.120 C 
BRANCH  29  30
HETATM   30  C24 UNL     1       1.101  11.476  20.086  1.00  0.00     0.112 C 
BRANCH  30  31
HETATM   31  C25 UNL     1       1.869  10.436  20.881  1.00  0.00     0.217 C 
HETATM   32  O6  UNL     1       1.336   9.456  21.386  1.00  0.00    -0.274 OA
HETATM   33  N1  UNL     1       3.229  10.670  20.916  1.00  0.00    -0.361 N 
HETATM   34  H34 UNL     1       3.555  11.600  20.682  1.00  0.00     0.162 HD
BRANCH  33  35
HETATM   35  C26 UNL     1       4.101   9.843  21.727  1.00  0.00     0.122 C 
BRANCH  35  36
HETATM   36  C27 UNL     1       4.640  10.591  22.947  1.00  0.00     0.020 C 
BRANCH  36  37
HETATM   37  C28 UNL     1       4.708  12.117  22.785  1.00  0.00     0.002 C 
BRANCH  37  38
HETATM   38  C29 UNL     1       6.106  12.695  22.526  1.00  0.00     0.009 C 
BRANCH  38  39
HETATM   39  C30 UNL     1       7.221  12.057  23.355  1.00  0.00     0.103 C 
BRANCH  39  40
HETATM   40  C31 UNL     1       8.611  12.346  22.816  1.00  0.00     0.217 C 
HETATM   41  O7  UNL     1       9.537  12.764  23.502  1.00  0.00    -0.274 OA
HETATM   42  N2  UNL     1       8.721  12.114  21.461  1.00  0.00    -0.361 N 
HETATM   43  H45 UNL     1       7.998  11.569  21.006  1.00  0.00     0.162 HD
BRANCH  42  44
HETATM   44  C32 UNL     1       9.991  12.251  20.771  1.00  0.00     0.127 C 
BRANCH  44  45
HETATM   45  C33 UNL     1       9.868  12.158  19.245  1.00  0.00     0.058 C 
BRANCH  45  46
HETATM   46  C34 UNL     1      11.181  12.406  18.534  1.00  0.00    -0.054 A 
HETATM   47  C35 UNL     1      11.434  13.662  17.952  1.00  0.00     0.010 A 
HETATM   48  C36 UNL     1      12.653  13.922  17.324  1.00  0.00     0.040 A 
HETATM   49  C37 UNL     1      13.616  12.927  17.279  1.00  0.00     0.098 A 
HETATM   50  C38 UNL     1      13.378  11.676  17.843  1.00  0.00     0.099 A 
HETATM   51  C39 UNL     1      12.165  11.406  18.473  1.00  0.00     0.046 A 
BRANCH  49  52
HETATM   52  O8  UNL     1      14.812  13.187  16.674  1.00  0.00    -0.358 OA
HETATM   53  H52 UNL     1      15.314  12.352  16.754  1.00  0.00     0.217 HD
ENDBRANCH  49  52
BRANCH  50  54
HETATM   54  O9  UNL     1      14.374  10.743  17.758  1.00  0.00    -0.358 OA
HETATM   55  H53 UNL     1      14.054   9.920  18.164  1.00  0.00     0.217 HD
ENDBRANCH  50  54
ENDBRANCH  45  46
ENDBRANCH  44  45
ENDBRANCH  42  44
ENDBRANCH  39  40
ENDBRANCH  38  39
ENDBRANCH  37  38
ENDBRANCH  36  37
ENDBRANCH  35  36
ENDBRANCH  33  35
ENDBRANCH  30  31
ENDBRANCH  29  30
ENDBRANCH   1  29
TORSDOF 19
ENDMDL
