MODEL 1
REMARK minimizedAffinity -9.28941917
REMARK CNNscore 0.640365183
REMARK CNNaffinity 7.62885666
REMARK  15 active torsions:
REMARK  status: ('A' for Active; 'I' for Inactive)
REMARK    1  A    between atoms: O1_2  and  C2_3 
REMARK    2  A    between atoms: C10_14  and  C11_15 
REMARK    3  A    between atoms: C11_15  and  C12_16 
REMARK    4  A    between atoms: C12_16  and  O5_17 
REMARK    5  A    between atoms: C12_16  and  C13_18 
REMARK    6  A    between atoms: C13_18  and  C14_19 
REMARK    7  A    between atoms: C15_20  and  C16_21 
REMARK    8  A    between atoms: C17_22  and  C19_24 
REMARK    9  A    between atoms: C19_24  and  C20_25 
REMARK   10  A    between atoms: C21_26  and  C22_27 
REMARK   11  A    between atoms: C23_28  and  C24_29 
REMARK   12  A    between atoms: C24_29  and  C25_30 
REMARK   13  A    between atoms: C25_30  and  O6_31 
REMARK   14  A    between atoms: C32_39  and  O8_40 
REMARK   15  A    between atoms: C33_41  and  O9_42 
ROOT
HETATM    1  C2  UNL     1      -0.767  51.750 -25.932  1.00  0.00     0.192 C 
HETATM    2  C3  UNL     1      -0.284  53.082 -25.313  1.00  0.00     0.074 C 
HETATM    3  C4  UNL     1       0.617  52.974 -24.061  1.00  0.00     0.037 C 
HETATM    4  C5  UNL     1       0.172  52.059 -22.908  1.00  0.00     0.122 C 
HETATM    5  C6  UNL     1       1.114  52.151 -21.721  1.00  0.00     0.035 C 
HETATM    6  C7  UNL     1       0.281  51.531 -20.629  1.00  0.00     0.045 C 
HETATM    7  C8  UNL     1      -1.146  51.970 -20.970  1.00  0.00     0.221 C 
HETATM    8  O2  UNL     1      -1.113  52.396 -22.349  1.00  0.00    -0.371 OA
HETATM    9  C9  UNL     1      -2.154  50.862 -20.565  1.00  0.00     0.288 C 
HETATM   10  O3  UNL     1      -1.936  50.016 -19.703  1.00  0.00    -0.262 OA
HETATM   11  O4  UNL     1      -3.327  50.953 -21.253  1.00  0.00    -0.314 OA
HETATM   12  C10 UNL     1      -4.309  49.892 -21.069  1.00  0.00     0.134 C 
HETATM   13  C26 UNL     1      -3.923  48.606 -21.853  1.00  0.00     0.033 C 
HETATM   14  C27 UNL     1      -3.832  48.699 -23.397  1.00  0.00     0.005 C 
HETATM   15  C28 UNL     1      -2.965  49.866 -23.805  1.00  0.00     0.032 C 
HETATM   16  C29 UNL     1      -2.287  49.991 -25.163  1.00  0.00     0.131 C 
HETATM   17  O7  UNL     1      -1.641  51.244 -24.940  1.00  0.00    -0.347 OA
HETATM   18  C30 UNL     1      -3.185  50.093 -26.400  1.00  0.00     0.042 C 
HETATM   19  C31 UNL     1      -3.795  48.748 -26.796  1.00  0.00     0.015 C 
HETATM   20  C32 UNL     1      -2.365  50.677 -27.573  1.00  0.00     0.158 C 
HETATM   21  C33 UNL     1      -1.650  51.984 -27.183  1.00  0.00     0.209 C 
ENDROOT
BRANCH  12  22
HETATM   22  C11 UNL     1      -5.663  50.484 -21.482  1.00  0.00     0.064 C 
BRANCH  22  23
HETATM   23  C12 UNL     1      -6.749  49.493 -21.919  1.00  0.00     0.124 C 
BRANCH  23  24
HETATM   24  O5  UNL     1      -7.673  50.240 -22.728  1.00  0.00    -0.395 OA
HETATM   25  H18 UNL     1      -8.312  49.608 -23.103  1.00  0.00     0.210 HD
ENDBRANCH  23  24
BRANCH  23  26
HETATM   26  C13 UNL     1      -7.541  48.854 -20.763  1.00  0.00     0.059 C 
BRANCH  26  27
HETATM   27  C14 UNL     1      -8.770  48.094 -21.175  1.00  0.00    -0.024 C 
HETATM   28  C15 UNL     1      -9.667  47.490 -20.379  1.00  0.00    -0.004 C 
BRANCH  28  29
HETATM   29  C16 UNL     1      -9.639  47.474 -18.933  1.00  0.00     0.002 C 
HETATM   30  C17 UNL     1     -10.702  47.547 -18.106  1.00  0.00    -0.080 C 
HETATM   31  C18 UNL     1     -10.500  47.495 -16.610  1.00  0.00     0.043 C 
BRANCH  30  32
HETATM   32  C19 UNL     1     -12.147  47.704 -18.533  1.00  0.00     0.060 C 
BRANCH  32  33
HETATM   33  C20 UNL     1     -13.079  46.983 -17.599  1.00  0.00    -0.022 C 
HETATM   34  C21 UNL     1     -14.396  47.171 -17.410  1.00  0.00    -0.004 C 
BRANCH  34  35
HETATM   35  C22 UNL     1     -15.226  48.150 -18.073  1.00  0.00    -0.004 C 
HETATM   36  C23 UNL     1     -16.287  47.899 -18.856  1.00  0.00    -0.025 C 
BRANCH  36  37
HETATM   37  C24 UNL     1     -16.883  46.573 -19.248  1.00  0.00     0.053 C 
BRANCH  37  38
HETATM   38  C25 UNL     1     -18.232  46.743 -19.952  1.00  0.00     0.168 C 
BRANCH  38  39
HETATM   39  O6  UNL     1     -19.007  47.771 -19.342  1.00  0.00    -0.401 OA
HETATM   40  H37 UNL     1     -18.485  48.591 -19.375  1.00  0.00     0.209 HD
ENDBRANCH  38  39
ENDBRANCH  37  38
ENDBRANCH  36  37
ENDBRANCH  34  35
ENDBRANCH  32  33
ENDBRANCH  30  32
ENDBRANCH  28  29
ENDBRANCH  26  27
ENDBRANCH  23  26
ENDBRANCH  22  23
ENDBRANCH  12  22
BRANCH   1  41
HETATM   41  O1  UNL     1       0.306  50.819 -26.091  1.00  0.00    -0.358 OA
HETATM   42  C1  UNL     1       1.487  51.319 -26.696  1.00  0.00     0.205 C 
ENDBRANCH   1  41
BRANCH  20  43
HETATM   43  O8  UNL     1      -3.210  50.953 -28.703  1.00  0.00    -0.392 OA
HETATM   44  H50 UNL     1      -3.992  51.436 -28.381  1.00  0.00     0.210 HD
ENDBRANCH  20  43
BRANCH  21  45
HETATM   45  O9  UNL     1      -0.945  52.512 -28.314  1.00  0.00    -0.387 OA
HETATM   46  H52 UNL     1      -1.504  52.295 -29.088  1.00  0.00     0.210 HD
ENDBRANCH  21  45
TORSDOF 15
ENDMDL
MODEL 2
REMARK minimizedAffinity -10.0827217
REMARK CNNscore 0.57817322
REMARK CNNaffinity 7.93806458
REMARK  15 active torsions:
REMARK  status: ('A' for Active; 'I' for Inactive)
REMARK    1  A    between atoms: O1_2  and  C2_3 
REMARK    2  A    between atoms: C10_14  and  C11_15 
REMARK    3  A    between atoms: C11_15  and  C12_16 
REMARK    4  A    between atoms: C12_16  and  O5_17 
REMARK    5  A    between atoms: C12_16  and  C13_18 
REMARK    6  A    between atoms: C13_18  and  C14_19 
REMARK    7  A    between atoms: C15_20  and  C16_21 
REMARK    8  A    between atoms: C17_22  and  C19_24 
REMARK    9  A    between atoms: C19_24  and  C20_25 
REMARK   10  A    between atoms: C21_26  and  C22_27 
REMARK   11  A    between atoms: C23_28  and  C24_29 
REMARK   12  A    between atoms: C24_29  and  C25_30 
REMARK   13  A    between atoms: C25_30  and  O6_31 
REMARK   14  A    between atoms: C32_39  and  O8_40 
REMARK   15  A    between atoms: C33_41  and  O9_42 
ROOT
HETATM    1  C2  UNL     1      -0.984  51.796 -25.941  1.00  0.00     0.192 C 
HETATM    2  C3  UNL     1      -0.665  53.133 -25.232  1.00  0.00     0.074 C 
HETATM    3  C4  UNL     1       0.223  53.049 -23.969  1.00  0.00     0.037 C 
HETATM    4  C5  UNL     1      -0.131  52.019 -22.884  1.00  0.00     0.122 C 
HETATM    5  C6  UNL     1       0.777  52.142 -21.673  1.00  0.00     0.035 C 
HETATM    6  C7  UNL     1       0.004  51.364 -20.640  1.00  0.00     0.045 C 
HETATM    7  C8  UNL     1      -1.458  51.659 -20.985  1.00  0.00     0.221 C 
HETATM    8  O2  UNL     1      -1.454  52.172 -22.333  1.00  0.00    -0.371 OA
HETATM    9  C9  UNL     1      -2.339  50.421 -20.670  1.00  0.00     0.288 C 
HETATM   10  O3  UNL     1      -2.038  49.553 -19.856  1.00  0.00    -0.262 OA
HETATM   11  O4  UNL     1      -3.504  50.422 -21.376  1.00  0.00    -0.314 OA
HETATM   12  C10 UNL     1      -4.361  49.247 -21.278  1.00  0.00     0.134 C 
HETATM   13  C26 UNL     1      -3.819  48.065 -22.130  1.00  0.00     0.033 C 
HETATM   14  C27 UNL     1      -3.717  48.264 -23.664  1.00  0.00     0.005 C 
HETATM   15  C28 UNL     1      -2.983  49.546 -23.981  1.00  0.00     0.032 C 
HETATM   16  C29 UNL     1      -2.304  49.832 -25.314  1.00  0.00     0.131 C 
HETATM   17  O7  UNL     1      -1.809  51.134 -25.001  1.00  0.00    -0.347 OA
HETATM   18  C30 UNL     1      -3.189  49.909 -26.561  1.00  0.00     0.042 C 
HETATM   19  C31 UNL     1      -3.636  48.531 -27.052  1.00  0.00     0.015 C 
HETATM   20  C32 UNL     1      -2.424  50.655 -27.679  1.00  0.00     0.158 C 
HETATM   21  C33 UNL     1      -1.869  52.008 -27.195  1.00  0.00     0.209 C 
ENDROOT
BRANCH  12  22
HETATM   22  C11 UNL     1      -5.768  49.707 -21.684  1.00  0.00     0.064 C 
BRANCH  22  23
HETATM   23  C12 UNL     1      -6.018  49.938 -23.180  1.00  0.00     0.124 C 
BRANCH  23  24
HETATM   24  O5  UNL     1      -6.208  51.354 -23.341  1.00  0.00    -0.395 OA
HETATM   25  H18 UNL     1      -6.262  51.535 -24.296  1.00  0.00     0.210 HD
ENDBRANCH  23  24
BRANCH  23  26
HETATM   26  C13 UNL     1      -7.262  49.226 -23.743  1.00  0.00     0.059 C 
BRANCH  26  27
HETATM   27  C14 UNL     1      -7.113  47.745 -23.945  1.00  0.00    -0.024 C 
HETATM   28  C15 UNL     1      -7.655  46.990 -24.914  1.00  0.00    -0.004 C 
BRANCH  28  29
HETATM   29  C16 UNL     1      -8.489  47.471 -25.994  1.00  0.00     0.002 C 
HETATM   30  C17 UNL     1      -8.119  47.644 -27.279  1.00  0.00    -0.080 C 
HETATM   31  C18 UNL     1      -9.125  48.137 -28.294  1.00  0.00     0.043 C 
BRANCH  30  32
HETATM   32  C19 UNL     1      -6.734  47.407 -27.843  1.00  0.00     0.060 C 
BRANCH  32  33
HETATM   33  C20 UNL     1      -6.757  46.401 -28.960  1.00  0.00    -0.022 C 
HETATM   34  C21 UNL     1      -6.513  46.587 -30.268  1.00  0.00    -0.004 C 
BRANCH  34  35
HETATM   35  C22 UNL     1      -6.181  47.838 -30.908  1.00  0.00    -0.004 C 
HETATM   36  C23 UNL     1      -5.269  48.024 -31.876  1.00  0.00    -0.025 C 
BRANCH  36  37
HETATM   37  C24 UNL     1      -4.370  47.013 -32.537  1.00  0.00     0.053 C 
BRANCH  37  38
HETATM   38  C25 UNL     1      -3.725  47.572 -33.808  1.00  0.00     0.168 C 
BRANCH  38  39
HETATM   39  O6  UNL     1      -2.430  48.101 -33.541  1.00  0.00    -0.401 OA
HETATM   40  H37 UNL     1      -1.894  47.386 -33.158  1.00  0.00     0.209 HD
ENDBRANCH  38  39
ENDBRANCH  37  38
ENDBRANCH  36  37
ENDBRANCH  34  35
ENDBRANCH  32  33
ENDBRANCH  30  32
ENDBRANCH  28  29
ENDBRANCH  26  27
ENDBRANCH  23  26
ENDBRANCH  22  23
ENDBRANCH  12  22
BRANCH   1  41
HETATM   41  O1  UNL     1       0.191  51.005 -26.133  1.00  0.00    -0.358 OA
HETATM   42  C1  UNL     1       1.265  51.630 -26.817  1.00  0.00     0.205 C 
ENDBRANCH   1  41
BRANCH  20  43
HETATM   43  O8  UNL     1      -3.279  50.905 -28.808  1.00  0.00    -0.392 OA
HETATM   44  H50 UNL     1      -4.116  51.274 -28.474  1.00  0.00     0.210 HD
ENDBRANCH  20  43
BRANCH  21  45
HETATM   45  O9  UNL     1      -1.213  52.682 -28.276  1.00  0.00    -0.387 OA
HETATM   46  H52 UNL     1      -1.732  52.453 -29.074  1.00  0.00     0.210 HD
ENDBRANCH  21  45
TORSDOF 15
ENDMDL
MODEL 3
REMARK minimizedAffinity -8.04019547
REMARK CNNscore 0.566872299
REMARK CNNaffinity 6.61237097
REMARK  15 active torsions:
REMARK  status: ('A' for Active; 'I' for Inactive)
REMARK    1  A    between atoms: O1_2  and  C2_3 
REMARK    2  A    between atoms: C10_14  and  C11_15 
REMARK    3  A    between atoms: C11_15  and  C12_16 
REMARK    4  A    between atoms: C12_16  and  O5_17 
REMARK    5  A    between atoms: C12_16  and  C13_18 
REMARK    6  A    between atoms: C13_18  and  C14_19 
REMARK    7  A    between atoms: C15_20  and  C16_21 
REMARK    8  A    between atoms: C17_22  and  C19_24 
REMARK    9  A    between atoms: C19_24  and  C20_25 
REMARK   10  A    between atoms: C21_26  and  C22_27 
REMARK   11  A    between atoms: C23_28  and  C24_29 
REMARK   12  A    between atoms: C24_29  and  C25_30 
REMARK   13  A    between atoms: C25_30  and  O6_31 
REMARK   14  A    between atoms: C32_39  and  O8_40 
REMARK   15  A    between atoms: C33_41  and  O9_42 
ROOT
HETATM    1  C2  UNL     1      -5.080  50.168 -23.902  1.00  0.00     0.192 C 
HETATM    2  C3  UNL     1      -4.978  51.693 -24.135  1.00  0.00     0.074 C 
HETATM    3  C4  UNL     1      -3.605  52.230 -24.598  1.00  0.00     0.037 C 
HETATM    4  C5  UNL     1      -2.344  51.791 -23.835  1.00  0.00     0.122 C 
HETATM    5  C6  UNL     1      -1.100  52.489 -24.354  1.00  0.00     0.035 C 
HETATM    6  C7  UNL     1      -0.124  52.232 -23.234  1.00  0.00     0.045 C 
HETATM    7  C8  UNL     1      -0.998  52.275 -21.977  1.00  0.00     0.221 C 
HETATM    8  O2  UNL     1      -2.358  52.120 -22.432  1.00  0.00    -0.371 OA
HETATM    9  C9  UNL     1      -0.455  51.278 -20.919  1.00  0.00     0.288 C 
HETATM   10  O3  UNL     1       0.707  50.888 -20.875  1.00  0.00    -0.262 OA
HETATM   11  O4  UNL     1      -1.410  50.908 -20.021  1.00  0.00    -0.314 OA
HETATM   12  C10 UNL     1      -1.072  49.870 -19.056  1.00  0.00     0.134 C 
HETATM   13  C26 UNL     1      -1.096  48.454 -19.698  1.00  0.00     0.033 C 
HETATM   14  C27 UNL     1      -2.442  47.940 -20.268  1.00  0.00     0.005 C 
HETATM   15  C28 UNL     1      -3.050  48.968 -21.192  1.00  0.00     0.032 C 
HETATM   16  C29 UNL     1      -4.089  48.647 -22.259  1.00  0.00     0.131 C 
HETATM   17  O7  UNL     1      -4.251  49.969 -22.773  1.00  0.00    -0.347 OA
HETATM   18  C30 UNL     1      -5.446  48.112 -21.794  1.00  0.00     0.042 C 
HETATM   19  C31 UNL     1      -5.385  46.643 -21.371  1.00  0.00     0.015 C 
HETATM   20  C32 UNL     1      -6.480  48.301 -22.927  1.00  0.00     0.158 C 
HETATM   21  C33 UNL     1      -6.502  49.749 -23.452  1.00  0.00     0.209 C 
ENDROOT
BRANCH  12  22
HETATM   22  C11 UNL     1      -2.052  50.033 -17.886  1.00  0.00     0.064 C 
BRANCH  22  23
HETATM   23  C12 UNL     1      -1.528  49.685 -16.487  1.00  0.00     0.124 C 
BRANCH  23  24
HETATM   24  O5  UNL     1      -1.932  48.330 -16.233  1.00  0.00    -0.395 OA
HETATM   25  H18 UNL     1      -1.519  48.054 -15.396  1.00  0.00     0.210 HD
ENDBRANCH  23  24
BRANCH  23  26
HETATM   26  C13 UNL     1      -2.085  50.566 -15.353  1.00  0.00     0.059 C 
BRANCH  26  27
HETATM   27  C14 UNL     1      -1.049  51.199 -14.469  1.00  0.00    -0.024 C 
HETATM   28  C15 UNL     1      -1.242  51.836 -13.303  1.00  0.00    -0.004 C 
BRANCH  28  29
HETATM   29  C16 UNL     1      -2.516  52.020 -12.641  1.00  0.00     0.002 C 
HETATM   30  C17 UNL     1      -2.729  52.646 -11.466  1.00  0.00    -0.080 C 
HETATM   31  C18 UNL     1      -4.133  52.771 -10.921  1.00  0.00     0.043 C 
BRANCH  30  32
HETATM   32  C19 UNL     1      -1.662  53.250 -10.577  1.00  0.00     0.060 C 
BRANCH  32  33
HETATM   33  C20 UNL     1      -1.801  54.744 -10.486  1.00  0.00    -0.022 C 
HETATM   34  C21 UNL     1      -1.062  55.619  -9.782  1.00  0.00    -0.004 C 
BRANCH  34  35
HETATM   35  C22 UNL     1       0.051  55.301  -8.919  1.00  0.00    -0.004 C 
HETATM   36  C23 UNL     1       1.347  55.255  -9.270  1.00  0.00    -0.025 C 
BRANCH  36  37
HETATM   37  C24 UNL     1       1.974  55.513 -10.614  1.00  0.00     0.053 C 
BRANCH  37  38
HETATM   38  C25 UNL     1       3.359  56.151 -10.481  1.00  0.00     0.168 C 
BRANCH  38  39
HETATM   39  O6  UNL     1       3.542  56.723  -9.189  1.00  0.00    -0.401 OA
HETATM   40  H37 UNL     1       3.415  56.015  -8.535  1.00  0.00     0.209 HD
ENDBRANCH  38  39
ENDBRANCH  37  38
ENDBRANCH  36  37
ENDBRANCH  34  35
ENDBRANCH  32  33
ENDBRANCH  30  32
ENDBRANCH  28  29
ENDBRANCH  26  27
ENDBRANCH  23  26
ENDBRANCH  22  23
ENDBRANCH  12  22
BRANCH   1  41
HETATM   41  O1  UNL     1      -4.527  49.428 -24.992  1.00  0.00    -0.358 OA
HETATM   42  C1  UNL     1      -3.159  49.665 -25.284  1.00  0.00     0.205 C 
ENDBRANCH   1  41
BRANCH  20  43
HETATM   43  O8  UNL     1      -7.805  47.974 -22.474  1.00  0.00    -0.392 OA
HETATM   44  H50 UNL     1      -7.947  48.418 -21.619  1.00  0.00     0.210 HD
ENDBRANCH  20  43
BRANCH  21  45
HETATM   45  O9  UNL     1      -7.508  49.887 -24.464  1.00  0.00    -0.387 OA
HETATM   46  H52 UNL     1      -8.237  49.298 -24.183  1.00  0.00     0.210 HD
ENDBRANCH  21  45
TORSDOF 15
ENDMDL
MODEL 4
REMARK minimizedAffinity -9.9163599
REMARK CNNscore 0.534077764
REMARK CNNaffinity 8.27465057
REMARK  15 active torsions:
REMARK  status: ('A' for Active; 'I' for Inactive)
REMARK    1  A    between atoms: O1_2  and  C2_3 
REMARK    2  A    between atoms: C10_14  and  C11_15 
REMARK    3  A    between atoms: C11_15  and  C12_16 
REMARK    4  A    between atoms: C12_16  and  O5_17 
REMARK    5  A    between atoms: C12_16  and  C13_18 
REMARK    6  A    between atoms: C13_18  and  C14_19 
REMARK    7  A    between atoms: C15_20  and  C16_21 
REMARK    8  A    between atoms: C17_22  and  C19_24 
REMARK    9  A    between atoms: C19_24  and  C20_25 
REMARK   10  A    between atoms: C21_26  and  C22_27 
REMARK   11  A    between atoms: C23_28  and  C24_29 
REMARK   12  A    between atoms: C24_29  and  C25_30 
REMARK   13  A    between atoms: C25_30  and  O6_31 
REMARK   14  A    between atoms: C32_39  and  O8_40 
REMARK   15  A    between atoms: C33_41  and  O9_42 
ROOT
HETATM    1  C2  UNL     1      -0.939  51.785 -25.950  1.00  0.00     0.192 C 
HETATM    2  C3  UNL     1      -0.570  53.133 -25.288  1.00  0.00     0.074 C 
HETATM    3  C4  UNL     1       0.343  53.064 -24.043  1.00  0.00     0.037 C 
HETATM    4  C5  UNL     1      -0.014  52.077 -22.919  1.00  0.00     0.122 C 
HETATM    5  C6  UNL     1       0.923  52.212 -21.732  1.00  0.00     0.035 C 
HETATM    6  C7  UNL     1       0.153  51.486 -20.660  1.00  0.00     0.045 C 
HETATM    7  C8  UNL     1      -1.308  51.809 -20.982  1.00  0.00     0.221 C 
HETATM    8  O2  UNL     1      -1.320  52.281 -22.346  1.00  0.00    -0.371 OA
HETATM    9  C9  UNL     1      -2.213  50.604 -20.611  1.00  0.00     0.288 C 
HETATM   10  O3  UNL     1      -1.917  49.754 -19.778  1.00  0.00    -0.262 OA
HETATM   11  O4  UNL     1      -3.393  50.615 -21.293  1.00  0.00    -0.314 OA
HETATM   12  C10 UNL     1      -4.278  49.466 -21.141  1.00  0.00     0.134 C 
HETATM   13  C26 UNL     1      -3.785  48.245 -21.968  1.00  0.00     0.033 C 
HETATM   14  C27 UNL     1      -3.711  48.396 -23.509  1.00  0.00     0.005 C 
HETATM   15  C28 UNL     1      -2.951  49.647 -23.880  1.00  0.00     0.032 C 
HETATM   16  C29 UNL     1      -2.295  49.876 -25.235  1.00  0.00     0.131 C 
HETATM   17  O7  UNL     1      -1.759  51.173 -24.973  1.00  0.00    -0.347 OA
HETATM   18  C30 UNL     1      -3.205  49.939 -26.465  1.00  0.00     0.042 C 
HETATM   19  C31 UNL     1      -3.697  48.559 -26.905  1.00  0.00     0.015 C 
HETATM   20  C32 UNL     1      -2.446  50.630 -27.621  1.00  0.00     0.158 C 
HETATM   21  C33 UNL     1      -1.846  51.982 -27.190  1.00  0.00     0.209 C 
ENDROOT
BRANCH  12  22
HETATM   22  C11 UNL     1      -5.681  49.950 -21.531  1.00  0.00     0.064 C 
BRANCH  22  23
HETATM   23  C12 UNL     1      -6.002  50.012 -23.030  1.00  0.00     0.124 C 
BRANCH  23  24
HETATM   24  O5  UNL     1      -6.209  51.400 -23.340  1.00  0.00    -0.395 OA
HETATM   25  H18 UNL     1      -6.309  51.472 -24.305  1.00  0.00     0.210 HD
ENDBRANCH  23  24
BRANCH  23  26
HETATM   26  C13 UNL     1      -7.267  49.239 -23.450  1.00  0.00     0.059 C 
BRANCH  26  27
HETATM   27  C14 UNL     1      -7.102  47.749 -23.543  1.00  0.00    -0.024 C 
HETATM   28  C15 UNL     1      -7.744  46.901 -24.362  1.00  0.00    -0.004 C 
BRANCH  28  29
HETATM   29  C16 UNL     1      -8.725  47.270 -25.361  1.00  0.00     0.002 C 
HETATM   30  C17 UNL     1      -8.500  47.467 -26.675  1.00  0.00    -0.080 C 
HETATM   31  C18 UNL     1      -9.646  47.828 -27.591  1.00  0.00     0.043 C 
BRANCH  30  32
HETATM   32  C19 UNL     1      -7.155  47.381 -27.367  1.00  0.00     0.060 C 
BRANCH  32  33
HETATM   33  C20 UNL     1      -7.159  46.344 -28.454  1.00  0.00    -0.022 C 
HETATM   34  C21 UNL     1      -6.606  46.401 -29.678  1.00  0.00    -0.004 C 
BRANCH  34  35
HETATM   35  C22 UNL     1      -5.877  47.516 -30.237  1.00  0.00    -0.004 C 
HETATM   36  C23 UNL     1      -6.377  48.486 -31.020  1.00  0.00    -0.025 C 
BRANCH  36  37
HETATM   37  C24 UNL     1      -7.787  48.670 -31.516  1.00  0.00     0.053 C 
BRANCH  37  38
HETATM   38  C25 UNL     1      -8.640  49.463 -30.523  1.00  0.00     0.168 C 
BRANCH  38  39
HETATM   39  O6  UNL     1      -8.745  50.831 -30.909  1.00  0.00    -0.401 OA
HETATM   40  H37 UNL     1      -9.129  50.854 -31.802  1.00  0.00     0.209 HD
ENDBRANCH  38  39
ENDBRANCH  37  38
ENDBRANCH  36  37
ENDBRANCH  34  35
ENDBRANCH  32  33
ENDBRANCH  30  32
ENDBRANCH  28  29
ENDBRANCH  26  27
ENDBRANCH  23  26
ENDBRANCH  22  23
ENDBRANCH  12  22
BRANCH   1  41
HETATM   41  O1  UNL     1       0.211  50.958 -26.142  1.00  0.00    -0.358 OA
HETATM   42  C1  UNL     1       1.304  51.549 -26.825  1.00  0.00     0.205 C 
ENDBRANCH   1  41
BRANCH  20  43
HETATM   43  O8  UNL     1      -3.318  50.868 -28.739  1.00  0.00    -0.392 OA
HETATM   44  H50 UNL     1      -4.137  51.270 -28.399  1.00  0.00     0.210 HD
ENDBRANCH  20  43
BRANCH  21  45
HETATM   45  O9  UNL     1      -1.196  52.606 -28.305  1.00  0.00    -0.387 OA
HETATM   46  H52 UNL     1      -1.738  52.366 -29.084  1.00  0.00     0.210 HD
ENDBRANCH  21  45
TORSDOF 15
ENDMDL
MODEL 5
REMARK minimizedAffinity -9.14537334
REMARK CNNscore 0.492867291
REMARK CNNaffinity 7.65009451
REMARK  15 active torsions:
REMARK  status: ('A' for Active; 'I' for Inactive)
REMARK    1  A    between atoms: O1_2  and  C2_3 
REMARK    2  A    between atoms: C10_14  and  C11_15 
REMARK    3  A    between atoms: C11_15  and  C12_16 
REMARK    4  A    between atoms: C12_16  and  O5_17 
REMARK    5  A    between atoms: C12_16  and  C13_18 
REMARK    6  A    between atoms: C13_18  and  C14_19 
REMARK    7  A    between atoms: C15_20  and  C16_21 
REMARK    8  A    between atoms: C17_22  and  C19_24 
REMARK    9  A    between atoms: C19_24  and  C20_25 
REMARK   10  A    between atoms: C21_26  and  C22_27 
REMARK   11  A    between atoms: C23_28  and  C24_29 
REMARK   12  A    between atoms: C24_29  and  C25_30 
REMARK   13  A    between atoms: C25_30  and  O6_31 
REMARK   14  A    between atoms: C32_39  and  O8_40 
REMARK   15  A    between atoms: C33_41  and  O9_42 
ROOT
HETATM    1  C2  UNL     1      -0.984  51.781 -25.854  1.00  0.00     0.192 C 
HETATM    2  C3  UNL     1      -0.655  53.108 -25.131  1.00  0.00     0.074 C 
HETATM    3  C4  UNL     1       0.232  53.005 -23.869  1.00  0.00     0.037 C 
HETATM    4  C5  UNL     1      -0.132  51.967 -22.794  1.00  0.00     0.122 C 
HETATM    5  C6  UNL     1       0.777  52.071 -21.582  1.00  0.00     0.035 C 
HETATM    6  C7  UNL     1      -0.003  51.289 -20.556  1.00  0.00     0.045 C 
HETATM    7  C8  UNL     1      -1.463  51.600 -20.899  1.00  0.00     0.221 C 
HETATM    8  O2  UNL     1      -1.454  52.126 -22.243  1.00  0.00    -0.371 OA
HETATM    9  C9  UNL     1      -2.354  50.367 -20.596  1.00  0.00     0.288 C 
HETATM   10  O3  UNL     1      -2.061  49.489 -19.791  1.00  0.00    -0.262 OA
HETATM   11  O4  UNL     1      -3.519  50.385 -21.304  1.00  0.00    -0.314 OA
HETATM   12  C10 UNL     1      -4.386  49.217 -21.218  1.00  0.00     0.134 C 
HETATM   13  C26 UNL     1      -3.854  48.038 -22.081  1.00  0.00     0.033 C 
HETATM   14  C27 UNL     1      -3.749  48.251 -23.612  1.00  0.00     0.005 C 
HETATM   15  C28 UNL     1      -3.003  49.529 -23.916  1.00  0.00     0.032 C 
HETATM   16  C29 UNL     1      -2.322  49.823 -25.246  1.00  0.00     0.131 C 
HETATM   17  O7  UNL     1      -1.815  51.117 -24.921  1.00  0.00    -0.347 OA
HETATM   18  C30 UNL     1      -3.205  49.919 -26.493  1.00  0.00     0.042 C 
HETATM   19  C31 UNL     1      -3.663  48.550 -26.998  1.00  0.00     0.015 C 
HETATM   20  C32 UNL     1      -2.433  50.669 -27.603  1.00  0.00     0.158 C 
HETATM   21  C33 UNL     1      -1.867  52.012 -27.106  1.00  0.00     0.209 C 
ENDROOT
BRANCH  12  22
HETATM   22  C11 UNL     1      -5.789  49.692 -21.620  1.00  0.00     0.064 C 
BRANCH  22  23
HETATM   23  C12 UNL     1      -6.012  50.019 -23.102  1.00  0.00     0.124 C 
BRANCH  23  24
HETATM   24  O5  UNL     1      -6.156  51.447 -23.180  1.00  0.00    -0.395 OA
HETATM   25  H18 UNL     1      -6.193  51.686 -24.123  1.00  0.00     0.210 HD
ENDBRANCH  23  24
BRANCH  23  26
HETATM   26  C13 UNL     1      -7.270  49.382 -23.720  1.00  0.00     0.059 C 
BRANCH  26  27
HETATM   27  C14 UNL     1      -7.023  48.150 -24.544  1.00  0.00    -0.024 C 
HETATM   28  C15 UNL     1      -7.929  47.272 -25.002  1.00  0.00    -0.004 C 
BRANCH  28  29
HETATM   29  C16 UNL     1      -9.361  47.357 -24.809  1.00  0.00     0.002 C 
HETATM   30  C17 UNL     1     -10.308  46.708 -25.517  1.00  0.00    -0.080 C 
HETATM   31  C18 UNL     1     -11.767  46.891 -25.170  1.00  0.00     0.043 C 
BRANCH  30  32
HETATM   32  C19 UNL     1     -10.059  45.785 -26.691  1.00  0.00     0.060 C 
BRANCH  32  33
HETATM   33  C20 UNL     1     -10.469  46.422 -27.990  1.00  0.00    -0.022 C 
HETATM   34  C21 UNL     1     -11.318  45.962 -28.925  1.00  0.00    -0.004 C 
BRANCH  34  35
HETATM   35  C22 UNL     1     -12.031  44.706 -28.891  1.00  0.00    -0.004 C 
HETATM   36  C23 UNL     1     -13.361  44.544 -28.802  1.00  0.00    -0.025 C 
BRANCH  36  37
HETATM   37  C24 UNL     1     -14.439  45.592 -28.715  1.00  0.00     0.053 C 
BRANCH  37  38
HETATM   38  C25 UNL     1     -15.683  45.067 -27.993  1.00  0.00     0.168 C 
BRANCH  38  39
HETATM   39  O6  UNL     1     -16.656  44.590 -28.919  1.00  0.00    -0.401 OA
HETATM   40  H37 UNL     1     -16.236  43.894 -29.452  1.00  0.00     0.209 HD
ENDBRANCH  38  39
ENDBRANCH  37  38
ENDBRANCH  36  37
ENDBRANCH  34  35
ENDBRANCH  32  33
ENDBRANCH  30  32
ENDBRANCH  28  29
ENDBRANCH  26  27
ENDBRANCH  23  26
ENDBRANCH  22  23
ENDBRANCH  12  22
BRANCH   1  41
HETATM   41  O1  UNL     1       0.184  50.982 -26.053  1.00  0.00    -0.358 OA
HETATM   42  C1  UNL     1       1.262  51.603 -26.733  1.00  0.00     0.205 C 
ENDBRANCH   1  41
BRANCH  20  43
HETATM   43  O8  UNL     1      -3.285  50.937 -28.730  1.00  0.00    -0.392 OA
HETATM   44  H50 UNL     1      -4.119  51.310 -28.394  1.00  0.00     0.210 HD
ENDBRANCH  20  43
BRANCH  21  45
HETATM   45  O9  UNL     1      -1.204  52.692 -28.180  1.00  0.00    -0.387 OA
HETATM   46  H52 UNL     1      -1.725  52.474 -28.980  1.00  0.00     0.210 HD
ENDBRANCH  21  45
TORSDOF 15
ENDMDL
MODEL 6
REMARK minimizedAffinity -9.18823433
REMARK CNNscore 0.477588117
REMARK CNNaffinity 7.68180704
REMARK  15 active torsions:
REMARK  status: ('A' for Active; 'I' for Inactive)
REMARK    1  A    between atoms: O1_2  and  C2_3 
REMARK    2  A    between atoms: C10_14  and  C11_15 
REMARK    3  A    between atoms: C11_15  and  C12_16 
REMARK    4  A    between atoms: C12_16  and  O5_17 
REMARK    5  A    between atoms: C12_16  and  C13_18 
REMARK    6  A    between atoms: C13_18  and  C14_19 
REMARK    7  A    between atoms: C15_20  and  C16_21 
REMARK    8  A    between atoms: C17_22  and  C19_24 
REMARK    9  A    between atoms: C19_24  and  C20_25 
REMARK   10  A    between atoms: C21_26  and  C22_27 
REMARK   11  A    between atoms: C23_28  and  C24_29 
REMARK   12  A    between atoms: C24_29  and  C25_30 
REMARK   13  A    between atoms: C25_30  and  O6_31 
REMARK   14  A    between atoms: C32_39  and  O8_40 
REMARK   15  A    between atoms: C33_41  and  O9_42 
ROOT
HETATM    1  C2  UNL     1      -0.817  51.743 -25.860  1.00  0.00     0.192 C 
HETATM    2  C3  UNL     1      -0.377  53.079 -25.215  1.00  0.00     0.074 C 
HETATM    3  C4  UNL     1       0.506  52.976 -23.950  1.00  0.00     0.037 C 
HETATM    4  C5  UNL     1       0.066  52.034 -22.816  1.00  0.00     0.122 C 
HETATM    5  C6  UNL     1       0.987  52.133 -21.614  1.00  0.00     0.035 C 
HETATM    6  C7  UNL     1       0.152  51.477 -20.544  1.00  0.00     0.045 C 
HETATM    7  C8  UNL     1      -1.280  51.885 -20.902  1.00  0.00     0.221 C 
HETATM    8  O2  UNL     1      -1.236  52.331 -22.274  1.00  0.00    -0.371 OA
HETATM    9  C9  UNL     1      -2.265  50.746 -20.528  1.00  0.00     0.288 C 
HETATM   10  O3  UNL     1      -2.039  49.895 -19.674  1.00  0.00    -0.262 OA
HETATM   11  O4  UNL     1      -3.429  50.818 -21.234  1.00  0.00    -0.314 OA
HETATM   12  C10 UNL     1      -4.387  49.730 -21.080  1.00  0.00     0.134 C 
HETATM   13  C26 UNL     1      -3.956  48.465 -21.875  1.00  0.00     0.033 C 
HETATM   14  C27 UNL     1      -3.843  48.581 -23.416  1.00  0.00     0.005 C 
HETATM   15  C28 UNL     1      -2.999  49.776 -23.794  1.00  0.00     0.032 C 
HETATM   16  C29 UNL     1      -2.304  49.937 -25.139  1.00  0.00     0.131 C 
HETATM   17  O7  UNL     1      -1.693  51.203 -24.889  1.00  0.00    -0.347 OA
HETATM   18  C30 UNL     1      -3.184  50.033 -26.389  1.00  0.00     0.042 C 
HETATM   19  C31 UNL     1      -3.754  48.679 -26.813  1.00  0.00     0.015 C 
HETATM   20  C32 UNL     1      -2.361  50.654 -27.541  1.00  0.00     0.158 C 
HETATM   21  C33 UNL     1      -1.685  51.973 -27.122  1.00  0.00     0.209 C 
ENDROOT
BRANCH  12  22
HETATM   22  C11 UNL     1      -5.749  50.293 -21.507  1.00  0.00     0.064 C 
BRANCH  22  23
HETATM   23  C12 UNL     1      -6.792  49.284 -22.005  1.00  0.00     0.124 C 
BRANCH  23  24
HETATM   24  O5  UNL     1      -7.628  49.995 -22.933  1.00  0.00    -0.395 OA
HETATM   25  H18 UNL     1      -8.230  49.348 -23.340  1.00  0.00     0.210 HD
ENDBRANCH  23  24
BRANCH  23  26
HETATM   26  C13 UNL     1      -7.697  48.698 -20.905  1.00  0.00     0.059 C 
BRANCH  26  27
HETATM   27  C14 UNL     1      -8.945  48.023 -21.398  1.00  0.00    -0.024 C 
HETATM   28  C15 UNL     1      -9.566  46.957 -20.869  1.00  0.00    -0.004 C 
BRANCH  28  29
HETATM   29  C16 UNL     1      -9.159  46.248 -19.675  1.00  0.00     0.002 C 
HETATM   30  C17 UNL     1      -9.493  46.553 -18.405  1.00  0.00    -0.080 C 
HETATM   31  C18 UNL     1      -8.999  45.691 -17.267  1.00  0.00     0.043 C 
BRANCH  30  32
HETATM   32  C19 UNL     1     -10.334  47.734 -17.969  1.00  0.00     0.060 C 
BRANCH  32  33
HETATM   33  C20 UNL     1     -11.503  47.300 -17.130  1.00  0.00    -0.022 C 
HETATM   34  C21 UNL     1     -12.798  47.196 -17.476  1.00  0.00    -0.004 C 
BRANCH  34  35
HETATM   35  C22 UNL     1     -13.368  47.506 -18.766  1.00  0.00    -0.004 C 
HETATM   36  C23 UNL     1     -14.505  48.182 -18.997  1.00  0.00    -0.025 C 
BRANCH  36  37
HETATM   37  C24 UNL     1     -15.467  48.782 -18.006  1.00  0.00     0.053 C 
BRANCH  37  38
HETATM   38  C25 UNL     1     -15.331  50.305 -17.933  1.00  0.00     0.168 C 
BRANCH  38  39
HETATM   39  O6  UNL     1     -16.071  50.838 -16.838  1.00  0.00    -0.401 OA
HETATM   40  H37 UNL     1     -15.742  50.414 -16.027  1.00  0.00     0.209 HD
ENDBRANCH  38  39
ENDBRANCH  37  38
ENDBRANCH  36  37
ENDBRANCH  34  35
ENDBRANCH  32  33
ENDBRANCH  30  32
ENDBRANCH  28  29
ENDBRANCH  26  27
ENDBRANCH  23  26
ENDBRANCH  22  23
ENDBRANCH  12  22
BRANCH   1  41
HETATM   41  O1  UNL     1       0.282  50.842 -26.014  1.00  0.00    -0.358 OA
HETATM   42  C1  UNL     1       1.440  51.366 -26.643  1.00  0.00     0.205 C 
ENDBRANCH   1  41
BRANCH  20  43
HETATM   43  O8  UNL     1      -3.195  50.925 -28.681  1.00  0.00    -0.392 OA
HETATM   44  H50 UNL     1      -3.994  51.383 -28.365  1.00  0.00     0.210 HD
ENDBRANCH  20  43
BRANCH  21  45
HETATM   45  O9  UNL     1      -0.976  52.534 -28.234  1.00  0.00    -0.387 OA
HETATM   46  H52 UNL     1      -1.517  52.314 -29.020  1.00  0.00     0.210 HD
ENDBRANCH  21  45
TORSDOF 15
ENDMDL
MODEL 7
REMARK minimizedAffinity -8.46702576
REMARK CNNscore 0.47262302
REMARK CNNaffinity 7.41440201
REMARK  15 active torsions:
REMARK  status: ('A' for Active; 'I' for Inactive)
REMARK    1  A    between atoms: O1_2  and  C2_3 
REMARK    2  A    between atoms: C10_14  and  C11_15 
REMARK    3  A    between atoms: C11_15  and  C12_16 
REMARK    4  A    between atoms: C12_16  and  O5_17 
REMARK    5  A    between atoms: C12_16  and  C13_18 
REMARK    6  A    between atoms: C13_18  and  C14_19 
REMARK    7  A    between atoms: C15_20  and  C16_21 
REMARK    8  A    between atoms: C17_22  and  C19_24 
REMARK    9  A    between atoms: C19_24  and  C20_25 
REMARK   10  A    between atoms: C21_26  and  C22_27 
REMARK   11  A    between atoms: C23_28  and  C24_29 
REMARK   12  A    between atoms: C24_29  and  C25_30 
REMARK   13  A    between atoms: C25_30  and  O6_31 
REMARK   14  A    between atoms: C32_39  and  O8_40 
REMARK   15  A    between atoms: C33_41  and  O9_42 
ROOT
HETATM    1  C2  UNL     1      -1.108  51.665 -25.923  1.00  0.00     0.192 C 
HETATM    2  C3  UNL     1      -0.736  53.004 -25.244  1.00  0.00     0.074 C 
HETATM    3  C4  UNL     1       0.159  52.915 -23.986  1.00  0.00     0.037 C 
HETATM    4  C5  UNL     1      -0.224  51.922 -22.876  1.00  0.00     0.122 C 
HETATM    5  C6  UNL     1       0.697  52.037 -21.675  1.00  0.00     0.035 C 
HETATM    6  C7  UNL     1      -0.096  51.310 -20.620  1.00  0.00     0.045 C 
HETATM    7  C8  UNL     1      -1.549  51.650 -20.961  1.00  0.00     0.221 C 
HETATM    8  O2  UNL     1      -1.537  52.134 -22.320  1.00  0.00    -0.371 OA
HETATM    9  C9  UNL     1      -2.471  50.451 -20.613  1.00  0.00     0.288 C 
HETATM   10  O3  UNL     1      -2.196  49.591 -19.783  1.00  0.00    -0.262 OA
HETATM   11  O4  UNL     1      -3.641  50.480 -21.312  1.00  0.00    -0.314 OA
HETATM   12  C10 UNL     1      -4.539  49.339 -21.183  1.00  0.00     0.134 C 
HETATM   13  C26 UNL     1      -4.046  48.120 -22.013  1.00  0.00     0.033 C 
HETATM   14  C27 UNL     1      -3.948  48.283 -23.551  1.00  0.00     0.005 C 
HETATM   15  C28 UNL     1      -3.171  49.530 -23.901  1.00  0.00     0.032 C 
HETATM   16  C29 UNL     1      -2.493  49.764 -25.244  1.00  0.00     0.131 C 
HETATM   17  O7  UNL     1      -1.948  51.053 -24.963  1.00  0.00    -0.347 OA
HETATM   18  C30 UNL     1      -3.384  49.846 -26.487  1.00  0.00     0.042 C 
HETATM   19  C31 UNL     1      -3.883  48.475 -26.945  1.00  0.00     0.015 C 
HETATM   20  C32 UNL     1      -2.601  50.540 -27.625  1.00  0.00     0.158 C 
HETATM   21  C33 UNL     1      -1.994  51.882 -27.174  1.00  0.00     0.209 C 
ENDROOT
BRANCH  12  22
HETATM   22  C11 UNL     1      -5.931  49.840 -21.589  1.00  0.00     0.064 C 
BRANCH  22  23
HETATM   23  C12 UNL     1      -7.062  49.647 -20.571  1.00  0.00     0.124 C 
BRANCH  23  24
HETATM   24  O5  UNL     1      -6.446  49.132 -19.379  1.00  0.00    -0.395 OA
HETATM   25  H18 UNL     1      -7.129  49.102 -18.686  1.00  0.00     0.210 HD
ENDBRANCH  23  24
BRANCH  23  26
HETATM   26  C13 UNL     1      -8.157  48.654 -21.005  1.00  0.00     0.059 C 
BRANCH  26  27
HETATM   27  C14 UNL     1      -7.676  47.259 -21.289  1.00  0.00    -0.024 C 
HETATM   28  C15 UNL     1      -8.186  46.376 -22.162  1.00  0.00    -0.004 C 
BRANCH  28  29
HETATM   29  C16 UNL     1      -9.309  46.611 -23.044  1.00  0.00     0.002 C 
HETATM   30  C17 UNL     1     -10.607  46.358 -22.779  1.00  0.00    -0.080 C 
HETATM   31  C18 UNL     1     -11.665  46.685 -23.807  1.00  0.00     0.043 C 
BRANCH  30  32
HETATM   32  C19 UNL     1     -11.146  45.732 -21.509  1.00  0.00     0.060 C 
BRANCH  32  33
HETATM   33  C20 UNL     1     -11.100  46.696 -20.357  1.00  0.00    -0.022 C 
HETATM   34  C21 UNL     1     -12.017  47.601 -19.976  1.00  0.00    -0.004 C 
BRANCH  34  35
HETATM   35  C22 UNL     1     -13.281  47.864 -20.623  1.00  0.00    -0.004 C 
HETATM   36  C23 UNL     1     -14.501  47.586 -20.137  1.00  0.00    -0.025 C 
BRANCH  36  37
HETATM   37  C24 UNL     1     -14.876  46.943 -18.829  1.00  0.00     0.053 C 
BRANCH  37  38
HETATM   38  C25 UNL     1     -14.875  47.953 -17.678  1.00  0.00     0.168 C 
BRANCH  38  39
HETATM   39  O6  UNL     1     -13.787  47.720 -16.788  1.00  0.00    -0.401 OA
HETATM   40  H37 UNL     1     -12.967  47.775 -17.307  1.00  0.00     0.209 HD
ENDBRANCH  38  39
ENDBRANCH  37  38
ENDBRANCH  36  37
ENDBRANCH  34  35
ENDBRANCH  32  33
ENDBRANCH  30  32
ENDBRANCH  28  29
ENDBRANCH  26  27
ENDBRANCH  23  26
ENDBRANCH  22  23
ENDBRANCH  12  22
BRANCH   1  41
HETATM   41  O1  UNL     1       0.037  50.828 -26.105  1.00  0.00    -0.358 OA
HETATM   42  C1  UNL     1       1.129  51.401 -26.804  1.00  0.00     0.205 C 
ENDBRANCH   1  41
BRANCH  20  43
HETATM   43  O8  UNL     1      -3.455  50.796 -28.754  1.00  0.00    -0.392 OA
HETATM   44  H50 UNL     1      -4.275  51.203 -28.423  1.00  0.00     0.210 HD
ENDBRANCH  20  43
BRANCH  21  45
HETATM   45  O9  UNL     1      -1.322  52.509 -28.274  1.00  0.00    -0.387 OA
HETATM   46  H52 UNL     1      -1.855  52.281 -29.063  1.00  0.00     0.210 HD
ENDBRANCH  21  45
TORSDOF 15
ENDMDL
MODEL 8
REMARK minimizedAffinity -9.67650604
REMARK CNNscore 0.426696718
REMARK CNNaffinity 7.87973452
REMARK  15 active torsions:
REMARK  status: ('A' for Active; 'I' for Inactive)
REMARK    1  A    between atoms: O1_2  and  C2_3 
REMARK    2  A    between atoms: C10_14  and  C11_15 
REMARK    3  A    between atoms: C11_15  and  C12_16 
REMARK    4  A    between atoms: C12_16  and  O5_17 
REMARK    5  A    between atoms: C12_16  and  C13_18 
REMARK    6  A    between atoms: C13_18  and  C14_19 
REMARK    7  A    between atoms: C15_20  and  C16_21 
REMARK    8  A    between atoms: C17_22  and  C19_24 
REMARK    9  A    between atoms: C19_24  and  C20_25 
REMARK   10  A    between atoms: C21_26  and  C22_27 
REMARK   11  A    between atoms: C23_28  and  C24_29 
REMARK   12  A    between atoms: C24_29  and  C25_30 
REMARK   13  A    between atoms: C25_30  and  O6_31 
REMARK   14  A    between atoms: C32_39  and  O8_40 
REMARK   15  A    between atoms: C33_41  and  O9_42 
ROOT
HETATM    1  C2  UNL     1      -1.020  51.690 -25.861  1.00  0.00     0.192 C 
HETATM    2  C3  UNL     1      -0.652  53.040 -25.201  1.00  0.00     0.074 C 
HETATM    3  C4  UNL     1       0.248  52.972 -23.946  1.00  0.00     0.037 C 
HETATM    4  C5  UNL     1      -0.126  51.992 -22.822  1.00  0.00     0.122 C 
HETATM    5  C6  UNL     1       0.800  52.128 -21.626  1.00  0.00     0.035 C 
HETATM    6  C7  UNL     1       0.015  51.410 -20.558  1.00  0.00     0.045 C 
HETATM    7  C8  UNL     1      -1.441  51.739 -20.898  1.00  0.00     0.221 C 
HETATM    8  O2  UNL     1      -1.437  52.205 -22.263  1.00  0.00    -0.371 OA
HETATM    9  C9  UNL     1      -2.356  50.540 -20.531  1.00  0.00     0.288 C 
HETATM   10  O3  UNL     1      -2.073  49.692 -19.690  1.00  0.00    -0.262 OA
HETATM   11  O4  UNL     1      -3.528  50.554 -21.225  1.00  0.00    -0.314 OA
HETATM   12  C10 UNL     1      -4.420  49.410 -21.077  1.00  0.00     0.134 C 
HETATM   13  C26 UNL     1      -3.925  48.183 -21.893  1.00  0.00     0.033 C 
HETATM   14  C27 UNL     1      -3.834  48.326 -23.434  1.00  0.00     0.005 C 
HETATM   15  C28 UNL     1      -3.064  49.572 -23.802  1.00  0.00     0.032 C 
HETATM   16  C29 UNL     1      -2.392  49.791 -25.152  1.00  0.00     0.131 C 
HETATM   17  O7  UNL     1      -1.853  51.087 -24.890  1.00  0.00    -0.347 OA
HETATM   18  C30 UNL     1      -3.289  49.853 -26.392  1.00  0.00     0.042 C 
HETATM   19  C31 UNL     1      -3.783  48.473 -26.830  1.00  0.00     0.015 C 
HETATM   20  C32 UNL     1      -2.514  50.535 -27.543  1.00  0.00     0.158 C 
HETATM   21  C33 UNL     1      -1.912  51.886 -27.111  1.00  0.00     0.209 C 
ENDROOT
BRANCH  12  22
HETATM   22  C11 UNL     1      -5.817  49.899 -21.484  1.00  0.00     0.064 C 
BRANCH  22  23
HETATM   23  C12 UNL     1      -6.034  50.220 -22.969  1.00  0.00     0.124 C 
BRANCH  23  24
HETATM   24  O5  UNL     1      -5.997  51.652 -23.079  1.00  0.00    -0.395 OA
HETATM   25  H18 UNL     1      -6.026  51.874 -24.026  1.00  0.00     0.210 HD
ENDBRANCH  23  24
BRANCH  23  26
HETATM   26  C13 UNL     1      -7.379  49.736 -23.542  1.00  0.00     0.059 C 
BRANCH  26  27
HETATM   27  C14 UNL     1      -7.691  48.286 -23.300  1.00  0.00    -0.024 C 
HETATM   28  C15 UNL     1      -7.534  47.260 -24.150  1.00  0.00    -0.004 C 
BRANCH  28  29
HETATM   29  C16 UNL     1      -6.996  47.346 -25.490  1.00  0.00     0.002 C 
HETATM   30  C17 UNL     1      -7.682  47.219 -26.643  1.00  0.00    -0.080 C 
HETATM   31  C18 UNL     1      -6.967  47.359 -27.967  1.00  0.00     0.043 C 
BRANCH  30  32
HETATM   32  C19 UNL     1      -9.161  46.916 -26.765  1.00  0.00     0.060 C 
BRANCH  32  33
HETATM   33  C20 UNL     1      -9.430  45.909 -27.849  1.00  0.00    -0.022 C 
HETATM   34  C21 UNL     1     -10.133  46.060 -28.985  1.00  0.00    -0.004 C 
BRANCH  34  35
HETATM   35  C22 UNL     1     -10.818  47.256 -29.416  1.00  0.00    -0.004 C 
HETATM   36  C23 UNL     1     -10.417  48.105 -30.376  1.00  0.00    -0.025 C 
BRANCH  36  37
HETATM   37  C24 UNL     1      -9.182  48.047 -31.236  1.00  0.00     0.053 C 
BRANCH  37  38
HETATM   38  C25 UNL     1      -8.205  49.178 -30.902  1.00  0.00     0.168 C 
BRANCH  38  39
HETATM   39  O6  UNL     1      -8.898  50.368 -30.536  1.00  0.00    -0.401 OA
HETATM   40  H37 UNL     1      -9.465  50.155 -29.776  1.00  0.00     0.209 HD
ENDBRANCH  38  39
ENDBRANCH  37  38
ENDBRANCH  36  37
ENDBRANCH  34  35
ENDBRANCH  32  33
ENDBRANCH  30  32
ENDBRANCH  28  29
ENDBRANCH  26  27
ENDBRANCH  23  26
ENDBRANCH  22  23
ENDBRANCH  12  22
BRANCH   1  41
HETATM   41  O1  UNL     1       0.128  50.857 -26.037  1.00  0.00    -0.358 OA
HETATM   42  C1  UNL     1       1.218  51.429 -26.741  1.00  0.00     0.205 C 
ENDBRANCH   1  41
BRANCH  20  43
HETATM   43  O8  UNL     1      -3.373  50.772 -28.671  1.00  0.00    -0.392 OA
HETATM   44  H50 UNL     1      -4.195  51.179 -28.342  1.00  0.00     0.210 HD
ENDBRANCH  20  43
BRANCH  21  45
HETATM   45  O9  UNL     1      -1.248  52.502 -28.222  1.00  0.00    -0.387 OA
HETATM   46  H52 UNL     1      -1.782  52.261 -29.006  1.00  0.00     0.210 HD
ENDBRANCH  21  45
TORSDOF 15
ENDMDL
MODEL 9
REMARK minimizedAffinity -8.03693008
REMARK CNNscore 0.419285953
REMARK CNNaffinity 7.70754433
REMARK  15 active torsions:
REMARK  status: ('A' for Active; 'I' for Inactive)
REMARK    1  A    between atoms: O1_2  and  C2_3 
REMARK    2  A    between atoms: C10_14  and  C11_15 
REMARK    3  A    between atoms: C11_15  and  C12_16 
REMARK    4  A    between atoms: C12_16  and  O5_17 
REMARK    5  A    between atoms: C12_16  and  C13_18 
REMARK    6  A    between atoms: C13_18  and  C14_19 
REMARK    7  A    between atoms: C15_20  and  C16_21 
REMARK    8  A    between atoms: C17_22  and  C19_24 
REMARK    9  A    between atoms: C19_24  and  C20_25 
REMARK   10  A    between atoms: C21_26  and  C22_27 
REMARK   11  A    between atoms: C23_28  and  C24_29 
REMARK   12  A    between atoms: C24_29  and  C25_30 
REMARK   13  A    between atoms: C25_30  and  O6_31 
REMARK   14  A    between atoms: C32_39  and  O8_40 
REMARK   15  A    between atoms: C33_41  and  O9_42 
ROOT
HETATM    1  C2  UNL     1      -0.821  51.715 -25.889  1.00  0.00     0.192 C 
HETATM    2  C3  UNL     1      -0.451  53.063 -25.227  1.00  0.00     0.074 C 
HETATM    3  C4  UNL     1       0.430  52.989 -23.958  1.00  0.00     0.037 C 
HETATM    4  C5  UNL     1       0.030  52.014 -22.838  1.00  0.00     0.122 C 
HETATM    5  C6  UNL     1       0.939  52.143 -21.629  1.00  0.00     0.035 C 
HETATM    6  C7  UNL     1       0.132  51.434 -20.571  1.00  0.00     0.045 C 
HETATM    7  C8  UNL     1      -1.316  51.776 -20.933  1.00  0.00     0.221 C 
HETATM    8  O2  UNL     1      -1.287  52.239 -22.299  1.00  0.00    -0.371 OA
HETATM    9  C9  UNL     1      -2.247  50.586 -20.578  1.00  0.00     0.288 C 
HETATM   10  O3  UNL     1      -1.984  49.737 -19.732  1.00  0.00    -0.262 OA
HETATM   11  O4  UNL     1      -3.409  50.609 -21.289  1.00  0.00    -0.314 OA
HETATM   12  C10 UNL     1      -4.313  49.474 -21.154  1.00  0.00     0.134 C 
HETATM   13  C26 UNL     1      -3.817  48.241 -21.960  1.00  0.00     0.033 C 
HETATM   14  C27 UNL     1      -3.702  48.380 -23.499  1.00  0.00     0.005 C 
HETATM   15  C28 UNL     1      -2.915  49.619 -23.858  1.00  0.00     0.032 C 
HETATM   16  C29 UNL     1      -2.222  49.830 -25.198  1.00  0.00     0.131 C 
HETATM   17  O7  UNL     1      -1.675  51.121 -24.930  1.00  0.00    -0.347 OA
HETATM   18  C30 UNL     1      -3.099  49.898 -26.451  1.00  0.00     0.042 C 
HETATM   19  C31 UNL     1      -3.599  48.522 -26.895  1.00  0.00     0.015 C 
HETATM   20  C32 UNL     1      -2.301  50.571 -27.591  1.00  0.00     0.158 C 
HETATM   21  C33 UNL     1      -1.693  51.917 -27.153  1.00  0.00     0.209 C 
ENDROOT
BRANCH  12  22
HETATM   22  C11 UNL     1      -5.699  49.975 -21.582  1.00  0.00     0.064 C 
BRANCH  22  23
HETATM   23  C12 UNL     1      -6.840  48.950 -21.575  1.00  0.00     0.124 C 
BRANCH  23  24
HETATM   24  O5  UNL     1      -7.899  49.522 -22.360  1.00  0.00    -0.395 OA
HETATM   25  H18 UNL     1      -8.591  48.844 -22.457  1.00  0.00     0.210 HD
ENDBRANCH  23  24
BRANCH  23  26
HETATM   26  C13 UNL     1      -7.406  48.627 -20.179  1.00  0.00     0.059 C 
BRANCH  26  27
HETATM   27  C14 UNL     1      -7.886  47.215 -19.997  1.00  0.00    -0.024 C 
HETATM   28  C15 UNL     1      -9.155  46.783 -19.909  1.00  0.00    -0.004 C 
BRANCH  28  29
HETATM   29  C16 UNL     1     -10.338  47.611 -20.001  1.00  0.00     0.002 C 
HETATM   30  C17 UNL     1     -11.537  47.367 -19.435  1.00  0.00    -0.080 C 
HETATM   31  C18 UNL     1     -12.670  48.352 -19.613  1.00  0.00     0.043 C 
BRANCH  30  32
HETATM   32  C19 UNL     1     -11.898  46.146 -18.616  1.00  0.00     0.060 C 
BRANCH  32  33
HETATM   33  C20 UNL     1     -11.654  46.372 -17.150  1.00  0.00    -0.022 C 
HETATM   34  C21 UNL     1     -10.713  45.832 -16.358  1.00  0.00    -0.004 C 
BRANCH  34  35
HETATM   35  C22 UNL     1      -9.709  44.872 -16.753  1.00  0.00    -0.004 C 
HETATM   36  C23 UNL     1      -8.378  45.050 -16.728  1.00  0.00    -0.025 C 
BRANCH  36  37
HETATM   37  C24 UNL     1      -7.593  46.261 -16.299  1.00  0.00     0.053 C 
BRANCH  37  38
HETATM   38  C25 UNL     1      -7.203  46.190 -14.820  1.00  0.00     0.168 C 
BRANCH  38  39
HETATM   39  O6  UNL     1      -8.039  47.027 -14.025  1.00  0.00    -0.401 OA
HETATM   40  H37 UNL     1      -8.958  46.739 -14.163  1.00  0.00     0.209 HD
ENDBRANCH  38  39
ENDBRANCH  37  38
ENDBRANCH  36  37
ENDBRANCH  34  35
ENDBRANCH  32  33
ENDBRANCH  30  32
ENDBRANCH  28  29
ENDBRANCH  26  27
ENDBRANCH  23  26
ENDBRANCH  22  23
ENDBRANCH  12  22
BRANCH   1  41
HETATM   41  O1  UNL     1       0.321  50.871 -26.047  1.00  0.00    -0.358 OA
HETATM   42  C1  UNL     1       1.439  51.443 -26.707  1.00  0.00     0.205 C 
ENDBRANCH   1  41
BRANCH  20  43
HETATM   43  O8  UNL     1      -3.141  50.814 -28.733  1.00  0.00    -0.392 OA
HETATM   44  H50 UNL     1      -3.963  51.229 -28.416  1.00  0.00     0.210 HD
ENDBRANCH  20  43
BRANCH  21  45
HETATM   45  O9  UNL     1      -1.007  52.525 -28.255  1.00  0.00    -0.387 OA
HETATM   46  H52 UNL     1      -1.532  52.288 -29.047  1.00  0.00     0.210 HD
ENDBRANCH  21  45
TORSDOF 15
ENDMDL
