MODEL 1
REMARK minimizedAffinity -7.35493469
REMARK CNNscore 0.585410357
REMARK CNNaffinity 6.56800461
REMARK  13 active torsions:
REMARK  status: ('A' for Active; 'I' for Inactive)
REMARK    1  A    between atoms: O1_2  and  C2_3 
REMARK    2  A    between atoms: C12_14  and  C13_15 
REMARK    3  A    between atoms: C13_15  and  C15_17 
REMARK    4  A    between atoms: C15_17  and  C16_18 
REMARK    5  A    between atoms: C17_19  and  C18_20 
REMARK    6  A    between atoms: C18_20  and  O3_23 
REMARK    7  A    between atoms: C29_32  and  O4_33 
REMARK    8  A    between atoms: O4_33  and  C30_34 
REMARK    9  A    between atoms: C31_36  and  C32_37 
REMARK   10  A    between atoms: C32_37  and  O6_38 
REMARK   11  A    between atoms: C33_39  and  O7_40 
REMARK   12  A    between atoms: C34_41  and  O8_42 
REMARK   13  A    between atoms: C35_43  and  O9_44 
ROOT
HETATM    1  C2  UNL     1      -7.191  45.867 -22.284  1.00  0.00     0.270 C 
HETATM    2  O2  UNL     1      -5.956  46.463 -21.829  1.00  0.00    -0.344 OA
HETATM    3  C3  UNL     1      -6.284  47.658 -21.091  1.00  0.00     0.095 C 
HETATM    4  C4  UNL     1      -6.465  47.161 -19.659  1.00  0.00     0.008 C 
HETATM    5  C5  UNL     1      -7.589  46.546 -19.259  1.00  0.00    -0.021 C 
HETATM    6  C6  UNL     1      -8.729  46.273 -20.219  1.00  0.00     0.030 C 
HETATM    7  C7  UNL     1      -8.374  46.722 -21.703  1.00  0.00     0.024 C 
HETATM    8  C8  UNL     1      -9.601  46.601 -22.644  1.00  0.00     0.016 C 
HETATM    9  C9  UNL     1     -10.955  47.062 -22.080  1.00  0.00     0.011 C 
HETATM   10  C10 UNL     1     -11.256  46.415 -20.717  1.00  0.00    -0.032 C 
HETATM   11  C11 UNL     1     -11.373  44.872 -20.933  1.00  0.00     0.016 C 
HETATM   12  C12 UNL     1     -12.514  46.899 -19.929  1.00  0.00    -0.002 C 
HETATM   13  C22 UNL     1     -12.156  46.475 -18.466  1.00  0.00     0.006 C 
HETATM   14  C23 UNL     1     -10.631  46.244 -18.405  1.00  0.00     0.011 C 
HETATM   15  C24 UNL     1     -10.103  46.841 -19.722  1.00  0.00    -0.029 C 
HETATM   16  C25 UNL     1     -10.025  48.388 -19.472  1.00  0.00     0.016 C 
HETATM   17  C26 UNL     1      -7.650  48.092 -21.679  1.00  0.00     0.039 C 
HETATM   18  C27 UNL     1      -7.564  48.787 -23.049  1.00  0.00     0.011 C 
HETATM   19  C28 UNL     1      -6.526  49.895 -23.067  1.00  0.00     0.033 C 
HETATM   20  C29 UNL     1      -5.149  49.361 -22.663  1.00  0.00     0.136 C 
HETATM   21  C36 UNL     1      -5.161  48.746 -21.226  1.00  0.00     0.014 C 
HETATM   22  C37 UNL     1      -3.760  48.140 -20.952  1.00  0.00     0.021 C 
HETATM   23  C38 UNL     1      -5.382  49.893 -20.206  1.00  0.00     0.021 C 
ENDROOT
BRANCH  20  24
HETATM   24  O4  UNL     1      -4.753  48.357 -23.610  1.00  0.00    -0.352 OA
BRANCH  24  25
HETATM   25  C30 UNL     1      -4.696  48.831 -24.961  1.00  0.00     0.292 C 
HETATM   26  O5  UNL     1      -5.496  48.027 -25.819  1.00  0.00    -0.348 OA
HETATM   27  C31 UNL     1      -5.496  48.514 -27.166  1.00  0.00     0.179 C 
HETATM   28  C33 UNL     1      -4.072  48.541 -27.756  1.00  0.00     0.180 C 
HETATM   29  C34 UNL     1      -3.068  49.222 -26.825  1.00  0.00     0.183 C 
HETATM   30  C35 UNL     1      -3.223  48.731 -25.388  1.00  0.00     0.204 C 
BRANCH  27  31
HETATM   31  C32 UNL     1      -6.405  47.595 -28.004  1.00  0.00     0.198 C 
BRANCH  31  32
HETATM   32  O6  UNL     1      -7.653  48.180 -28.341  1.00  0.00    -0.398 OA
HETATM   33  H50 UNL     1      -7.547  49.159 -28.316  1.00  0.00     0.209 HD
ENDBRANCH  31  32
ENDBRANCH  27  31
BRANCH  28  34
HETATM   34  O7  UNL     1      -4.090  49.224 -29.017  1.00  0.00    -0.390 OA
HETATM   35  H52 UNL     1      -3.823  50.144 -28.814  1.00  0.00     0.210 HD
ENDBRANCH  28  34
BRANCH  29  36
HETATM   36  O8  UNL     1      -3.279  50.646 -26.878  1.00  0.00    -0.390 OA
HETATM   37  H54 UNL     1      -2.711  51.003 -26.162  1.00  0.00     0.210 HD
ENDBRANCH  29  36
BRANCH  30  38
HETATM   38  O9  UNL     1      -2.386  49.523 -24.533  1.00  0.00    -0.388 OA
HETATM   39  H56 UNL     1      -2.619  49.243 -23.620  1.00  0.00     0.210 HD
ENDBRANCH  30  38
ENDBRANCH  24  25
ENDBRANCH  20  24
BRANCH   1  40
HETATM   40  O1  UNL     1      -7.304  44.495 -21.919  1.00  0.00    -0.365 OA
HETATM   41  C1  UNL     1      -6.062  43.945 -21.520  1.00  0.00     0.204 C 
ENDBRANCH   1  40
BRANCH  12  42
HETATM   42  C13 UNL     1     -13.937  46.420 -20.344  1.00  0.00    -0.010 C 
HETATM   43  C14 UNL     1     -14.544  47.301 -21.447  1.00  0.00     0.010 C 
BRANCH  42  44
HETATM   44  C15 UNL     1     -14.873  46.389 -19.106  1.00  0.00     0.031 C 
BRANCH  44  45
HETATM   45  C16 UNL     1     -16.292  46.784 -19.425  1.00  0.00    -0.027 C 
HETATM   46  C17 UNL     1     -17.329  45.937 -19.305  1.00  0.00     0.006 C 
BRANCH  46  47
HETATM   47  C18 UNL     1     -18.793  46.194 -19.622  1.00  0.00     0.070 C 
HETATM   48  C19 UNL     1     -19.685  45.358 -18.686  1.00  0.00     0.050 C 
HETATM   49  C20 UNL     1     -19.200  47.671 -19.468  1.00  0.00     0.050 C 
BRANCH  47  50
HETATM   50  O3  UNL     1     -19.037  45.894 -21.010  1.00  0.00    -0.382 OA
HETATM   51  C21 UNL     1     -18.656  44.607 -21.475  1.00  0.00     0.202 C 
ENDBRANCH  47  50
ENDBRANCH  46  47
ENDBRANCH  44  45
ENDBRANCH  42  44
ENDBRANCH  12  42
TORSDOF 13
ENDMDL
MODEL 2
REMARK minimizedAffinity -8.8878212
REMARK CNNscore 0.342114002
REMARK CNNaffinity 6.9344697
REMARK  13 active torsions:
REMARK  status: ('A' for Active; 'I' for Inactive)
REMARK    1  A    between atoms: O1_2  and  C2_3 
REMARK    2  A    between atoms: C12_14  and  C13_15 
REMARK    3  A    between atoms: C13_15  and  C15_17 
REMARK    4  A    between atoms: C15_17  and  C16_18 
REMARK    5  A    between atoms: C17_19  and  C18_20 
REMARK    6  A    between atoms: C18_20  and  O3_23 
REMARK    7  A    between atoms: C29_32  and  O4_33 
REMARK    8  A    between atoms: O4_33  and  C30_34 
REMARK    9  A    between atoms: C31_36  and  C32_37 
REMARK   10  A    between atoms: C32_37  and  O6_38 
REMARK   11  A    between atoms: C33_39  and  O7_40 
REMARK   12  A    between atoms: C34_41  and  O8_42 
REMARK   13  A    between atoms: C35_43  and  O9_44 
ROOT
HETATM    1  C2  UNL     1      -4.609  49.021 -22.866  1.00  0.00     0.270 C 
HETATM    2  O2  UNL     1      -3.238  48.872 -22.435  1.00  0.00    -0.344 OA
HETATM    3  C3  UNL     1      -3.248  48.475 -21.048  1.00  0.00     0.095 C 
HETATM    4  C4  UNL     1      -3.298  46.951 -21.108  1.00  0.00     0.008 C 
HETATM    5  C5  UNL     1      -4.439  46.289 -21.356  1.00  0.00    -0.021 C 
HETATM    6  C6  UNL     1      -5.738  47.020 -21.632  1.00  0.00     0.030 C 
HETATM    7  C7  UNL     1      -5.533  48.598 -21.667  1.00  0.00     0.024 C 
HETATM    8  C8  UNL     1      -6.887  49.345 -21.777  1.00  0.00     0.016 C 
HETATM    9  C9  UNL     1      -8.046  48.810 -20.919  1.00  0.00     0.011 C 
HETATM   10  C10 UNL     1      -8.249  47.298 -21.115  1.00  0.00    -0.032 C 
HETATM   11  C11 UNL     1      -8.657  47.056 -22.604  1.00  0.00     0.016 C 
HETATM   12  C12 UNL     1      -9.278  46.565 -20.197  1.00  0.00    -0.002 C 
HETATM   13  C22 UNL     1      -8.787  45.083 -20.289  1.00  0.00     0.006 C 
HETATM   14  C23 UNL     1      -7.330  45.102 -20.801  1.00  0.00     0.011 C 
HETATM   15  C24 UNL     1      -6.908  46.578 -20.688  1.00  0.00    -0.029 C 
HETATM   16  C25 UNL     1      -6.533  46.785 -19.178  1.00  0.00     0.016 C 
HETATM   17  C26 UNL     1      -4.591  49.031 -20.514  1.00  0.00     0.039 C 
HETATM   18  C27 UNL     1      -4.590  50.544 -20.233  1.00  0.00     0.011 C 
HETATM   19  C28 UNL     1      -3.394  50.972 -19.401  1.00  0.00     0.033 C 
HETATM   20  C29 UNL     1      -2.083  50.566 -20.080  1.00  0.00     0.136 C 
HETATM   21  C36 UNL     1      -1.988  49.018 -20.284  1.00  0.00     0.014 C 
HETATM   22  C37 UNL     1      -0.686  48.717 -21.069  1.00  0.00     0.021 C 
HETATM   23  C38 UNL     1      -1.861  48.349 -18.891  1.00  0.00     0.021 C 
ENDROOT
BRANCH  20  24
HETATM   24  O4  UNL     1      -2.006  51.222 -21.354  1.00  0.00    -0.352 OA
BRANCH  24  25
HETATM   25  C30 UNL     1      -1.097  52.329 -21.378  1.00  0.00     0.292 C 
HETATM   26  O5  UNL     1      -0.490  52.465 -22.656  1.00  0.00    -0.348 OA
HETATM   27  C31 UNL     1       0.383  53.598 -22.719  1.00  0.00     0.179 C 
HETATM   28  C33 UNL     1       1.518  53.494 -21.680  1.00  0.00     0.180 C 
HETATM   29  C34 UNL     1       0.998  53.157 -20.281  1.00  0.00     0.183 C 
HETATM   30  C35 UNL     1      -0.019  52.020 -20.327  1.00  0.00     0.204 C 
BRANCH  27  31
HETATM   31  C32 UNL     1       0.968  53.671 -24.143  1.00  0.00     0.198 C 
BRANCH  31  32
HETATM   32  O6  UNL     1       0.403  54.701 -24.939  1.00  0.00    -0.398 OA
HETATM   33  H50 UNL     1       0.049  55.394 -24.334  1.00  0.00     0.209 HD
ENDBRANCH  31  32
ENDBRANCH  27  31
BRANCH  28  34
HETATM   34  O7  UNL     1       2.239  54.732 -21.634  1.00  0.00    -0.390 OA
HETATM   35  H52 UNL     1       1.850  55.227 -20.884  1.00  0.00     0.210 HD
ENDBRANCH  28  34
BRANCH  29  36
HETATM   36  O8  UNL     1       0.388  54.334 -19.719  1.00  0.00    -0.390 OA
HETATM   37  H54 UNL     1      -0.045  54.014 -18.897  1.00  0.00     0.210 HD
ENDBRANCH  29  36
BRANCH  30  38
HETATM   38  O9  UNL     1      -0.601  51.864 -19.025  1.00  0.00    -0.388 OA
HETATM   39  H56 UNL     1      -1.324  51.210 -19.146  1.00  0.00     0.210 HD
ENDBRANCH  30  38
ENDBRANCH  24  25
ENDBRANCH  20  24
BRANCH   1  40
HETATM   40  O1  UNL     1      -4.899  48.274 -24.042  1.00  0.00    -0.365 OA
HETATM   41  C1  UNL     1      -3.967  48.527 -25.078  1.00  0.00     0.204 C 
ENDBRANCH   1  40
BRANCH  12  42
HETATM   42  C13 UNL     1     -10.806  46.691 -20.469  1.00  0.00    -0.010 C 
HETATM   43  C14 UNL     1     -11.131  46.666 -21.971  1.00  0.00     0.010 C 
BRANCH  42  44
HETATM   44  C15 UNL     1     -11.359  47.991 -19.822  1.00  0.00     0.031 C 
BRANCH  44  45
HETATM   45  C16 UNL     1     -12.429  47.733 -18.794  1.00  0.00    -0.027 C 
HETATM   46  C17 UNL     1     -13.737  47.932 -19.037  1.00  0.00     0.006 C 
BRANCH  46  47
HETATM   47  C18 UNL     1     -14.908  47.746 -18.086  1.00  0.00     0.070 C 
HETATM   48  C19 UNL     1     -16.187  47.445 -18.887  1.00  0.00     0.050 C 
HETATM   49  C20 UNL     1     -14.699  46.599 -17.080  1.00  0.00     0.050 C 
BRANCH  47  50
HETATM   50  O3  UNL     1     -15.047  48.924 -17.269  1.00  0.00    -0.382 OA
HETATM   51  C21 UNL     1     -15.835  49.986 -17.786  1.00  0.00     0.202 C 
ENDBRANCH  47  50
ENDBRANCH  46  47
ENDBRANCH  44  45
ENDBRANCH  42  44
ENDBRANCH  12  42
TORSDOF 13
ENDMDL
MODEL 3
REMARK minimizedAffinity -8.66747761
REMARK CNNscore 0.341241032
REMARK CNNaffinity 7.23855448
REMARK  13 active torsions:
REMARK  status: ('A' for Active; 'I' for Inactive)
REMARK    1  A    between atoms: O1_2  and  C2_3 
REMARK    2  A    between atoms: C12_14  and  C13_15 
REMARK    3  A    between atoms: C13_15  and  C15_17 
REMARK    4  A    between atoms: C15_17  and  C16_18 
REMARK    5  A    between atoms: C17_19  and  C18_20 
REMARK    6  A    between atoms: C18_20  and  O3_23 
REMARK    7  A    between atoms: C29_32  and  O4_33 
REMARK    8  A    between atoms: O4_33  and  C30_34 
REMARK    9  A    between atoms: C31_36  and  C32_37 
REMARK   10  A    between atoms: C32_37  and  O6_38 
REMARK   11  A    between atoms: C33_39  and  O7_40 
REMARK   12  A    between atoms: C34_41  and  O8_42 
REMARK   13  A    between atoms: C35_43  and  O9_44 
ROOT
HETATM    1  C2  UNL     1      -1.951  49.156 -20.806  1.00  0.00     0.270 C 
HETATM    2  O2  UNL     1      -2.360  50.417 -21.380  1.00  0.00    -0.344 OA
HETATM    3  C3  UNL     1      -3.730  50.286 -21.812  1.00  0.00     0.095 C 
HETATM    4  C4  UNL     1      -4.538  50.690 -20.581  1.00  0.00     0.008 C 
HETATM    5  C5  UNL     1      -4.729  49.849 -19.553  1.00  0.00    -0.021 C 
HETATM    6  C6  UNL     1      -4.120  48.461 -19.537  1.00  0.00     0.030 C 
HETATM    7  C7  UNL     1      -3.201  48.204 -20.810  1.00  0.00     0.024 C 
HETATM    8  C8  UNL     1      -2.720  46.731 -20.878  1.00  0.00     0.016 C 
HETATM    9  C9  UNL     1      -3.756  45.647 -20.534  1.00  0.00     0.011 C 
HETATM   10  C10 UNL     1      -4.448  45.926 -19.188  1.00  0.00    -0.032 C 
HETATM   11  C11 UNL     1      -3.362  45.867 -18.067  1.00  0.00     0.016 C 
HETATM   12  C12 UNL     1      -5.642  45.013 -18.767  1.00  0.00    -0.002 C 
HETATM   13  C22 UNL     1      -6.387  45.920 -17.733  1.00  0.00     0.006 C 
HETATM   14  C23 UNL     1      -5.920  47.373 -17.962  1.00  0.00     0.011 C 
HETATM   15  C24 UNL     1      -5.175  47.325 -19.309  1.00  0.00    -0.029 C 
HETATM   16  C25 UNL     1      -6.299  47.362 -20.402  1.00  0.00     0.016 C 
HETATM   17  C26 UNL     1      -3.890  48.769 -22.079  1.00  0.00     0.039 C 
HETATM   18  C27 UNL     1      -3.273  48.284 -23.403  1.00  0.00     0.011 C 
HETATM   19  C28 UNL     1      -3.693  49.146 -24.581  1.00  0.00     0.033 C 
HETATM   20  C29 UNL     1      -3.330  50.614 -24.341  1.00  0.00     0.136 C 
HETATM   21  C36 UNL     1      -4.028  51.185 -23.064  1.00  0.00     0.014 C 
HETATM   22  C37 UNL     1      -3.519  52.633 -22.846  1.00  0.00     0.021 C 
HETATM   23  C38 UNL     1      -5.553  51.261 -23.334  1.00  0.00     0.021 C 
ENDROOT
BRANCH  20  24
HETATM   24  O4  UNL     1      -1.906  50.714 -24.193  1.00  0.00    -0.352 OA
BRANCH  24  25
HETATM   25  C30 UNL     1      -1.214  50.951 -25.426  1.00  0.00     0.292 C 
HETATM   26  O5  UNL     1       0.193  50.951 -25.230  1.00  0.00    -0.348 OA
HETATM   27  C31 UNL     1       0.907  51.134 -26.459  1.00  0.00     0.179 C 
HETATM   28  C33 UNL     1       0.536  52.469 -27.134  1.00  0.00     0.180 C 
HETATM   29  C34 UNL     1      -0.977  52.673 -27.230  1.00  0.00     0.183 C 
HETATM   30  C35 UNL     1      -1.667  52.337 -25.911  1.00  0.00     0.204 C 
BRANCH  27  31
HETATM   31  C32 UNL     1       2.415  51.095 -26.144  1.00  0.00     0.198 C 
BRANCH  31  32
HETATM   32  O6  UNL     1       3.239  51.341 -27.273  1.00  0.00    -0.398 OA
HETATM   33  H50 UNL     1       2.714  51.858 -27.927  1.00  0.00     0.209 HD
ENDBRANCH  31  32
ENDBRANCH  27  31
BRANCH  28  34
HETATM   34  O7  UNL     1       1.107  52.515 -28.448  1.00  0.00    -0.390 OA
HETATM   35  H52 UNL     1       0.390  52.227 -29.049  1.00  0.00     0.210 HD
ENDBRANCH  28  34
BRANCH  29  36
HETATM   36  O8  UNL     1      -1.492  51.828 -28.277  1.00  0.00    -0.390 OA
HETATM   37  H54 UNL     1      -2.467  51.898 -28.189  1.00  0.00     0.210 HD
ENDBRANCH  29  36
BRANCH  30  38
HETATM   38  O9  UNL     1      -3.088  52.374 -26.106  1.00  0.00    -0.388 OA
HETATM   39  H56 UNL     1      -3.469  52.035 -25.267  1.00  0.00     0.210 HD
ENDBRANCH  30  38
ENDBRANCH  24  25
ENDBRANCH  20  24
BRANCH   1  40
HETATM   40  O1  UNL     1      -1.403  49.300 -19.500  1.00  0.00    -0.365 OA
HETATM   41  C1  UNL     1      -0.835  50.581 -19.297  1.00  0.00     0.204 C 
ENDBRANCH   1  40
BRANCH  12  42
HETATM   42  C13 UNL     1      -5.381  43.583 -18.208  1.00  0.00    -0.010 C 
HETATM   43  C14 UNL     1      -4.700  43.616 -16.830  1.00  0.00     0.010 C 
BRANCH  42  44
HETATM   44  C15 UNL     1      -4.523  42.765 -19.211  1.00  0.00     0.031 C 
BRANCH  44  45
HETATM   45  C16 UNL     1      -3.632  41.751 -18.540  1.00  0.00    -0.027 C 
HETATM   46  C17 UNL     1      -2.326  41.971 -18.307  1.00  0.00     0.006 C 
BRANCH  46  47
HETATM   47  C18 UNL     1      -1.315  41.029 -17.675  1.00  0.00     0.070 C 
HETATM   48  C19 UNL     1      -0.799  41.627 -16.354  1.00  0.00     0.050 C 
HETATM   49  C20 UNL     1      -1.889  39.633 -17.369  1.00  0.00     0.050 C 
BRANCH  47  50
HETATM   50  O3  UNL     1      -0.246  40.784 -18.610  1.00  0.00    -0.382 OA
HETATM   51  C21 UNL     1       1.046  41.263 -18.263  1.00  0.00     0.202 C 
ENDBRANCH  47  50
ENDBRANCH  46  47
ENDBRANCH  44  45
ENDBRANCH  42  44
ENDBRANCH  12  42
TORSDOF 13
ENDMDL
MODEL 4
REMARK minimizedAffinity -8.93289661
REMARK CNNscore 0.330658793
REMARK CNNaffinity 7.260221
REMARK  13 active torsions:
REMARK  status: ('A' for Active; 'I' for Inactive)
REMARK    1  A    between atoms: O1_2  and  C2_3 
REMARK    2  A    between atoms: C12_14  and  C13_15 
REMARK    3  A    between atoms: C13_15  and  C15_17 
REMARK    4  A    between atoms: C15_17  and  C16_18 
REMARK    5  A    between atoms: C17_19  and  C18_20 
REMARK    6  A    between atoms: C18_20  and  O3_23 
REMARK    7  A    between atoms: C29_32  and  O4_33 
REMARK    8  A    between atoms: O4_33  and  C30_34 
REMARK    9  A    between atoms: C31_36  and  C32_37 
REMARK   10  A    between atoms: C32_37  and  O6_38 
REMARK   11  A    between atoms: C33_39  and  O7_40 
REMARK   12  A    between atoms: C34_41  and  O8_42 
REMARK   13  A    between atoms: C35_43  and  O9_44 
ROOT
HETATM    1  C2  UNL     1      -5.356  48.570 -20.940  1.00  0.00     0.270 C 
HETATM    2  O2  UNL     1      -5.968  47.790 -19.890  1.00  0.00    -0.344 OA
HETATM    3  C3  UNL     1      -4.926  47.355 -18.993  1.00  0.00     0.095 C 
HETATM    4  C4  UNL     1      -4.833  48.487 -17.972  1.00  0.00     0.008 C 
HETATM    5  C5  UNL     1      -4.190  49.633 -18.243  1.00  0.00    -0.021 C 
HETATM    6  C6  UNL     1      -3.553  49.887 -19.594  1.00  0.00     0.030 C 
HETATM    7  C7  UNL     1      -3.825  48.693 -20.610  1.00  0.00     0.024 C 
HETATM    8  C8  UNL     1      -3.031  48.877 -21.929  1.00  0.00     0.016 C 
HETATM    9  C9  UNL     1      -1.579  49.370 -21.803  1.00  0.00     0.011 C 
HETATM   10  C10 UNL     1      -1.481  50.637 -20.935  1.00  0.00    -0.032 C 
HETATM   11  C11 UNL     1      -2.270  51.776 -21.656  1.00  0.00     0.016 C 
HETATM   12  C12 UNL     1      -0.062  51.175 -20.570  1.00  0.00    -0.002 C 
HETATM   13  C22 UNL     1      -0.364  52.031 -19.296  1.00  0.00     0.006 C 
HETATM   14  C23 UNL     1      -1.732  51.580 -18.742  1.00  0.00     0.011 C 
HETATM   15  C24 UNL     1      -2.038  50.275 -19.500  1.00  0.00    -0.029 C 
HETATM   16  C25 UNL     1      -1.209  49.166 -18.762  1.00  0.00     0.016 C 
HETATM   17  C26 UNL     1      -3.658  47.335 -19.882  1.00  0.00     0.039 C 
HETATM   18  C27 UNL     1      -3.555  46.122 -20.821  1.00  0.00     0.011 C 
HETATM   19  C28 UNL     1      -3.796  44.810 -20.094  1.00  0.00     0.033 C 
HETATM   20  C29 UNL     1      -5.158  44.816 -19.394  1.00  0.00     0.136 C 
HETATM   21  C36 UNL     1      -5.267  45.968 -18.342  1.00  0.00     0.014 C 
HETATM   22  C37 UNL     1      -6.707  45.959 -17.768  1.00  0.00     0.021 C 
HETATM   23  C38 UNL     1      -4.295  45.656 -17.174  1.00  0.00     0.021 C 
ENDROOT
BRANCH  20  24
HETATM   24  O4  UNL     1      -6.181  44.976 -20.387  1.00  0.00    -0.352 OA
BRANCH  24  25
HETATM   25  C30 UNL     1      -6.319  43.848 -21.259  1.00  0.00     0.292 C 
HETATM   26  O5  UNL     1      -7.037  44.195 -22.435  1.00  0.00    -0.348 OA
HETATM   27  C31 UNL     1      -7.141  43.096 -23.347  1.00  0.00     0.179 C 
HETATM   28  C33 UNL     1      -7.866  41.897 -22.703  1.00  0.00     0.180 C 
HETATM   29  C34 UNL     1      -7.300  41.543 -21.327  1.00  0.00     0.183 C 
HETATM   30  C35 UNL     1      -7.108  42.791 -20.469  1.00  0.00     0.204 C 
BRANCH  27  31
HETATM   31  C32 UNL     1      -7.909  43.579 -24.592  1.00  0.00     0.198 C 
BRANCH  31  32
HETATM   32  O6  UNL     1      -7.548  42.899 -25.784  1.00  0.00    -0.398 OA
HETATM   33  H50 UNL     1      -7.183  42.019 -25.534  1.00  0.00     0.209 HD
ENDBRANCH  31  32
ENDBRANCH  27  31
BRANCH  28  34
HETATM   34  O7  UNL     1      -7.764  40.757 -23.567  1.00  0.00    -0.390 OA
HETATM   35  H52 UNL     1      -7.005  40.243 -23.224  1.00  0.00     0.210 HD
ENDBRANCH  28  34
BRANCH  29  36
HETATM   36  O8  UNL     1      -6.036  40.875 -21.505  1.00  0.00    -0.390 OA
HETATM   37  H54 UNL     1      -5.667  40.808 -20.597  1.00  0.00     0.210 HD
ENDBRANCH  29  36
BRANCH  30  38
HETATM   38  O9  UNL     1      -6.415  42.426 -19.267  1.00  0.00    -0.388 OA
HETATM   39  H56 UNL     1      -6.216  43.278 -18.820  1.00  0.00     0.210 HD
ENDBRANCH  30  38
ENDBRANCH  24  25
ENDBRANCH  20  24
BRANCH   1  40
HETATM   40  O1  UNL     1      -5.964  49.847 -21.101  1.00  0.00    -0.365 OA
HETATM   41  C1  UNL     1      -6.717  49.932 -22.297  1.00  0.00     0.204 C 
ENDBRANCH   1  40
BRANCH  12  42
HETATM   42  C13 UNL     1       0.776  51.965 -21.619  1.00  0.00    -0.010 C 
HETATM   43  C14 UNL     1       1.544  53.134 -20.984  1.00  0.00     0.010 C 
BRANCH  42  44
HETATM   44  C15 UNL     1      -0.144  52.483 -22.758  1.00  0.00     0.031 C 
BRANCH  44  45
HETATM   45  C16 UNL     1       0.540  52.526 -24.100  1.00  0.00    -0.027 C 
HETATM   46  C17 UNL     1      -0.135  52.497 -25.263  1.00  0.00     0.006 C 
BRANCH  46  47
HETATM   47  C18 UNL     1       0.427  52.501 -26.675  1.00  0.00     0.070 C 
HETATM   48  C19 UNL     1       0.045  51.194 -27.392  1.00  0.00     0.050 C 
HETATM   49  C20 UNL     1      -0.081  53.676 -27.530  1.00  0.00     0.050 C 
BRANCH  47  50
HETATM   50  O3  UNL     1       1.855  52.688 -26.616  1.00  0.00    -0.382 OA
HETATM   51  C21 UNL     1       2.671  51.632 -27.104  1.00  0.00     0.202 C 
ENDBRANCH  47  50
ENDBRANCH  46  47
ENDBRANCH  44  45
ENDBRANCH  42  44
ENDBRANCH  12  42
TORSDOF 13
ENDMDL
MODEL 5
REMARK minimizedAffinity -8.48883343
REMARK CNNscore 0.31145072
REMARK CNNaffinity 6.68619585
REMARK  13 active torsions:
REMARK  status: ('A' for Active; 'I' for Inactive)
REMARK    1  A    between atoms: O1_2  and  C2_3 
REMARK    2  A    between atoms: C12_14  and  C13_15 
REMARK    3  A    between atoms: C13_15  and  C15_17 
REMARK    4  A    between atoms: C15_17  and  C16_18 
REMARK    5  A    between atoms: C17_19  and  C18_20 
REMARK    6  A    between atoms: C18_20  and  O3_23 
REMARK    7  A    between atoms: C29_32  and  O4_33 
REMARK    8  A    between atoms: O4_33  and  C30_34 
REMARK    9  A    between atoms: C31_36  and  C32_37 
REMARK   10  A    between atoms: C32_37  and  O6_38 
REMARK   11  A    between atoms: C33_39  and  O7_40 
REMARK   12  A    between atoms: C34_41  and  O8_42 
REMARK   13  A    between atoms: C35_43  and  O9_44 
ROOT
HETATM    1  C2  UNL     1      -4.368  47.106 -21.146  1.00  0.00     0.270 C 
HETATM    2  O2  UNL     1      -4.484  47.335 -22.567  1.00  0.00    -0.344 OA
HETATM    3  C3  UNL     1      -4.299  48.746 -22.807  1.00  0.00     0.095 C 
HETATM    4  C4  UNL     1      -2.791  48.886 -23.000  1.00  0.00     0.008 C 
HETATM    5  C5  UNL     1      -1.943  48.901 -21.961  1.00  0.00    -0.021 C 
HETATM    6  C6  UNL     1      -2.430  48.740 -20.535  1.00  0.00     0.030 C 
HETATM    7  C7  UNL     1      -3.998  48.476 -20.471  1.00  0.00     0.024 C 
HETATM    8  C8  UNL     1      -4.518  48.484 -19.011  1.00  0.00     0.016 C 
HETATM    9  C9  UNL     1      -3.954  49.570 -18.079  1.00  0.00     0.011 C 
HETATM   10  C10 UNL     1      -2.416  49.599 -18.103  1.00  0.00    -0.032 C 
HETATM   11  C11 UNL     1      -1.900  48.233 -17.547  1.00  0.00     0.016 C 
HETATM   12  C12 UNL     1      -1.685  50.748 -17.340  1.00  0.00    -0.002 C 
HETATM   13  C22 UNL     1      -0.292  50.769 -18.051  1.00  0.00     0.006 C 
HETATM   14  C23 UNL     1      -0.446  50.039 -19.403  1.00  0.00     0.011 C 
HETATM   15  C24 UNL     1      -1.968  49.901 -19.589  1.00  0.00    -0.029 C 
HETATM   16  C25 UNL     1      -2.447  51.296 -20.122  1.00  0.00     0.016 C 
HETATM   17  C26 UNL     1      -4.728  49.407 -21.474  1.00  0.00     0.039 C 
HETATM   18  C27 UNL     1      -6.250  49.493 -21.263  1.00  0.00     0.011 C 
HETATM   19  C28 UNL     1      -6.965  50.069 -22.473  1.00  0.00     0.033 C 
HETATM   20  C29 UNL     1      -6.656  49.253 -23.731  1.00  0.00     0.136 C 
HETATM   21  C36 UNL     1      -5.125  49.232 -24.050  1.00  0.00     0.014 C 
HETATM   22  C37 UNL     1      -4.902  48.299 -25.269  1.00  0.00     0.021 C 
HETATM   23  C38 UNL     1      -4.695  50.661 -24.470  1.00  0.00     0.021 C 
ENDROOT
BRANCH  20  24
HETATM   24  O4  UNL     1      -7.121  47.910 -23.529  1.00  0.00    -0.352 OA
BRANCH  24  25
HETATM   25  C30 UNL     1      -8.153  47.515 -24.440  1.00  0.00     0.292 C 
HETATM   26  O5  UNL     1      -7.763  46.374 -25.192  1.00  0.00    -0.348 OA
HETATM   27  C31 UNL     1      -8.800  45.928 -26.072  1.00  0.00     0.179 C 
HETATM   28  C33 UNL     1      -9.197  47.028 -27.078  1.00  0.00     0.180 C 
HETATM   29  C34 UNL     1      -9.460  48.372 -26.398  1.00  0.00     0.183 C 
HETATM   30  C35 UNL     1      -8.367  48.706 -25.388  1.00  0.00     0.204 C 
BRANCH  27  31
HETATM   31  C32 UNL     1      -8.290  44.681 -26.818  1.00  0.00     0.198 C 
BRANCH  31  32
HETATM   32  O6  UNL     1      -7.917  44.935 -28.164  1.00  0.00    -0.398 OA
HETATM   33  H50 UNL     1      -7.690  45.890 -28.243  1.00  0.00     0.209 HD
ENDBRANCH  31  32
ENDBRANCH  27  31
BRANCH  28  34
HETATM   34  O7  UNL     1     -10.369  46.619 -27.795  1.00  0.00    -0.390 OA
HETATM   35  H52 UNL     1     -11.117  47.041 -27.325  1.00  0.00     0.210 HD
ENDBRANCH  28  34
BRANCH  29  36
HETATM   36  O8  UNL     1     -10.736  48.311 -25.733  1.00  0.00    -0.390 OA
HETATM   37  H54 UNL     1     -10.775  49.139 -25.206  1.00  0.00     0.210 HD
ENDBRANCH  29  36
BRANCH  30  38
HETATM   38  O9  UNL     1      -8.751  49.880 -24.658  1.00  0.00    -0.388 OA
HETATM   39  H56 UNL     1      -8.075  49.972 -23.951  1.00  0.00     0.210 HD
ENDBRANCH  30  38
ENDBRANCH  24  25
ENDBRANCH  20  24
BRANCH   1  40
HETATM   40  O1  UNL     1      -3.422  46.091 -20.829  1.00  0.00    -0.365 OA
HETATM   41  C1  UNL     1      -4.011  45.013 -20.124  1.00  0.00     0.204 C 
ENDBRANCH   1  40
BRANCH  12  42
HETATM   42  C13 UNL     1      -1.549  50.703 -15.789  1.00  0.00    -0.010 C 
HETATM   43  C14 UNL     1      -0.952  49.373 -15.301  1.00  0.00     0.010 C 
BRANCH  42  44
HETATM   44  C15 UNL     1      -2.929  50.948 -15.122  1.00  0.00     0.031 C 
BRANCH  44  45
HETATM   45  C16 UNL     1      -2.838  51.736 -13.841  1.00  0.00    -0.027 C 
HETATM   46  C17 UNL     1      -3.202  51.232 -12.649  1.00  0.00     0.006 C 
BRANCH  46  47
HETATM   47  C18 UNL     1      -3.192  51.923 -11.295  1.00  0.00     0.070 C 
HETATM   48  C19 UNL     1      -4.013  53.223 -11.367  1.00  0.00     0.050 C 
HETATM   49  C20 UNL     1      -3.777  51.056 -10.164  1.00  0.00     0.050 C 
BRANCH  47  50
HETATM   50  O3  UNL     1      -1.829  52.166 -10.897  1.00  0.00    -0.382 OA
HETATM   51  C21 UNL     1      -1.417  53.520 -10.776  1.00  0.00     0.202 C 
ENDBRANCH  47  50
ENDBRANCH  46  47
ENDBRANCH  44  45
ENDBRANCH  42  44
ENDBRANCH  12  42
TORSDOF 13
ENDMDL
MODEL 6
REMARK minimizedAffinity -7.44740438
REMARK CNNscore 0.281880587
REMARK CNNaffinity 6.24533606
REMARK  13 active torsions:
REMARK  status: ('A' for Active; 'I' for Inactive)
REMARK    1  A    between atoms: O1_2  and  C2_3 
REMARK    2  A    between atoms: C12_14  and  C13_15 
REMARK    3  A    between atoms: C13_15  and  C15_17 
REMARK    4  A    between atoms: C15_17  and  C16_18 
REMARK    5  A    between atoms: C17_19  and  C18_20 
REMARK    6  A    between atoms: C18_20  and  O3_23 
REMARK    7  A    between atoms: C29_32  and  O4_33 
REMARK    8  A    between atoms: O4_33  and  C30_34 
REMARK    9  A    between atoms: C31_36  and  C32_37 
REMARK   10  A    between atoms: C32_37  and  O6_38 
REMARK   11  A    between atoms: C33_39  and  O7_40 
REMARK   12  A    between atoms: C34_41  and  O8_42 
REMARK   13  A    between atoms: C35_43  and  O9_44 
ROOT
HETATM    1  C2  UNL     1       3.319  55.389  -8.874  1.00  0.00     0.270 C 
HETATM    2  O2  UNL     1       2.031  56.032  -8.756  1.00  0.00    -0.344 OA
HETATM    3  C3  UNL     1       1.791  56.295  -7.358  1.00  0.00     0.095 C 
HETATM    4  C4  UNL     1       2.399  57.678  -7.140  1.00  0.00     0.008 C 
HETATM    5  C5  UNL     1       3.721  57.856  -6.997  1.00  0.00    -0.021 C 
HETATM    6  C6  UNL     1       4.693  56.696  -7.084  1.00  0.00     0.030 C 
HETATM    7  C7  UNL     1       3.955  55.331  -7.438  1.00  0.00     0.024 C 
HETATM    8  C8  UNL     1       4.923  54.123  -7.356  1.00  0.00     0.016 C 
HETATM    9  C9  UNL     1       5.905  54.099  -6.173  1.00  0.00     0.011 C 
HETATM   10  C10 UNL     1       6.683  55.421  -6.051  1.00  0.00    -0.032 C 
HETATM   11  C11 UNL     1       7.552  55.589  -7.339  1.00  0.00     0.016 C 
HETATM   12  C12 UNL     1       7.602  55.626  -4.806  1.00  0.00    -0.002 C 
HETATM   13  C22 UNL     1       7.722  57.185  -4.752  1.00  0.00     0.006 C 
HETATM   14  C23 UNL     1       6.563  57.773  -5.585  1.00  0.00     0.011 C 
HETATM   15  C24 UNL     1       5.626  56.576  -5.830  1.00  0.00    -0.029 C 
HETATM   16  C25 UNL     1       4.793  56.428  -4.510  1.00  0.00     0.016 C 
HETATM   17  C26 UNL     1       2.637  55.221  -6.629  1.00  0.00     0.039 C 
HETATM   18  C27 UNL     1       2.015  53.815  -6.622  1.00  0.00     0.011 C 
HETATM   19  C28 UNL     1       0.562  53.831  -6.180  1.00  0.00     0.033 C 
HETATM   20  C29 UNL     1      -0.268  54.765  -7.065  1.00  0.00     0.136 C 
HETATM   21  C36 UNL     1       0.260  56.236  -7.015  1.00  0.00     0.014 C 
HETATM   22  C37 UNL     1      -0.570  57.078  -8.018  1.00  0.00     0.021 C 
HETATM   23  C38 UNL     1      -0.007  56.802  -5.596  1.00  0.00     0.021 C 
ENDROOT
BRANCH  20  24
HETATM   24  O4  UNL     1      -0.212  54.283  -8.416  1.00  0.00    -0.352 OA
BRANCH  24  25
HETATM   25  C30 UNL     1      -1.435  53.685  -8.865  1.00  0.00     0.292 C 
HETATM   26  O5  UNL     1      -1.436  52.284  -8.627  1.00  0.00    -0.348 OA
HETATM   27  C31 UNL     1      -2.670  51.673  -9.019  1.00  0.00     0.179 C 
HETATM   28  C33 UNL     1      -2.953  51.885 -10.520  1.00  0.00     0.180 C 
HETATM   29  C34 UNL     1      -2.793  53.346 -10.942  1.00  0.00     0.183 C 
HETATM   30  C35 UNL     1      -1.511  53.951 -10.377  1.00  0.00     0.204 C 
BRANCH  27  31
HETATM   31  C32 UNL     1      -2.580  50.168  -8.700  1.00  0.00     0.198 C 
BRANCH  31  32
HETATM   32  O6  UNL     1      -2.608  49.878  -7.311  1.00  0.00    -0.398 OA
HETATM   33  H50 UNL     1      -3.059  50.624  -6.852  1.00  0.00     0.209 HD
ENDBRANCH  31  32
ENDBRANCH  27  31
BRANCH  28  34
HETATM   34  O7  UNL     1      -4.283  51.445 -10.823  1.00  0.00    -0.390 OA
HETATM   35  H52 UNL     1      -4.833  52.254 -10.796  1.00  0.00     0.210 HD
ENDBRANCH  28  34
BRANCH  29  36
HETATM   36  O8  UNL     1      -3.932  54.091 -10.470  1.00  0.00    -0.390 OA
HETATM   37  H54 UNL     1      -3.699  55.029 -10.645  1.00  0.00     0.210 HD
ENDBRANCH  29  36
BRANCH  30  38
HETATM   38  O9  UNL     1      -1.499  55.358 -10.652  1.00  0.00    -0.388 OA
HETATM   39  H56 UNL     1      -0.720  55.706 -10.165  1.00  0.00     0.210 HD
ENDBRANCH  30  38
ENDBRANCH  24  25
ENDBRANCH  20  24
BRANCH   1  40
HETATM   40  O1  UNL     1       4.176  56.044  -9.803  1.00  0.00    -0.365 OA
HETATM   41  C1  UNL     1       4.231  55.368 -11.046  1.00  0.00     0.204 C 
ENDBRANCH   1  40
BRANCH  12  42
HETATM   42  C13 UNL     1       8.994  54.930  -4.731  1.00  0.00    -0.010 C 
HETATM   43  C14 UNL     1       9.078  53.931  -3.566  1.00  0.00     0.010 C 
BRANCH  42  44
HETATM   44  C15 UNL     1      10.118  55.994  -4.607  1.00  0.00     0.031 C 
BRANCH  44  45
HETATM   45  C16 UNL     1      11.491  55.444  -4.896  1.00  0.00    -0.027 C 
HETATM   46  C17 UNL     1      11.758  54.126  -4.914  1.00  0.00     0.006 C 
BRANCH  46  47
HETATM   47  C18 UNL     1      13.094  53.443  -5.157  1.00  0.00     0.070 C 
HETATM   48  C19 UNL     1      12.864  51.966  -5.527  1.00  0.00     0.050 C 
HETATM   49  C20 UNL     1      13.914  54.091  -6.287  1.00  0.00     0.050 C 
BRANCH  47  50
HETATM   50  O3  UNL     1      13.918  53.584  -3.984  1.00  0.00    -0.382 OA
HETATM   51  C21 UNL     1      14.475  52.399  -3.433  1.00  0.00     0.202 C 
ENDBRANCH  47  50
ENDBRANCH  46  47
ENDBRANCH  44  45
ENDBRANCH  42  44
ENDBRANCH  12  42
TORSDOF 13
ENDMDL
MODEL 7
REMARK minimizedAffinity -8.33699322
REMARK CNNscore 0.265196383
REMARK CNNaffinity 6.48888445
REMARK  13 active torsions:
REMARK  status: ('A' for Active; 'I' for Inactive)
REMARK    1  A    between atoms: O1_2  and  C2_3 
REMARK    2  A    between atoms: C12_14  and  C13_15 
REMARK    3  A    between atoms: C13_15  and  C15_17 
REMARK    4  A    between atoms: C15_17  and  C16_18 
REMARK    5  A    between atoms: C17_19  and  C18_20 
REMARK    6  A    between atoms: C18_20  and  O3_23 
REMARK    7  A    between atoms: C29_32  and  O4_33 
REMARK    8  A    between atoms: O4_33  and  C30_34 
REMARK    9  A    between atoms: C31_36  and  C32_37 
REMARK   10  A    between atoms: C32_37  and  O6_38 
REMARK   11  A    between atoms: C33_39  and  O7_40 
REMARK   12  A    between atoms: C34_41  and  O8_42 
REMARK   13  A    between atoms: C35_43  and  O9_44 
ROOT
HETATM    1  C2  UNL     1      -5.979  45.901 -19.562  1.00  0.00     0.270 C 
HETATM    2  O2  UNL     1      -7.372  45.528 -19.471  1.00  0.00    -0.344 OA
HETATM    3  C3  UNL     1      -8.160  46.622 -19.983  1.00  0.00     0.095 C 
HETATM    4  C4  UNL     1      -8.272  46.319 -21.476  1.00  0.00     0.008 C 
HETATM    5  C5  UNL     1      -7.268  46.579 -22.328  1.00  0.00    -0.021 C 
HETATM    6  C6  UNL     1      -5.948  47.151 -21.850  1.00  0.00     0.030 C 
HETATM    7  C7  UNL     1      -5.908  47.303 -20.267  1.00  0.00     0.024 C 
HETATM    8  C8  UNL     1      -4.629  48.045 -19.799  1.00  0.00     0.016 C 
HETATM    9  C9  UNL     1      -4.191  49.263 -20.630  1.00  0.00     0.011 C 
HETATM   10  C10 UNL     1      -4.101  48.929 -22.129  1.00  0.00    -0.032 C 
HETATM   11  C11 UNL     1      -2.988  47.848 -22.315  1.00  0.00     0.016 C 
HETATM   12  C12 UNL     1      -3.828  50.093 -23.132  1.00  0.00    -0.002 C 
HETATM   13  C22 UNL     1      -4.369  49.493 -24.471  1.00  0.00     0.006 C 
HETATM   14  C23 UNL     1      -5.304  48.318 -24.115  1.00  0.00     0.011 C 
HETATM   15  C24 UNL     1      -5.537  48.464 -22.600  1.00  0.00    -0.029 C 
HETATM   16  C25 UNL     1      -6.638  49.572 -22.458  1.00  0.00     0.016 C 
HETATM   17  C26 UNL     1      -7.261  47.862 -19.758  1.00  0.00     0.039 C 
HETATM   18  C27 UNL     1      -7.229  48.373 -18.307  1.00  0.00     0.011 C 
HETATM   19  C28 UNL     1      -8.622  48.531 -17.723  1.00  0.00     0.033 C 
HETATM   20  C29 UNL     1      -9.398  47.213 -17.796  1.00  0.00     0.136 C 
HETATM   21  C36 UNL     1      -9.555  46.711 -19.269  1.00  0.00     0.014 C 
HETATM   22  C37 UNL     1     -10.253  45.327 -19.232  1.00  0.00     0.021 C 
HETATM   23  C38 UNL     1     -10.494  47.690 -20.020  1.00  0.00     0.021 C 
ENDROOT
BRANCH  20  24
HETATM   24  O4  UNL     1      -8.694  46.226 -17.027  1.00  0.00    -0.352 OA
BRANCH  24  25
HETATM   25  C30 UNL     1      -8.512  46.589 -15.653  1.00  0.00     0.292 C 
HETATM   26  O5  UNL     1      -7.233  46.186 -15.183  1.00  0.00    -0.348 OA
HETATM   27  C31 UNL     1      -7.008  46.586 -13.826  1.00  0.00     0.179 C 
HETATM   28  C33 UNL     1      -8.060  45.977 -12.877  1.00  0.00     0.180 C 
HETATM   29  C34 UNL     1      -9.489  46.182 -13.382  1.00  0.00     0.183 C 
HETATM   30  C35 UNL     1      -9.606  45.849 -14.867  1.00  0.00     0.204 C 
BRANCH  27  31
HETATM   31  C32 UNL     1      -5.594  46.127 -13.422  1.00  0.00     0.198 C 
BRANCH  31  32
HETATM   32  O6  UNL     1      -4.578  47.067 -13.735  1.00  0.00    -0.398 OA
HETATM   33  H50 UNL     1      -4.993  47.959 -13.786  1.00  0.00     0.209 HD
ENDBRANCH  31  32
ENDBRANCH  27  31
BRANCH  28  34
HETATM   34  O7  UNL     1      -7.926  46.564 -11.576  1.00  0.00    -0.390 OA
HETATM   35  H52 UNL     1      -8.590  47.282 -11.549  1.00  0.00     0.210 HD
ENDBRANCH  28  34
BRANCH  29  36
HETATM   36  O8  UNL     1      -9.865  47.555 -13.160  1.00  0.00    -0.390 OA
HETATM   37  H54 UNL     1     -10.722  47.651 -13.630  1.00  0.00     0.210 HD
ENDBRANCH  29  36
BRANCH  30  38
HETATM   38  O9  UNL     1     -10.912  46.224 -15.326  1.00  0.00    -0.388 OA
HETATM   39  H56 UNL     1     -10.884  46.099 -16.300  1.00  0.00     0.210 HD
ENDBRANCH  30  38
ENDBRANCH  24  25
ENDBRANCH  20  24
BRANCH   1  40
HETATM   40  O1  UNL     1      -5.194  44.929 -20.245  1.00  0.00    -0.365 OA
HETATM   41  C1  UNL     1      -4.192  44.373 -19.412  1.00  0.00     0.204 C 
ENDBRANCH   1  40
BRANCH  12  42
HETATM   42  C13 UNL     1      -2.393  50.677 -23.291  1.00  0.00    -0.010 C 
HETATM   43  C14 UNL     1      -2.371  52.206 -23.139  1.00  0.00     0.010 C 
BRANCH  42  44
HETATM   44  C15 UNL     1      -1.797  50.266 -24.664  1.00  0.00     0.031 C 
BRANCH  44  45
HETATM   45  C16 UNL     1      -0.755  51.228 -25.172  1.00  0.00    -0.027 C 
HETATM   46  C17 UNL     1      -0.080  51.034 -26.318  1.00  0.00     0.006 C 
BRANCH  46  47
HETATM   47  C18 UNL     1       1.012  51.901 -26.924  1.00  0.00     0.070 C 
HETATM   48  C19 UNL     1       2.389  51.437 -26.416  1.00  0.00     0.050 C 
HETATM   49  C20 UNL     1       1.038  51.862 -28.463  1.00  0.00     0.050 C 
BRANCH  47  50
HETATM   50  O3  UNL     1       0.754  53.282 -26.600  1.00  0.00    -0.382 OA
HETATM   51  C21 UNL     1      -0.071  54.017 -27.493  1.00  0.00     0.202 C 
ENDBRANCH  47  50
ENDBRANCH  46  47
ENDBRANCH  44  45
ENDBRANCH  42  44
ENDBRANCH  12  42
TORSDOF 13
ENDMDL
MODEL 8
REMARK minimizedAffinity -9.62013435
REMARK CNNscore 0.25378865
REMARK CNNaffinity 7.0263381
REMARK  13 active torsions:
REMARK  status: ('A' for Active; 'I' for Inactive)
REMARK    1  A    between atoms: O1_2  and  C2_3 
REMARK    2  A    between atoms: C12_14  and  C13_15 
REMARK    3  A    between atoms: C13_15  and  C15_17 
REMARK    4  A    between atoms: C15_17  and  C16_18 
REMARK    5  A    between atoms: C17_19  and  C18_20 
REMARK    6  A    between atoms: C18_20  and  O3_23 
REMARK    7  A    between atoms: C29_32  and  O4_33 
REMARK    8  A    between atoms: O4_33  and  C30_34 
REMARK    9  A    between atoms: C31_36  and  C32_37 
REMARK   10  A    between atoms: C32_37  and  O6_38 
REMARK   11  A    between atoms: C33_39  and  O7_40 
REMARK   12  A    between atoms: C34_41  and  O8_42 
REMARK   13  A    between atoms: C35_43  and  O9_44 
ROOT
HETATM    1  C2  UNL     1      -6.932  49.420 -21.421  1.00  0.00     0.270 C 
HETATM    2  O2  UNL     1      -7.664  48.176 -21.380  1.00  0.00    -0.344 OA
HETATM    3  C3  UNL     1      -6.781  47.124 -21.821  1.00  0.00     0.095 C 
HETATM    4  C4  UNL     1      -6.102  46.660 -20.534  1.00  0.00     0.008 C 
HETATM    5  C5  UNL     1      -5.090  47.346 -19.981  1.00  0.00    -0.021 C 
HETATM    6  C6  UNL     1      -4.589  48.645 -20.580  1.00  0.00     0.030 C 
HETATM    7  C7  UNL     1      -5.454  49.088 -21.840  1.00  0.00     0.024 C 
HETATM    8  C8  UNL     1      -4.835  50.320 -22.550  1.00  0.00     0.016 C 
HETATM    9  C9  UNL     1      -3.306  50.330 -22.714  1.00  0.00     0.011 C 
HETATM   10  C10 UNL     1      -2.588  50.062 -21.381  1.00  0.00    -0.032 C 
HETATM   11  C11 UNL     1      -2.932  51.232 -20.404  1.00  0.00     0.016 C 
HETATM   12  C12 UNL     1      -1.038  49.876 -21.400  1.00  0.00    -0.002 C 
HETATM   13  C22 UNL     1      -0.795  49.090 -20.069  1.00  0.00     0.006 C 
HETATM   14  C23 UNL     1      -2.142  48.473 -19.637  1.00  0.00     0.011 C 
HETATM   15  C24 UNL     1      -3.049  48.638 -20.870  1.00  0.00    -0.029 C 
HETATM   16  C25 UNL     1      -2.654  47.463 -21.832  1.00  0.00     0.016 C 
HETATM   17  C26 UNL     1      -5.760  47.855 -22.727  1.00  0.00     0.039 C 
HETATM   18  C27 UNL     1      -6.285  48.200 -24.131  1.00  0.00     0.011 C 
HETATM   19  C28 UNL     1      -6.940  47.010 -24.809  1.00  0.00     0.033 C 
HETATM   20  C29 UNL     1      -8.077  46.449 -23.949  1.00  0.00     0.136 C 
HETATM   21  C36 UNL     1      -7.568  45.977 -22.548  1.00  0.00     0.014 C 
HETATM   22  C37 UNL     1      -8.797  45.529 -21.717  1.00  0.00     0.021 C 
HETATM   23  C38 UNL     1      -6.662  44.734 -22.751  1.00  0.00     0.021 C 
ENDROOT
BRANCH  20  24
HETATM   24  O4  UNL     1      -9.067  47.473 -23.777  1.00  0.00    -0.352 OA
BRANCH  24  25
HETATM   25  C30 UNL     1     -10.104  47.443 -24.767  1.00  0.00     0.292 C 
HETATM   26  O5  UNL     1     -10.360  46.113 -25.198  1.00  0.00    -0.348 OA
HETATM   27  C31 UNL     1     -11.430  46.053 -26.148  1.00  0.00     0.179 C 
HETATM   28  C33 UNL     1     -11.116  46.892 -27.404  1.00  0.00     0.180 C 
HETATM   29  C34 UNL     1     -10.639  48.303 -27.058  1.00  0.00     0.183 C 
HETATM   30  C35 UNL     1      -9.590  48.278 -25.950  1.00  0.00     0.204 C 
BRANCH  27  31
HETATM   31  C32 UNL     1     -11.643  44.576 -26.532  1.00  0.00     0.198 C 
BRANCH  31  32
HETATM   32  O6  UNL     1     -12.757  44.365 -27.386  1.00  0.00    -0.398 OA
HETATM   33  H50 UNL     1     -12.935  45.205 -27.869  1.00  0.00     0.209 HD
ENDBRANCH  31  32
ENDBRANCH  27  31
BRANCH  28  34
HETATM   34  O7  UNL     1     -12.286  46.973 -28.228  1.00  0.00    -0.390 OA
HETATM   35  H52 UNL     1     -12.707  47.825 -27.992  1.00  0.00     0.210 HD
ENDBRANCH  28  34
BRANCH  29  36
HETATM   36  O8  UNL     1     -11.774  49.084 -26.636  1.00  0.00    -0.390 OA
HETATM   37  H54 UNL     1     -11.382  49.918 -26.297  1.00  0.00     0.210 HD
ENDBRANCH  29  36
BRANCH  30  38
HETATM   38  O9  UNL     1      -9.309  49.625 -25.545  1.00  0.00    -0.388 OA
HETATM   39  H56 UNL     1      -8.726  49.538 -24.759  1.00  0.00     0.210 HD
ENDBRANCH  30  38
ENDBRANCH  24  25
ENDBRANCH  20  24
BRANCH   1  40
HETATM   40  O1  UNL     1      -6.983  50.128 -20.187  1.00  0.00    -0.365 OA
HETATM   41  C1  UNL     1      -7.920  49.564 -19.287  1.00  0.00     0.204 C 
ENDBRANCH   1  40
BRANCH  12  42
HETATM   42  C13 UNL     1      -0.098  51.111 -21.528  1.00  0.00    -0.010 C 
HETATM   43  C14 UNL     1       0.110  51.822 -20.182  1.00  0.00     0.010 C 
BRANCH  42  44
HETATM   44  C15 UNL     1      -0.661  52.106 -22.579  1.00  0.00     0.031 C 
BRANCH  44  45
HETATM   45  C16 UNL     1      -0.375  51.694 -24.000  1.00  0.00    -0.027 C 
HETATM   46  C17 UNL     1       0.584  52.269 -24.746  1.00  0.00     0.006 C 
BRANCH  46  47
HETATM   47  C18 UNL     1       0.952  51.975 -26.191  1.00  0.00     0.070 C 
HETATM   48  C19 UNL     1       2.350  51.331 -26.253  1.00  0.00     0.050 C 
HETATM   49  C20 UNL     1      -0.037  51.025 -26.890  1.00  0.00     0.050 C 
BRANCH  47  50
HETATM   50  O3  UNL     1       0.885  53.195 -26.955  1.00  0.00    -0.382 OA
HETATM   51  C21 UNL     1      -0.268  53.397 -27.759  1.00  0.00     0.202 C 
ENDBRANCH  47  50
ENDBRANCH  46  47
ENDBRANCH  44  45
ENDBRANCH  42  44
ENDBRANCH  12  42
TORSDOF 13
ENDMDL
MODEL 9
REMARK minimizedAffinity -8.04057789
REMARK CNNscore 0.237676427
REMARK CNNaffinity 6.95784712
REMARK  13 active torsions:
REMARK  status: ('A' for Active; 'I' for Inactive)
REMARK    1  A    between atoms: O1_2  and  C2_3 
REMARK    2  A    between atoms: C12_14  and  C13_15 
REMARK    3  A    between atoms: C13_15  and  C15_17 
REMARK    4  A    between atoms: C15_17  and  C16_18 
REMARK    5  A    between atoms: C17_19  and  C18_20 
REMARK    6  A    between atoms: C18_20  and  O3_23 
REMARK    7  A    between atoms: C29_32  and  O4_33 
REMARK    8  A    between atoms: O4_33  and  C30_34 
REMARK    9  A    between atoms: C31_36  and  C32_37 
REMARK   10  A    between atoms: C32_37  and  O6_38 
REMARK   11  A    between atoms: C33_39  and  O7_40 
REMARK   12  A    between atoms: C34_41  and  O8_42 
REMARK   13  A    between atoms: C35_43  and  O9_44 
ROOT
HETATM    1  C2  UNL     1      -3.081  50.507 -20.365  1.00  0.00     0.270 C 
HETATM    2  O2  UNL     1      -3.890  51.097 -21.406  1.00  0.00    -0.344 OA
HETATM    3  C3  UNL     1      -4.753  50.069 -21.936  1.00  0.00     0.095 C 
HETATM    4  C4  UNL     1      -5.995  50.149 -21.052  1.00  0.00     0.008 C 
HETATM    5  C5  UNL     1      -6.026  49.611 -19.823  1.00  0.00    -0.021 C 
HETATM    6  C6  UNL     1      -4.813  48.926 -19.225  1.00  0.00     0.030 C 
HETATM    7  C7  UNL     1      -3.548  49.017 -20.186  1.00  0.00     0.024 C 
HETATM    8  C8  UNL     1      -2.364  48.172 -19.650  1.00  0.00     0.016 C 
HETATM    9  C9  UNL     1      -2.706  46.787 -19.074  1.00  0.00     0.011 C 
HETATM   10  C10 UNL     1      -3.828  46.867 -18.024  1.00  0.00    -0.032 C 
HETATM   11  C11 UNL     1      -3.307  47.724 -16.827  1.00  0.00     0.016 C 
HETATM   12  C12 UNL     1      -4.409  45.533 -17.460  1.00  0.00    -0.002 C 
HETATM   13  C22 UNL     1      -5.809  45.992 -16.933  1.00  0.00     0.006 C 
HETATM   14  C23 UNL     1      -6.146  47.337 -17.611  1.00  0.00     0.011 C 
HETATM   15  C24 UNL     1      -5.106  47.465 -18.739  1.00  0.00    -0.029 C 
HETATM   16  C25 UNL     1      -5.653  46.573 -19.908  1.00  0.00     0.016 C 
HETATM   17  C26 UNL     1      -3.981  48.757 -21.651  1.00  0.00     0.039 C 
HETATM   18  C27 UNL     1      -2.815  48.479 -22.616  1.00  0.00     0.011 C 
HETATM   19  C28 UNL     1      -3.225  48.627 -24.070  1.00  0.00     0.033 C 
HETATM   20  C29 UNL     1      -3.803  50.020 -24.336  1.00  0.00     0.136 C 
HETATM   21  C36 UNL     1      -5.064  50.305 -23.456  1.00  0.00     0.014 C 
HETATM   22  C37 UNL     1      -5.509  51.767 -23.715  1.00  0.00     0.021 C 
HETATM   23  C38 UNL     1      -6.210  49.375 -23.932  1.00  0.00     0.021 C 
ENDROOT
BRANCH  20  24
HETATM   24  O4  UNL     1      -2.790  50.996 -24.050  1.00  0.00    -0.352 OA
BRANCH  24  25
HETATM   25  C30 UNL     1      -2.012  51.371 -25.193  1.00  0.00     0.292 C 
HETATM   26  O5  UNL     1      -1.167  52.475 -24.898  1.00  0.00    -0.348 OA
HETATM   27  C31 UNL     1      -0.340  52.832 -26.011  1.00  0.00     0.179 C 
HETATM   28  C33 UNL     1      -1.187  53.217 -27.241  1.00  0.00     0.180 C 
HETATM   29  C34 UNL     1      -2.272  52.184 -27.549  1.00  0.00     0.183 C 
HETATM   30  C35 UNL     1      -3.019  51.771 -26.283  1.00  0.00     0.204 C 
BRANCH  27  31
HETATM   31  C32 UNL     1       0.549  54.016 -25.583  1.00  0.00     0.198 C 
BRANCH  31  32
HETATM   32  O6  UNL     1       0.181  55.250 -26.179  1.00  0.00    -0.398 OA
HETATM   33  H50 UNL     1      -0.770  55.196 -26.430  1.00  0.00     0.209 HD
ENDBRANCH  31  32
ENDBRANCH  27  31
BRANCH  28  34
HETATM   34  O7  UNL     1      -0.332  53.364 -28.382  1.00  0.00    -0.390 OA
HETATM   35  H52 UNL     1      -0.381  52.506 -28.851  1.00  0.00     0.210 HD
ENDBRANCH  28  34
BRANCH  29  36
HETATM   36  O8  UNL     1      -1.654  51.029 -28.148  1.00  0.00    -0.390 OA
HETATM   37  H54 UNL     1      -2.372  50.361 -28.185  1.00  0.00     0.210 HD
ENDBRANCH  29  36
BRANCH  30  38
HETATM   38  O9  UNL     1      -3.896  50.680 -26.597  1.00  0.00    -0.388 OA
HETATM   39  H56 UNL     1      -4.253  50.384 -25.731  1.00  0.00     0.210 HD
ENDBRANCH  30  38
ENDBRANCH  24  25
ENDBRANCH  20  24
BRANCH   1  40
HETATM   40  O1  UNL     1      -3.149  51.231 -19.140  1.00  0.00    -0.365 OA
HETATM   41  C1  UNL     1      -1.902  51.801 -18.788  1.00  0.00     0.204 C 
ENDBRANCH   1  40
BRANCH  12  42
HETATM   42  C13 UNL     1      -3.621  44.720 -16.390  1.00  0.00    -0.010 C 
HETATM   43  C14 UNL     1      -2.754  45.625 -15.500  1.00  0.00     0.010 C 
BRANCH  42  44
HETATM   44  C15 UNL     1      -2.741  43.642 -17.078  1.00  0.00     0.031 C 
BRANCH  44  45
HETATM   45  C16 UNL     1      -1.473  43.339 -16.322  1.00  0.00    -0.027 C 
HETATM   46  C17 UNL     1      -0.569  42.439 -16.746  1.00  0.00     0.006 C 
BRANCH  46  47
HETATM   47  C18 UNL     1       0.724  42.016 -16.069  1.00  0.00     0.070 C 
HETATM   48  C19 UNL     1       1.660  41.356 -17.097  1.00  0.00     0.050 C 
HETATM   49  C20 UNL     1       1.484  43.188 -15.422  1.00  0.00     0.050 C 
BRANCH  47  50
HETATM   50  O3  UNL     1       0.418  41.133 -14.972  1.00  0.00    -0.382 OA
HETATM   51  C21 UNL     1       1.489  40.765 -14.114  1.00  0.00     0.202 C 
ENDBRANCH  47  50
ENDBRANCH  46  47
ENDBRANCH  44  45
ENDBRANCH  42  44
ENDBRANCH  12  42
TORSDOF 13
ENDMDL
