MODEL 1
REMARK minimizedAffinity -10.1398182
REMARK CNNscore 0.62795049
REMARK CNNaffinity 7.70952749
REMARK  10 active torsions:
REMARK  status: ('A' for Active; 'I' for Inactive)
REMARK    1  A    between atoms: O1_2  and  C2_3 
REMARK    2  A    between atoms: C4_5  and  O2_6 
REMARK    3  A    between atoms: O2_6  and  C5_7 
REMARK    4  A    between atoms: C6_8  and  O3_9 
REMARK    5  A    between atoms: C8_11  and  O4_12 
REMARK    6  A    between atoms: O4_12  and  C9_13 
REMARK    7  A    between atoms: C20_24  and  C21_25 
REMARK    8  A    between atoms: C21_25  and  O5_27 
REMARK    9  A    between atoms: C25_30  and  O6_31 
REMARK   10  A    between atoms: C34_42  and  O9_43 
ROOT
HETATM    1  C9  UNL     1      -5.058   6.718  15.050  1.00  0.00     0.046 C 
HETATM    2  C10 UNL     1      -5.945   6.294  15.958  1.00  0.00     0.011 C 
HETATM    3  C11 UNL     1      -7.424   6.323  15.692  1.00  0.00     0.019 C 
HETATM    4  C12 UNL     1      -7.989   7.657  16.220  1.00  0.00     0.010 C 
HETATM    5  C13 UNL     1      -9.518   7.732  16.144  1.00  0.00     0.009 C 
HETATM    6  C14 UNL     1     -10.115   6.841  15.038  1.00  0.00     0.025 C 
HETATM    7  C15 UNL     1      -9.135   6.844  13.837  1.00  0.00     0.001 C 
HETATM    8  C16 UNL     1      -9.851   6.400  12.562  1.00  0.00     0.007 C 
HETATM    9  C17 UNL     1     -10.900   7.439  12.171  1.00  0.00     0.013 C 
HETATM   10  C18 UNL     1     -11.885   7.815  13.308  1.00  0.00    -0.007 C 
HETATM   11  C19 UNL     1     -13.316   7.530  12.776  1.00  0.00     0.019 C 
HETATM   12  C20 UNL     1     -11.723   9.300  13.768  1.00  0.00     0.025 C 
HETATM   13  C23 UNL     1     -12.385   9.341  15.162  1.00  0.00     0.011 C 
HETATM   14  C24 UNL     1     -12.427   7.897  15.668  1.00  0.00     0.039 C 
HETATM   15  C25 UNL     1     -11.622   7.065  14.656  1.00  0.00     0.070 C 
HETATM   16  C26 UNL     1      -7.815   6.053  14.187  1.00  0.00    -0.033 C 
HETATM   17  C27 UNL     1      -8.043   4.522  14.034  1.00  0.00     0.016 C 
HETATM   18  C28 UNL     1      -6.677   6.430  13.171  1.00  0.00     0.016 C 
HETATM   19  C29 UNL     1      -5.518   7.255  13.734  1.00  0.00     0.065 C 
ENDROOT
BRANCH   1  20
HETATM   20  O4  UNL     1      -3.715   6.829  15.330  1.00  0.00    -0.325 OA
BRANCH  20  21
HETATM   21  C8  UNL     1      -2.872   6.595  14.185  1.00  0.00     0.269 C 
HETATM   22  C7  UNL     1      -1.452   6.454  14.733  1.00  0.00     0.095 C 
HETATM   23  C6  UNL     1      -0.458   6.064  13.649  1.00  0.00     0.154 C 
HETATM   24  C5  UNL     1      -0.961   4.873  12.807  1.00  0.00     0.182 C 
HETATM   25  C30 UNL     1      -2.408   5.151  12.360  1.00  0.00     0.152 C 
HETATM   26  O7  UNL     1      -3.235   5.389  13.501  1.00  0.00    -0.353 OA
HETATM   27  C31 UNL     1      -3.003   3.961  11.611  1.00  0.00     0.042 C 
BRANCH  23  28
HETATM   28  O3  UNL     1      -0.211   7.192  12.804  1.00  0.00    -0.393 OA
HETATM   29  H10 UNL     1       0.450   6.874  12.153  1.00  0.00     0.210 HD
ENDBRANCH  23  28
BRANCH  24  30
HETATM   30  O2  UNL     1      -0.151   4.632  11.645  1.00  0.00    -0.351 OA
BRANCH  30  31
HETATM   31  C4  UNL     1       0.749   5.692  11.331  1.00  0.00     0.263 C 
HETATM   32  C3  UNL     1       2.095   5.065  10.974  1.00  0.00     0.095 C 
HETATM   33  C2  UNL     1       3.092   6.148  10.570  1.00  0.00     0.156 C 
HETATM   34  C34 UNL     1       2.488   7.023   9.455  1.00  0.00     0.175 C 
HETATM   35  C32 UNL     1       1.086   7.516   9.858  1.00  0.00     0.151 C 
HETATM   36  O8  UNL     1       0.245   6.405  10.203  1.00  0.00    -0.354 OA
HETATM   37  C33 UNL     1       0.408   8.273   8.722  1.00  0.00     0.042 C 
BRANCH  33  38
HETATM   38  O1  UNL     1       3.391   7.021  11.679  1.00  0.00    -0.388 OA
HETATM   39  C1  UNL     1       2.982   8.370  11.458  1.00  0.00     0.202 C 
ENDBRANCH  33  38
BRANCH  34  40
HETATM   40  O9  UNL     1       3.358   8.128   9.203  1.00  0.00    -0.390 OA
HETATM   41  H56 UNL     1       3.637   8.450  10.083  1.00  0.00     0.210 HD
ENDBRANCH  34  40
ENDBRANCH  30  31
ENDBRANCH  24  30
ENDBRANCH  20  21
ENDBRANCH   1  20
BRANCH  15  42
HETATM   42  O6  UNL     1     -12.209   5.756  14.584  1.00  0.00    -0.389 OA
HETATM   43  H39 UNL     1     -12.255   5.401  15.489  1.00  0.00     0.210 HD
ENDBRANCH  15  42
BRANCH  12  44
HETATM   44  C21 UNL     1     -12.221  10.402  12.811  1.00  0.00     0.119 C 
HETATM   45  C22 UNL     1     -13.625  10.877  13.178  1.00  0.00     0.040 C 
BRANCH  44  46
HETATM   46  O5  UNL     1     -12.258   9.936  11.467  1.00  0.00    -0.396 OA
HETATM   47  H34 UNL     1     -12.529  10.680  10.902  1.00  0.00     0.210 HD
ENDBRANCH  44  46
ENDBRANCH  12  44
TORSDOF 10
ENDMDL
MODEL 2
REMARK minimizedAffinity -8.75405216
REMARK CNNscore 0.534356117
REMARK CNNaffinity 7.67464447
REMARK  10 active torsions:
REMARK  status: ('A' for Active; 'I' for Inactive)
REMARK    1  A    between atoms: O1_2  and  C2_3 
REMARK    2  A    between atoms: C4_5  and  O2_6 
REMARK    3  A    between atoms: O2_6  and  C5_7 
REMARK    4  A    between atoms: C6_8  and  O3_9 
REMARK    5  A    between atoms: C8_11  and  O4_12 
REMARK    6  A    between atoms: O4_12  and  C9_13 
REMARK    7  A    between atoms: C20_24  and  C21_25 
REMARK    8  A    between atoms: C21_25  and  O5_27 
REMARK    9  A    between atoms: C25_30  and  O6_31 
REMARK   10  A    between atoms: C34_42  and  O9_43 
ROOT
HETATM    1  C9  UNL     1     -10.435   8.205  15.653  1.00  0.00     0.046 C 
HETATM    2  C10 UNL     1     -10.891   7.250  14.833  1.00  0.00     0.011 C 
HETATM    3  C11 UNL     1     -12.140   7.437  14.019  1.00  0.00     0.019 C 
HETATM    4  C12 UNL     1     -13.334   6.884  14.822  1.00  0.00     0.010 C 
HETATM    5  C13 UNL     1     -14.643   6.879  14.023  1.00  0.00     0.009 C 
HETATM    6  C14 UNL     1     -14.682   7.950  12.917  1.00  0.00     0.025 C 
HETATM    7  C15 UNL     1     -13.925   9.200  13.431  1.00  0.00     0.001 C 
HETATM    8  C16 UNL     1     -14.321  10.435  12.621  1.00  0.00     0.007 C 
HETATM    9  C17 UNL     1     -15.789  10.772  12.880  1.00  0.00     0.013 C 
HETATM   10  C18 UNL     1     -16.765   9.585  12.674  1.00  0.00    -0.007 C 
HETATM   11  C19 UNL     1     -17.809  10.041  11.618  1.00  0.00     0.019 C 
HETATM   12  C20 UNL     1     -17.446   9.138  14.007  1.00  0.00     0.025 C 
HETATM   13  C23 UNL     1     -17.957   7.711  13.714  1.00  0.00     0.011 C 
HETATM   14  C24 UNL     1     -17.158   7.200  12.513  1.00  0.00     0.039 C 
HETATM   15  C25 UNL     1     -16.069   8.251  12.244  1.00  0.00     0.070 C 
HETATM   16  C26 UNL     1     -12.376   8.919  13.528  1.00  0.00    -0.033 C 
HETATM   17  C27 UNL     1     -11.710   9.056  12.130  1.00  0.00     0.016 C 
HETATM   18  C28 UNL     1     -11.691   9.995  14.447  1.00  0.00     0.016 C 
HETATM   19  C29 UNL     1     -11.173   9.496  15.797  1.00  0.00     0.065 C 
ENDROOT
BRANCH   1  20
HETATM   20  O4  UNL     1      -9.376   7.997  16.508  1.00  0.00    -0.325 OA
BRANCH  20  21
HETATM   21  C8  UNL     1      -8.131   7.753  15.825  1.00  0.00     0.269 C 
HETATM   22  C7  UNL     1      -7.334   6.817  16.732  1.00  0.00     0.095 C 
HETATM   23  C6  UNL     1      -6.039   6.354  16.080  1.00  0.00     0.154 C 
HETATM   24  C5  UNL     1      -6.270   5.841  14.644  1.00  0.00     0.182 C 
HETATM   25  C30 UNL     1      -7.111   6.873  13.871  1.00  0.00     0.152 C 
HETATM   26  O7  UNL     1      -8.341   7.114  14.559  1.00  0.00    -0.353 OA
HETATM   27  C31 UNL     1      -7.467   6.375  12.472  1.00  0.00     0.042 C 
BRANCH  23  28
HETATM   28  O3  UNL     1      -5.101   7.434  16.069  1.00  0.00    -0.393 OA
HETATM   29  H10 UNL     1      -4.293   7.057  15.660  1.00  0.00     0.210 HD
ENDBRANCH  23  28
BRANCH  24  30
HETATM   30  O2  UNL     1      -5.044   5.610  13.931  1.00  0.00    -0.351 OA
BRANCH  30  31
HETATM   31  C4  UNL     1      -5.153   4.660  12.874  1.00  0.00     0.263 C 
HETATM   32  C3  UNL     1      -3.805   3.954  12.747  1.00  0.00     0.095 C 
HETATM   33  C2  UNL     1      -3.872   2.878  11.666  1.00  0.00     0.156 C 
HETATM   34  C34 UNL     1      -5.056   1.933  11.943  1.00  0.00     0.175 C 
HETATM   35  C32 UNL     1      -6.347   2.740  12.170  1.00  0.00     0.151 C 
HETATM   36  O8  UNL     1      -6.157   3.705  13.214  1.00  0.00    -0.354 OA
HETATM   37  C33 UNL     1      -7.508   1.841  12.578  1.00  0.00     0.042 C 
BRANCH  33  38
HETATM   38  O1  UNL     1      -4.091   3.461  10.364  1.00  0.00    -0.388 OA
HETATM   39  C1  UNL     1      -5.332   3.075   9.777  1.00  0.00     0.202 C 
ENDBRANCH  33  38
BRANCH  34  40
HETATM   40  O9  UNL     1      -5.208   1.036  10.840  1.00  0.00    -0.390 OA
HETATM   41  H56 UNL     1      -5.101   1.584  10.038  1.00  0.00     0.210 HD
ENDBRANCH  34  40
ENDBRANCH  30  31
ENDBRANCH  24  30
ENDBRANCH  20  21
ENDBRANCH   1  20
BRANCH  15  42
HETATM   42  O6  UNL     1     -15.821   8.289  10.830  1.00  0.00    -0.389 OA
HETATM   43  H39 UNL     1     -15.621   7.383  10.539  1.00  0.00     0.210 HD
ENDBRANCH  15  42
BRANCH  12  44
HETATM   44  C21 UNL     1     -18.518  10.070  14.609  1.00  0.00     0.119 C 
HETATM   45  C22 UNL     1     -19.682  10.288  13.647  1.00  0.00     0.040 C 
BRANCH  44  46
HETATM   46  O5  UNL     1     -17.970  11.346  14.924  1.00  0.00    -0.396 OA
HETATM   47  H34 UNL     1     -18.671  11.875  15.344  1.00  0.00     0.210 HD
ENDBRANCH  44  46
ENDBRANCH  12  44
TORSDOF 10
ENDMDL
MODEL 3
REMARK minimizedAffinity -7.99095154
REMARK CNNscore 0.531753719
REMARK CNNaffinity 6.34149694
REMARK  10 active torsions:
REMARK  status: ('A' for Active; 'I' for Inactive)
REMARK    1  A    between atoms: O1_2  and  C2_3 
REMARK    2  A    between atoms: C4_5  and  O2_6 
REMARK    3  A    between atoms: O2_6  and  C5_7 
REMARK    4  A    between atoms: C6_8  and  O3_9 
REMARK    5  A    between atoms: C8_11  and  O4_12 
REMARK    6  A    between atoms: O4_12  and  C9_13 
REMARK    7  A    between atoms: C20_24  and  C21_25 
REMARK    8  A    between atoms: C21_25  and  O5_27 
REMARK    9  A    between atoms: C25_30  and  O6_31 
REMARK   10  A    between atoms: C34_42  and  O9_43 
ROOT
HETATM    1  C9  UNL     1     -10.426  11.641  23.983  1.00  0.00     0.046 C 
HETATM    2  C10 UNL     1      -9.816  12.776  24.344  1.00  0.00     0.011 C 
HETATM    3  C11 UNL     1      -9.022  13.594  23.364  1.00  0.00     0.019 C 
HETATM    4  C12 UNL     1      -7.549  13.145  23.435  1.00  0.00     0.010 C 
HETATM    5  C13 UNL     1      -6.614  14.018  22.589  1.00  0.00     0.009 C 
HETATM    6  C14 UNL     1      -7.326  14.692  21.400  1.00  0.00     0.025 C 
HETATM    7  C15 UNL     1      -8.402  13.713  20.866  1.00  0.00     0.001 C 
HETATM    8  C16 UNL     1      -8.803  14.087  19.439  1.00  0.00     0.007 C 
HETATM    9  C17 UNL     1      -7.620  13.871  18.497  1.00  0.00     0.013 C 
HETATM   10  C18 UNL     1      -6.307  14.561  18.947  1.00  0.00    -0.007 C 
HETATM   11  C19 UNL     1      -5.867  15.492  17.785  1.00  0.00     0.019 C 
HETATM   12  C20 UNL     1      -5.191  13.531  19.318  1.00  0.00     0.025 C 
HETATM   13  C23 UNL     1      -4.196  14.340  20.177  1.00  0.00     0.011 C 
HETATM   14  C24 UNL     1      -4.959  15.561  20.694  1.00  0.00     0.039 C 
HETATM   15  C25 UNL     1      -6.428  15.351  20.293  1.00  0.00     0.070 C 
HETATM   16  C26 UNL     1      -9.591  13.570  21.892  1.00  0.00    -0.033 C 
HETATM   17  C27 UNL     1     -10.574  14.768  21.755  1.00  0.00     0.016 C 
HETATM   18  C28 UNL     1     -10.427  12.279  21.569  1.00  0.00     0.016 C 
HETATM   19  C29 UNL     1     -10.320  11.137  22.581  1.00  0.00     0.065 C 
ENDROOT
BRANCH   1  20
HETATM   20  O4  UNL     1     -11.036  10.812  24.896  1.00  0.00    -0.325 OA
BRANCH  20  21
HETATM   21  C8  UNL     1     -11.947   9.871  24.294  1.00  0.00     0.269 C 
HETATM   22  C7  UNL     1     -11.143   8.588  24.084  1.00  0.00     0.095 C 
HETATM   23  C6  UNL     1     -12.012   7.447  23.576  1.00  0.00     0.154 C 
HETATM   24  C5  UNL     1     -13.300   7.288  24.410  1.00  0.00     0.182 C 
HETATM   25  C30 UNL     1     -13.973   8.665  24.559  1.00  0.00     0.152 C 
HETATM   26  O7  UNL     1     -13.061   9.593  25.151  1.00  0.00    -0.353 OA
HETATM   27  C31 UNL     1     -15.199   8.596  25.466  1.00  0.00     0.042 C 
BRANCH  23  28
HETATM   28  O3  UNL     1     -12.342   7.677  22.203  1.00  0.00    -0.393 OA
HETATM   29  H10 UNL     1     -12.877   6.897  21.942  1.00  0.00     0.210 HD
ENDBRANCH  23  28
BRANCH  24  30
HETATM   30  O2  UNL     1     -14.236   6.372  23.819  1.00  0.00    -0.351 OA
BRANCH  30  31
HETATM   31  C4  UNL     1     -14.250   5.082  24.424  1.00  0.00     0.263 C 
HETATM   32  C3  UNL     1     -15.504   4.358  23.939  1.00  0.00     0.095 C 
HETATM   33  C2  UNL     1     -15.550   2.942  24.508  1.00  0.00     0.156 C 
HETATM   34  C34 UNL     1     -14.235   2.208  24.188  1.00  0.00     0.175 C 
HETATM   35  C32 UNL     1     -13.026   3.063  24.609  1.00  0.00     0.151 C 
HETATM   36  O8  UNL     1     -13.094   4.361  24.001  1.00  0.00    -0.354 OA
HETATM   37  C33 UNL     1     -11.709   2.423  24.185  1.00  0.00     0.042 C 
BRANCH  33  38
HETATM   38  O1  UNL     1     -15.686   2.962  25.944  1.00  0.00    -0.388 OA
HETATM   39  C1  UNL     1     -17.003   2.641  26.388  1.00  0.00     0.202 C 
ENDBRANCH  33  38
BRANCH  34  40
HETATM   40  O9  UNL     1     -14.223   0.949  24.865  1.00  0.00    -0.390 OA
HETATM   41  H56 UNL     1     -14.563   1.130  25.763  1.00  0.00     0.210 HD
ENDBRANCH  34  40
ENDBRANCH  30  31
ENDBRANCH  24  30
ENDBRANCH  20  21
ENDBRANCH   1  20
BRANCH  15  42
HETATM   42  O6  UNL     1      -7.010  16.637  20.028  1.00  0.00    -0.389 OA
HETATM   43  H39 UNL     1      -6.856  17.199  20.807  1.00  0.00     0.210 HD
ENDBRANCH  15  42
BRANCH  12  44
HETATM   44  C21 UNL     1      -4.527  12.752  18.164  1.00  0.00     0.119 C 
HETATM   45  C22 UNL     1      -3.735  11.551  18.675  1.00  0.00     0.040 C 
BRANCH  44  46
HETATM   46  O5  UNL     1      -3.632  13.583  17.432  1.00  0.00    -0.396 OA
HETATM   47  H34 UNL     1      -3.280  13.060  16.691  1.00  0.00     0.210 HD
ENDBRANCH  44  46
ENDBRANCH  12  44
TORSDOF 10
ENDMDL
MODEL 4
REMARK minimizedAffinity -8.47596264
REMARK CNNscore 0.528889
REMARK CNNaffinity 6.57859468
REMARK  10 active torsions:
REMARK  status: ('A' for Active; 'I' for Inactive)
REMARK    1  A    between atoms: O1_2  and  C2_3 
REMARK    2  A    between atoms: C4_5  and  O2_6 
REMARK    3  A    between atoms: O2_6  and  C5_7 
REMARK    4  A    between atoms: C6_8  and  O3_9 
REMARK    5  A    between atoms: C8_11  and  O4_12 
REMARK    6  A    between atoms: O4_12  and  C9_13 
REMARK    7  A    between atoms: C20_24  and  C21_25 
REMARK    8  A    between atoms: C21_25  and  O5_27 
REMARK    9  A    between atoms: C25_30  and  O6_31 
REMARK   10  A    between atoms: C34_42  and  O9_43 
ROOT
HETATM    1  C9  UNL     1     -14.133  10.182  16.836  1.00  0.00     0.046 C 
HETATM    2  C10 UNL     1     -13.047   9.495  17.210  1.00  0.00     0.011 C 
HETATM    3  C11 UNL     1     -12.777   9.164  18.651  1.00  0.00     0.019 C 
HETATM    4  C12 UNL     1     -11.897  10.278  19.251  1.00  0.00     0.010 C 
HETATM    5  C13 UNL     1     -11.427   9.967  20.677  1.00  0.00     0.009 C 
HETATM    6  C14 UNL     1     -12.378   9.022  21.436  1.00  0.00     0.025 C 
HETATM    7  C15 UNL     1     -13.828   9.344  20.997  1.00  0.00     0.001 C 
HETATM    8  C16 UNL     1     -14.828   8.809  22.022  1.00  0.00     0.007 C 
HETATM    9  C17 UNL     1     -14.674   9.570  23.338  1.00  0.00     0.013 C 
HETATM   10  C18 UNL     1     -13.224   9.616  23.886  1.00  0.00    -0.007 C 
HETATM   11  C19 UNL     1     -13.265   9.010  25.315  1.00  0.00     0.019 C 
HETATM   12  C20 UNL     1     -12.635  11.064  23.887  1.00  0.00     0.025 C 
HETATM   13  C23 UNL     1     -11.109  10.853  23.977  1.00  0.00     0.011 C 
HETATM   14  C24 UNL     1     -10.838   9.419  23.517  1.00  0.00     0.039 C 
HETATM   15  C25 UNL     1     -12.177   8.878  22.987  1.00  0.00     0.070 C 
HETATM   16  C26 UNL     1     -14.077   8.893  19.505  1.00  0.00    -0.033 C 
HETATM   17  C27 UNL     1     -14.366   7.367  19.440  1.00  0.00     0.016 C 
HETATM   18  C28 UNL     1     -15.356   9.606  18.935  1.00  0.00     0.016 C 
HETATM   19  C29 UNL     1     -15.114  10.662  17.856  1.00  0.00     0.065 C 
ENDROOT
BRANCH   1  20
HETATM   20  O4  UNL     1     -14.321  10.614  15.543  1.00  0.00    -0.325 OA
BRANCH  20  21
HETATM   21  C8  UNL     1     -13.642   9.801  14.566  1.00  0.00     0.269 C 
HETATM   22  C7  UNL     1     -12.206  10.322  14.514  1.00  0.00     0.095 C 
HETATM   23  C6  UNL     1     -11.321   9.468  13.619  1.00  0.00     0.154 C 
HETATM   24  C5  UNL     1     -11.465   7.965  13.931  1.00  0.00     0.182 C 
HETATM   25  C30 UNL     1     -12.961   7.604  13.982  1.00  0.00     0.152 C 
HETATM   26  O7  UNL     1     -13.628   8.420  14.948  1.00  0.00    -0.353 OA
HETATM   27  C31 UNL     1     -13.176   6.149  14.394  1.00  0.00     0.042 C 
BRANCH  23  28
HETATM   28  O3  UNL     1     -11.650   9.718  12.249  1.00  0.00    -0.393 OA
HETATM   29  H10 UNL     1     -11.028   9.156  11.738  1.00  0.00     0.210 HD
ENDBRANCH  23  28
BRANCH  24  30
HETATM   30  O2  UNL     1     -10.815   7.129  12.959  1.00  0.00    -0.351 OA
BRANCH  30  31
HETATM   31  C4  UNL     1      -9.680   6.427  13.459  1.00  0.00     0.263 C 
HETATM   32  C3  UNL     1      -8.908   5.884  12.259  1.00  0.00     0.095 C 
HETATM   33  C2  UNL     1      -7.643   5.167  12.725  1.00  0.00     0.156 C 
HETATM   34  C34 UNL     1      -6.820   6.099  13.634  1.00  0.00     0.175 C 
HETATM   35  C32 UNL     1      -7.709   6.686  14.746  1.00  0.00     0.151 C 
HETATM   36  O8  UNL     1      -8.853   7.340  14.179  1.00  0.00    -0.354 OA
HETATM   37  C33 UNL     1      -6.956   7.715  15.582  1.00  0.00     0.042 C 
BRANCH  33  38
HETATM   38  O1  UNL     1      -7.965   3.993  13.500  1.00  0.00    -0.388 OA
HETATM   39  C1  UNL     1      -7.699   2.774  12.809  1.00  0.00     0.202 C 
ENDBRANCH  33  38
BRANCH  34  40
HETATM   40  O9  UNL     1      -5.729   5.364  14.195  1.00  0.00    -0.390 OA
HETATM   41  H56 UNL     1      -6.103   4.502  14.463  1.00  0.00     0.210 HD
ENDBRANCH  34  40
ENDBRANCH  30  31
ENDBRANCH  24  30
ENDBRANCH  20  21
ENDBRANCH   1  20
BRANCH  15  42
HETATM   42  O6  UNL     1     -12.234   7.470  23.264  1.00  0.00    -0.389 OA
HETATM   43  H39 UNL     1     -11.432   7.062  22.894  1.00  0.00     0.210 HD
ENDBRANCH  15  42
BRANCH  12  44
HETATM   44  C21 UNL     1     -13.187  12.059  24.928  1.00  0.00     0.119 C 
HETATM   45  C22 UNL     1     -12.377  13.352  24.960  1.00  0.00     0.040 C 
BRANCH  44  46
HETATM   46  O5  UNL     1     -13.163  11.499  26.237  1.00  0.00    -0.396 OA
HETATM   47  H34 UNL     1     -13.565  12.144  26.844  1.00  0.00     0.210 HD
ENDBRANCH  44  46
ENDBRANCH  12  44
TORSDOF 10
ENDMDL
MODEL 5
REMARK minimizedAffinity -9.52405167
REMARK CNNscore 0.492753208
REMARK CNNaffinity 7.4994626
REMARK  10 active torsions:
REMARK  status: ('A' for Active; 'I' for Inactive)
REMARK    1  A    between atoms: O1_2  and  C2_3 
REMARK    2  A    between atoms: C4_5  and  O2_6 
REMARK    3  A    between atoms: O2_6  and  C5_7 
REMARK    4  A    between atoms: C6_8  and  O3_9 
REMARK    5  A    between atoms: C8_11  and  O4_12 
REMARK    6  A    between atoms: O4_12  and  C9_13 
REMARK    7  A    between atoms: C20_24  and  C21_25 
REMARK    8  A    between atoms: C21_25  and  O5_27 
REMARK    9  A    between atoms: C25_30  and  O6_31 
REMARK   10  A    between atoms: C34_42  and  O9_43 
ROOT
HETATM    1  C9  UNL     1      -4.388   6.008  13.477  1.00  0.00     0.046 C 
HETATM    2  C10 UNL     1      -4.857   7.217  13.148  1.00  0.00     0.011 C 
HETATM    3  C11 UNL     1      -4.136   8.478  13.534  1.00  0.00     0.019 C 
HETATM    4  C12 UNL     1      -4.699   8.969  14.881  1.00  0.00     0.010 C 
HETATM    5  C13 UNL     1      -4.146  10.337  15.300  1.00  0.00     0.009 C 
HETATM    6  C14 UNL     1      -2.755  10.634  14.708  1.00  0.00     0.025 C 
HETATM    7  C15 UNL     1      -1.964   9.304  14.647  1.00  0.00     0.001 C 
HETATM    8  C16 UNL     1      -0.464   9.578  14.536  1.00  0.00     0.007 C 
HETATM    9  C17 UNL     1       0.037  10.235  15.821  1.00  0.00     0.013 C 
HETATM   10  C18 UNL     1      -0.768  11.487  16.257  1.00  0.00    -0.007 C 
HETATM   11  C19 UNL     1       0.246  12.658  16.362  1.00  0.00     0.019 C 
HETATM   12  C20 UNL     1      -1.535  11.262  17.600  1.00  0.00     0.025 C 
HETATM   13  C23 UNL     1      -2.617  12.362  17.609  1.00  0.00     0.011 C 
HETATM   14  C24 UNL     1      -2.792  12.815  16.158  1.00  0.00     0.039 C 
HETATM   15  C25 UNL     1      -1.955  11.848  15.303  1.00  0.00     0.070 C 
HETATM   16  C26 UNL     1      -2.563   8.343  13.548  1.00  0.00    -0.033 C 
HETATM   17  C27 UNL     1      -2.050   8.746  12.136  1.00  0.00     0.016 C 
HETATM   18  C28 UNL     1      -2.066   6.872  13.791  1.00  0.00     0.016 C 
HETATM   19  C29 UNL     1      -3.125   5.874  14.264  1.00  0.00     0.065 C 
ENDROOT
BRANCH   1  20
HETATM   20  O4  UNL     1      -5.105   4.854  13.255  1.00  0.00    -0.325 OA
BRANCH  20  21
HETATM   21  C8  UNL     1      -6.463   4.926  13.733  1.00  0.00     0.269 C 
HETATM   22  C7  UNL     1      -6.407   5.737  15.027  1.00  0.00     0.095 C 
HETATM   23  C6  UNL     1      -7.795   6.018  15.585  1.00  0.00     0.154 C 
HETATM   24  C5  UNL     1      -8.750   6.566  14.505  1.00  0.00     0.182 C 
HETATM   25  C30 UNL     1      -8.668   5.664  13.259  1.00  0.00     0.152 C 
HETATM   26  O7  UNL     1      -7.317   5.593  12.796  1.00  0.00    -0.353 OA
HETATM   27  C31 UNL     1      -9.511   6.213  12.111  1.00  0.00     0.042 C 
BRANCH  23  28
HETATM   28  O3  UNL     1      -8.331   4.818  16.151  1.00  0.00    -0.393 OA
HETATM   29  H10 UNL     1      -9.206   5.081  16.507  1.00  0.00     0.210 HD
ENDBRANCH  23  28
BRANCH  24  30
HETATM   30  O2  UNL     1     -10.115   6.626  14.948  1.00  0.00    -0.351 OA
BRANCH  30  31
HETATM   31  C4  UNL     1     -10.641   7.948  15.038  1.00  0.00     0.263 C 
HETATM   32  C3  UNL     1      -9.475   8.891  15.325  1.00  0.00     0.095 C 
HETATM   33  C2  UNL     1      -9.964  10.336  15.376  1.00  0.00     0.156 C 
HETATM   34  C34 UNL     1     -10.741  10.670  14.089  1.00  0.00     0.175 C 
HETATM   35  C32 UNL     1     -11.820   9.604  13.821  1.00  0.00     0.151 C 
HETATM   36  O8  UNL     1     -11.232   8.295  13.786  1.00  0.00    -0.354 OA
HETATM   37  C33 UNL     1     -12.516   9.833  12.485  1.00  0.00     0.042 C 
BRANCH  33  38
HETATM   38  O1  UNL     1     -10.867  10.542  16.482  1.00  0.00    -0.388 OA
HETATM   39  C1  UNL     1     -10.674   9.612  17.546  1.00  0.00     0.202 C 
ENDBRANCH  33  38
BRANCH  34  40
HETATM   40  O9  UNL     1     -11.333  11.964  14.220  1.00  0.00    -0.390 OA
HETATM   41  H56 UNL     1     -11.702  11.995  15.125  1.00  0.00     0.210 HD
ENDBRANCH  34  40
ENDBRANCH  30  31
ENDBRANCH  24  30
ENDBRANCH  20  21
ENDBRANCH   1  20
BRANCH  15  42
HETATM   42  O6  UNL     1      -1.444  12.574  14.175  1.00  0.00    -0.389 OA
HETATM   43  H39 UNL     1      -2.196  12.997  13.728  1.00  0.00     0.210 HD
ENDBRANCH  15  42
BRANCH  12  44
HETATM   44  C21 UNL     1      -0.702  11.198  18.896  1.00  0.00     0.119 C 
HETATM   45  C22 UNL     1      -0.321  12.591  19.392  1.00  0.00     0.040 C 
BRANCH  44  46
HETATM   46  O5  UNL     1       0.502  10.465  18.698  1.00  0.00    -0.396 OA
HETATM   47  H34 UNL     1       0.963  10.413  19.553  1.00  0.00     0.210 HD
ENDBRANCH  44  46
ENDBRANCH  12  44
TORSDOF 10
ENDMDL
MODEL 6
REMARK minimizedAffinity -9.69530869
REMARK CNNscore 0.462067336
REMARK CNNaffinity 7.39690018
REMARK  10 active torsions:
REMARK  status: ('A' for Active; 'I' for Inactive)
REMARK    1  A    between atoms: O1_2  and  C2_3 
REMARK    2  A    between atoms: C4_5  and  O2_6 
REMARK    3  A    between atoms: O2_6  and  C5_7 
REMARK    4  A    between atoms: C6_8  and  O3_9 
REMARK    5  A    between atoms: C8_11  and  O4_12 
REMARK    6  A    between atoms: O4_12  and  C9_13 
REMARK    7  A    between atoms: C20_24  and  C21_25 
REMARK    8  A    between atoms: C21_25  and  O5_27 
REMARK    9  A    between atoms: C25_30  and  O6_31 
REMARK   10  A    between atoms: C34_42  and  O9_43 
ROOT
HETATM    1  C9  UNL     1      -6.583   5.429  13.052  1.00  0.00     0.046 C 
HETATM    2  C10 UNL     1      -5.692   4.481  13.367  1.00  0.00     0.011 C 
HETATM    3  C11 UNL     1      -4.219   4.769  13.430  1.00  0.00     0.019 C 
HETATM    4  C12 UNL     1      -3.601   4.453  12.053  1.00  0.00     0.010 C 
HETATM    5  C13 UNL     1      -2.072   4.561  12.043  1.00  0.00     0.009 C 
HETATM    6  C14 UNL     1      -1.526   5.532  13.107  1.00  0.00     0.025 C 
HETATM    7  C15 UNL     1      -2.529   6.705  13.248  1.00  0.00     0.001 C 
HETATM    8  C16 UNL     1      -1.852   7.911  13.900  1.00  0.00     0.007 C 
HETATM    9  C17 UNL     1      -0.778   8.466  12.967  1.00  0.00     0.013 C 
HETATM   10  C18 UNL     1       0.241   7.412  12.462  1.00  0.00    -0.007 C 
HETATM   11  C19 UNL     1       1.651   7.917  12.872  1.00  0.00     0.019 C 
HETATM   12  C20 UNL     1       0.136   7.175  10.920  1.00  0.00     0.025 C 
HETATM   13  C23 UNL     1       0.825   5.813  10.697  1.00  0.00     0.011 C 
HETATM   14  C24 UNL     1       0.830   5.099  12.050  1.00  0.00     0.039 C 
HETATM   15  C25 UNL     1      -0.020   5.964  12.995  1.00  0.00     0.070 C 
HETATM   16  C26 UNL     1      -3.866   6.223  13.933  1.00  0.00    -0.033 C 
HETATM   17  C27 UNL     1      -3.691   6.151  15.476  1.00  0.00     0.016 C 
HETATM   18  C28 UNL     1      -5.011   7.267  13.670  1.00  0.00     0.016 C 
HETATM   19  C29 UNL     1      -6.131   6.816  12.732  1.00  0.00     0.065 C 
ENDROOT
BRANCH   1  20
HETATM   20  O4  UNL     1      -7.916   5.149  12.854  1.00  0.00    -0.325 OA
BRANCH  20  21
HETATM   21  C8  UNL     1      -8.784   5.815  13.792  1.00  0.00     0.269 C 
HETATM   22  C7  UNL     1      -7.880   6.721  14.627  1.00  0.00     0.095 C 
HETATM   23  C6  UNL     1      -8.677   7.600  15.580  1.00  0.00     0.154 C 
HETATM   24  C5  UNL     1      -9.845   8.312  14.867  1.00  0.00     0.182 C 
HETATM   25  C30 UNL     1     -10.636   7.276  14.046  1.00  0.00     0.152 C 
HETATM   26  O7  UNL     1      -9.766   6.616  13.124  1.00  0.00    -0.353 OA
HETATM   27  C31 UNL     1     -11.745   7.935  13.229  1.00  0.00     0.042 C 
BRANCH  23  28
HETATM   28  O3  UNL     1      -9.174   6.802  16.659  1.00  0.00    -0.393 OA
HETATM   29  H10 UNL     1      -9.650   7.436  17.237  1.00  0.00     0.210 HD
ENDBRANCH  23  28
BRANCH  24  30
HETATM   30  O2  UNL     1     -10.740   8.965  15.782  1.00  0.00    -0.351 OA
BRANCH  30  31
HETATM   31  C4  UNL     1     -10.393  10.318  16.070  1.00  0.00     0.263 C 
HETATM   32  C3  UNL     1     -11.224  11.213  15.153  1.00  0.00     0.095 C 
HETATM   33  C2  UNL     1     -10.942  12.683  15.453  1.00  0.00     0.156 C 
HETATM   34  C34 UNL     1     -11.144  12.958  16.955  1.00  0.00     0.175 C 
HETATM   35  C32 UNL     1     -10.360  11.936  17.799  1.00  0.00     0.151 C 
HETATM   36  O8  UNL     1     -10.723  10.598  17.430  1.00  0.00    -0.354 OA
HETATM   37  C33 UNL     1     -10.646  12.099  19.287  1.00  0.00     0.042 C 
BRANCH  33  38
HETATM   38  O1  UNL     1      -9.576  13.025  15.140  1.00  0.00    -0.388 OA
HETATM   39  C1  UNL     1      -9.456  13.876  14.001  1.00  0.00     0.202 C 
ENDBRANCH  33  38
BRANCH  34  40
HETATM   40  O9  UNL     1     -10.718  14.290  17.250  1.00  0.00    -0.390 OA
HETATM   41  H56 UNL     1      -9.879  14.412  16.763  1.00  0.00     0.210 HD
ENDBRANCH  34  40
ENDBRANCH  30  31
ENDBRANCH  24  30
ENDBRANCH  20  21
ENDBRANCH   1  20
BRANCH  15  42
HETATM   42  O6  UNL     1       0.523   5.849  14.319  1.00  0.00    -0.389 OA
HETATM   43  H39 UNL     1       0.575   4.903  14.538  1.00  0.00     0.210 HD
ENDBRANCH  15  42
BRANCH  12  44
HETATM   44  C21 UNL     1       0.650   8.292   9.990  1.00  0.00     0.119 C 
HETATM   45  C22 UNL     1      -0.364   8.630   8.899  1.00  0.00     0.040 C 
BRANCH  44  46
HETATM   46  O5  UNL     1       1.863   7.911   9.351  1.00  0.00    -0.396 OA
HETATM   47  H34 UNL     1       2.168   8.665   8.818  1.00  0.00     0.210 HD
ENDBRANCH  44  46
ENDBRANCH  12  44
TORSDOF 10
ENDMDL
MODEL 7
REMARK minimizedAffinity -9.75146103
REMARK CNNscore 0.408669174
REMARK CNNaffinity 6.92410421
REMARK  10 active torsions:
REMARK  status: ('A' for Active; 'I' for Inactive)
REMARK    1  A    between atoms: O1_2  and  C2_3 
REMARK    2  A    between atoms: C4_5  and  O2_6 
REMARK    3  A    between atoms: O2_6  and  C5_7 
REMARK    4  A    between atoms: C6_8  and  O3_9 
REMARK    5  A    between atoms: C8_11  and  O4_12 
REMARK    6  A    between atoms: O4_12  and  C9_13 
REMARK    7  A    between atoms: C20_24  and  C21_25 
REMARK    8  A    between atoms: C21_25  and  O5_27 
REMARK    9  A    between atoms: C25_30  and  O6_31 
REMARK   10  A    between atoms: C34_42  and  O9_43 
ROOT
HETATM    1  C9  UNL     1       0.310   7.696  11.318  1.00  0.00     0.046 C 
HETATM    2  C10 UNL     1      -0.028   8.329  12.448  1.00  0.00     0.011 C 
HETATM    3  C11 UNL     1      -1.224   7.917  13.258  1.00  0.00     0.019 C 
HETATM    4  C12 UNL     1      -2.436   8.750  12.797  1.00  0.00     0.010 C 
HETATM    5  C13 UNL     1      -3.682   8.526  13.662  1.00  0.00     0.009 C 
HETATM    6  C14 UNL     1      -3.707   7.143  14.342  1.00  0.00     0.025 C 
HETATM    7  C15 UNL     1      -3.066   6.119  13.372  1.00  0.00     0.001 C 
HETATM    8  C16 UNL     1      -3.478   4.696  13.749  1.00  0.00     0.007 C 
HETATM    9  C17 UNL     1      -4.978   4.516  13.523  1.00  0.00     0.013 C 
HETATM   10  C18 UNL     1      -5.863   5.593  14.202  1.00  0.00    -0.007 C 
HETATM   11  C19 UNL     1      -6.855   4.840  15.129  1.00  0.00     0.019 C 
HETATM   12  C20 UNL     1      -6.610   6.490  13.162  1.00  0.00     0.025 C 
HETATM   13  C23 UNL     1      -7.010   7.747  13.963  1.00  0.00     0.011 C 
HETATM   14  C24 UNL     1      -6.098   7.792  15.191  1.00  0.00     0.039 C 
HETATM   15  C25 UNL     1      -5.058   6.677  14.993  1.00  0.00     0.070 C 
HETATM   16  C26 UNL     1      -1.513   6.365  13.239  1.00  0.00    -0.033 C 
HETATM   17  C27 UNL     1      -0.759   5.737  14.445  1.00  0.00     0.016 C 
HETATM   18  C28 UNL     1      -0.963   5.645  11.956  1.00  0.00     0.016 C 
HETATM   19  C29 UNL     1      -0.514   6.557  10.812  1.00  0.00     0.065 C 
ENDROOT
BRANCH   1  20
HETATM   20  O4  UNL     1       1.315   8.148  10.493  1.00  0.00    -0.325 OA
BRANCH  20  21
HETATM   21  C8  UNL     1       2.634   7.943  11.037  1.00  0.00     0.269 C 
HETATM   22  C7  UNL     1       3.394   7.128   9.991  1.00  0.00     0.095 C 
HETATM   23  C6  UNL     1       4.858   6.945  10.362  1.00  0.00     0.154 C 
HETATM   24  C5  UNL     1       5.520   8.278  10.768  1.00  0.00     0.182 C 
HETATM   25  C30 UNL     1       4.623   8.992  11.796  1.00  0.00     0.152 C 
HETATM   26  O7  UNL     1       3.315   9.185  11.251  1.00  0.00    -0.353 OA
HETATM   27  C31 UNL     1       5.170  10.370  12.159  1.00  0.00     0.042 C 
BRANCH  23  28
HETATM   28  O3  UNL     1       4.962   6.001  11.433  1.00  0.00    -0.393 OA
HETATM   29  H10 UNL     1       5.925   5.918  11.598  1.00  0.00     0.210 HD
ENDBRANCH  23  28
BRANCH  24  30
HETATM   30  O2  UNL     1       6.829   8.100  11.334  1.00  0.00    -0.351 OA
BRANCH  30  31
HETATM   31  C4  UNL     1       6.925   8.469  12.707  1.00  0.00     0.263 C 
HETATM   32  C3  UNL     1       6.727   7.205  13.541  1.00  0.00     0.095 C 
HETATM   33  C2  UNL     1       6.877   7.523  15.027  1.00  0.00     0.156 C 
HETATM   34  C34 UNL     1       8.218   8.239  15.275  1.00  0.00     0.175 C 
HETATM   35  C32 UNL     1       8.377   9.430  14.313  1.00  0.00     0.151 C 
HETATM   36  O8  UNL     1       8.227   8.999  12.953  1.00  0.00    -0.354 OA
HETATM   37  C33 UNL     1       9.751  10.078  14.442  1.00  0.00     0.042 C 
BRANCH  33  38
HETATM   38  O1  UNL     1       5.832   8.411  15.477  1.00  0.00    -0.388 OA
HETATM   39  C1  UNL     1       4.522   7.876  15.294  1.00  0.00     0.202 C 
ENDBRANCH  33  38
BRANCH  34  40
HETATM   40  O9  UNL     1       8.271   8.678  16.634  1.00  0.00    -0.390 OA
HETATM   41  H56 UNL     1       7.388   9.053  16.825  1.00  0.00     0.210 HD
ENDBRANCH  34  40
ENDBRANCH  30  31
ENDBRANCH  24  30
ENDBRANCH  20  21
ENDBRANCH   1  20
BRANCH  15  42
HETATM   42  O6  UNL     1      -4.712   6.151  16.284  1.00  0.00    -0.389 OA
HETATM   43  H39 UNL     1      -4.437   6.896  16.844  1.00  0.00     0.210 HD
ENDBRANCH  15  42
BRANCH  12  44
HETATM   44  C21 UNL     1      -7.776   5.855  12.378  1.00  0.00     0.119 C 
HETATM   45  C22 UNL     1      -9.115   6.084  13.073  1.00  0.00     0.040 C 
BRANCH  44  46
HETATM   46  O5  UNL     1      -7.595   4.450  12.236  1.00  0.00    -0.396 OA
HETATM   47  H34 UNL     1      -8.328   4.109  11.696  1.00  0.00     0.210 HD
ENDBRANCH  44  46
ENDBRANCH  12  44
TORSDOF 10
ENDMDL
MODEL 8
REMARK minimizedAffinity -9.85674763
REMARK CNNscore 0.372751951
REMARK CNNaffinity 7.2118454
REMARK  10 active torsions:
REMARK  status: ('A' for Active; 'I' for Inactive)
REMARK    1  A    between atoms: O1_2  and  C2_3 
REMARK    2  A    between atoms: C4_5  and  O2_6 
REMARK    3  A    between atoms: O2_6  and  C5_7 
REMARK    4  A    between atoms: C6_8  and  O3_9 
REMARK    5  A    between atoms: C8_11  and  O4_12 
REMARK    6  A    between atoms: O4_12  and  C9_13 
REMARK    7  A    between atoms: C20_24  and  C21_25 
REMARK    8  A    between atoms: C21_25  and  O5_27 
REMARK    9  A    between atoms: C25_30  and  O6_31 
REMARK   10  A    between atoms: C34_42  and  O9_43 
ROOT
HETATM    1  C9  UNL     1      -6.354   4.944  12.841  1.00  0.00     0.046 C 
HETATM    2  C10 UNL     1      -5.392   4.074  13.171  1.00  0.00     0.011 C 
HETATM    3  C11 UNL     1      -3.948   4.482  13.247  1.00  0.00     0.019 C 
HETATM    4  C12 UNL     1      -3.292   4.212  11.879  1.00  0.00     0.010 C 
HETATM    5  C13 UNL     1      -1.776   4.445  11.884  1.00  0.00     0.009 C 
HETATM    6  C14 UNL     1      -1.324   5.463  12.948  1.00  0.00     0.025 C 
HETATM    7  C15 UNL     1      -2.421   6.551  13.070  1.00  0.00     0.001 C 
HETATM    8  C16 UNL     1      -1.853   7.812  13.722  1.00  0.00     0.007 C 
HETATM    9  C17 UNL     1      -0.818   8.448  12.796  1.00  0.00     0.013 C 
HETATM   10  C18 UNL     1       0.290   7.479  12.308  1.00  0.00    -0.007 C 
HETATM   11  C19 UNL     1       1.649   8.100  12.730  1.00  0.00     0.019 C 
HETATM   12  C20 UNL     1       0.221   7.226  10.768  1.00  0.00     0.025 C 
HETATM   13  C23 UNL     1       1.023   5.923  10.560  1.00  0.00     0.011 C 
HETATM   14  C24 UNL     1       1.072   5.219  11.918  1.00  0.00     0.039 C 
HETATM   15  C25 UNL     1       0.142   6.017  12.848  1.00  0.00     0.070 C 
HETATM   16  C26 UNL     1      -3.721   5.964  13.744  1.00  0.00    -0.033 C 
HETATM   17  C27 UNL     1      -3.558   5.914  15.290  1.00  0.00     0.016 C 
HETATM   18  C28 UNL     1      -4.945   6.908  13.463  1.00  0.00     0.016 C 
HETATM   19  C29 UNL     1      -6.015   6.362  12.516  1.00  0.00     0.065 C 
ENDROOT
BRANCH   1  20
HETATM   20  O4  UNL     1      -7.658   4.554  12.631  1.00  0.00    -0.325 OA
BRANCH  20  21
HETATM   21  C8  UNL     1      -8.603   5.249  13.467  1.00  0.00     0.269 C 
HETATM   22  C7  UNL     1      -7.769   6.000  14.505  1.00  0.00     0.095 C 
HETATM   23  C6  UNL     1      -8.626   6.898  15.384  1.00  0.00     0.154 C 
HETATM   24  C5  UNL     1      -9.585   7.774  14.552  1.00  0.00     0.182 C 
HETATM   25  C30 UNL     1     -10.323   6.883  13.535  1.00  0.00     0.152 C 
HETATM   26  O7  UNL     1      -9.378   6.191  12.716  1.00  0.00    -0.353 OA
HETATM   27  C31 UNL     1     -11.211   7.706  12.605  1.00  0.00     0.042 C 
BRANCH  23  28
HETATM   28  O3  UNL     1      -9.370   6.093  16.303  1.00  0.00    -0.393 OA
HETATM   29  H10 UNL     1      -9.874   6.736  16.845  1.00  0.00     0.210 HD
ENDBRANCH  23  28
BRANCH  24  30
HETATM   30  O2  UNL     1     -10.554   8.462  15.360  1.00  0.00    -0.351 OA
BRANCH  30  31
HETATM   31  C4  UNL     1     -11.745   8.820  14.663  1.00  0.00     0.263 C 
HETATM   32  C3  UNL     1     -12.928   8.285  15.467  1.00  0.00     0.095 C 
HETATM   33  C2  UNL     1     -14.243   8.686  14.802  1.00  0.00     0.156 C 
HETATM   34  C34 UNL     1     -14.270  10.210  14.579  1.00  0.00     0.175 C 
HETATM   35  C32 UNL     1     -12.987  10.672  13.864  1.00  0.00     0.151 C 
HETATM   36  O8  UNL     1     -11.827  10.243  14.592  1.00  0.00    -0.354 OA
HETATM   37  C33 UNL     1     -12.923  12.190  13.748  1.00  0.00     0.042 C 
BRANCH  33  38
HETATM   38  O1  UNL     1     -14.383   8.065  13.508  1.00  0.00    -0.388 OA
HETATM   39  C1  UNL     1     -15.341   7.008  13.493  1.00  0.00     0.202 C 
ENDBRANCH  33  38
BRANCH  34  40
HETATM   40  O9  UNL     1     -15.426  10.551  13.810  1.00  0.00    -0.390 OA
HETATM   41  H56 UNL     1     -15.481   9.877  13.104  1.00  0.00     0.210 HD
ENDBRANCH  34  40
ENDBRANCH  30  31
ENDBRANCH  24  30
ENDBRANCH  20  21
ENDBRANCH   1  20
BRANCH  15  42
HETATM   42  O6  UNL     1       0.679   5.955  14.179  1.00  0.00    -0.389 OA
HETATM   43  H39 UNL     1       0.806   5.018  14.404  1.00  0.00     0.210 HD
ENDBRANCH  15  42
BRANCH  12  44
HETATM   44  C21 UNL     1       0.651   8.376   9.835  1.00  0.00     0.119 C 
HETATM   45  C22 UNL     1      -0.362   8.608   8.718  1.00  0.00     0.040 C 
BRANCH  44  46
HETATM   46  O5  UNL     1       1.910   8.103   9.229  1.00  0.00    -0.396 OA
HETATM   47  H34 UNL     1       2.157   8.877   8.694  1.00  0.00     0.210 HD
ENDBRANCH  44  46
ENDBRANCH  12  44
TORSDOF 10
ENDMDL
MODEL 9
REMARK minimizedAffinity -10.1398411
REMARK CNNscore 0.348067373
REMARK CNNaffinity 7.33653307
REMARK  10 active torsions:
REMARK  status: ('A' for Active; 'I' for Inactive)
REMARK    1  A    between atoms: O1_2  and  C2_3 
REMARK    2  A    between atoms: C4_5  and  O2_6 
REMARK    3  A    between atoms: O2_6  and  C5_7 
REMARK    4  A    between atoms: C6_8  and  O3_9 
REMARK    5  A    between atoms: C8_11  and  O4_12 
REMARK    6  A    between atoms: O4_12  and  C9_13 
REMARK    7  A    between atoms: C20_24  and  C21_25 
REMARK    8  A    between atoms: C21_25  and  O5_27 
REMARK    9  A    between atoms: C25_30  and  O6_31 
REMARK   10  A    between atoms: C34_42  and  O9_43 
ROOT
HETATM    1  C9  UNL     1      -5.114   6.636  14.736  1.00  0.00     0.046 C 
HETATM    2  C10 UNL     1      -5.961   6.272  15.706  1.00  0.00     0.011 C 
HETATM    3  C11 UNL     1      -7.451   6.332  15.519  1.00  0.00     0.019 C 
HETATM    4  C12 UNL     1      -7.951   7.700  16.024  1.00  0.00     0.010 C 
HETATM    5  C13 UNL     1      -9.480   7.816  16.028  1.00  0.00     0.009 C 
HETATM    6  C14 UNL     1     -10.159   6.902  14.989  1.00  0.00     0.025 C 
HETATM    7  C15 UNL     1      -9.246   6.833  13.739  1.00  0.00     0.001 C 
HETATM    8  C16 UNL     1     -10.042   6.363  12.522  1.00  0.00     0.007 C 
HETATM    9  C17 UNL     1     -11.083   7.417  12.149  1.00  0.00     0.013 C 
HETATM   10  C18 UNL     1     -11.995   7.862  13.321  1.00  0.00    -0.007 C 
HETATM   11  C19 UNL     1     -13.459   7.598  12.877  1.00  0.00     0.019 C 
HETATM   12  C20 UNL     1     -11.769   9.357  13.715  1.00  0.00     0.025 C 
HETATM   13  C23 UNL     1     -12.352   9.468  15.140  1.00  0.00     0.011 C 
HETATM   14  C24 UNL     1     -12.404   8.046  15.702  1.00  0.00     0.039 C 
HETATM   15  C25 UNL     1     -11.678   7.154  14.681  1.00  0.00     0.070 C 
HETATM   16  C26 UNL     1      -7.931   6.018  14.048  1.00  0.00    -0.033 C 
HETATM   17  C27 UNL     1      -8.206   4.490  13.966  1.00  0.00     0.016 C 
HETATM   18  C28 UNL     1      -6.840   6.326  12.959  1.00  0.00     0.016 C 
HETATM   19  C29 UNL     1      -5.631   7.137  13.427  1.00  0.00     0.065 C 
ENDROOT
BRANCH   1  20
HETATM   20  O4  UNL     1      -3.755   6.720  14.939  1.00  0.00    -0.325 OA
BRANCH  20  21
HETATM   21  C8  UNL     1      -3.017   7.030  13.741  1.00  0.00     0.269 C 
HETATM   22  C7  UNL     1      -1.938   8.028  14.162  1.00  0.00     0.095 C 
HETATM   23  C6  UNL     1      -0.982   8.350  13.022  1.00  0.00     0.154 C 
HETATM   24  C5  UNL     1      -0.464   7.074  12.327  1.00  0.00     0.182 C 
HETATM   25  C30 UNL     1      -1.660   6.162  11.998  1.00  0.00     0.152 C 
HETATM   26  O7  UNL     1      -2.391   5.865  13.191  1.00  0.00    -0.353 OA
HETATM   27  C31 UNL     1      -1.206   4.831  11.404  1.00  0.00     0.042 C 
BRANCH  23  28
HETATM   28  O3  UNL     1      -1.643   9.192  12.073  1.00  0.00    -0.393 OA
HETATM   29  H10 UNL     1      -0.964   9.374  11.388  1.00  0.00     0.210 HD
ENDBRANCH  23  28
BRANCH  24  30
HETATM   30  O2  UNL     1       0.256   7.354  11.116  1.00  0.00    -0.351 OA
BRANCH  30  31
HETATM   31  C4  UNL     1       1.523   6.706  11.028  1.00  0.00     0.263 C 
HETATM   32  C3  UNL     1       1.907   6.640   9.552  1.00  0.00     0.095 C 
HETATM   33  C2  UNL     1       3.286   6.006   9.392  1.00  0.00     0.156 C 
HETATM   34  C34 UNL     1       4.307   6.746  10.277  1.00  0.00     0.175 C 
HETATM   35  C32 UNL     1       3.783   6.862  11.720  1.00  0.00     0.151 C 
HETATM   36  O8  UNL     1       2.489   7.483  11.734  1.00  0.00    -0.354 OA
HETATM   37  C33 UNL     1       4.709   7.705  12.588  1.00  0.00     0.042 C 
BRANCH  33  38
HETATM   38  O1  UNL     1       3.277   4.627   9.817  1.00  0.00    -0.388 OA
HETATM   39  C1  UNL     1       4.057   3.776   8.979  1.00  0.00     0.202 C 
ENDBRANCH  33  38
BRANCH  34  40
HETATM   40  O9  UNL     1       5.551   6.043  10.247  1.00  0.00    -0.390 OA
HETATM   41  H56 UNL     1       5.320   5.096  10.324  1.00  0.00     0.210 HD
ENDBRANCH  34  40
ENDBRANCH  30  31
ENDBRANCH  24  30
ENDBRANCH  20  21
ENDBRANCH   1  20
BRANCH  15  42
HETATM   42  O6  UNL     1     -12.302   5.861  14.691  1.00  0.00    -0.389 OA
HETATM   43  H39 UNL     1     -12.308   5.541  15.609  1.00  0.00     0.210 HD
ENDBRANCH  15  42
BRANCH  12  44
HETATM   44  C21 UNL     1     -12.289  10.437  12.744  1.00  0.00     0.119 C 
HETATM   45  C22 UNL     1     -13.688  10.914  13.126  1.00  0.00     0.040 C 
BRANCH  44  46
HETATM   46  O5  UNL     1     -12.348   9.944  11.411  1.00  0.00    -0.396 OA
HETATM   47  H34 UNL     1     -12.633  10.674  10.835  1.00  0.00     0.210 HD
ENDBRANCH  44  46
ENDBRANCH  12  44
TORSDOF 10
ENDMDL
