MODEL 1
REMARK minimizedAffinity -9.56306744
REMARK CNNscore 0.622200429
REMARK CNNaffinity 8.12079239
REMARK  12 active torsions:
REMARK  status: ('A' for Active; 'I' for Inactive)
REMARK    1  A    between atoms: C2_2  and  C3_4 
REMARK    2  A    between atoms: C3_4  and  O2_5 
REMARK    3  A    between atoms: N1_15  and  O3_17 
REMARK    4  A    between atoms: O3_17  and  C13_18 
REMARK    5  A    between atoms: C13_18  and  C14_19 
REMARK       I    between atoms: C14_19  and  N2_21 
REMARK    6  A    between atoms: N2_21  and  C15_22 
REMARK    7  A    between atoms: C15_22  and  C16_23 
REMARK       I    between atoms: C16_23  and  N3_25 
REMARK    8  A    between atoms: N3_25  and  C17_26 
REMARK    9  A    between atoms: C17_26  and  C18_27 
REMARK   10  A    between atoms: C17_26  and  C27_37 
REMARK   11  A    between atoms: C18_27  and  C19_28 
REMARK   12  A    between atoms: C27_37  and  O7_39 
ROOT
HETATM    1  O3  UNL     1       0.294  52.431 -20.095  1.00  0.00    -0.271 OA
ENDROOT
BRANCH   1   2
HETATM    2  N1  UNL     1       1.115  52.974 -19.096  1.00  0.00    -0.271 N 
HETATM    3  C12 UNL     1       0.939  52.416 -17.937  1.00  0.00     0.032 C 
HETATM    4  C11 UNL     1      -0.043  51.346 -17.611  1.00  0.00     0.030 C 
HETATM    5  C28 UNL     1       1.783  52.941 -16.796  1.00  0.00     0.060 C 
HETATM    6  C10 UNL     1      -0.056  50.746 -16.403  1.00  0.00    -0.069 C 
HETATM    7  C9  UNL     1      -1.140  49.745 -16.076  1.00  0.00     0.035 C 
HETATM    8  C30 UNL     1       0.962  51.029 -15.290  1.00  0.00    -0.016 C 
HETATM    9  C8  UNL     1      -0.563  48.443 -15.535  1.00  0.00     0.010 C 
HETATM   10  C7  UNL     1       0.340  48.688 -14.318  1.00  0.00    -0.004 C 
HETATM   11  C6  UNL     1       0.836  47.356 -13.711  1.00  0.00     0.002 C 
HETATM   12  C32 UNL     1       1.486  49.667 -14.683  1.00  0.00     0.002 C 
HETATM   13  C5  UNL     1       1.540  46.401 -14.690  1.00  0.00     0.009 C 
HETATM   14  C35 UNL     1       1.843  47.518 -12.550  1.00  0.00    -0.002 C 
HETATM   15  C4  UNL     1       2.535  45.577 -13.865  1.00  0.00     0.047 C 
HETATM   16  C3  UNL     1       2.414  46.069 -12.408  1.00  0.00     0.125 C 
HETATM   17  C34 UNL     1       2.960  48.526 -12.939  1.00  0.00     0.013 C 
HETATM   18  C36 UNL     1       1.152  48.014 -11.267  1.00  0.00     0.019 C 
HETATM   19  C33 UNL     1       2.428  49.856 -13.477  1.00  0.00     0.007 C 
HETATM   20  C29 UNL     1       2.181  51.803 -15.871  1.00  0.00     0.020 C 
HETATM   21  C31 UNL     1       0.275  51.914 -14.223  1.00  0.00     0.020 C 
ATOM     22  H1  UNL     1       1.780  53.729 -19.263  1.00  0.00     0.194 HD
BRANCH  16  23
HETATM   23  C2  UNL     1       1.480  45.110 -11.617  1.00  0.00     0.158 C 
HETATM   24  C1  UNL     1       0.851  43.967 -12.375  1.00  0.00     0.094 C 
HETATM   25  O1  UNL     1       1.252  45.254 -10.413  1.00  0.00    -0.295 OA
ENDBRANCH  16  23
BRANCH  16  26
HETATM   26  O2  UNL     1       3.706  46.092 -11.809  1.00  0.00    -0.381 OA
HETATM   27  H4  UNL     1       4.148  45.246 -12.010  1.00  0.00     0.211 HD
ENDBRANCH  16  26
ENDBRANCH   1   2
BRANCH   1  28
HETATM   28  C13 UNL     1       1.061  52.363 -21.294  1.00  0.00     0.303 C 
BRANCH  28  29
HETATM   29  C14 UNL     1       1.190  53.727 -21.961  1.00  0.00     0.244 C 
HETATM   30  O4  UNL     1       1.586  54.717 -21.352  1.00  0.00    -0.271 OA
HETATM   31  N2  UNL     1       0.748  53.787 -23.267  1.00  0.00    -0.350 N 
HETATM   32  H18 UNL     1       0.681  52.898 -23.750  1.00  0.00     0.163 HD
BRANCH  31  33
HETATM   33  C15 UNL     1       0.999  54.983 -24.066  1.00  0.00     0.225 C 
BRANCH  33  34
HETATM   34  C16 UNL     1       0.500  54.898 -25.516  1.00  0.00     0.236 C 
HETATM   35  O5  UNL     1       0.251  55.900 -26.180  1.00  0.00    -0.272 OA
HETATM   36  N3  UNL     1       0.440  53.628 -26.032  1.00  0.00    -0.345 N 
HETATM   37  H21 UNL     1       0.612  52.849 -25.406  1.00  0.00     0.163 HD
BRANCH  36  38
HETATM   38  C17 UNL     1      -0.151  53.323 -27.340  1.00  0.00     0.186 C 
BRANCH  38  39
HETATM   39  C18 UNL     1      -1.658  53.056 -27.197  1.00  0.00     0.077 C 
BRANCH  39  40
HETATM   40  C19 UNL     1      -1.991  51.960 -26.231  1.00  0.00    -0.028 A 
HETATM   41  C20 UNL     1      -1.647  51.933 -24.892  1.00  0.00     0.096 A 
HETATM   42  N4  UNL     1      -2.103  50.763 -24.352  1.00  0.00    -0.365 N 
HETATM   43  C21 UNL     1      -2.735  50.010 -25.314  1.00  0.00     0.042 A 
HETATM   44  H26 UNL     1      -1.988  50.481 -23.388  1.00  0.00     0.165 HD
HETATM   45  C22 UNL     1      -3.340  48.750 -25.217  1.00  0.00     0.030 A 
HETATM   46  C26 UNL     1      -2.686  50.737 -26.504  1.00  0.00    -0.002 A 
HETATM   47  C23 UNL     1      -3.917  48.219 -26.374  1.00  0.00     0.002 A 
HETATM   48  C24 UNL     1      -3.886  48.919 -27.578  1.00  0.00     0.001 A 
HETATM   49  C25 UNL     1      -3.274  50.176 -27.657  1.00  0.00     0.014 A 
ENDBRANCH  39  40
ENDBRANCH  38  39
BRANCH  38  50
HETATM   50  C27 UNL     1       0.544  52.086 -27.916  1.00  0.00     0.163 C 
HETATM   51  O6  UNL     1       1.654  51.659 -27.639  1.00  0.00    -0.648 OA
BRANCH  50  52
HETATM   52  O7  UNL     1      -0.176  51.456 -28.880  1.00  0.00    -0.775 OA
HETATM   53  H31 UNL     1       0.407  50.710 -29.138  1.00  0.00     0.167 HD
ENDBRANCH  50  52
ENDBRANCH  38  50
ENDBRANCH  36  38
ENDBRANCH  33  34
ENDBRANCH  31  33
ENDBRANCH  28  29
ENDBRANCH   1  28
TORSDOF 12
ENDMDL
MODEL 2
REMARK minimizedAffinity -9.19296932
REMARK CNNscore 0.485915929
REMARK CNNaffinity 7.33915901
REMARK  12 active torsions:
REMARK  status: ('A' for Active; 'I' for Inactive)
REMARK    1  A    between atoms: C2_2  and  C3_4 
REMARK    2  A    between atoms: C3_4  and  O2_5 
REMARK    3  A    between atoms: N1_15  and  O3_17 
REMARK    4  A    between atoms: O3_17  and  C13_18 
REMARK    5  A    between atoms: C13_18  and  C14_19 
REMARK       I    between atoms: C14_19  and  N2_21 
REMARK    6  A    between atoms: N2_21  and  C15_22 
REMARK    7  A    between atoms: C15_22  and  C16_23 
REMARK       I    between atoms: C16_23  and  N3_25 
REMARK    8  A    between atoms: N3_25  and  C17_26 
REMARK    9  A    between atoms: C17_26  and  C18_27 
REMARK   10  A    between atoms: C17_26  and  C27_37 
REMARK   11  A    between atoms: C18_27  and  C19_28 
REMARK   12  A    between atoms: C27_37  and  O7_39 
ROOT
HETATM    1  O3  UNL     1      -2.148  51.739 -14.249  1.00  0.00    -0.271 OA
ENDROOT
BRANCH   1   2
HETATM    2  N1  UNL     1      -2.938  52.410 -13.304  1.00  0.00    -0.271 N 
HETATM    3  C12 UNL     1      -2.323  52.606 -12.177  1.00  0.00     0.032 C 
HETATM    4  C11 UNL     1      -0.948  52.153 -11.830  1.00  0.00     0.030 C 
HETATM    5  C28 UNL     1      -3.100  53.323 -11.095  1.00  0.00     0.060 C 
HETATM    6  C10 UNL     1      -0.356  52.520 -10.676  1.00  0.00    -0.069 C 
HETATM    7  C9  UNL     1       0.995  51.947 -10.311  1.00  0.00     0.035 C 
HETATM    8  C30 UNL     1      -0.978  53.485  -9.657  1.00  0.00    -0.016 C 
HETATM    9  C8  UNL     1       1.988  53.038  -9.932  1.00  0.00     0.010 C 
HETATM   10  C7  UNL     1       1.447  53.925  -8.801  1.00  0.00    -0.004 C 
HETATM   11  C6  UNL     1       2.502  54.961  -8.350  1.00  0.00     0.002 C 
HETATM   12  C32 UNL     1       0.093  54.559  -9.210  1.00  0.00     0.002 C 
HETATM   13  C5  UNL     1       3.084  55.847  -9.464  1.00  0.00     0.009 C 
HETATM   14  C35 UNL     1       1.997  55.968  -7.292  1.00  0.00    -0.002 C 
HETATM   15  C4  UNL     1       3.483  57.175  -8.812  1.00  0.00     0.047 C 
HETATM   16  C3  UNL     1       3.117  57.059  -7.317  1.00  0.00     0.125 C 
HETATM   17  C34 UNL     1       0.626  56.561  -7.720  1.00  0.00     0.013 C 
HETATM   18  C36 UNL     1       1.842  55.307  -5.910  1.00  0.00     0.019 C 
HETATM   19  C33 UNL     1      -0.411  55.501  -8.100  1.00  0.00     0.007 C 
HETATM   20  C29 UNL     1      -2.178  54.235 -10.304  1.00  0.00     0.020 C 
HETATM   21  C31 UNL     1      -1.500  52.652  -8.462  1.00  0.00     0.020 C 
ATOM     22  H1  UNL     1      -3.895  52.712 -13.484  1.00  0.00     0.194 HD
BRANCH  16  23
HETATM   23  C2  UNL     1       4.383  56.666  -6.506  1.00  0.00     0.158 C 
HETATM   24  C1  UNL     1       5.542  56.070  -7.268  1.00  0.00     0.094 C 
HETATM   25  O1  UNL     1       4.464  56.832  -5.287  1.00  0.00    -0.295 OA
ENDBRANCH  16  23
BRANCH  16  26
HETATM   26  O2  UNL     1       2.614  58.310  -6.857  1.00  0.00    -0.381 OA
HETATM   27  H4  UNL     1       3.218  59.010  -7.165  1.00  0.00     0.211 HD
ENDBRANCH  16  26
ENDBRANCH   1   2
BRANCH   1  28
HETATM   28  C13 UNL     1      -3.026  51.131 -15.192  1.00  0.00     0.303 C 
BRANCH  28  29
HETATM   29  C14 UNL     1      -2.269  50.561 -16.385  1.00  0.00     0.244 C 
HETATM   30  O4  UNL     1      -1.071  50.298 -16.333  1.00  0.00    -0.271 OA
HETATM   31  N2  UNL     1      -3.005  50.447 -17.547  1.00  0.00    -0.350 N 
HETATM   32  H18 UNL     1      -4.011  50.445 -17.432  1.00  0.00     0.163 HD
BRANCH  31  33
HETATM   33  C15 UNL     1      -2.446  49.737 -18.695  1.00  0.00     0.225 C 
BRANCH  33  34
HETATM   34  C16 UNL     1      -1.919  50.648 -19.813  1.00  0.00     0.236 C 
HETATM   35  O5  UNL     1      -1.379  51.726 -19.578  1.00  0.00    -0.272 OA
HETATM   36  N3  UNL     1      -2.020  50.125 -21.078  1.00  0.00    -0.345 N 
HETATM   37  H21 UNL     1      -2.524  49.253 -21.196  1.00  0.00     0.163 HD
BRANCH  36  38
HETATM   38  C17 UNL     1      -1.714  50.896 -22.289  1.00  0.00     0.186 C 
BRANCH  38  39
HETATM   39  C18 UNL     1      -0.384  51.648 -22.124  1.00  0.00     0.077 C 
BRANCH  39  40
HETATM   40  C19 UNL     1       0.083  52.333 -23.372  1.00  0.00    -0.028 A 
HETATM   41  C20 UNL     1       0.693  53.572 -23.432  1.00  0.00     0.096 A 
HETATM   42  N4  UNL     1       0.947  53.866 -24.743  1.00  0.00    -0.365 N 
HETATM   43  C21 UNL     1       0.508  52.845 -25.553  1.00  0.00     0.042 A 
HETATM   44  H26 UNL     1       1.387  54.712 -25.077  1.00  0.00     0.165 HD
HETATM   45  C22 UNL     1       0.549  52.721 -26.947  1.00  0.00     0.030 A 
HETATM   46  C26 UNL     1      -0.035  51.864 -24.721  1.00  0.00    -0.002 A 
HETATM   47  C23 UNL     1       0.023  51.554 -27.509  1.00  0.00     0.002 A 
HETATM   48  C24 UNL     1      -0.525  50.556 -26.708  1.00  0.00     0.001 A 
HETATM   49  C25 UNL     1      -0.562  50.698 -25.315  1.00  0.00     0.014 A 
ENDBRANCH  39  40
ENDBRANCH  38  39
BRANCH  38  50
HETATM   50  C27 UNL     1      -2.850  51.895 -22.533  1.00  0.00     0.163 C 
HETATM   51  O6  UNL     1      -2.944  52.709 -23.437  1.00  0.00    -0.648 OA
BRANCH  50  52
HETATM   52  O7  UNL     1      -3.813  51.867 -21.576  1.00  0.00    -0.775 OA
HETATM   53  H31 UNL     1      -4.441  52.559 -21.877  1.00  0.00     0.167 HD
ENDBRANCH  50  52
ENDBRANCH  38  50
ENDBRANCH  36  38
ENDBRANCH  33  34
ENDBRANCH  31  33
ENDBRANCH  28  29
ENDBRANCH   1  28
TORSDOF 12
ENDMDL
MODEL 3
REMARK minimizedAffinity -9.03637505
REMARK CNNscore 0.478860587
REMARK CNNaffinity 7.36450434
REMARK  12 active torsions:
REMARK  status: ('A' for Active; 'I' for Inactive)
REMARK    1  A    between atoms: C2_2  and  C3_4 
REMARK    2  A    between atoms: C3_4  and  O2_5 
REMARK    3  A    between atoms: N1_15  and  O3_17 
REMARK    4  A    between atoms: O3_17  and  C13_18 
REMARK    5  A    between atoms: C13_18  and  C14_19 
REMARK       I    between atoms: C14_19  and  N2_21 
REMARK    6  A    between atoms: N2_21  and  C15_22 
REMARK    7  A    between atoms: C15_22  and  C16_23 
REMARK       I    between atoms: C16_23  and  N3_25 
REMARK    8  A    between atoms: N3_25  and  C17_26 
REMARK    9  A    between atoms: C17_26  and  C18_27 
REMARK   10  A    between atoms: C17_26  and  C27_37 
REMARK   11  A    between atoms: C18_27  and  C19_28 
REMARK   12  A    between atoms: C27_37  and  O7_39 
ROOT
HETATM    1  O3  UNL     1      -2.372  52.012 -13.772  1.00  0.00    -0.271 OA
ENDROOT
BRANCH   1   2
HETATM    2  N1  UNL     1      -3.094  52.727 -12.805  1.00  0.00    -0.271 N 
HETATM    3  C12 UNL     1      -2.420  52.925 -11.713  1.00  0.00     0.032 C 
HETATM    4  C11 UNL     1      -1.044  52.435 -11.422  1.00  0.00     0.030 C 
HETATM    5  C28 UNL     1      -3.121  53.688 -10.611  1.00  0.00     0.060 C 
HETATM    6  C10 UNL     1      -0.386  52.804 -10.305  1.00  0.00    -0.069 C 
HETATM    7  C9  UNL     1       0.961  52.195  -9.992  1.00  0.00     0.035 C 
HETATM    8  C30 UNL     1      -0.929  53.809  -9.278  1.00  0.00    -0.016 C 
HETATM    9  C8  UNL     1       2.005  53.260  -9.683  1.00  0.00     0.010 C 
HETATM   10  C7  UNL     1       1.548  54.187  -8.547  1.00  0.00    -0.004 C 
HETATM   11  C6  UNL     1       2.655  55.196  -8.168  1.00  0.00     0.002 C 
HETATM   12  C32 UNL     1       0.196  54.856  -8.906  1.00  0.00     0.002 C 
HETATM   13  C5  UNL     1       3.210  56.041  -9.328  1.00  0.00     0.009 C 
HETATM   14  C35 UNL     1       2.233  56.240  -7.110  1.00  0.00    -0.002 C 
HETATM   15  C4  UNL     1       3.682  57.367  -8.723  1.00  0.00     0.047 C 
HETATM   16  C3  UNL     1       3.385  57.293  -7.211  1.00  0.00     0.125 C 
HETATM   17  C34 UNL     1       0.862  56.868  -7.485  1.00  0.00     0.013 C 
HETATM   18  C36 UNL     1       2.123  55.611  -5.708  1.00  0.00     0.019 C 
HETATM   19  C33 UNL     1      -0.224  55.836  -7.792  1.00  0.00     0.007 C 
HETATM   20  C29 UNL     1      -2.134  54.585  -9.884  1.00  0.00     0.020 C 
HETATM   21  C31 UNL     1      -1.418  53.017  -8.042  1.00  0.00     0.020 C 
ATOM     22  H1  UNL     1      -4.049  53.057 -12.946  1.00  0.00     0.194 HD
BRANCH  16  23
HETATM   23  C2  UNL     1       4.675  56.874  -6.453  1.00  0.00     0.158 C 
HETATM   24  C1  UNL     1       5.745  56.157  -7.239  1.00  0.00     0.094 C 
HETATM   25  O1  UNL     1       4.845  57.115  -5.254  1.00  0.00    -0.295 OA
ENDBRANCH  16  23
BRANCH  16  26
HETATM   26  O2  UNL     1       2.944  58.568  -6.754  1.00  0.00    -0.381 OA
HETATM   27  H4  UNL     1       3.555  59.243  -7.105  1.00  0.00     0.211 HD
ENDBRANCH  16  26
ENDBRANCH   1   2
BRANCH   1  28
HETATM   28  C13 UNL     1      -3.314  51.402 -14.650  1.00  0.00     0.303 C 
BRANCH  28  29
HETATM   29  C14 UNL     1      -2.660  50.349 -15.536  1.00  0.00     0.244 C 
HETATM   30  O4  UNL     1      -1.461  50.093 -15.473  1.00  0.00    -0.271 OA
HETATM   31  N2  UNL     1      -3.494  49.770 -16.472  1.00  0.00    -0.350 N 
HETATM   32  H18 UNL     1      -4.487  49.852 -16.287  1.00  0.00     0.163 HD
BRANCH  31  33
HETATM   33  C15 UNL     1      -3.034  48.618 -17.242  1.00  0.00     0.225 C 
BRANCH  33  34
HETATM   34  C16 UNL     1      -3.543  48.573 -18.690  1.00  0.00     0.236 C 
HETATM   35  O5  UNL     1      -4.575  47.985 -19.001  1.00  0.00    -0.272 OA
HETATM   36  N3  UNL     1      -2.807  49.309 -19.584  1.00  0.00    -0.345 N 
HETATM   37  H21 UNL     1      -1.940  49.725 -19.261  1.00  0.00     0.163 HD
BRANCH  36  38
HETATM   38  C17 UNL     1      -3.039  49.274 -21.032  1.00  0.00     0.186 C 
BRANCH  38  39
HETATM   39  C18 UNL     1      -1.702  49.188 -21.787  1.00  0.00     0.077 C 
BRANCH  39  40
HETATM   40  C19 UNL     1      -1.076  50.520 -22.065  1.00  0.00    -0.028 A 
HETATM   41  C20 UNL     1      -1.007  51.137 -23.300  1.00  0.00     0.096 A 
HETATM   42  N4  UNL     1      -0.341  52.323 -23.154  1.00  0.00    -0.365 N 
HETATM   43  C21 UNL     1       0.039  52.497 -21.844  1.00  0.00     0.042 A 
HETATM   44  H26 UNL     1      -0.146  52.978 -23.898  1.00  0.00     0.165 HD
HETATM   45  C22 UNL     1       0.745  53.547 -21.243  1.00  0.00     0.030 A 
HETATM   46  C26 UNL     1      -0.413  51.384 -21.133  1.00  0.00    -0.002 A 
HETATM   47  C23 UNL     1       0.993  53.458 -19.870  1.00  0.00     0.002 A 
HETATM   48  C24 UNL     1       0.555  52.362 -19.132  1.00  0.00     0.001 A 
HETATM   49  C25 UNL     1      -0.147  51.319 -19.749  1.00  0.00     0.014 A 
ENDBRANCH  39  40
ENDBRANCH  38  39
BRANCH  38  50
HETATM   50  C27 UNL     1      -3.785  50.549 -21.440  1.00  0.00     0.163 C 
HETATM   51  O6  UNL     1      -4.295  50.800 -22.520  1.00  0.00    -0.648 OA
BRANCH  50  52
HETATM   52  O7  UNL     1      -3.808  51.499 -20.469  1.00  0.00    -0.775 OA
HETATM   53  H31 UNL     1      -4.305  52.232 -20.892  1.00  0.00     0.167 HD
ENDBRANCH  50  52
ENDBRANCH  38  50
ENDBRANCH  36  38
ENDBRANCH  33  34
ENDBRANCH  31  33
ENDBRANCH  28  29
ENDBRANCH   1  28
TORSDOF 12
ENDMDL
MODEL 4
REMARK minimizedAffinity -9.30845642
REMARK CNNscore 0.331612706
REMARK CNNaffinity 7.22892141
REMARK  12 active torsions:
REMARK  status: ('A' for Active; 'I' for Inactive)
REMARK    1  A    between atoms: C2_2  and  C3_4 
REMARK    2  A    between atoms: C3_4  and  O2_5 
REMARK    3  A    between atoms: N1_15  and  O3_17 
REMARK    4  A    between atoms: O3_17  and  C13_18 
REMARK    5  A    between atoms: C13_18  and  C14_19 
REMARK       I    between atoms: C14_19  and  N2_21 
REMARK    6  A    between atoms: N2_21  and  C15_22 
REMARK    7  A    between atoms: C15_22  and  C16_23 
REMARK       I    between atoms: C16_23  and  N3_25 
REMARK    8  A    between atoms: N3_25  and  C17_26 
REMARK    9  A    between atoms: C17_26  and  C18_27 
REMARK   10  A    between atoms: C17_26  and  C27_37 
REMARK   11  A    between atoms: C18_27  and  C19_28 
REMARK   12  A    between atoms: C27_37  and  O7_39 
ROOT
HETATM    1  O3  UNL     1      -2.545  51.483 -15.591  1.00  0.00    -0.271 OA
ENDROOT
BRANCH   1   2
HETATM    2  N1  UNL     1      -3.142  51.744 -14.349  1.00  0.00    -0.271 N 
HETATM    3  C12 UNL     1      -2.283  51.800 -13.377  1.00  0.00     0.032 C 
HETATM    4  C11 UNL     1      -0.816  51.571 -13.479  1.00  0.00     0.030 C 
HETATM    5  C28 UNL     1      -2.838  52.076 -11.996  1.00  0.00     0.060 C 
HETATM    6  C10 UNL     1       0.004  51.777 -12.429  1.00  0.00    -0.069 C 
HETATM    7  C9  UNL     1       1.470  51.425 -12.541  1.00  0.00     0.035 C 
HETATM    8  C30 UNL     1      -0.455  52.337 -11.074  1.00  0.00    -0.016 C 
HETATM    9  C8  UNL     1       2.364  52.580 -12.109  1.00  0.00     0.010 C 
HETATM   10  C7  UNL     1       2.024  53.056 -10.689  1.00  0.00    -0.004 C 
HETATM   11  C6  UNL     1       3.004  54.155 -10.218  1.00  0.00     0.002 C 
HETATM   12  C32 UNL     1       0.534  53.476 -10.601  1.00  0.00     0.002 C 
HETATM   13  C5  UNL     1       3.137  55.372 -11.150  1.00  0.00     0.009 C 
HETATM   14  C35 UNL     1       2.661  54.770  -8.842  1.00  0.00    -0.002 C 
HETATM   15  C4  UNL     1       3.503  56.569 -10.266  1.00  0.00     0.047 C 
HETATM   16  C3  UNL     1       3.568  56.043  -8.817  1.00  0.00     0.125 C 
HETATM   17  C34 UNL     1       1.156  55.150  -8.779  1.00  0.00     0.013 C 
HETATM   18  C36 UNL     1       2.974  53.793  -7.693  1.00  0.00     0.019 C 
HETATM   19  C33 UNL     1       0.216  54.016  -9.193  1.00  0.00     0.007 C 
HETATM   20  C29 UNL     1      -1.877  52.953 -11.211  1.00  0.00     0.020 C 
HETATM   21  C31 UNL     1      -0.516  51.165 -10.066  1.00  0.00     0.020 C 
ATOM     22  H1  UNL     1      -4.145  51.877 -14.224  1.00  0.00     0.194 HD
BRANCH  16  23
HETATM   23  C2  UNL     1       5.047  55.743  -8.444  1.00  0.00     0.158 C 
HETATM   24  C1  UNL     1       5.523  56.169  -7.077  1.00  0.00     0.094 C 
HETATM   25  O1  UNL     1       5.820  55.171  -9.218  1.00  0.00    -0.295 OA
ENDBRANCH  16  23
BRANCH  16  26
HETATM   26  O2  UNL     1       3.035  57.026  -7.934  1.00  0.00    -0.381 OA
HETATM   27  H4  UNL     1       3.430  57.886  -8.166  1.00  0.00     0.211 HD
ENDBRANCH  16  26
ENDBRANCH   1   2
BRANCH   1  28
HETATM   28  C13 UNL     1      -2.675  50.087 -15.847  1.00  0.00     0.303 C 
BRANCH  28  29
HETATM   29  C14 UNL     1      -2.940  49.804 -17.320  1.00  0.00     0.244 C 
HETATM   30  O4  UNL     1      -3.951  49.220 -17.702  1.00  0.00    -0.271 OA
HETATM   31  N2  UNL     1      -1.925  50.170 -18.181  1.00  0.00    -0.350 N 
HETATM   32  H18 UNL     1      -1.268  50.852 -17.820  1.00  0.00     0.163 HD
BRANCH  31  33
HETATM   33  C15 UNL     1      -2.144  50.128 -19.624  1.00  0.00     0.225 C 
BRANCH  33  34
HETATM   34  C16 UNL     1      -1.011  50.741 -20.459  1.00  0.00     0.236 C 
HETATM   35  O5  UNL     1      -0.058  50.076 -20.856  1.00  0.00    -0.272 OA
HETATM   36  N3  UNL     1      -1.193  52.058 -20.798  1.00  0.00    -0.345 N 
HETATM   37  H21 UNL     1      -1.979  52.553 -20.390  1.00  0.00     0.163 HD
BRANCH  36  38
HETATM   38  C17 UNL     1      -0.160  52.864 -21.460  1.00  0.00     0.186 C 
BRANCH  38  39
HETATM   39  C18 UNL     1       0.499  52.063 -22.594  1.00  0.00     0.077 C 
BRANCH  39  40
HETATM   40  C19 UNL     1      -0.119  52.295 -23.939  1.00  0.00    -0.028 A 
HETATM   41  C20 UNL     1      -1.424  52.687 -24.171  1.00  0.00     0.096 A 
HETATM   42  N4  UNL     1      -1.618  52.768 -25.521  1.00  0.00    -0.365 N 
HETATM   43  C21 UNL     1      -0.465  52.428 -26.189  1.00  0.00     0.042 A 
HETATM   44  H26 UNL     1      -2.483  53.032 -25.973  1.00  0.00     0.165 HD
HETATM   45  C22 UNL     1      -0.207  52.360 -27.564  1.00  0.00     0.030 A 
HETATM   46  C26 UNL     1       0.497  52.130 -25.223  1.00  0.00    -0.002 A 
HETATM   47  C23 UNL     1       1.078  51.980 -27.963  1.00  0.00     0.002 A 
HETATM   48  C24 UNL     1       2.061  51.678 -27.025  1.00  0.00     0.001 A 
HETATM   49  C25 UNL     1       1.785  51.747 -25.654  1.00  0.00     0.014 A 
ENDBRANCH  39  40
ENDBRANCH  38  39
BRANCH  38  50
HETATM   50  C27 UNL     1       0.894  53.258 -20.421  1.00  0.00     0.163 C 
HETATM   51  O6  UNL     1       1.086  52.756 -19.326  1.00  0.00    -0.648 OA
BRANCH  50  52
HETATM   52  O7  UNL     1       1.643  54.332 -20.787  1.00  0.00    -0.775 OA
HETATM   53  H31 UNL     1       2.245  54.450 -20.021  1.00  0.00     0.167 HD
ENDBRANCH  50  52
ENDBRANCH  38  50
ENDBRANCH  36  38
ENDBRANCH  33  34
ENDBRANCH  31  33
ENDBRANCH  28  29
ENDBRANCH   1  28
TORSDOF 12
ENDMDL
MODEL 5
REMARK minimizedAffinity -9.67164421
REMARK CNNscore 0.282782137
REMARK CNNaffinity 6.78650522
REMARK  12 active torsions:
REMARK  status: ('A' for Active; 'I' for Inactive)
REMARK    1  A    between atoms: C2_2  and  C3_4 
REMARK    2  A    between atoms: C3_4  and  O2_5 
REMARK    3  A    between atoms: N1_15  and  O3_17 
REMARK    4  A    between atoms: O3_17  and  C13_18 
REMARK    5  A    between atoms: C13_18  and  C14_19 
REMARK       I    between atoms: C14_19  and  N2_21 
REMARK    6  A    between atoms: N2_21  and  C15_22 
REMARK    7  A    between atoms: C15_22  and  C16_23 
REMARK       I    between atoms: C16_23  and  N3_25 
REMARK    8  A    between atoms: N3_25  and  C17_26 
REMARK    9  A    between atoms: C17_26  and  C18_27 
REMARK   10  A    between atoms: C17_26  and  C27_37 
REMARK   11  A    between atoms: C18_27  and  C19_28 
REMARK   12  A    between atoms: C27_37  and  O7_39 
ROOT
HETATM    1  O3  UNL     1       2.112  51.107 -15.847  1.00  0.00    -0.271 OA
ENDROOT
BRANCH   1   2
HETATM    2  N1  UNL     1       1.066  50.230 -16.169  1.00  0.00    -0.271 N 
HETATM    3  C12 UNL     1       0.353  50.640 -17.174  1.00  0.00     0.032 C 
HETATM    4  C11 UNL     1       0.531  51.913 -17.924  1.00  0.00     0.030 C 
HETATM    5  C28 UNL     1      -0.802  49.756 -17.592  1.00  0.00     0.060 C 
HETATM    6  C10 UNL     1      -0.184  52.184 -19.034  1.00  0.00    -0.069 C 
HETATM    7  C9  UNL     1      -0.054  53.535 -19.699  1.00  0.00     0.035 C 
HETATM    8  C30 UNL     1      -1.173  51.204 -19.681  1.00  0.00    -0.016 C 
HETATM    9  C8  UNL     1       0.221  53.405 -21.192  1.00  0.00     0.010 C 
HETATM   10  C7  UNL     1      -0.848  52.553 -21.891  1.00  0.00    -0.004 C 
HETATM   11  C6  UNL     1      -0.622  52.515 -23.420  1.00  0.00     0.002 C 
HETATM   12  C32 UNL     1      -0.929  51.147 -21.242  1.00  0.00     0.002 C 
HETATM   13  C5  UNL     1       0.776  52.061 -23.874  1.00  0.00     0.009 C 
HETATM   14  C35 UNL     1      -1.589  51.585 -24.186  1.00  0.00    -0.002 C 
HETATM   15  C4  UNL     1       0.603  51.411 -25.252  1.00  0.00     0.047 C 
HETATM   16  C3  UNL     1      -0.901  51.478 -25.586  1.00  0.00     0.125 C 
HETATM   17  C34 UNL     1      -1.668  50.196 -23.492  1.00  0.00     0.013 C 
HETATM   18  C36 UNL     1      -3.006  52.181 -24.263  1.00  0.00     0.019 C 
HETATM   19  C33 UNL     1      -1.955  50.274 -21.991  1.00  0.00     0.007 C 
HETATM   20  C29 UNL     1      -0.957  49.775 -19.103  1.00  0.00     0.020 C 
HETATM   21  C31 UNL     1      -2.608  51.668 -19.334  1.00  0.00     0.020 C 
ATOM     22  H1  UNL     1       0.884  49.362 -15.665  1.00  0.00     0.194 HD
BRANCH  16  23
HETATM   23  C2  UNL     1      -1.170  52.705 -26.503  1.00  0.00     0.158 C 
HETATM   24  C1  UNL     1       0.001  53.596 -26.837  1.00  0.00     0.094 C 
HETATM   25  O1  UNL     1      -2.289  52.956 -26.958  1.00  0.00    -0.295 OA
ENDBRANCH  16  23
BRANCH  16  26
HETATM   26  O2  UNL     1      -1.290  50.280 -26.251  1.00  0.00    -0.381 OA
HETATM   27  H4  UNL     1      -0.636  50.096 -26.950  1.00  0.00     0.211 HD
ENDBRANCH  16  26
ENDBRANCH   1   2
BRANCH   1  28
HETATM   28  C13 UNL     1       2.447  50.895 -14.478  1.00  0.00     0.303 C 
BRANCH  28  29
HETATM   29  C14 UNL     1       1.317  51.319 -13.548  1.00  0.00     0.244 C 
HETATM   30  O4  UNL     1       0.386  50.570 -13.266  1.00  0.00    -0.271 OA
HETATM   31  N2  UNL     1       1.370  52.631 -13.119  1.00  0.00    -0.350 N 
HETATM   32  H18 UNL     1       2.275  53.080 -13.191  1.00  0.00     0.163 HD
BRANCH  31  33
HETATM   33  C15 UNL     1       0.457  53.093 -12.078  1.00  0.00     0.225 C 
BRANCH  33  34
HETATM   34  C16 UNL     1       1.146  53.571 -10.792  1.00  0.00     0.236 C 
HETATM   35  O5  UNL     1       0.564  54.259  -9.957  1.00  0.00    -0.272 OA
HETATM   36  N3  UNL     1       2.422  53.100 -10.611  1.00  0.00    -0.345 N 
HETATM   37  H21 UNL     1       2.851  52.579 -11.369  1.00  0.00     0.163 HD
BRANCH  36  38
HETATM   38  C17 UNL     1       3.299  53.560  -9.528  1.00  0.00     0.186 C 
BRANCH  38  39
HETATM   39  C18 UNL     1       4.097  54.795  -9.973  1.00  0.00     0.077 C 
BRANCH  39  40
HETATM   40  C19 UNL     1       4.292  55.813  -8.891  1.00  0.00    -0.028 A 
HETATM   41  C20 UNL     1       3.424  56.846  -8.589  1.00  0.00     0.096 A 
HETATM   42  N4  UNL     1       3.958  57.572  -7.562  1.00  0.00    -0.365 N 
HETATM   43  C21 UNL     1       5.171  57.043  -7.185  1.00  0.00     0.042 A 
HETATM   44  H26 UNL     1       3.534  58.387  -7.140  1.00  0.00     0.165 HD
HETATM   45  C22 UNL     1       6.068  57.464  -6.195  1.00  0.00     0.030 A 
HETATM   46  C26 UNL     1       5.406  55.934  -7.998  1.00  0.00    -0.002 A 
HETATM   47  C23 UNL     1       7.241  56.723  -6.028  1.00  0.00     0.002 A 
HETATM   48  C24 UNL     1       7.506  55.610  -6.822  1.00  0.00     0.001 A 
HETATM   49  C25 UNL     1       6.599  55.206  -7.810  1.00  0.00     0.014 A 
ENDBRANCH  39  40
ENDBRANCH  38  39
BRANCH  38  50
HETATM   50  C27 UNL     1       4.260  52.425  -9.160  1.00  0.00     0.163 C 
HETATM   51  O6  UNL     1       4.710  51.562  -9.897  1.00  0.00    -0.648 OA
BRANCH  50  52
HETATM   52  O7  UNL     1       4.575  52.386  -7.840  1.00  0.00    -0.775 OA
HETATM   53  H31 UNL     1       5.176  51.612  -7.781  1.00  0.00     0.167 HD
ENDBRANCH  50  52
ENDBRANCH  38  50
ENDBRANCH  36  38
ENDBRANCH  33  34
ENDBRANCH  31  33
ENDBRANCH  28  29
ENDBRANCH   1  28
TORSDOF 12
ENDMDL
MODEL 6
REMARK minimizedAffinity -9.05023193
REMARK CNNscore 0.277470589
REMARK CNNaffinity 6.72916412
REMARK  12 active torsions:
REMARK  status: ('A' for Active; 'I' for Inactive)
REMARK    1  A    between atoms: C2_2  and  C3_4 
REMARK    2  A    between atoms: C3_4  and  O2_5 
REMARK    3  A    between atoms: N1_15  and  O3_17 
REMARK    4  A    between atoms: O3_17  and  C13_18 
REMARK    5  A    between atoms: C13_18  and  C14_19 
REMARK       I    between atoms: C14_19  and  N2_21 
REMARK    6  A    between atoms: N2_21  and  C15_22 
REMARK    7  A    between atoms: C15_22  and  C16_23 
REMARK       I    between atoms: C16_23  and  N3_25 
REMARK    8  A    between atoms: N3_25  and  C17_26 
REMARK    9  A    between atoms: C17_26  and  C18_27 
REMARK   10  A    between atoms: C17_26  and  C27_37 
REMARK   11  A    between atoms: C18_27  and  C19_28 
REMARK   12  A    between atoms: C27_37  and  O7_39 
ROOT
HETATM    1  O3  UNL     1      -7.726  46.222 -20.298  1.00  0.00    -0.271 OA
ENDROOT
BRANCH   1   2
HETATM    2  N1  UNL     1      -7.886  47.609 -20.169  1.00  0.00    -0.271 N 
HETATM    3  C12 UNL     1      -6.833  48.277 -20.534  1.00  0.00     0.032 C 
HETATM    4  C11 UNL     1      -5.541  47.704 -21.001  1.00  0.00     0.030 C 
HETATM    5  C28 UNL     1      -6.914  49.784 -20.427  1.00  0.00     0.060 C 
HETATM    6  C10 UNL     1      -4.553  48.488 -21.477  1.00  0.00    -0.069 C 
HETATM    7  C9  UNL     1      -3.217  47.878 -21.834  1.00  0.00     0.035 C 
HETATM    8  C30 UNL     1      -4.675  50.007 -21.667  1.00  0.00    -0.016 C 
HETATM    9  C8  UNL     1      -2.768  48.280 -23.232  1.00  0.00     0.010 C 
HETATM   10  C7  UNL     1      -2.732  49.807 -23.397  1.00  0.00    -0.004 C 
HETATM   11  C6  UNL     1      -2.174  50.207 -24.782  1.00  0.00     0.002 C 
HETATM   12  C32 UNL     1      -4.125  50.416 -23.091  1.00  0.00     0.002 C 
HETATM   13  C5  UNL     1      -2.882  49.575 -25.993  1.00  0.00     0.009 C 
HETATM   14  C35 UNL     1      -2.212  51.724 -25.072  1.00  0.00    -0.002 C 
HETATM   15  C4  UNL     1      -2.731  50.560 -27.157  1.00  0.00     0.047 C 
HETATM   16  C3  UNL     1      -1.945  51.771 -26.612  1.00  0.00     0.125 C 
HETATM   17  C34 UNL     1      -3.611  52.307 -24.726  1.00  0.00     0.013 C 
HETATM   18  C36 UNL     1      -1.146  52.482 -24.260  1.00  0.00     0.019 C 
HETATM   19  C33 UNL     1      -4.101  51.940 -23.324  1.00  0.00     0.007 C 
HETATM   20  C29 UNL     1      -6.170  50.432 -21.583  1.00  0.00     0.020 C 
HETATM   21  C31 UNL     1      -3.897  50.699 -20.522  1.00  0.00     0.020 C 
ATOM     22  H1  UNL     1      -8.740  48.048 -19.825  1.00  0.00     0.194 HD
BRANCH  16  23
HETATM   23  C2  UNL     1      -0.444  51.619 -26.985  1.00  0.00     0.158 C 
HETATM   24  C1  UNL     1       0.231  52.792 -27.655  1.00  0.00     0.094 C 
HETATM   25  O1  UNL     1       0.196  50.592 -26.745  1.00  0.00    -0.295 OA
ENDBRANCH  16  23
BRANCH  16  26
HETATM   26  O2  UNL     1      -2.469  52.968 -27.180  1.00  0.00    -0.381 OA
HETATM   27  H4  UNL     1      -2.562  52.831 -28.140  1.00  0.00     0.211 HD
ENDBRANCH  16  26
ENDBRANCH   1   2
BRANCH   1  28
HETATM   28  C13 UNL     1      -7.844  45.652 -18.997  1.00  0.00     0.303 C 
BRANCH  28  29
HETATM   29  C14 UNL     1      -9.023  46.235 -18.229  1.00  0.00     0.244 C 
HETATM   30  O4  UNL     1      -8.933  47.274 -17.581  1.00  0.00    -0.271 OA
HETATM   31  N2  UNL     1     -10.170  45.467 -18.242  1.00  0.00    -0.350 N 
HETATM   32  H18 UNL     1     -10.231  44.781 -18.986  1.00  0.00     0.163 HD
BRANCH  31  33
HETATM   33  C15 UNL     1     -11.416  46.010 -17.709  1.00  0.00     0.225 C 
BRANCH  33  34
HETATM   34  C16 UNL     1     -12.459  46.380 -18.774  1.00  0.00     0.236 C 
HETATM   35  O5  UNL     1     -12.186  46.416 -19.971  1.00  0.00    -0.272 OA
HETATM   36  N3  UNL     1     -13.729  46.579 -18.293  1.00  0.00    -0.345 N 
HETATM   37  H21 UNL     1     -13.864  46.583 -17.288  1.00  0.00     0.163 HD
BRANCH  36  38
HETATM   38  C17 UNL     1     -14.828  47.086 -19.123  1.00  0.00     0.186 C 
BRANCH  38  39
HETATM   39  C18 UNL     1     -15.020  46.194 -20.360  1.00  0.00     0.077 C 
BRANCH  39  40
HETATM   40  C19 UNL     1     -16.415  46.207 -20.906  1.00  0.00    -0.028 A 
HETATM   41  C20 UNL     1     -17.568  45.976 -20.179  1.00  0.00     0.096 A 
HETATM   42  N4  UNL     1     -18.636  46.047 -21.029  1.00  0.00    -0.365 N 
HETATM   43  C21 UNL     1     -18.209  46.313 -22.309  1.00  0.00     0.042 A 
HETATM   44  H26 UNL     1     -19.603  45.916 -20.764  1.00  0.00     0.165 HD
HETATM   45  C22 UNL     1     -18.945  46.459 -23.491  1.00  0.00     0.030 A 
HETATM   46  C26 UNL     1     -16.819  46.424 -22.264  1.00  0.00    -0.002 A 
HETATM   47  C23 UNL     1     -18.236  46.733 -24.665  1.00  0.00     0.002 A 
HETATM   48  C24 UNL     1     -16.849  46.851 -24.654  1.00  0.00     0.001 A 
HETATM   49  C25 UNL     1     -16.129  46.698 -23.463  1.00  0.00     0.014 A 
ENDBRANCH  39  40
ENDBRANCH  38  39
BRANCH  38  50
HETATM   50  C27 UNL     1     -14.495  48.516 -19.558  1.00  0.00     0.163 C 
HETATM   51  O6  UNL     1     -14.028  48.880 -20.625  1.00  0.00    -0.648 OA
BRANCH  50  52
HETATM   52  O7  UNL     1     -14.712  49.444 -18.590  1.00  0.00    -0.775 OA
HETATM   53  H31 UNL     1     -14.444  50.281 -19.025  1.00  0.00     0.167 HD
ENDBRANCH  50  52
ENDBRANCH  38  50
ENDBRANCH  36  38
ENDBRANCH  33  34
ENDBRANCH  31  33
ENDBRANCH  28  29
ENDBRANCH   1  28
TORSDOF 12
ENDMDL
MODEL 7
REMARK minimizedAffinity -10.2805452
REMARK CNNscore 0.264925927
REMARK CNNaffinity 7.03271341
REMARK  12 active torsions:
REMARK  status: ('A' for Active; 'I' for Inactive)
REMARK    1  A    between atoms: C2_2  and  C3_4 
REMARK    2  A    between atoms: C3_4  and  O2_5 
REMARK    3  A    between atoms: N1_15  and  O3_17 
REMARK    4  A    between atoms: O3_17  and  C13_18 
REMARK    5  A    between atoms: C13_18  and  C14_19 
REMARK       I    between atoms: C14_19  and  N2_21 
REMARK    6  A    between atoms: N2_21  and  C15_22 
REMARK    7  A    between atoms: C15_22  and  C16_23 
REMARK       I    between atoms: C16_23  and  N3_25 
REMARK    8  A    between atoms: N3_25  and  C17_26 
REMARK    9  A    between atoms: C17_26  and  C18_27 
REMARK   10  A    between atoms: C17_26  and  C27_37 
REMARK   11  A    between atoms: C18_27  and  C19_28 
REMARK   12  A    between atoms: C27_37  and  O7_39 
ROOT
HETATM    1  O3  UNL     1      -0.913  50.753 -16.035  1.00  0.00    -0.271 OA
ENDROOT
BRANCH   1   2
HETATM    2  N1  UNL     1      -0.270  51.803 -16.705  1.00  0.00    -0.271 N 
HETATM    3  C12 UNL     1      -0.100  51.569 -17.971  1.00  0.00     0.032 C 
HETATM    4  C11 UNL     1      -0.474  50.324 -18.697  1.00  0.00     0.030 C 
HETATM    5  C28 UNL     1       0.589  52.649 -18.775  1.00  0.00     0.060 C 
HETATM    6  C10 UNL     1      -0.370  50.232 -20.038  1.00  0.00    -0.069 C 
HETATM    7  C9  UNL     1      -0.651  48.915 -20.724  1.00  0.00     0.035 C 
HETATM    8  C30 UNL     1       0.052  51.393 -20.951  1.00  0.00    -0.016 C 
HETATM    9  C8  UNL     1      -1.637  49.076 -21.874  1.00  0.00     0.010 C 
HETATM   10  C7  UNL     1      -1.156  50.127 -22.886  1.00  0.00    -0.004 C 
HETATM   11  C6  UNL     1      -2.106  50.207 -24.102  1.00  0.00     0.002 C 
HETATM   12  C32 UNL     1      -0.932  51.491 -22.184  1.00  0.00     0.002 C 
HETATM   13  C5  UNL     1      -3.589  50.451 -23.774  1.00  0.00     0.009 C 
HETATM   14  C35 UNL     1      -1.757  51.322 -25.114  1.00  0.00    -0.002 C 
HETATM   15  C4  UNL     1      -4.193  51.192 -24.972  1.00  0.00     0.047 C 
HETATM   16  C3  UNL     1      -3.050  51.388 -25.990  1.00  0.00     0.125 C 
HETATM   17  C34 UNL     1      -1.509  52.666 -24.375  1.00  0.00     0.013 C 
HETATM   18  C36 UNL     1      -0.501  50.969 -25.933  1.00  0.00     0.019 C 
HETATM   19  C33 UNL     1      -0.516  52.558 -23.216  1.00  0.00     0.007 C 
HETATM   20  C29 UNL     1      -0.018  52.735 -20.166  1.00  0.00     0.020 C 
HETATM   21  C31 UNL     1       1.515  51.151 -21.392  1.00  0.00     0.020 C 
ATOM     22  H1  UNL     1       0.033  52.662 -16.245  1.00  0.00     0.194 HD
BRANCH  16  23
HETATM   23  C2  UNL     1      -3.125  50.272 -27.069  1.00  0.00     0.158 C 
HETATM   24  C1  UNL     1      -3.317  48.852 -26.593  1.00  0.00     0.094 C 
HETATM   25  O1  UNL     1      -3.041  50.514 -28.276  1.00  0.00    -0.295 OA
ENDBRANCH  16  23
BRANCH  16  26
HETATM   26  O2  UNL     1      -3.180  52.667 -26.603  1.00  0.00    -0.381 OA
HETATM   27  H4  UNL     1      -4.110  52.778 -26.876  1.00  0.00     0.211 HD
ENDBRANCH  16  26
ENDBRANCH   1   2
BRANCH   1  28
HETATM   28  C13 UNL     1      -0.845  51.026 -14.638  1.00  0.00     0.303 C 
BRANCH  28  29
HETATM   29  C14 UNL     1      -2.216  51.350 -14.058  1.00  0.00     0.244 C 
HETATM   30  O4  UNL     1      -3.249  50.869 -14.514  1.00  0.00    -0.271 OA
HETATM   31  N2  UNL     1      -2.218  52.288 -13.045  1.00  0.00    -0.350 N 
HETATM   32  H18 UNL     1      -1.330  52.433 -12.578  1.00  0.00     0.163 HD
BRANCH  31  33
HETATM   33  C15 UNL     1      -3.440  52.534 -12.284  1.00  0.00     0.225 C 
BRANCH  33  34
HETATM   34  C16 UNL     1      -3.235  53.336 -10.990  1.00  0.00     0.236 C 
HETATM   35  O5  UNL     1      -4.154  53.942 -10.446  1.00  0.00    -0.272 OA
HETATM   36  N3  UNL     1      -1.977  53.248 -10.450  1.00  0.00    -0.345 N 
HETATM   37  H21 UNL     1      -1.259  52.771 -10.986  1.00  0.00     0.163 HD
BRANCH  36  38
HETATM   38  C17 UNL     1      -1.539  54.057  -9.307  1.00  0.00     0.186 C 
BRANCH  38  39
HETATM   39  C18 UNL     1      -0.663  55.227  -9.782  1.00  0.00     0.077 C 
BRANCH  39  40
HETATM   40  C19 UNL     1       0.673  54.807 -10.313  1.00  0.00    -0.028 A 
HETATM   41  C20 UNL     1       0.887  53.903 -11.337  1.00  0.00     0.096 A 
HETATM   42  N4  UNL     1       2.235  53.763 -11.515  1.00  0.00    -0.365 N 
HETATM   43  C21 UNL     1       2.918  54.553 -10.621  1.00  0.00     0.042 A 
HETATM   44  H26 UNL     1       2.675  53.161 -12.199  1.00  0.00     0.165 HD
HETATM   45  C22 UNL     1       4.296  54.718 -10.434  1.00  0.00     0.030 A 
HETATM   46  C26 UNL     1       1.965  55.226  -9.855  1.00  0.00    -0.002 A 
HETATM   47  C23 UNL     1       4.714  55.602  -9.435  1.00  0.00     0.002 A 
HETATM   48  C24 UNL     1       3.788  56.290  -8.655  1.00  0.00     0.001 A 
HETATM   49  C25 UNL     1       2.414  56.111  -8.852  1.00  0.00     0.014 A 
ENDBRANCH  39  40
ENDBRANCH  38  39
BRANCH  38  50
HETATM   50  C27 UNL     1      -0.740  53.163  -8.353  1.00  0.00     0.163 C 
HETATM   51  O6  UNL     1      -0.204  52.097  -8.604  1.00  0.00    -0.648 OA
BRANCH  50  52
HETATM   52  O7  UNL     1      -0.698  53.631  -7.078  1.00  0.00    -0.775 OA
HETATM   53  H31 UNL     1      -0.168  52.949  -6.612  1.00  0.00     0.167 HD
ENDBRANCH  50  52
ENDBRANCH  38  50
ENDBRANCH  36  38
ENDBRANCH  33  34
ENDBRANCH  31  33
ENDBRANCH  28  29
ENDBRANCH   1  28
TORSDOF 12
ENDMDL
MODEL 8
REMARK minimizedAffinity -9.4929266
REMARK CNNscore 0.257184267
REMARK CNNaffinity 6.29405165
REMARK  12 active torsions:
REMARK  status: ('A' for Active; 'I' for Inactive)
REMARK    1  A    between atoms: C2_2  and  C3_4 
REMARK    2  A    between atoms: C3_4  and  O2_5 
REMARK    3  A    between atoms: N1_15  and  O3_17 
REMARK    4  A    between atoms: O3_17  and  C13_18 
REMARK    5  A    between atoms: C13_18  and  C14_19 
REMARK       I    between atoms: C14_19  and  N2_21 
REMARK    6  A    between atoms: N2_21  and  C15_22 
REMARK    7  A    between atoms: C15_22  and  C16_23 
REMARK       I    between atoms: C16_23  and  N3_25 
REMARK    8  A    between atoms: N3_25  and  C17_26 
REMARK    9  A    between atoms: C17_26  and  C18_27 
REMARK   10  A    between atoms: C17_26  and  C27_37 
REMARK   11  A    between atoms: C18_27  and  C19_28 
REMARK   12  A    between atoms: C27_37  and  O7_39 
ROOT
HETATM    1  O3  UNL     1      -9.483  47.881 -27.349  1.00  0.00    -0.271 OA
ENDROOT
BRANCH   1   2
HETATM    2  N1  UNL     1     -10.244  47.275 -28.359  1.00  0.00    -0.271 N 
HETATM    3  C12 UNL     1     -11.209  46.541 -27.896  1.00  0.00     0.032 C 
HETATM    4  C11 UNL     1     -11.510  46.278 -26.462  1.00  0.00     0.030 C 
HETATM    5  C28 UNL     1     -12.083  45.845 -28.916  1.00  0.00     0.060 C 
HETATM    6  C10 UNL     1     -12.614  45.602 -26.086  1.00  0.00    -0.069 C 
HETATM    7  C9  UNL     1     -12.823  45.259 -24.628  1.00  0.00     0.035 C 
HETATM    8  C30 UNL     1     -13.698  45.114 -27.058  1.00  0.00    -0.016 C 
HETATM    9  C8  UNL     1     -14.205  45.678 -24.142  1.00  0.00     0.010 C 
HETATM   10  C7  UNL     1     -15.317  45.071 -25.011  1.00  0.00    -0.004 C 
HETATM   11  C6  UNL     1     -16.715  45.412 -24.448  1.00  0.00     0.002 C 
HETATM   12  C32 UNL     1     -15.129  45.481 -26.494  1.00  0.00     0.002 C 
HETATM   13  C5  UNL     1     -16.996  46.909 -24.225  1.00  0.00     0.009 C 
HETATM   14  C35 UNL     1     -17.892  44.935 -25.329  1.00  0.00    -0.002 C 
HETATM   15  C4  UNL     1     -18.507  47.104 -24.385  1.00  0.00     0.047 C 
HETATM   16  C3  UNL     1     -19.099  45.718 -24.716  1.00  0.00     0.125 C 
HETATM   17  C34 UNL     1     -17.657  45.337 -26.811  1.00  0.00     0.013 C 
HETATM   18  C36 UNL     1     -18.073  43.408 -25.252  1.00  0.00     0.019 C 
HETATM   19  C33 UNL     1     -16.284  44.927 -27.350  1.00  0.00     0.007 C 
HETATM   20  C29 UNL     1     -13.524  45.812 -28.437  1.00  0.00     0.020 C 
HETATM   21  C31 UNL     1     -13.522  43.589 -27.247  1.00  0.00     0.020 C 
ATOM     22  H1  UNL     1     -10.058  47.399 -29.355  1.00  0.00     0.194 HD
BRANCH  16  23
HETATM   23  C2  UNL     1     -19.658  45.074 -23.416  1.00  0.00     0.158 C 
HETATM   24  C1  UNL     1     -20.781  44.076 -23.559  1.00  0.00     0.094 C 
HETATM   25  O1  UNL     1     -19.213  45.349 -22.299  1.00  0.00    -0.295 OA
ENDBRANCH  16  23
BRANCH  16  26
HETATM   26  O2  UNL     1     -20.143  45.867 -25.673  1.00  0.00    -0.381 OA
HETATM   27  H4  UNL     1     -20.722  46.594 -25.378  1.00  0.00     0.211 HD
ENDBRANCH  16  26
ENDBRANCH   1   2
BRANCH   1  28
HETATM   28  C13 UNL     1      -8.155  47.375 -27.447  1.00  0.00     0.303 C 
BRANCH  28  29
HETATM   29  C14 UNL     1      -7.445  47.386 -26.099  1.00  0.00     0.244 C 
HETATM   30  O4  UNL     1      -7.778  46.645 -25.178  1.00  0.00    -0.271 OA
HETATM   31  N2  UNL     1      -6.463  48.346 -25.960  1.00  0.00    -0.350 N 
HETATM   32  H18 UNL     1      -6.094  48.726 -26.823  1.00  0.00     0.163 HD
BRANCH  31  33
HETATM   33  C15 UNL     1      -5.587  48.326 -24.792  1.00  0.00     0.225 C 
BRANCH  33  34
HETATM   34  C16 UNL     1      -4.172  48.868 -25.046  1.00  0.00     0.236 C 
HETATM   35  O5  UNL     1      -3.184  48.402 -24.483  1.00  0.00    -0.272 OA
HETATM   36  N3  UNL     1      -4.092  49.844 -26.007  1.00  0.00    -0.345 N 
HETATM   37  H21 UNL     1      -4.957  50.211 -26.388  1.00  0.00     0.163 HD
BRANCH  36  38
HETATM   38  C17 UNL     1      -2.861  50.592 -26.286  1.00  0.00     0.186 C 
BRANCH  38  39
HETATM   39  C18 UNL     1      -2.910  51.974 -25.614  1.00  0.00     0.077 C 
BRANCH  39  40
HETATM   40  C19 UNL     1      -1.663  52.326 -24.861  1.00  0.00    -0.028 A 
HETATM   41  C20 UNL     1      -0.634  53.120 -25.331  1.00  0.00     0.096 A 
HETATM   42  N4  UNL     1       0.334  53.187 -24.368  1.00  0.00    -0.365 N 
HETATM   43  C21 UNL     1      -0.033  52.442 -23.272  1.00  0.00     0.042 A 
HETATM   44  H26 UNL     1       1.201  53.701 -24.446  1.00  0.00     0.165 HD
HETATM   45  C22 UNL     1       0.648  52.215 -22.069  1.00  0.00     0.030 A 
HETATM   46  C26 UNL     1      -1.285  51.892 -23.549  1.00  0.00    -0.002 A 
HETATM   47  C23 UNL     1       0.025  51.404 -21.116  1.00  0.00     0.002 A 
HETATM   48  C24 UNL     1      -1.225  50.841 -21.360  1.00  0.00     0.001 A 
HETATM   49  C25 UNL     1      -1.890  51.075 -22.570  1.00  0.00     0.014 A 
ENDBRANCH  39  40
ENDBRANCH  38  39
BRANCH  38  50
HETATM   50  C27 UNL     1      -2.722  50.756 -27.803  1.00  0.00     0.163 C 
HETATM   51  O6  UNL     1      -3.432  50.279 -28.672  1.00  0.00    -0.648 OA
BRANCH  50  52
HETATM   52  O7  UNL     1      -1.635  51.482 -28.174  1.00  0.00    -0.775 OA
HETATM   53  H31 UNL     1      -1.693  51.479 -29.153  1.00  0.00     0.167 HD
ENDBRANCH  50  52
ENDBRANCH  38  50
ENDBRANCH  36  38
ENDBRANCH  33  34
ENDBRANCH  31  33
ENDBRANCH  28  29
ENDBRANCH   1  28
TORSDOF 12
ENDMDL
MODEL 9
REMARK minimizedAffinity -9.39586449
REMARK CNNscore 0.236073554
REMARK CNNaffinity 7.10076189
REMARK  12 active torsions:
REMARK  status: ('A' for Active; 'I' for Inactive)
REMARK    1  A    between atoms: C2_2  and  C3_4 
REMARK    2  A    between atoms: C3_4  and  O2_5 
REMARK    3  A    between atoms: N1_15  and  O3_17 
REMARK    4  A    between atoms: O3_17  and  C13_18 
REMARK    5  A    between atoms: C13_18  and  C14_19 
REMARK       I    between atoms: C14_19  and  N2_21 
REMARK    6  A    between atoms: N2_21  and  C15_22 
REMARK    7  A    between atoms: C15_22  and  C16_23 
REMARK       I    between atoms: C16_23  and  N3_25 
REMARK    8  A    between atoms: N3_25  and  C17_26 
REMARK    9  A    between atoms: C17_26  and  C18_27 
REMARK   10  A    between atoms: C17_26  and  C27_37 
REMARK   11  A    between atoms: C18_27  and  C19_28 
REMARK   12  A    between atoms: C27_37  and  O7_39 
ROOT
HETATM    1  O3  UNL     1      -0.376  51.304 -16.201  1.00  0.00    -0.271 OA
ENDROOT
BRANCH   1   2
HETATM    2  N1  UNL     1       0.184  52.339 -16.964  1.00  0.00    -0.271 N 
HETATM    3  C12 UNL     1       0.274  52.048 -18.226  1.00  0.00     0.032 C 
HETATM    4  C11 UNL     1      -0.107  50.758 -18.864  1.00  0.00     0.030 C 
HETATM    5  C28 UNL     1       0.869  53.107 -19.127  1.00  0.00     0.060 C 
HETATM    6  C10 UNL     1      -0.092  50.603 -20.203  1.00  0.00    -0.069 C 
HETATM    7  C9  UNL     1      -0.376  49.245 -20.804  1.00  0.00     0.035 C 
HETATM    8  C30 UNL     1       0.226  51.729 -21.197  1.00  0.00    -0.016 C 
HETATM    9  C8  UNL     1      -1.443  49.319 -21.889  1.00  0.00     0.010 C 
HETATM   10  C7  UNL     1      -1.069  50.332 -22.981  1.00  0.00    -0.004 C 
HETATM   11  C6  UNL     1      -2.103  50.323 -24.130  1.00  0.00     0.002 C 
HETATM   12  C32 UNL     1      -0.843  51.735 -22.362  1.00  0.00     0.002 C 
HETATM   13  C5  UNL     1      -3.567  50.537 -23.709  1.00  0.00     0.009 C 
HETATM   14  C35 UNL     1      -1.861  51.396 -25.215  1.00  0.00    -0.002 C 
HETATM   15  C4  UNL     1      -4.276  51.199 -24.896  1.00  0.00     0.047 C 
HETATM   16  C3  UNL     1      -3.214  51.379 -26.000  1.00  0.00     0.125 C 
HETATM   17  C34 UNL     1      -1.609  52.782 -24.560  1.00  0.00     0.013 C 
HETATM   18  C36 UNL     1      -0.654  51.041 -26.103  1.00  0.00     0.019 C 
HETATM   19  C33 UNL     1      -0.535  52.762 -23.470  1.00  0.00     0.007 C 
HETATM   20  C29 UNL     1       0.166  53.105 -20.474  1.00  0.00     0.020 C 
HETATM   21  C31 UNL     1       1.663  51.510 -21.728  1.00  0.00     0.020 C 
ATOM     22  H1  UNL     1       0.489  53.229 -16.568  1.00  0.00     0.194 HD
BRANCH  16  23
HETATM   23  C2  UNL     1      -3.325  50.209 -27.017  1.00  0.00     0.158 C 
HETATM   24  C1  UNL     1      -3.725  48.855 -26.482  1.00  0.00     0.094 C 
HETATM   25  O1  UNL     1      -3.106  50.358 -28.222  1.00  0.00    -0.295 OA
ENDBRANCH  16  23
BRANCH  16  26
HETATM   26  O2  UNL     1      -3.429  52.621 -26.663  1.00  0.00    -0.381 OA
HETATM   27  H4  UNL     1      -4.378  52.691 -26.874  1.00  0.00     0.211 HD
ENDBRANCH  16  26
ENDBRANCH   1   2
BRANCH   1  28
HETATM   28  C13 UNL     1       0.680  50.422 -15.831  1.00  0.00     0.303 C 
BRANCH  28  29
HETATM   29  C14 UNL     1       1.526  50.996 -14.701  1.00  0.00     0.244 C 
HETATM   30  O4  UNL     1       2.131  52.058 -14.811  1.00  0.00    -0.271 OA
HETATM   31  N2  UNL     1       1.633  50.194 -13.582  1.00  0.00    -0.350 N 
HETATM   32  H18 UNL     1       0.919  49.482 -13.481  1.00  0.00     0.163 HD
BRANCH  31  33
HETATM   33  C15 UNL     1       2.252  50.719 -12.368  1.00  0.00     0.225 C 
BRANCH  33  34
HETATM   34  C16 UNL     1       1.400  51.748 -11.610  1.00  0.00     0.236 C 
HETATM   35  O5  UNL     1       0.382  51.431 -11.001  1.00  0.00    -0.272 OA
HETATM   36  N3  UNL     1       1.911  53.021 -11.596  1.00  0.00    -0.345 N 
HETATM   37  H21 UNL     1       2.728  53.215 -12.165  1.00  0.00     0.163 HD
BRANCH  36  38
HETATM   38  C17 UNL     1       1.176  54.172 -11.059  1.00  0.00     0.186 C 
BRANCH  38  39
HETATM   39  C18 UNL     1       2.106  55.388 -10.928  1.00  0.00     0.077 C 
BRANCH  39  40
HETATM   40  C19 UNL     1       3.378  55.101 -10.190  1.00  0.00    -0.028 A 
HETATM   41  C20 UNL     1       4.222  54.031 -10.422  1.00  0.00     0.096 A 
HETATM   42  N4  UNL     1       5.259  54.098  -9.534  1.00  0.00    -0.365 N 
HETATM   43  C21 UNL     1       5.111  55.190  -8.711  1.00  0.00     0.042 A 
HETATM   44  H26 UNL     1       6.024  53.439  -9.478  1.00  0.00     0.165 HD
HETATM   45  C22 UNL     1       5.919  55.641  -7.659  1.00  0.00     0.030 A 
HETATM   46  C26 UNL     1       3.942  55.844  -9.102  1.00  0.00    -0.002 A 
HETATM   47  C23 UNL     1       5.520  56.801  -6.988  1.00  0.00     0.002 A 
HETATM   48  C24 UNL     1       4.359  57.477  -7.353  1.00  0.00     0.001 A 
HETATM   49  C25 UNL     1       3.561  57.011  -8.405  1.00  0.00     0.014 A 
ENDBRANCH  39  40
ENDBRANCH  38  39
BRANCH  38  50
HETATM   50  C27 UNL     1       0.614  53.797  -9.684  1.00  0.00     0.163 C 
HETATM   51  O6  UNL     1       1.240  53.545  -8.667  1.00  0.00    -0.648 OA
BRANCH  50  52
HETATM   52  O7  UNL     1      -0.740  53.693  -9.660  1.00  0.00    -0.775 OA
HETATM   53  H31 UNL     1      -0.925  53.443  -8.730  1.00  0.00     0.167 HD
ENDBRANCH  50  52
ENDBRANCH  38  50
ENDBRANCH  36  38
ENDBRANCH  33  34
ENDBRANCH  31  33
ENDBRANCH  28  29
ENDBRANCH   1  28
TORSDOF 12
ENDMDL
