MODEL 1
REMARK minimizedAffinity -9.11329556
REMARK  8 active torsions:
REMARK  status: ('A' for Active; 'I' for Inactive)
REMARK    1  A    between atoms: O1_2  and  C2_3 
REMARK    2  A    between atoms: C9_12  and  O4_13 
REMARK    3  A    between atoms: C10_14  and  C11_15 
REMARK    4  A    between atoms: C11_15  and  C12_16 
REMARK    5  A    between atoms: C13_17  and  C15_19 
REMARK    6  A    between atoms: C15_19  and  C16_20 
REMARK    7  A    between atoms: C16_20  and  C17_21 
REMARK       I    between atoms: C17_21  and  N1_23 
REMARK    8  A    between atoms: N1_23  and  C18_24 
ROOT
HETATM    1  C12 UNL     1      -2.296   6.860  12.737  1.00  0.00    -0.020 C 
HETATM    2  C13 UNL     1      -1.208   7.652  12.664  1.00  0.00    -0.087 C 
HETATM    3  C14 UNL     1      -1.254   8.945  11.891  1.00  0.00     0.043 C 
ENDROOT
BRANCH   1   4
HETATM    4  C11 UNL     1      -2.435   5.534  13.443  1.00  0.00     0.072 C 
BRANCH   4   5
HETATM    5  C10 UNL     1      -3.802   4.912  13.242  1.00  0.00     0.013 A 
HETATM    6  C2  UNL     1      -3.967   3.730  12.468  1.00  0.00     0.084 A 
HETATM    7  C3  UNL     1      -5.239   3.202  12.154  1.00  0.00    -0.018 A 
HETATM    8  C4  UNL     1      -5.406   1.987  11.289  1.00  0.00     0.052 C 
HETATM    9  C5  UNL     1      -6.341   3.837  12.712  1.00  0.00    -0.006 A 
HETATM   10  C6  UNL     1      -6.180   4.958  13.500  1.00  0.00     0.082 A 
HETATM   11  C8  UNL     1      -7.784   3.529  12.616  1.00  0.00     0.219 A 
HETATM   12  C7  UNL     1      -7.485   5.410  13.944  1.00  0.00     0.297 A 
HETATM   13  C9  UNL     1      -4.946   5.519  13.776  1.00  0.00     0.091 A 
HETATM   14  O2  UNL     1      -7.688   6.376  14.655  1.00  0.00    -0.259 OA
HETATM   15  O3  UNL     1      -8.407   4.553  13.422  1.00  0.00    -0.313 OA
BRANCH   6  16
HETATM   16  O1  UNL     1      -2.847   3.125  11.942  1.00  0.00    -0.355 OA
HETATM   17  C1  UNL     1      -2.556   3.653  10.646  1.00  0.00     0.210 C 
ENDBRANCH   6  16
BRANCH  13  18
HETATM   18  O4  UNL     1      -4.830   6.634  14.554  1.00  0.00    -0.359 OA
HETATM   19  H9  UNL     1      -5.723   6.948  14.813  1.00  0.00     0.217 HD
ENDBRANCH  13  18
ENDBRANCH   4   5
ENDBRANCH   1   4
BRANCH   2  20
HETATM   20  C15 UNL     1       0.111   7.363  13.351  1.00  0.00     0.042 C 
BRANCH  20  21
HETATM   21  C16 UNL     1       1.219   8.299  12.876  1.00  0.00     0.107 C 
BRANCH  21  22
HETATM   22  C17 UNL     1       2.173   7.609  11.923  1.00  0.00     0.218 C 
HETATM   23  O5  UNL     1       2.625   6.483  12.099  1.00  0.00    -0.274 OA
HETATM   24  N1  UNL     1       2.493   8.391  10.830  1.00  0.00    -0.356 N 
HETATM   25  H20 UNL     1       2.272   9.380  10.871  1.00  0.00     0.162 HD
BRANCH  24  26
HETATM   26  C18 UNL     1       3.491   7.973   9.854  1.00  0.00     0.089 C 
HETATM   27  C19 UNL     1       3.815   6.484  10.015  1.00  0.00     0.051 C 
HETATM   28  C20 UNL     1       3.036   5.603   9.047  1.00  0.00     0.171 C 
HETATM   29  O6  UNL     1       1.775   6.182   8.734  1.00  0.00    -0.381 OA
HETATM   30  C21 UNL     1       1.867   7.393   7.961  1.00  0.00     0.055 C 
HETATM   31  C22 UNL     1       0.526   8.117   8.154  1.00  0.00     0.045 C 
HETATM   32  C23 UNL     1       2.001   7.040   6.472  1.00  0.00     0.045 C 
HETATM   33  C24 UNL     1       3.048   8.277   8.419  1.00  0.00     0.062 C 
ENDBRANCH  24  26
ENDBRANCH  21  22
ENDBRANCH  20  21
ENDBRANCH   2  20
TORSDOF 8
ENDMDL
MODEL 2
REMARK minimizedAffinity -8.97817326
REMARK  8 active torsions:
REMARK  status: ('A' for Active; 'I' for Inactive)
REMARK    1  A    between atoms: O1_2  and  C2_3 
REMARK    2  A    between atoms: C9_12  and  O4_13 
REMARK    3  A    between atoms: C10_14  and  C11_15 
REMARK    4  A    between atoms: C11_15  and  C12_16 
REMARK    5  A    between atoms: C13_17  and  C15_19 
REMARK    6  A    between atoms: C15_19  and  C16_20 
REMARK    7  A    between atoms: C16_20  and  C17_21 
REMARK       I    between atoms: C17_21  and  N1_23 
REMARK    8  A    between atoms: N1_23  and  C18_24 
ROOT
HETATM    1  C12 UNL     1      -3.171   7.514  13.166  1.00  0.00    -0.020 C 
HETATM    2  C13 UNL     1      -1.888   7.895  13.003  1.00  0.00    -0.087 C 
HETATM    3  C14 UNL     1      -1.521   8.916  11.957  1.00  0.00     0.043 C 
ENDROOT
BRANCH   1   4
HETATM    4  C11 UNL     1      -3.724   6.502  14.139  1.00  0.00     0.072 C 
BRANCH   4   5
HETATM    5  C10 UNL     1      -4.492   5.395  13.448  1.00  0.00     0.013 A 
HETATM    6  C2  UNL     1      -5.914   5.402  13.402  1.00  0.00     0.084 A 
HETATM    7  C3  UNL     1      -6.659   4.321  12.881  1.00  0.00    -0.018 A 
HETATM    8  C4  UNL     1      -8.159   4.310  12.888  1.00  0.00     0.052 C 
HETATM    9  C5  UNL     1      -5.942   3.270  12.322  1.00  0.00    -0.006 A 
HETATM   10  C6  UNL     1      -4.563   3.282  12.326  1.00  0.00     0.082 A 
HETATM   11  C8  UNL     1      -6.402   2.023  11.673  1.00  0.00     0.219 A 
HETATM   12  C7  UNL     1      -4.081   2.073  11.686  1.00  0.00     0.297 A 
HETATM   13  C9  UNL     1      -3.815   4.309  12.877  1.00  0.00     0.091 A 
HETATM   14  O2  UNL     1      -2.911   1.781  11.529  1.00  0.00    -0.259 OA
HETATM   15  O3  UNL     1      -5.176   1.357  11.304  1.00  0.00    -0.313 OA
BRANCH   6  16
HETATM   16  O1  UNL     1      -6.586   6.468  13.956  1.00  0.00    -0.355 OA
HETATM   17  C1  UNL     1      -7.999   6.293  13.819  1.00  0.00     0.210 C 
ENDBRANCH   6  16
BRANCH  13  18
HETATM   18  O4  UNL     1      -2.451   4.279  12.868  1.00  0.00    -0.359 OA
HETATM   19  H9  UNL     1      -2.144   3.438  12.467  1.00  0.00     0.217 HD
ENDBRANCH  13  18
ENDBRANCH   4   5
ENDBRANCH   1   4
BRANCH   2  20
HETATM   20  C15 UNL     1      -0.731   7.389  13.840  1.00  0.00     0.042 C 
BRANCH  20  21
HETATM   21  C16 UNL     1       0.013   6.246  13.153  1.00  0.00     0.107 C 
BRANCH  21  22
HETATM   22  C17 UNL     1       1.420   6.644  12.759  1.00  0.00     0.218 C 
HETATM   23  O5  UNL     1       2.131   7.396  13.416  1.00  0.00    -0.274 OA
HETATM   24  N1  UNL     1       1.820   6.076  11.564  1.00  0.00    -0.356 N 
HETATM   25  H20 UNL     1       1.108   5.663  10.972  1.00  0.00     0.162 HD
BRANCH  24  26
HETATM   26  C18 UNL     1       3.088   6.424  10.936  1.00  0.00     0.089 C 
HETATM   27  C19 UNL     1       3.580   5.282  10.041  1.00  0.00     0.051 C 
HETATM   28  C20 UNL     1       3.221   5.488   8.575  1.00  0.00     0.171 C 
HETATM   29  O6  UNL     1       2.012   6.226   8.445  1.00  0.00    -0.381 OA
HETATM   30  C21 UNL     1       2.118   7.595   8.876  1.00  0.00     0.055 C 
HETATM   31  C22 UNL     1       0.680   8.064   9.144  1.00  0.00     0.045 C 
HETATM   32  C23 UNL     1       2.686   8.449   7.732  1.00  0.00     0.045 C 
HETATM   33  C24 UNL     1       2.992   7.731  10.143  1.00  0.00     0.062 C 
ENDBRANCH  24  26
ENDBRANCH  21  22
ENDBRANCH  20  21
ENDBRANCH   2  20
TORSDOF 8
ENDMDL
MODEL 3
REMARK minimizedAffinity -8.72049141
REMARK  8 active torsions:
REMARK  status: ('A' for Active; 'I' for Inactive)
REMARK    1  A    between atoms: O1_2  and  C2_3 
REMARK    2  A    between atoms: C9_12  and  O4_13 
REMARK    3  A    between atoms: C10_14  and  C11_15 
REMARK    4  A    between atoms: C11_15  and  C12_16 
REMARK    5  A    between atoms: C13_17  and  C15_19 
REMARK    6  A    between atoms: C15_19  and  C16_20 
REMARK    7  A    between atoms: C16_20  and  C17_21 
REMARK       I    between atoms: C17_21  and  N1_23 
REMARK    8  A    between atoms: N1_23  and  C18_24 
ROOT
HETATM    1  C12 UNL     1      -2.445   6.959  12.902  1.00  0.00    -0.020 C 
HETATM    2  C13 UNL     1      -1.231   7.326  12.446  1.00  0.00    -0.087 C 
HETATM    3  C14 UNL     1      -1.070   8.581  11.628  1.00  0.00     0.043 C 
ENDROOT
BRANCH   1   4
HETATM    4  C11 UNL     1      -2.804   5.739  13.715  1.00  0.00     0.072 C 
BRANCH   4   5
HETATM    5  C10 UNL     1      -4.228   5.282  13.474  1.00  0.00     0.013 A 
HETATM    6  C2  UNL     1      -4.506   4.074  12.777  1.00  0.00     0.084 A 
HETATM    7  C3  UNL     1      -5.818   3.688  12.424  1.00  0.00    -0.018 A 
HETATM    8  C4  UNL     1      -6.098   2.441  11.638  1.00  0.00     0.052 C 
HETATM    9  C5  UNL     1      -6.855   4.500  12.867  1.00  0.00    -0.006 A 
HETATM   10  C6  UNL     1      -6.590   5.649  13.581  1.00  0.00     0.082 A 
HETATM   11  C8  UNL     1      -8.320   4.371  12.704  1.00  0.00     0.219 A 
HETATM   12  C7  UNL     1      -7.846   6.296  13.911  1.00  0.00     0.297 A 
HETATM   13  C9  UNL     1      -5.309   6.069  13.893  1.00  0.00     0.091 A 
HETATM   14  O2  UNL     1      -7.957   7.333  14.538  1.00  0.00    -0.259 OA
HETATM   15  O3  UNL     1      -8.843   5.525  13.395  1.00  0.00    -0.313 OA
BRANCH   6  16
HETATM   16  O1  UNL     1      -3.450   3.292  12.366  1.00  0.00    -0.355 OA
HETATM   17  C1  UNL     1      -3.051   3.648  11.039  1.00  0.00     0.210 C 
ENDBRANCH   6  16
BRANCH  13  18
HETATM   18  O4  UNL     1      -5.088   7.217  14.596  1.00  0.00    -0.359 OA
HETATM   19  H9  UNL     1      -5.945   7.662  14.776  1.00  0.00     0.217 HD
ENDBRANCH  13  18
ENDBRANCH   4   5
ENDBRANCH   1   4
BRANCH   2  20
HETATM   20  C15 UNL     1       0.053   6.571  12.723  1.00  0.00     0.042 C 
BRANCH  20  21
HETATM   21  C16 UNL     1      -0.039   5.110  12.289  1.00  0.00     0.107 C 
BRANCH  21  22
HETATM   22  C17 UNL     1       1.010   4.762  11.254  1.00  0.00     0.218 C 
HETATM   23  O5  UNL     1       1.362   3.617  10.990  1.00  0.00    -0.274 OA
HETATM   24  N1  UNL     1       1.545   5.878  10.639  1.00  0.00    -0.356 N 
HETATM   25  H20 UNL     1       1.378   6.783  11.067  1.00  0.00     0.162 HD
BRANCH  24  26
HETATM   26  C18 UNL     1       2.657   5.780   9.703  1.00  0.00     0.089 C 
HETATM   27  C19 UNL     1       2.464   6.746   8.530  1.00  0.00     0.051 C 
HETATM   28  C20 UNL     1       3.220   8.056   8.716  1.00  0.00     0.171 C 
HETATM   29  O6  UNL     1       3.335   8.386  10.095  1.00  0.00    -0.381 OA
HETATM   30  C21 UNL     1       4.186   7.493  10.838  1.00  0.00     0.055 C 
HETATM   31  C22 UNL     1       3.799   7.674  12.313  1.00  0.00     0.045 C 
HETATM   32  C23 UNL     1       5.649   7.930  10.677  1.00  0.00     0.045 C 
HETATM   33  C24 UNL     1       4.004   6.025  10.390  1.00  0.00     0.062 C 
ENDBRANCH  24  26
ENDBRANCH  21  22
ENDBRANCH  20  21
ENDBRANCH   2  20
TORSDOF 8
ENDMDL
MODEL 4
REMARK minimizedAffinity -8.61526489
REMARK  8 active torsions:
REMARK  status: ('A' for Active; 'I' for Inactive)
REMARK    1  A    between atoms: O1_2  and  C2_3 
REMARK    2  A    between atoms: C9_12  and  O4_13 
REMARK    3  A    between atoms: C10_14  and  C11_15 
REMARK    4  A    between atoms: C11_15  and  C12_16 
REMARK    5  A    between atoms: C13_17  and  C15_19 
REMARK    6  A    between atoms: C15_19  and  C16_20 
REMARK    7  A    between atoms: C16_20  and  C17_21 
REMARK       I    between atoms: C17_21  and  N1_23 
REMARK    8  A    between atoms: N1_23  and  C18_24 
ROOT
HETATM    1  C12 UNL     1      -1.595   5.501  13.475  1.00  0.00    -0.020 C 
HETATM    2  C13 UNL     1      -0.755   6.521  13.745  1.00  0.00    -0.087 C 
HETATM    3  C14 UNL     1      -0.100   6.633  15.097  1.00  0.00     0.043 C 
ENDROOT
BRANCH   1   4
HETATM    4  C11 UNL     1      -2.351   5.233  12.197  1.00  0.00     0.072 C 
BRANCH   4   5
HETATM    5  C10 UNL     1      -3.813   4.925  12.445  1.00  0.00     0.013 A 
HETATM    6  C2  UNL     1      -4.668   5.870  13.077  1.00  0.00     0.084 A 
HETATM    7  C3  UNL     1      -5.999   5.565  13.439  1.00  0.00    -0.018 A 
HETATM    8  C4  UNL     1      -6.876   6.548  14.157  1.00  0.00     0.052 C 
HETATM    9  C5  UNL     1      -6.483   4.316  13.068  1.00  0.00    -0.006 A 
HETATM   10  C6  UNL     1      -5.669   3.414  12.414  1.00  0.00     0.082 A 
HETATM   11  C8  UNL     1      -7.814   3.701  13.257  1.00  0.00     0.219 A 
HETATM   12  C7  UNL     1      -6.425   2.205  12.152  1.00  0.00     0.297 A 
HETATM   13  C9  UNL     1      -4.347   3.678  12.097  1.00  0.00     0.091 A 
HETATM   14  O2  UNL     1      -5.994   1.217  11.589  1.00  0.00    -0.259 OA
HETATM   15  O3  UNL     1      -7.680   2.400  12.646  1.00  0.00    -0.313 OA
BRANCH   6  16
HETATM   16  O1  UNL     1      -4.152   7.101  13.418  1.00  0.00    -0.355 OA
HETATM   17  C1  UNL     1      -4.081   7.237  14.839  1.00  0.00     0.210 C 
ENDBRANCH   6  16
BRANCH  13  18
HETATM   18  O4  UNL     1      -3.573   2.755  11.457  1.00  0.00    -0.359 OA
HETATM   19  H9  UNL     1      -4.088   1.930  11.323  1.00  0.00     0.217 HD
ENDBRANCH  13  18
ENDBRANCH   4   5
ENDBRANCH   1   4
BRANCH   2  20
HETATM   20  C15 UNL     1      -0.366   7.597  12.752  1.00  0.00     0.042 C 
BRANCH  20  21
HETATM   21  C16 UNL     1       1.014   8.176  13.050  1.00  0.00     0.107 C 
BRANCH  21  22
HETATM   22  C17 UNL     1       2.082   7.581  12.157  1.00  0.00     0.218 C 
HETATM   23  O5  UNL     1       2.739   6.585  12.440  1.00  0.00    -0.274 OA
HETATM   24  N1  UNL     1       2.251   8.289  10.982  1.00  0.00    -0.356 N 
HETATM   25  H20 UNL     1       1.847   9.217  10.924  1.00  0.00     0.162 HD
BRANCH  24  26
HETATM   26  C18 UNL     1       3.311   7.964  10.037  1.00  0.00     0.089 C 
HETATM   27  C19 UNL     1       3.704   6.488  10.149  1.00  0.00     0.051 C 
HETATM   28  C20 UNL     1       3.014   5.615   9.108  1.00  0.00     0.171 C 
HETATM   29  O6  UNL     1       1.741   6.145   8.761  1.00  0.00    -0.381 OA
HETATM   30  C21 UNL     1       1.805   7.392   8.046  1.00  0.00     0.055 C 
HETATM   31  C22 UNL     1       0.422   8.041   8.208  1.00  0.00     0.045 C 
HETATM   32  C23 UNL     1       2.024   7.114   6.552  1.00  0.00     0.045 C 
HETATM   33  C24 UNL     1       2.918   8.312   8.598  1.00  0.00     0.062 C 
ENDBRANCH  24  26
ENDBRANCH  21  22
ENDBRANCH  20  21
ENDBRANCH   2  20
TORSDOF 8
ENDMDL
MODEL 5
REMARK minimizedAffinity -8.52940655
REMARK  8 active torsions:
REMARK  status: ('A' for Active; 'I' for Inactive)
REMARK    1  A    between atoms: O1_2  and  C2_3 
REMARK    2  A    between atoms: C9_12  and  O4_13 
REMARK    3  A    between atoms: C10_14  and  C11_15 
REMARK    4  A    between atoms: C11_15  and  C12_16 
REMARK    5  A    between atoms: C13_17  and  C15_19 
REMARK    6  A    between atoms: C15_19  and  C16_20 
REMARK    7  A    between atoms: C16_20  and  C17_21 
REMARK       I    between atoms: C17_21  and  N1_23 
REMARK    8  A    between atoms: N1_23  and  C18_24 
ROOT
HETATM    1  C12 UNL     1      -2.240   6.053  14.121  1.00  0.00    -0.020 C 
HETATM    2  C13 UNL     1      -1.059   6.678  14.300  1.00  0.00    -0.087 C 
HETATM    3  C14 UNL     1      -0.712   7.290  15.633  1.00  0.00     0.043 C 
ENDROOT
BRANCH   1   4
HETATM    4  C11 UNL     1      -2.766   5.401  12.867  1.00  0.00     0.072 C 
BRANCH   4   5
HETATM    5  C10 UNL     1      -4.250   5.106  12.947  1.00  0.00     0.013 A 
HETATM    6  C2  UNL     1      -5.155   6.037  13.529  1.00  0.00     0.084 A 
HETATM    7  C3  UNL     1      -6.519   5.737  13.736  1.00  0.00    -0.018 A 
HETATM    8  C4  UNL     1      -7.456   6.702  14.402  1.00  0.00     0.052 C 
HETATM    9  C5  UNL     1      -6.976   4.513  13.262  1.00  0.00    -0.006 A 
HETATM   10  C6  UNL     1      -6.108   3.627  12.658  1.00  0.00     0.082 A 
HETATM   11  C8  UNL     1      -8.327   3.911  13.285  1.00  0.00     0.219 A 
HETATM   12  C7  UNL     1      -6.846   2.442  12.265  1.00  0.00     0.297 A 
HETATM   13  C9  UNL     1      -4.758   3.883  12.492  1.00  0.00     0.091 A 
HETATM   14  O2  UNL     1      -6.370   1.472  11.707  1.00  0.00    -0.259 OA
HETATM   15  O3  UNL     1      -8.144   2.636  12.635  1.00  0.00    -0.313 OA
BRANCH   6  16
HETATM   16  O1  UNL     1      -4.664   7.244  13.974  1.00  0.00    -0.355 OA
HETATM   17  C1  UNL     1      -4.884   8.264  12.997  1.00  0.00     0.210 C 
ENDBRANCH   6  16
BRANCH  13  18
HETATM   18  O4  UNL     1      -3.931   2.977  11.895  1.00  0.00    -0.359 OA
HETATM   19  H9  UNL     1      -4.438   2.167  11.672  1.00  0.00     0.217 HD
ENDBRANCH  13  18
ENDBRANCH   4   5
ENDBRANCH   1   4
BRANCH   2  20
HETATM   20  C15 UNL     1       0.018   6.797  13.241  1.00  0.00     0.042 C 
BRANCH  20  21
HETATM   21  C16 UNL     1       0.754   5.477  13.024  1.00  0.00     0.107 C 
BRANCH  21  22
HETATM   22  C17 UNL     1       1.408   5.412  11.660  1.00  0.00     0.218 C 
HETATM   23  O5  UNL     1       0.923   4.836  10.692  1.00  0.00    -0.274 OA
HETATM   24  N1  UNL     1       2.625   6.065  11.620  1.00  0.00    -0.356 N 
HETATM   25  H20 UNL     1       3.062   6.311  12.501  1.00  0.00     0.162 HD
BRANCH  24  26
HETATM   26  C18 UNL     1       3.481   6.020  10.442  1.00  0.00     0.089 C 
HETATM   27  C19 UNL     1       3.046   7.070   9.415  1.00  0.00     0.051 C 
HETATM   28  C20 UNL     1       3.862   8.353   9.503  1.00  0.00     0.171 C 
HETATM   29  O6  UNL     1       4.310   8.582  10.834  1.00  0.00    -0.381 OA
HETATM   30  C21 UNL     1       5.285   7.627  11.292  1.00  0.00     0.055 C 
HETATM   31  C22 UNL     1       5.262   7.708  12.826  1.00  0.00     0.045 C 
HETATM   32  C23 UNL     1       6.681   8.056  10.818  1.00  0.00     0.045 C 
HETATM   33  C24 UNL     1       4.959   6.198  10.805  1.00  0.00     0.062 C 
ENDBRANCH  24  26
ENDBRANCH  21  22
ENDBRANCH  20  21
ENDBRANCH   2  20
TORSDOF 8
ENDMDL
MODEL 6
REMARK minimizedAffinity -8.52095413
REMARK  8 active torsions:
REMARK  status: ('A' for Active; 'I' for Inactive)
REMARK    1  A    between atoms: O1_2  and  C2_3 
REMARK    2  A    between atoms: C9_12  and  O4_13 
REMARK    3  A    between atoms: C10_14  and  C11_15 
REMARK    4  A    between atoms: C11_15  and  C12_16 
REMARK    5  A    between atoms: C13_17  and  C15_19 
REMARK    6  A    between atoms: C15_19  and  C16_20 
REMARK    7  A    between atoms: C16_20  and  C17_21 
REMARK       I    between atoms: C17_21  and  N1_23 
REMARK    8  A    between atoms: N1_23  and  C18_24 
ROOT
HETATM    1  C12 UNL     1      -2.798   6.589  14.206  1.00  0.00    -0.020 C 
HETATM    2  C13 UNL     1      -2.621   7.813  14.742  1.00  0.00    -0.087 C 
HETATM    3  C14 UNL     1      -2.227   7.964  16.189  1.00  0.00     0.043 C 
ENDROOT
BRANCH   1   4
HETATM    4  C11 UNL     1      -3.204   6.241  12.795  1.00  0.00     0.072 C 
BRANCH   4   5
HETATM    5  C10 UNL     1      -4.257   5.153  12.748  1.00  0.00     0.013 A 
HETATM    6  C2  UNL     1      -3.933   3.834  12.324  1.00  0.00     0.084 A 
HETATM    7  C3  UNL     1      -4.915   2.835  12.145  1.00  0.00    -0.018 A 
HETATM    8  C4  UNL     1      -4.574   1.463  11.642  1.00  0.00     0.052 C 
HETATM    9  C5  UNL     1      -6.220   3.163  12.490  1.00  0.00    -0.006 A 
HETATM   10  C6  UNL     1      -6.529   4.428  12.943  1.00  0.00     0.082 A 
HETATM   11  C8  UNL     1      -7.460   2.357  12.457  1.00  0.00     0.219 A 
HETATM   12  C7  UNL     1      -7.950   4.492  13.225  1.00  0.00     0.297 A 
HETATM   13  C9  UNL     1      -5.588   5.435  13.077  1.00  0.00     0.091 A 
HETATM   14  O2  UNL     1      -8.539   5.472  13.641  1.00  0.00    -0.259 OA
HETATM   15  O3  UNL     1      -8.472   3.266  12.941  1.00  0.00    -0.313 OA
BRANCH   6  16
HETATM   16  O1  UNL     1      -2.626   3.547  12.003  1.00  0.00    -0.355 OA
HETATM   17  C1  UNL     1      -2.396   3.754  10.607  1.00  0.00     0.210 C 
ENDBRANCH   6  16
BRANCH  13  18
HETATM   18  O4  UNL     1      -5.936   6.677  13.523  1.00  0.00    -0.359 OA
HETATM   19  H9  UNL     1      -6.905   6.714  13.670  1.00  0.00     0.217 HD
ENDBRANCH  13  18
ENDBRANCH   4   5
ENDBRANCH   1   4
BRANCH   2  20
HETATM   20  C15 UNL     1      -2.758   9.113  13.975  1.00  0.00     0.042 C 
BRANCH  20  21
HETATM   21  C16 UNL     1      -1.988   9.082  12.658  1.00  0.00     0.107 C 
BRANCH  21  22
HETATM   22  C17 UNL     1      -0.502   8.888  12.876  1.00  0.00     0.218 C 
HETATM   23  O5  UNL     1       0.175   9.566  13.641  1.00  0.00    -0.274 OA
HETATM   24  N1  UNL     1       0.022   7.866  12.107  1.00  0.00    -0.356 N 
HETATM   25  H20 UNL     1      -0.539   7.513  11.339  1.00  0.00     0.162 HD
BRANCH  24  26
HETATM   26  C18 UNL     1       1.452   7.592  12.067  1.00  0.00     0.089 C 
HETATM   27  C19 UNL     1       1.719   6.088  12.193  1.00  0.00     0.051 C 
HETATM   28  C20 UNL     1       1.927   5.412  10.844  1.00  0.00     0.171 C 
HETATM   29  O6  UNL     1       1.190   6.074   9.823  1.00  0.00    -0.381 OA
HETATM   30  C21 UNL     1       1.672   7.397   9.523  1.00  0.00     0.055 C 
HETATM   31  C22 UNL     1       0.512   8.118   8.820  1.00  0.00     0.045 C 
HETATM   32  C23 UNL     1       2.839   7.302   8.529  1.00  0.00     0.045 C 
HETATM   33  C24 UNL     1       2.105   8.152  10.800  1.00  0.00     0.062 C 
ENDBRANCH  24  26
ENDBRANCH  21  22
ENDBRANCH  20  21
ENDBRANCH   2  20
TORSDOF 8
ENDMDL
MODEL 7
REMARK minimizedAffinity -8.47441959
REMARK  8 active torsions:
REMARK  status: ('A' for Active; 'I' for Inactive)
REMARK    1  A    between atoms: O1_2  and  C2_3 
REMARK    2  A    between atoms: C9_12  and  O4_13 
REMARK    3  A    between atoms: C10_14  and  C11_15 
REMARK    4  A    between atoms: C11_15  and  C12_16 
REMARK    5  A    between atoms: C13_17  and  C15_19 
REMARK    6  A    between atoms: C15_19  and  C16_20 
REMARK    7  A    between atoms: C16_20  and  C17_21 
REMARK       I    between atoms: C17_21  and  N1_23 
REMARK    8  A    between atoms: N1_23  and  C18_24 
ROOT
HETATM    1  C12 UNL     1      -1.121   6.957  14.194  1.00  0.00    -0.020 C 
HETATM    2  C13 UNL     1      -0.003   7.269  14.878  1.00  0.00    -0.087 C 
HETATM    3  C14 UNL     1      -0.047   7.449  16.373  1.00  0.00     0.043 C 
ENDROOT
BRANCH   1   4
HETATM    4  C11 UNL     1      -1.276   6.755  12.706  1.00  0.00     0.072 C 
BRANCH   4   5
HETATM    5  C10 UNL     1      -1.944   5.439  12.367  1.00  0.00     0.013 A 
HETATM    6  C2  UNL     1      -3.344   5.257  12.542  1.00  0.00     0.084 A 
HETATM    7  C3  UNL     1      -3.974   4.006  12.360  1.00  0.00    -0.018 A 
HETATM    8  C4  UNL     1      -5.441   3.809  12.602  1.00  0.00     0.052 C 
HETATM    9  C5  UNL     1      -3.179   2.959  11.909  1.00  0.00    -0.006 A 
HETATM   10  C6  UNL     1      -1.829   3.145  11.696  1.00  0.00     0.082 A 
HETATM   11  C8  UNL     1      -3.520   1.556  11.590  1.00  0.00     0.219 A 
HETATM   12  C7  UNL     1      -1.251   1.898  11.233  1.00  0.00     0.297 A 
HETATM   13  C9  UNL     1      -1.186   4.350  11.918  1.00  0.00     0.091 A 
HETATM   14  O2  UNL     1      -0.079   1.728  10.955  1.00  0.00    -0.259 OA
HETATM   15  O3  UNL     1      -2.262   0.986  11.170  1.00  0.00    -0.313 OA
BRANCH   6  16
HETATM   16  O1  UNL     1      -4.098   6.323  12.979  1.00  0.00    -0.355 OA
HETATM   17  C1  UNL     1      -4.396   6.187  14.371  1.00  0.00     0.210 C 
ENDBRANCH   6  16
BRANCH  13  18
HETATM   18  O4  UNL     1       0.154   4.491  11.702  1.00  0.00    -0.359 OA
HETATM   19  H9  UNL     1       0.535   3.629  11.428  1.00  0.00     0.217 HD
ENDBRANCH  13  18
ENDBRANCH   4   5
ENDBRANCH   1   4
BRANCH   2  20
HETATM   20  C15 UNL     1       1.368   7.431  14.253  1.00  0.00     0.042 C 
BRANCH  20  21
HETATM   21  C16 UNL     1       1.297   8.122  12.893  1.00  0.00     0.107 C 
BRANCH  21  22
HETATM   22  C17 UNL     1       2.220   7.474  11.882  1.00  0.00     0.218 C 
HETATM   23  O5  UNL     1       2.633   6.323  11.967  1.00  0.00    -0.274 OA
HETATM   24  N1  UNL     1       2.560   8.326  10.848  1.00  0.00    -0.356 N 
HETATM   25  H20 UNL     1       2.374   9.316  10.967  1.00  0.00     0.162 HD
BRANCH  24  26
HETATM   26  C18 UNL     1       3.536   7.950   9.834  1.00  0.00     0.089 C 
HETATM   27  C19 UNL     1       3.883   6.462   9.943  1.00  0.00     0.051 C 
HETATM   28  C20 UNL     1       3.090   5.599   8.970  1.00  0.00     0.171 C 
HETATM   29  O6  UNL     1       1.813   6.170   8.707  1.00  0.00    -0.381 OA
HETATM   30  C21 UNL     1       1.869   7.405   7.968  1.00  0.00     0.055 C 
HETATM   31  C22 UNL     1       0.525   8.105   8.219  1.00  0.00     0.045 C 
HETATM   32  C23 UNL     1       1.968   7.097   6.467  1.00  0.00     0.045 C 
HETATM   33  C24 UNL     1       3.051   8.290   8.422  1.00  0.00     0.062 C 
ENDBRANCH  24  26
ENDBRANCH  21  22
ENDBRANCH  20  21
ENDBRANCH   2  20
TORSDOF 8
ENDMDL
MODEL 8
REMARK minimizedAffinity -8.46149445
REMARK  8 active torsions:
REMARK  status: ('A' for Active; 'I' for Inactive)
REMARK    1  A    between atoms: O1_2  and  C2_3 
REMARK    2  A    between atoms: C9_12  and  O4_13 
REMARK    3  A    between atoms: C10_14  and  C11_15 
REMARK    4  A    between atoms: C11_15  and  C12_16 
REMARK    5  A    between atoms: C13_17  and  C15_19 
REMARK    6  A    between atoms: C15_19  and  C16_20 
REMARK    7  A    between atoms: C16_20  and  C17_21 
REMARK       I    between atoms: C17_21  and  N1_23 
REMARK    8  A    between atoms: N1_23  and  C18_24 
ROOT
HETATM    1  C12 UNL     1      -5.367   4.352  12.881  1.00  0.00    -0.020 C 
HETATM    2  C13 UNL     1      -6.585   3.888  13.223  1.00  0.00    -0.087 C 
HETATM    3  C14 UNL     1      -7.206   2.741  12.466  1.00  0.00     0.043 C 
ENDROOT
BRANCH   1   4
HETATM    4  C11 UNL     1      -4.598   5.492  13.504  1.00  0.00     0.072 C 
BRANCH   4   5
HETATM    5  C10 UNL     1      -3.173   5.571  12.998  1.00  0.00     0.013 A 
HETATM    6  C2  UNL     1      -2.514   6.823  12.849  1.00  0.00     0.084 A 
HETATM    7  C3  UNL     1      -1.236   6.940  12.259  1.00  0.00    -0.018 A 
HETATM    8  C4  UNL     1      -0.571   8.269  12.052  1.00  0.00     0.052 C 
HETATM    9  C5  UNL     1      -0.594   5.760  11.904  1.00  0.00    -0.006 A 
HETATM   10  C6  UNL     1      -1.213   4.541  12.090  1.00  0.00     0.082 A 
HETATM   11  C8  UNL     1       0.739   5.527  11.306  1.00  0.00     0.219 A 
HETATM   12  C7  UNL     1      -0.324   3.489  11.636  1.00  0.00     0.297 A 
HETATM   13  C9  UNL     1      -2.485   4.411  12.619  1.00  0.00     0.091 A 
HETATM   14  O2  UNL     1      -0.574   2.299  11.664  1.00  0.00    -0.259 OA
HETATM   15  O3  UNL     1       0.815   4.090  11.190  1.00  0.00    -0.313 OA
BRANCH   6  16
HETATM   16  O1  UNL     1      -3.180   7.968  13.223  1.00  0.00    -0.355 OA
HETATM   17  C1  UNL     1      -2.882   8.298  14.582  1.00  0.00     0.210 C 
ENDBRANCH   6  16
BRANCH  13  18
HETATM   18  O4  UNL     1      -3.067   3.187  12.780  1.00  0.00    -0.359 OA
HETATM   19  H9  UNL     1      -2.468   2.492  12.431  1.00  0.00     0.217 HD
ENDBRANCH  13  18
ENDBRANCH   4   5
ENDBRANCH   1   4
BRANCH   2  20
HETATM   20  C15 UNL     1      -7.413   4.418  14.376  1.00  0.00     0.042 C 
BRANCH  20  21
HETATM   21  C16 UNL     1      -7.753   5.896  14.202  1.00  0.00     0.107 C 
BRANCH  21  22
HETATM   22  C17 UNL     1      -8.977   6.096  13.333  1.00  0.00     0.218 C 
HETATM   23  O5  UNL     1      -8.994   5.919  12.120  1.00  0.00    -0.274 OA
HETATM   24  N1  UNL     1     -10.080   6.513  14.052  1.00  0.00    -0.356 N 
HETATM   25  H20 UNL     1      -9.931   6.857  14.994  1.00  0.00     0.162 HD
BRANCH  24  26
HETATM   26  C18 UNL     1     -11.327   6.886  13.397  1.00  0.00     0.089 C 
HETATM   27  C19 UNL     1     -12.531   6.480  14.253  1.00  0.00     0.051 C 
HETATM   28  C20 UNL     1     -13.064   7.628  15.101  1.00  0.00     0.171 C 
HETATM   29  O6  UNL     1     -12.021   8.530  15.451  1.00  0.00    -0.381 OA
HETATM   30  C21 UNL     1     -11.486   9.264  14.334  1.00  0.00     0.055 C 
HETATM   31  C22 UNL     1     -10.105   9.764  14.783  1.00  0.00     0.045 C 
HETATM   32  C23 UNL     1     -12.367  10.492  14.061  1.00  0.00     0.045 C 
HETATM   33  C24 UNL     1     -11.374   8.382  13.070  1.00  0.00     0.062 C 
ENDBRANCH  24  26
ENDBRANCH  21  22
ENDBRANCH  20  21
ENDBRANCH   2  20
TORSDOF 8
ENDMDL
MODEL 9
REMARK minimizedAffinity -8.38099575
REMARK  8 active torsions:
REMARK  status: ('A' for Active; 'I' for Inactive)
REMARK    1  A    between atoms: O1_2  and  C2_3 
REMARK    2  A    between atoms: C9_12  and  O4_13 
REMARK    3  A    between atoms: C10_14  and  C11_15 
REMARK    4  A    between atoms: C11_15  and  C12_16 
REMARK    5  A    between atoms: C13_17  and  C15_19 
REMARK    6  A    between atoms: C15_19  and  C16_20 
REMARK    7  A    between atoms: C16_20  and  C17_21 
REMARK       I    between atoms: C17_21  and  N1_23 
REMARK    8  A    between atoms: N1_23  and  C18_24 
ROOT
HETATM    1  C12 UNL     1      -0.810   5.346  11.008  1.00  0.00    -0.020 C 
HETATM    2  C13 UNL     1       0.403   5.924  10.893  1.00  0.00    -0.087 C 
HETATM    3  C14 UNL     1       0.641   7.001   9.866  1.00  0.00     0.043 C 
ENDROOT
BRANCH   1   4
HETATM    4  C11 UNL     1      -1.231   4.250  11.956  1.00  0.00     0.072 C 
BRANCH   4   5
HETATM    5  C10 UNL     1      -2.722   4.260  12.225  1.00  0.00     0.013 A 
HETATM    6  C2  UNL     1      -3.322   5.286  13.007  1.00  0.00     0.084 A 
HETATM    7  C3  UNL     1      -4.683   5.252  13.384  1.00  0.00    -0.018 A 
HETATM    8  C4  UNL     1      -5.295   6.308  14.256  1.00  0.00     0.052 C 
HETATM    9  C5  UNL     1      -5.452   4.210  12.880  1.00  0.00    -0.006 A 
HETATM   10  C6  UNL     1      -4.881   3.238  12.085  1.00  0.00     0.082 A 
HETATM   11  C8  UNL     1      -6.888   3.901  13.048  1.00  0.00     0.219 A 
HETATM   12  C7  UNL     1      -5.904   2.282  11.705  1.00  0.00     0.297 A 
HETATM   13  C9  UNL     1      -3.539   3.228  11.747  1.00  0.00     0.091 A 
HETATM   14  O2  UNL     1      -5.724   1.304  11.005  1.00  0.00    -0.259 OA
HETATM   15  O3  UNL     1      -7.071   2.696  12.274  1.00  0.00    -0.313 OA
BRANCH   6  16
HETATM   16  O1  UNL     1      -2.527   6.308  13.477  1.00  0.00    -0.355 OA
HETATM   17  C1  UNL     1      -1.942   5.949  14.731  1.00  0.00     0.210 C 
ENDBRANCH   6  16
BRANCH  13  18
HETATM   18  O4  UNL     1      -3.011   2.243  10.964  1.00  0.00    -0.359 OA
HETATM   19  H9  UNL     1      -3.707   1.586  10.750  1.00  0.00     0.217 HD
ENDBRANCH  13  18
ENDBRANCH   4   5
ENDBRANCH   1   4
BRANCH   2  20
HETATM   20  C15 UNL     1       1.595   5.597  11.768  1.00  0.00     0.042 C 
BRANCH  20  21
HETATM   21  C16 UNL     1       2.472   6.821  12.019  1.00  0.00     0.107 C 
BRANCH  21  22
HETATM   22  C17 UNL     1       3.776   6.748  11.253  1.00  0.00     0.218 C 
HETATM   23  O5  UNL     1       4.070   5.842  10.481  1.00  0.00    -0.274 OA
HETATM   24  N1  UNL     1       4.615   7.813  11.524  1.00  0.00    -0.356 N 
HETATM   25  H20 UNL     1       4.408   8.387  12.334  1.00  0.00     0.162 HD
BRANCH  24  26
HETATM   26  C18 UNL     1       5.969   7.877  10.992  1.00  0.00     0.089 C 
HETATM   27  C19 UNL     1       6.365   9.326  10.692  1.00  0.00     0.051 C 
HETATM   28  C20 UNL     1       7.173   9.961  11.816  1.00  0.00     0.171 C 
HETATM   29  O6  UNL     1       6.812   9.409  13.077  1.00  0.00    -0.381 OA
HETATM   30  C21 UNL     1       7.191   8.029  13.237  1.00  0.00     0.055 C 
HETATM   31  C22 UNL     1       6.313   7.482  14.372  1.00  0.00     0.045 C 
HETATM   32  C23 UNL     1       8.655   7.951  13.695  1.00  0.00     0.045 C 
HETATM   33  C24 UNL     1       6.984   7.223  11.935  1.00  0.00     0.062 C 
ENDBRANCH  24  26
ENDBRANCH  21  22
ENDBRANCH  20  21
ENDBRANCH   2  20
TORSDOF 8
ENDMDL
