MODEL 1
REMARK minimizedAffinity -7.14732218
REMARK CNNscore 0.779652238
REMARK CNNaffinity 7.49625587
REMARK  6 active torsions:
REMARK  status: ('A' for Active; 'I' for Inactive)
REMARK    1  A    between atoms: C4_4  and  C5_5 
REMARK    2  A    between atoms: C5_5  and  C6_6 
REMARK    3  A    between atoms: C6_6  and  C7_7 
REMARK    4  A    between atoms: C7_7  and  C9_9 
REMARK    5  A    between atoms: C17_17  and  C18_18 
REMARK    6  A    between atoms: C18_18  and  O1_21 
ROOT
HETATM    1  C9  UNL     1       2.645  55.373  -8.111  1.00  0.00    -0.002 C 
HETATM    2  C10 UNL     1       3.654  54.240  -8.453  1.00  0.00     0.006 C 
HETATM    3  C11 UNL     1       2.839  53.129  -9.173  1.00  0.00     0.011 C 
HETATM    4  C12 UNL     1       1.362  53.507  -8.914  1.00  0.00    -0.032 C 
HETATM    5  C13 UNL     1       1.068  52.999  -7.462  1.00  0.00     0.016 C 
HETATM    6  C14 UNL     1       0.316  52.954  -9.926  1.00  0.00     0.003 C 
HETATM    7  C15 UNL     1       0.213  51.429  -9.988  1.00  0.00     0.009 C 
HETATM    8  C16 UNL     1      -0.457  51.029 -11.299  1.00  0.00     0.042 C 
HETATM    9  C17 UNL     1      -1.841  51.685 -11.591  1.00  0.00     0.095 C 
HETATM   10  O2  UNL     1      -2.745  50.971 -10.713  1.00  0.00    -0.377 OA
HETATM   11  C21 UNL     1      -4.119  51.324 -10.811  1.00  0.00     0.169 C 
HETATM   12  C22 UNL     1      -4.394  52.808 -10.639  1.00  0.00     0.027 C 
HETATM   13  C23 UNL     1      -3.341  53.742 -11.231  1.00  0.00     0.010 C 
HETATM   14  C24 UNL     1      -1.889  53.211 -11.181  1.00  0.00     0.032 C 
HETATM   15  C25 UNL     1      -1.121  53.597  -9.822  1.00  0.00    -0.033 C 
HETATM   16  C26 UNL     1      -1.917  53.123  -8.583  1.00  0.00     0.016 C 
HETATM   17  C27 UNL     1      -1.009  55.164  -9.691  1.00  0.00     0.011 C 
HETATM   18  C28 UNL     1       0.091  55.692  -8.737  1.00  0.00     0.011 C 
HETATM   19  C29 UNL     1       1.460  55.081  -9.074  1.00  0.00    -0.032 C 
HETATM   20  C30 UNL     1       1.829  55.555 -10.514  1.00  0.00     0.016 C 
ENDROOT
BRANCH   1  21
HETATM   21  C7  UNL     1       3.202  56.803  -7.883  1.00  0.00    -0.014 C 
HETATM   22  C8  UNL     1       2.494  57.436  -6.668  1.00  0.00     0.010 C 
BRANCH  21  23
HETATM   23  C6  UNL     1       4.716  57.090  -7.796  1.00  0.00     0.008 C 
BRANCH  23  24
HETATM   24  C5  UNL     1       5.442  56.703  -6.506  1.00  0.00     0.028 C 
BRANCH  24  25
HETATM   25  C4  UNL     1       6.138  57.887  -5.885  1.00  0.00    -0.025 C 
HETATM   26  C2  UNL     1       7.369  57.923  -5.342  1.00  0.00    -0.091 C 
HETATM   27  C1  UNL     1       8.331  56.765  -5.314  1.00  0.00     0.042 C 
HETATM   28  C3  UNL     1       7.906  59.198  -4.745  1.00  0.00     0.042 C 
ENDBRANCH  24  25
ENDBRANCH  23  24
ENDBRANCH  21  23
ENDBRANCH   1  21
BRANCH   9  29
HETATM   29  C18 UNL     1      -2.194  51.404 -13.149  1.00  0.00     0.082 C 
HETATM   30  C19 UNL     1      -2.993  50.095 -13.327  1.00  0.00     0.049 C 
HETATM   31  C20 UNL     1      -0.954  51.358 -14.066  1.00  0.00     0.049 C 
BRANCH  29  32
HETATM   32  O1  UNL     1      -3.014  52.448 -13.705  1.00  0.00    -0.388 OA
HETATM   33  H35 UNL     1      -3.230  52.211 -14.623  1.00  0.00     0.210 HD
ENDBRANCH  29  32
ENDBRANCH   9  29
TORSDOF 6
ENDMDL
MODEL 2
REMARK minimizedAffinity -6.79084396
REMARK CNNscore 0.685321748
REMARK CNNaffinity 6.77084589
REMARK  6 active torsions:
REMARK  status: ('A' for Active; 'I' for Inactive)
REMARK    1  A    between atoms: C4_4  and  C5_5 
REMARK    2  A    between atoms: C5_5  and  C6_6 
REMARK    3  A    between atoms: C6_6  and  C7_7 
REMARK    4  A    between atoms: C7_7  and  C9_9 
REMARK    5  A    between atoms: C17_17  and  C18_18 
REMARK    6  A    between atoms: C18_18  and  O1_21 
ROOT
HETATM    1  C9  UNL     1       5.219  55.410  -7.903  1.00  0.00    -0.002 C 
HETATM    2  C10 UNL     1       4.566  56.821  -7.949  1.00  0.00     0.006 C 
HETATM    3  C11 UNL     1       3.216  56.656  -8.703  1.00  0.00     0.011 C 
HETATM    4  C12 UNL     1       3.306  55.253  -9.348  1.00  0.00    -0.032 C 
HETATM    5  C13 UNL     1       4.176  55.459 -10.633  1.00  0.00     0.016 C 
HETATM    6  C14 UNL     1       1.954  54.558  -9.690  1.00  0.00     0.003 C 
HETATM    7  C15 UNL     1       1.088  55.290 -10.716  1.00  0.00     0.009 C 
HETATM    8  C16 UNL     1      -0.349  54.790 -10.600  1.00  0.00     0.042 C 
HETATM    9  C17 UNL     1      -0.549  53.247 -10.711  1.00  0.00     0.095 C 
HETATM   10  O2  UNL     1      -0.393  52.987 -12.127  1.00  0.00    -0.377 OA
HETATM   11  C21 UNL     1      -0.589  51.640 -12.540  1.00  0.00     0.169 C 
HETATM   12  C22 UNL     1       0.266  50.630 -11.794  1.00  0.00     0.027 C 
HETATM   13  C23 UNL     1       0.492  50.930 -10.313  1.00  0.00     0.010 C 
HETATM   14  C24 UNL     1       0.573  52.432  -9.952  1.00  0.00     0.032 C 
HETATM   15  C25 UNL     1       2.062  53.027 -10.054  1.00  0.00    -0.033 C 
HETATM   16  C26 UNL     1       2.667  52.771 -11.456  1.00  0.00     0.016 C 
HETATM   17  C27 UNL     1       3.011  52.289  -9.033  1.00  0.00     0.011 C 
HETATM   18  C28 UNL     1       4.313  53.035  -8.649  1.00  0.00     0.011 C 
HETATM   19  C29 UNL     1       4.014  54.465  -8.170  1.00  0.00    -0.032 C 
HETATM   20  C30 UNL     1       3.151  54.341  -6.875  1.00  0.00     0.016 C 
ENDROOT
BRANCH   1  21
HETATM   21  C7  UNL     1       6.272  55.129  -6.799  1.00  0.00    -0.014 C 
HETATM   22  C8  UNL     1       6.855  53.715  -7.003  1.00  0.00     0.010 C 
BRANCH  21  23
HETATM   23  C6  UNL     1       7.420  56.113  -6.490  1.00  0.00     0.008 C 
BRANCH  23  24
HETATM   24  C5  UNL     1       8.516  55.651  -5.528  1.00  0.00     0.028 C 
BRANCH  24  25
HETATM   25  C4  UNL     1       9.438  56.782  -5.154  1.00  0.00    -0.025 C 
HETATM   26  C2  UNL     1      10.754  56.709  -4.874  1.00  0.00    -0.091 C 
HETATM   27  C1  UNL     1      11.581  55.453  -4.950  1.00  0.00     0.042 C 
HETATM   28  C3  UNL     1      11.526  57.946  -4.499  1.00  0.00     0.042 C 
ENDBRANCH  24  25
ENDBRANCH  23  24
ENDBRANCH  21  23
ENDBRANCH   1  21
BRANCH   9  29
HETATM   29  C18 UNL     1      -2.059  52.916 -10.219  1.00  0.00     0.082 C 
HETATM   30  C19 UNL     1      -3.008  54.112 -10.443  1.00  0.00     0.049 C 
HETATM   31  C20 UNL     1      -2.146  52.481  -8.741  1.00  0.00     0.049 C 
BRANCH  29  32
HETATM   32  O1  UNL     1      -2.628  51.815 -10.950  1.00  0.00    -0.388 OA
HETATM   33  H35 UNL     1      -3.542  51.685 -10.648  1.00  0.00     0.210 HD
ENDBRANCH  29  32
ENDBRANCH   9  29
TORSDOF 6
ENDMDL
MODEL 3
REMARK minimizedAffinity -7.05291557
REMARK CNNscore 0.676081896
REMARK CNNaffinity 6.74114418
REMARK  6 active torsions:
REMARK  status: ('A' for Active; 'I' for Inactive)
REMARK    1  A    between atoms: C4_4  and  C5_5 
REMARK    2  A    between atoms: C5_5  and  C6_6 
REMARK    3  A    between atoms: C6_6  and  C7_7 
REMARK    4  A    between atoms: C7_7  and  C9_9 
REMARK    5  A    between atoms: C17_17  and  C18_18 
REMARK    6  A    between atoms: C18_18  and  O1_21 
ROOT
HETATM    1  C9  UNL     1       1.414  54.425 -10.708  1.00  0.00    -0.002 C 
HETATM    2  C10 UNL     1       2.537  53.593 -11.388  1.00  0.00     0.006 C 
HETATM    3  C11 UNL     1       3.843  53.885 -10.594  1.00  0.00     0.011 C 
HETATM    4  C12 UNL     1       3.495  55.113  -9.722  1.00  0.00    -0.032 C 
HETATM    5  C13 UNL     1       3.624  56.339 -10.689  1.00  0.00     0.016 C 
HETATM    6  C14 UNL     1       4.351  55.318  -8.438  1.00  0.00     0.003 C 
HETATM    7  C15 UNL     1       5.843  55.553  -8.680  1.00  0.00     0.009 C 
HETATM    8  C16 UNL     1       6.607  55.262  -7.393  1.00  0.00     0.042 C 
HETATM    9  C17 UNL     1       6.129  56.029  -6.122  1.00  0.00     0.095 C 
HETATM   10  O2  UNL     1       6.641  57.369  -6.324  1.00  0.00    -0.377 OA
HETATM   11  C21 UNL     1       6.404  58.293  -5.269  1.00  0.00     0.169 C 
HETATM   12  C22 UNL     1       4.945  58.419  -4.867  1.00  0.00     0.027 C 
HETATM   13  C23 UNL     1       4.138  57.122  -4.917  1.00  0.00     0.010 C 
HETATM   14  C24 UNL     1       4.554  56.132  -6.030  1.00  0.00     0.032 C 
HETATM   15  C25 UNL     1       3.786  56.382  -7.419  1.00  0.00    -0.033 C 
HETATM   16  C26 UNL     1       3.965  57.844  -7.896  1.00  0.00     0.016 C 
HETATM   17  C27 UNL     1       2.234  56.180  -7.223  1.00  0.00     0.011 C 
HETATM   18  C28 UNL     1       1.414  55.900  -8.507  1.00  0.00     0.011 C 
HETATM   19  C29 UNL     1       2.014  54.732  -9.306  1.00  0.00    -0.032 C 
HETATM   20  C30 UNL     1       1.910  53.462  -8.405  1.00  0.00     0.016 C 
ENDROOT
BRANCH   1  21
HETATM   21  C7  UNL     1      -0.055  53.968 -10.905  1.00  0.00    -0.014 C 
HETATM   22  C8  UNL     1      -0.084  52.443 -11.140  1.00  0.00     0.010 C 
BRANCH  21  23
HETATM   23  C6  UNL     1      -1.175  54.351  -9.913  1.00  0.00     0.008 C 
BRANCH  23  24
HETATM   24  C5  UNL     1      -2.599  54.470 -10.458  1.00  0.00     0.028 C 
BRANCH  24  25
HETATM   25  C4  UNL     1      -3.416  53.243 -10.146  1.00  0.00    -0.025 C 
HETATM   26  C2  UNL     1      -3.810  52.281 -11.002  1.00  0.00    -0.091 C 
HETATM   27  C1  UNL     1      -3.439  52.222 -12.460  1.00  0.00     0.042 C 
HETATM   28  C3  UNL     1      -4.645  51.123 -10.521  1.00  0.00     0.042 C 
ENDBRANCH  24  25
ENDBRANCH  23  24
ENDBRANCH  21  23
ENDBRANCH   1  21
BRANCH   9  29
HETATM   29  C18 UNL     1       6.825  55.324  -4.837  1.00  0.00     0.082 C 
HETATM   30  C19 UNL     1       5.775  54.783  -3.844  1.00  0.00     0.049 C 
HETATM   31  C20 UNL     1       7.798  56.249  -4.076  1.00  0.00     0.049 C 
BRANCH  29  32
HETATM   32  O1  UNL     1       7.630  54.195  -5.220  1.00  0.00    -0.388 OA
HETATM   33  H35 UNL     1       7.988  53.786  -4.415  1.00  0.00     0.210 HD
ENDBRANCH  29  32
ENDBRANCH   9  29
TORSDOF 6
ENDMDL
MODEL 4
REMARK minimizedAffinity -7.0951848
REMARK CNNscore 0.665909529
REMARK CNNaffinity 7.05619812
REMARK  6 active torsions:
REMARK  status: ('A' for Active; 'I' for Inactive)
REMARK    1  A    between atoms: C4_4  and  C5_5 
REMARK    2  A    between atoms: C5_5  and  C6_6 
REMARK    3  A    between atoms: C6_6  and  C7_7 
REMARK    4  A    between atoms: C7_7  and  C9_9 
REMARK    5  A    between atoms: C17_17  and  C18_18 
REMARK    6  A    between atoms: C18_18  and  O1_21 
ROOT
HETATM    1  C9  UNL     1      -1.710  52.346 -10.388  1.00  0.00    -0.002 C 
HETATM    2  C10 UNL     1      -1.154  52.476 -11.835  1.00  0.00     0.006 C 
HETATM    3  C11 UNL     1       0.117  53.367 -11.738  1.00  0.00     0.011 C 
HETATM    4  C12 UNL     1       0.047  53.983 -10.322  1.00  0.00    -0.032 C 
HETATM    5  C13 UNL     1      -0.965  55.171 -10.453  1.00  0.00     0.016 C 
HETATM    6  C14 UNL     1       1.396  54.458  -9.704  1.00  0.00     0.003 C 
HETATM    7  C15 UNL     1       2.103  55.579 -10.469  1.00  0.00     0.009 C 
HETATM    8  C16 UNL     1       3.572  55.610 -10.059  1.00  0.00     0.042 C 
HETATM    9  C17 UNL     1       3.855  55.724  -8.530  1.00  0.00     0.095 C 
HETATM   10  O2  UNL     1       3.567  57.113  -8.235  1.00  0.00    -0.377 OA
HETATM   11  C21 UNL     1       3.802  57.530  -6.896  1.00  0.00     0.169 C 
HETATM   12  C22 UNL     1       3.095  56.686  -5.849  1.00  0.00     0.027 C 
HETATM   13  C23 UNL     1       3.007  55.193  -6.161  1.00  0.00     0.010 C 
HETATM   14  C24 UNL     1       2.871  54.842  -7.661  1.00  0.00     0.032 C 
HETATM   15  C25 UNL     1       1.346  54.792  -8.163  1.00  0.00    -0.033 C 
HETATM   16  C26 UNL     1       0.614  56.119  -7.847  1.00  0.00     0.016 C 
HETATM   17  C27 UNL     1       0.557  53.669  -7.387  1.00  0.00     0.011 C 
HETATM   18  C28 UNL     1      -0.741  53.157  -8.060  1.00  0.00     0.011 C 
HETATM   19  C29 UNL     1      -0.483  52.728  -9.513  1.00  0.00    -0.032 C 
HETATM   20  C30 UNL     1       0.517  51.530  -9.464  1.00  0.00     0.016 C 
ENDROOT
BRANCH   1  21
HETATM   21  C7  UNL     1      -2.621  51.133 -10.063  1.00  0.00    -0.014 C 
HETATM   22  C8  UNL     1      -2.570  50.852  -8.547  1.00  0.00     0.010 C 
BRANCH  21  23
HETATM   23  C6  UNL     1      -4.086  51.054 -10.545  1.00  0.00     0.008 C 
BRANCH  23  24
HETATM   24  C5  UNL     1      -5.011  50.053  -9.852  1.00  0.00     0.028 C 
BRANCH  24  25
HETATM   25  C4  UNL     1      -6.269  49.818 -10.649  1.00  0.00    -0.025 C 
HETATM   26  C2  UNL     1      -7.488  49.492 -10.179  1.00  0.00    -0.091 C 
HETATM   27  C1  UNL     1      -7.842  49.361  -8.722  1.00  0.00     0.042 C 
HETATM   28  C3  UNL     1      -8.640  49.275 -11.125  1.00  0.00     0.042 C 
ENDBRANCH  24  25
ENDBRANCH  23  24
ENDBRANCH  21  23
ENDBRANCH   1  21
BRANCH   9  29
HETATM   29  C18 UNL     1       5.426  55.391  -8.299  1.00  0.00     0.082 C 
HETATM   30  C19 UNL     1       6.155  55.123  -9.632  1.00  0.00     0.049 C 
HETATM   31  C20 UNL     1       5.672  54.200  -7.349  1.00  0.00     0.049 C 
BRANCH  29  32
HETATM   32  O1  UNL     1       6.118  56.491  -7.682  1.00  0.00    -0.388 OA
HETATM   33  H35 UNL     1       7.058  56.257  -7.605  1.00  0.00     0.210 HD
ENDBRANCH  29  32
ENDBRANCH   9  29
TORSDOF 6
ENDMDL
MODEL 5
REMARK minimizedAffinity -6.66410446
REMARK CNNscore 0.657075047
REMARK CNNaffinity 7.1946969
REMARK  6 active torsions:
REMARK  status: ('A' for Active; 'I' for Inactive)
REMARK    1  A    between atoms: C4_4  and  C5_5 
REMARK    2  A    between atoms: C5_5  and  C6_6 
REMARK    3  A    between atoms: C6_6  and  C7_7 
REMARK    4  A    between atoms: C7_7  and  C9_9 
REMARK    5  A    between atoms: C17_17  and  C18_18 
REMARK    6  A    between atoms: C18_18  and  O1_21 
ROOT
HETATM    1  C9  UNL     1       3.768  54.246  -8.784  1.00  0.00    -0.002 C 
HETATM    2  C10 UNL     1       3.596  53.855  -7.289  1.00  0.00     0.006 C 
HETATM    3  C11 UNL     1       2.125  53.375  -7.127  1.00  0.00     0.011 C 
HETATM    4  C12 UNL     1       1.429  53.826  -8.432  1.00  0.00    -0.032 C 
HETATM    5  C13 UNL     1       1.121  55.346  -8.216  1.00  0.00     0.016 C 
HETATM    6  C14 UNL     1       0.145  53.044  -8.840  1.00  0.00     0.003 C 
HETATM    7  C15 UNL     1      -1.016  53.137  -7.849  1.00  0.00     0.009 C 
HETATM    8  C16 UNL     1      -1.986  51.989  -8.110  1.00  0.00     0.042 C 
HETATM    9  C17 UNL     1      -2.517  51.859  -9.570  1.00  0.00     0.095 C 
HETATM   10  O2  UNL     1      -3.489  52.928  -9.673  1.00  0.00    -0.377 OA
HETATM   11  C21 UNL     1      -4.196  53.014 -10.904  1.00  0.00     0.169 C 
HETATM   12  C22 UNL     1      -3.302  53.092 -12.130  1.00  0.00     0.027 C 
HETATM   13  C23 UNL     1      -2.022  52.260 -12.061  1.00  0.00     0.010 C 
HETATM   14  C24 UNL     1      -1.397  52.131 -10.652  1.00  0.00     0.032 C 
HETATM   15  C25 UNL     1      -0.363  53.312 -10.309  1.00  0.00    -0.033 C 
HETATM   16  C26 UNL     1      -1.027  54.699 -10.485  1.00  0.00     0.016 C 
HETATM   17  C27 UNL     1       0.847  53.281 -11.320  1.00  0.00     0.011 C 
HETATM   18  C28 UNL     1       2.140  54.000 -10.858  1.00  0.00     0.011 C 
HETATM   19  C29 UNL     1       2.583  53.510  -9.471  1.00  0.00    -0.032 C 
HETATM   20  C30 UNL     1       2.921  51.993  -9.609  1.00  0.00     0.016 C 
ENDROOT
BRANCH   1  21
HETATM   21  C7  UNL     1       5.203  54.253  -9.376  1.00  0.00    -0.014 C 
HETATM   22  C8  UNL     1       5.316  55.384 -10.417  1.00  0.00     0.010 C 
BRANCH  21  23
HETATM   23  C6  UNL     1       6.460  54.258  -8.481  1.00  0.00     0.008 C 
BRANCH  23  24
HETATM   24  C5  UNL     1       6.899  55.592  -7.875  1.00  0.00     0.028 C 
BRANCH  24  25
HETATM   25  C4  UNL     1       5.742  56.321  -7.242  1.00  0.00    -0.025 C 
HETATM   26  C2  UNL     1       5.783  57.189  -6.214  1.00  0.00    -0.091 C 
HETATM   27  C1  UNL     1       7.042  57.655  -5.531  1.00  0.00     0.042 C 
HETATM   28  C3  UNL     1       4.518  57.818  -5.691  1.00  0.00     0.042 C 
ENDBRANCH  24  25
ENDBRANCH  23  24
ENDBRANCH  21  23
ENDBRANCH   1  21
BRANCH   9  29
HETATM   29  C18 UNL     1      -3.230  50.407  -9.701  1.00  0.00     0.082 C 
HETATM   30  C19 UNL     1      -2.439  49.466 -10.635  1.00  0.00     0.049 C 
HETATM   31  C20 UNL     1      -4.692  50.477 -10.188  1.00  0.00     0.049 C 
BRANCH  29  32
HETATM   32  O1  UNL     1      -3.306  49.735  -8.432  1.00  0.00    -0.388 OA
HETATM   33  H35 UNL     1      -3.700  48.858  -8.572  1.00  0.00     0.210 HD
ENDBRANCH  29  32
ENDBRANCH   9  29
TORSDOF 6
ENDMDL
MODEL 6
REMARK minimizedAffinity -6.64583349
REMARK CNNscore 0.612962604
REMARK CNNaffinity 6.99437714
REMARK  6 active torsions:
REMARK  status: ('A' for Active; 'I' for Inactive)
REMARK    1  A    between atoms: C4_4  and  C5_5 
REMARK    2  A    between atoms: C5_5  and  C6_6 
REMARK    3  A    between atoms: C6_6  and  C7_7 
REMARK    4  A    between atoms: C7_7  and  C9_9 
REMARK    5  A    between atoms: C17_17  and  C18_18 
REMARK    6  A    between atoms: C18_18  and  O1_21 
ROOT
HETATM    1  C9  UNL     1       3.474  55.620  -8.278  1.00  0.00    -0.002 C 
HETATM    2  C10 UNL     1       3.650  56.205  -9.708  1.00  0.00     0.006 C 
HETATM    3  C11 UNL     1       2.612  55.480 -10.611  1.00  0.00     0.011 C 
HETATM    4  C12 UNL     1       2.127  54.287  -9.755  1.00  0.00    -0.032 C 
HETATM    5  C13 UNL     1       3.247  53.204  -9.908  1.00  0.00     0.016 C 
HETATM    6  C14 UNL     1       0.727  53.702 -10.109  1.00  0.00     0.003 C 
HETATM    7  C15 UNL     1       0.605  53.114 -11.516  1.00  0.00     0.009 C 
HETATM    8  C16 UNL     1      -0.871  53.027 -11.892  1.00  0.00     0.042 C 
HETATM    9  C17 UNL     1      -1.789  52.260 -10.892  1.00  0.00     0.095 C 
HETATM   10  O2  UNL     1      -1.469  50.868 -11.140  1.00  0.00    -0.377 OA
HETATM   11  C21 UNL     1      -2.217  49.914 -10.397  1.00  0.00     0.169 C 
HETATM   12  C22 UNL     1      -2.182  50.129  -8.893  1.00  0.00     0.027 C 
HETATM   13  C23 UNL     1      -2.177  51.589  -8.441  1.00  0.00     0.010 C 
HETATM   14  C24 UNL     1      -1.435  52.566  -9.382  1.00  0.00     0.032 C 
HETATM   15  C25 UNL     1       0.129  52.706  -9.043  1.00  0.00    -0.033 C 
HETATM   16  C26 UNL     1       0.821  51.321  -9.041  1.00  0.00     0.016 C 
HETATM   17  C27 UNL     1       0.317  53.285  -7.588  1.00  0.00     0.011 C 
HETATM   18  C28 UNL     1       1.692  53.932  -7.284  1.00  0.00     0.011 C 
HETATM   19  C29 UNL     1       2.053  54.991  -8.337  1.00  0.00    -0.032 C 
HETATM   20  C30 UNL     1       0.979  56.118  -8.238  1.00  0.00     0.016 C 
ENDROOT
BRANCH   1  21
HETATM   21  C7  UNL     1       3.961  56.472  -7.076  1.00  0.00    -0.014 C 
HETATM   22  C8  UNL     1       4.125  57.938  -7.526  1.00  0.00     0.010 C 
BRANCH  21  23
HETATM   23  C6  UNL     1       3.252  56.437  -5.705  1.00  0.00     0.008 C 
BRANCH  23  24
HETATM   24  C5  UNL     1       2.515  57.698  -5.252  1.00  0.00     0.028 C 
BRANCH  24  25
HETATM   25  C4  UNL     1       1.102  57.391  -4.827  1.00  0.00    -0.025 C 
HETATM   26  C2  UNL     1       0.445  57.875  -3.756  1.00  0.00    -0.091 C 
HETATM   27  C1  UNL     1       0.998  58.894  -2.795  1.00  0.00     0.042 C 
HETATM   28  C3  UNL     1      -0.970  57.446  -3.468  1.00  0.00     0.042 C 
ENDBRANCH  24  25
ENDBRANCH  23  24
ENDBRANCH  21  23
ENDBRANCH   1  21
BRANCH   9  29
HETATM   29  C18 UNL     1      -3.327  52.586 -11.294  1.00  0.00     0.082 C 
HETATM   30  C19 UNL     1      -3.875  53.800 -10.514  1.00  0.00     0.049 C 
HETATM   31  C20 UNL     1      -4.285  51.393 -11.096  1.00  0.00     0.049 C 
BRANCH  29  32
HETATM   32  O1  UNL     1      -3.453  52.920 -12.688  1.00  0.00    -0.388 OA
HETATM   33  H35 UNL     1      -4.381  53.147 -12.866  1.00  0.00     0.210 HD
ENDBRANCH  29  32
ENDBRANCH   9  29
TORSDOF 6
ENDMDL
MODEL 7
REMARK minimizedAffinity -6.68949795
REMARK CNNscore 0.555027127
REMARK CNNaffinity 6.95853949
REMARK  6 active torsions:
REMARK  status: ('A' for Active; 'I' for Inactive)
REMARK    1  A    between atoms: C4_4  and  C5_5 
REMARK    2  A    between atoms: C5_5  and  C6_6 
REMARK    3  A    between atoms: C6_6  and  C7_7 
REMARK    4  A    between atoms: C7_7  and  C9_9 
REMARK    5  A    between atoms: C17_17  and  C18_18 
REMARK    6  A    between atoms: C18_18  and  O1_21 
ROOT
HETATM    1  C9  UNL     1      -0.632  51.955 -10.448  1.00  0.00    -0.002 C 
HETATM    2  C10 UNL     1       0.312  52.030 -11.682  1.00  0.00     0.006 C 
HETATM    3  C11 UNL     1       1.378  53.114 -11.355  1.00  0.00     0.011 C 
HETATM    4  C12 UNL     1       0.812  53.847 -10.116  1.00  0.00    -0.032 C 
HETATM    5  C13 UNL     1      -0.251  54.842 -10.692  1.00  0.00     0.016 C 
HETATM    6  C14 UNL     1       1.845  54.585  -9.215  1.00  0.00     0.003 C 
HETATM    7  C15 UNL     1       2.607  55.723  -9.896  1.00  0.00     0.009 C 
HETATM    8  C16 UNL     1       3.871  56.024  -9.096  1.00  0.00     0.042 C 
HETATM    9  C17 UNL     1       3.666  56.330  -7.581  1.00  0.00     0.095 C 
HETATM   10  O2  UNL     1       3.137  57.678  -7.576  1.00  0.00    -0.377 OA
HETATM   11  C21 UNL     1       2.907  58.255  -6.297  1.00  0.00     0.169 C 
HETATM   12  C22 UNL     1       2.026  57.416  -5.385  1.00  0.00     0.027 C 
HETATM   13  C23 UNL     1       2.218  55.905  -5.498  1.00  0.00     0.010 C 
HETATM   14  C24 UNL     1       2.582  55.393  -6.912  1.00  0.00     0.032 C 
HETATM   15  C25 UNL     1       1.295  55.055  -7.813  1.00  0.00    -0.033 C 
HETATM   16  C26 UNL     1       0.347  56.276  -7.904  1.00  0.00     0.016 C 
HETATM   17  C27 UNL     1       0.453  53.903  -7.143  1.00  0.00     0.011 C 
HETATM   18  C28 UNL     1      -0.512  53.131  -8.077  1.00  0.00     0.011 C 
HETATM   19  C29 UNL     1       0.220  52.609  -9.323  1.00  0.00    -0.032 C 
HETATM   20  C30 UNL     1       1.297  51.593  -8.828  1.00  0.00     0.016 C 
ENDROOT
BRANCH   1  21
HETATM   21  C7  UNL     1      -1.445  50.652 -10.229  1.00  0.00    -0.014 C 
HETATM   22  C8  UNL     1      -0.471  49.484  -9.969  1.00  0.00     0.010 C 
BRANCH  21  23
HETATM   23  C6  UNL     1      -2.613  50.572  -9.223  1.00  0.00     0.008 C 
BRANCH  23  24
HETATM   24  C5  UNL     1      -4.026  50.824  -9.750  1.00  0.00     0.028 C 
BRANCH  24  25
HETATM   25  C4  UNL     1      -4.004  51.458 -11.117  1.00  0.00    -0.025 C 
HETATM   26  C2  UNL     1      -3.972  52.771 -11.411  1.00  0.00    -0.091 C 
HETATM   27  C1  UNL     1      -3.885  53.879 -10.396  1.00  0.00     0.042 C 
HETATM   28  C3  UNL     1      -3.971  53.235 -12.845  1.00  0.00     0.042 C 
ENDBRANCH  24  25
ENDBRANCH  23  24
ENDBRANCH  21  23
ENDBRANCH   1  21
BRANCH   9  29
HETATM   29  C18 UNL     1       5.124  56.271  -6.871  1.00  0.00     0.082 C 
HETATM   30  C19 UNL     1       5.665  57.683  -6.560  1.00  0.00     0.049 C 
HETATM   31  C20 UNL     1       6.181  55.503  -7.691  1.00  0.00     0.049 C 
BRANCH  29  32
HETATM   32  O1  UNL     1       5.075  55.579  -5.611  1.00  0.00    -0.388 OA
HETATM   33  H35 UNL     1       5.959  55.608  -5.210  1.00  0.00     0.210 HD
ENDBRANCH  29  32
ENDBRANCH   9  29
TORSDOF 6
ENDMDL
MODEL 8
REMARK minimizedAffinity -7.35233831
REMARK CNNscore 0.508728981
REMARK CNNaffinity 6.27314377
REMARK  6 active torsions:
REMARK  status: ('A' for Active; 'I' for Inactive)
REMARK    1  A    between atoms: C4_4  and  C5_5 
REMARK    2  A    between atoms: C5_5  and  C6_6 
REMARK    3  A    between atoms: C6_6  and  C7_7 
REMARK    4  A    between atoms: C7_7  and  C9_9 
REMARK    5  A    between atoms: C17_17  and  C18_18 
REMARK    6  A    between atoms: C18_18  and  O1_21 
ROOT
HETATM    1  C9  UNL     1      -7.459  47.314 -30.434  1.00  0.00    -0.002 C 
HETATM    2  C10 UNL     1      -8.083  48.723 -30.648  1.00  0.00     0.006 C 
HETATM    3  C11 UNL     1      -9.572  48.614 -30.214  1.00  0.00     0.011 C 
HETATM    4  C12 UNL     1      -9.828  47.094 -30.097  1.00  0.00    -0.032 C 
HETATM    5  C13 UNL     1     -10.060  46.613 -31.569  1.00  0.00     0.016 C 
HETATM    6  C14 UNL     1     -11.002  46.657 -29.171  1.00  0.00     0.003 C 
HETATM    7  C15 UNL     1     -12.386  47.148 -29.599  1.00  0.00     0.009 C 
HETATM    8  C16 UNL     1     -13.332  47.072 -28.404  1.00  0.00     0.042 C 
HETATM    9  C17 UNL     1     -13.433  45.685 -27.697  1.00  0.00     0.095 C 
HETATM   10  O2  UNL     1     -14.245  44.901 -28.606  1.00  0.00    -0.377 OA
HETATM   11  C21 UNL     1     -14.561  43.582 -28.181  1.00  0.00     0.169 C 
HETATM   12  C22 UNL     1     -13.352  42.741 -27.809  1.00  0.00     0.027 C 
HETATM   13  C23 UNL     1     -12.217  43.495 -27.117  1.00  0.00     0.010 C 
HETATM   14  C24 UNL     1     -12.033  44.963 -27.569  1.00  0.00     0.032 C 
HETATM   15  C25 UNL     1     -11.046  45.118 -28.828  1.00  0.00    -0.033 C 
HETATM   16  C26 UNL     1     -11.517  44.239 -30.012  1.00  0.00     0.016 C 
HETATM   17  C27 UNL     1      -9.605  44.600 -28.452  1.00  0.00     0.011 C 
HETATM   18  C28 UNL     1      -8.443  45.111 -29.341  1.00  0.00     0.011 C 
HETATM   19  C29 UNL     1      -8.455  46.644 -29.445  1.00  0.00    -0.032 C 
HETATM   20  C30 UNL     1      -8.217  47.201 -28.007  1.00  0.00     0.016 C 
ENDROOT
BRANCH   1  21
HETATM   21  C7  UNL     1      -5.920  47.215 -30.263  1.00  0.00    -0.014 C 
HETATM   22  C8  UNL     1      -5.275  46.932 -31.635  1.00  0.00     0.010 C 
BRANCH  21  23
HETATM   23  C6  UNL     1      -5.104  48.302 -29.532  1.00  0.00     0.008 C 
BRANCH  23  24
HETATM   24  C5  UNL     1      -4.765  48.069 -28.059  1.00  0.00     0.028 C 
BRANCH  24  25
HETATM   25  C4  UNL     1      -3.543  48.846 -27.641  1.00  0.00    -0.025 C 
HETATM   26  C2  UNL     1      -3.098  49.064 -26.390  1.00  0.00    -0.091 C 
HETATM   27  C1  UNL     1      -3.724  48.498 -25.143  1.00  0.00     0.042 C 
HETATM   28  C3  UNL     1      -1.858  49.885 -26.150  1.00  0.00     0.042 C 
ENDBRANCH  24  25
ENDBRANCH  23  24
ENDBRANCH  21  23
ENDBRANCH   1  21
BRANCH   9  29
HETATM   29  C18 UNL     1     -14.195  45.915 -26.283  1.00  0.00     0.082 C 
HETATM   30  C19 UNL     1     -13.509  45.146 -25.134  1.00  0.00     0.049 C 
HETATM   31  C20 UNL     1     -15.689  45.531 -26.316  1.00  0.00     0.049 C 
BRANCH  29  32
HETATM   32  O1  UNL     1     -14.188  47.300 -25.894  1.00  0.00    -0.388 OA
HETATM   33  H35 UNL     1     -14.618  47.376 -25.025  1.00  0.00     0.210 HD
ENDBRANCH  29  32
ENDBRANCH   9  29
TORSDOF 6
ENDMDL
MODEL 9
REMARK minimizedAffinity -7.38950062
REMARK CNNscore 0.506294131
REMARK CNNaffinity 6.86412239
REMARK  6 active torsions:
REMARK  status: ('A' for Active; 'I' for Inactive)
REMARK    1  A    between atoms: C4_4  and  C5_5 
REMARK    2  A    between atoms: C5_5  and  C6_6 
REMARK    3  A    between atoms: C6_6  and  C7_7 
REMARK    4  A    between atoms: C7_7  and  C9_9 
REMARK    5  A    between atoms: C17_17  and  C18_18 
REMARK    6  A    between atoms: C18_18  and  O1_21 
ROOT
HETATM    1  C9  UNL     1      -2.237  51.913  -9.704  1.00  0.00    -0.002 C 
HETATM    2  C10 UNL     1      -2.102  51.363  -8.255  1.00  0.00     0.006 C 
HETATM    3  C11 UNL     1      -0.722  51.848  -7.728  1.00  0.00     0.011 C 
HETATM    4  C12 UNL     1       0.014  52.356  -8.989  1.00  0.00    -0.032 C 
HETATM    5  C13 UNL     1       0.559  51.061  -9.682  1.00  0.00     0.016 C 
HETATM    6  C14 UNL     1       1.153  53.392  -8.759  1.00  0.00     0.003 C 
HETATM    7  C15 UNL     1       2.332  52.889  -7.923  1.00  0.00     0.009 C 
HETATM    8  C16 UNL     1       3.106  54.088  -7.384  1.00  0.00     0.042 C 
HETATM    9  C17 UNL     1       3.586  55.127  -8.443  1.00  0.00     0.095 C 
HETATM   10  O2  UNL     1       4.711  54.469  -9.076  1.00  0.00    -0.377 OA
HETATM   11  C21 UNL     1       5.402  55.225 -10.063  1.00  0.00     0.169 C 
HETATM   12  C22 UNL     1       4.510  55.767 -11.168  1.00  0.00     0.027 C 
HETATM   13  C23 UNL     1       3.118  56.214 -10.725  1.00  0.00     0.010 C 
HETATM   14  C24 UNL     1       2.504  55.399  -9.563  1.00  0.00     0.032 C 
HETATM   15  C25 UNL     1       1.673  54.117 -10.060  1.00  0.00    -0.033 C 
HETATM   16  C26 UNL     1       2.542  53.208 -10.963  1.00  0.00     0.016 C 
HETATM   17  C27 UNL     1       0.456  54.575 -10.952  1.00  0.00     0.011 C 
HETATM   18  C28 UNL     1      -0.701  53.556 -11.104  1.00  0.00     0.011 C 
HETATM   19  C29 UNL     1      -1.192  53.064  -9.733  1.00  0.00    -0.032 C 
HETATM   20  C30 UNL     1      -1.765  54.307  -8.982  1.00  0.00     0.016 C 
ENDROOT
BRANCH   1  21
HETATM   21  C7  UNL     1      -3.662  52.063 -10.298  1.00  0.00    -0.014 C 
HETATM   22  C8  UNL     1      -3.677  53.246 -11.287  1.00  0.00     0.010 C 
BRANCH  21  23
HETATM   23  C6  UNL     1      -4.422  50.872 -10.919  1.00  0.00     0.008 C 
BRANCH  23  24
HETATM   24  C5  UNL     1      -5.070  49.865  -9.967  1.00  0.00     0.028 C 
BRANCH  24  25
HETATM   25  C4  UNL     1      -6.568  49.839 -10.123  1.00  0.00    -0.025 C 
HETATM   26  C2  UNL     1      -7.303  48.969 -10.841  1.00  0.00    -0.091 C 
HETATM   27  C1  UNL     1      -6.749  47.787 -11.589  1.00  0.00     0.042 C 
HETATM   28  C3  UNL     1      -8.803  49.101 -10.901  1.00  0.00     0.042 C 
ENDBRANCH  24  25
ENDBRANCH  23  24
ENDBRANCH  21  23
ENDBRANCH   1  21
BRANCH   9  29
HETATM   29  C18 UNL     1       4.061  56.455  -7.641  1.00  0.00     0.082 C 
HETATM   30  C19 UNL     1       5.578  56.438  -7.354  1.00  0.00     0.049 C 
HETATM   31  C20 UNL     1       3.307  56.679  -6.314  1.00  0.00     0.049 C 
BRANCH  29  32
HETATM   32  O1  UNL     1       3.814  57.652  -8.400  1.00  0.00    -0.388 OA
HETATM   33  H35 UNL     1       4.153  58.410  -7.896  1.00  0.00     0.210 HD
ENDBRANCH  29  32
ENDBRANCH   9  29
TORSDOF 6
ENDMDL
