MODEL 1
REMARK minimizedAffinity -9.40927696
REMARK CNNscore 0.567590714
REMARK CNNaffinity 7.39275599
REMARK  14 active torsions:
REMARK  status: ('A' for Active; 'I' for Inactive)
REMARK    1  A    between atoms: C12_13  and  O2_14 
REMARK    2  A    between atoms: C19_21  and  O3_22 
REMARK    3  A    between atoms: C19_21  and  C20_23 
REMARK    4  A    between atoms: C20_23  and  C21_25 
REMARK    5  A    between atoms: C21_25  and  O5_26 
REMARK    6  A    between atoms: O5_26  and  C22_27 
REMARK    7  A    between atoms: C22_27  and  C23_29 
REMARK    8  A    between atoms: C23_29  and  C24_30 
REMARK    9  A    between atoms: C24_30  and  C25_31 
REMARK       I    between atoms: C25_31  and  N1_33 
REMARK   10  A    between atoms: N1_33  and  C26_34 
REMARK   11  A    between atoms: C26_34  and  C27_35 
REMARK   12  A    between atoms: C26_34  and  C36_45 
REMARK   13  A    between atoms: C27_35  and  C28_36 
REMARK   14  A    between atoms: C36_45  and  O9_47 
ROOT
HETATM    1  C20 UNL     1      -3.114  50.912 -13.135  1.00  0.00     0.185 C 
HETATM    2  O4  UNL     1      -3.301  49.735 -12.803  1.00  0.00    -0.292 OA
ENDROOT
BRANCH   1   3
HETATM    3  C19 UNL     1      -2.918  52.050 -12.088  1.00  0.00     0.128 C 
HETATM    4  C14 UNL     1      -1.448  52.218 -11.560  1.00  0.00     0.001 C 
HETATM    5  C13 UNL     1      -0.501  53.117 -12.388  1.00  0.00     0.045 C 
HETATM    6  C15 UNL     1      -0.817  50.815 -11.344  1.00  0.00     0.019 C 
HETATM    7  C16 UNL     1      -1.717  52.972 -10.235  1.00  0.00     0.002 C 
HETATM    8  C12 UNL     1       0.799  53.502 -11.646  1.00  0.00     0.124 C 
HETATM    9  C11 UNL     1       0.551  54.084 -10.223  1.00  0.00     0.031 C 
HETATM   10  C2  UNL     1       1.852  54.461  -9.406  1.00  0.00    -0.014 C 
HETATM   11  C10 UNL     1      -0.456  53.227  -9.394  1.00  0.00    -0.002 C 
HETATM   12  C1  UNL     1       2.774  53.256  -9.111  1.00  0.00     0.020 C 
HETATM   13  C3  UNL     1       2.650  55.520 -10.225  1.00  0.00     0.022 C 
HETATM   14  C7  UNL     1       1.442  55.056  -8.050  1.00  0.00    -0.068 C 
HETATM   15  C4  UNL     1       3.707  56.254  -9.415  1.00  0.00     0.084 C 
HETATM   16  C5  UNL     1       3.083  56.894  -8.204  1.00  0.00     0.149 C 
HETATM   17  O1  UNL     1       3.510  57.938  -7.718  1.00  0.00    -0.293 OA
HETATM   18  C6  UNL     1       1.972  56.181  -7.535  1.00  0.00     0.053 C 
HETATM   19  C8  UNL     1       0.418  54.278  -7.260  1.00  0.00     0.035 C 
HETATM   20  C9  UNL     1      -0.817  53.955  -8.088  1.00  0.00     0.010 C 
HETATM   21  C17 UNL     1      -2.853  52.185  -9.595  1.00  0.00     0.009 C 
HETATM   22  C18 UNL     1      -3.718  51.731 -10.784  1.00  0.00     0.047 C 
BRANCH   8  23
HETATM   23  O2  UNL     1       1.662  52.377 -11.603  1.00  0.00    -0.395 OA
HETATM   24  H16 UNL     1       1.898  52.142 -12.518  1.00  0.00     0.210 HD
ENDBRANCH   8  23
BRANCH   3  25
HETATM   25  O3  UNL     1      -3.452  53.293 -12.548  1.00  0.00    -0.381 OA
HETATM   26  H27 UNL     1      -2.910  53.632 -13.288  1.00  0.00     0.211 HD
ENDBRANCH   3  25
ENDBRANCH   1   3
BRANCH   1  27
HETATM   27  C21 UNL     1      -3.030  51.260 -14.614  1.00  0.00     0.260 C 
BRANCH  27  28
HETATM   28  O5  UNL     1      -1.986  50.564 -15.290  1.00  0.00    -0.314 OA
BRANCH  28  29
HETATM   29  C22 UNL     1      -2.003  50.636 -16.642  1.00  0.00     0.259 C 
HETATM   30  O6  UNL     1      -2.985  50.984 -17.291  1.00  0.00    -0.265 OA
BRANCH  29  31
HETATM   31  C23 UNL     1      -0.697  50.228 -17.282  1.00  0.00     0.120 C 
BRANCH  31  32
HETATM   32  C24 UNL     1       0.264  51.377 -17.566  1.00  0.00     0.112 C 
BRANCH  32  33
HETATM   33  C25 UNL     1      -0.065  52.087 -18.863  1.00  0.00     0.218 C 
HETATM   34  O7  UNL     1      -0.972  52.902 -18.980  1.00  0.00    -0.274 OA
HETATM   35  N1  UNL     1       0.754  51.717 -19.901  1.00  0.00    -0.346 N 
HETATM   36  H34 UNL     1       1.551  51.111 -19.732  1.00  0.00     0.163 HD
BRANCH  35  37
HETATM   37  C26 UNL     1       0.645  52.328 -21.232  1.00  0.00     0.186 C 
BRANCH  37  38
HETATM   38  C27 UNL     1      -0.820  52.444 -21.669  1.00  0.00     0.077 C 
BRANCH  38  39
HETATM   39  C28 UNL     1      -1.136  51.657 -22.902  1.00  0.00    -0.028 A 
HETATM   40  C29 UNL     1      -2.170  50.755 -23.062  1.00  0.00     0.096 A 
HETATM   41  N2  UNL     1      -2.107  50.251 -24.334  1.00  0.00    -0.365 N 
HETATM   42  C30 UNL     1      -1.049  50.807 -25.015  1.00  0.00     0.042 A 
HETATM   43  H39 UNL     1      -2.741  49.570 -24.724  1.00  0.00     0.165 HD
HETATM   44  C31 UNL     1      -0.607  50.592 -26.327  1.00  0.00     0.030 A 
HETATM   45  C35 UNL     1      -0.416  51.690 -24.141  1.00  0.00    -0.002 A 
HETATM   46  C32 UNL     1       0.516  51.306 -26.755  1.00  0.00     0.002 A 
HETATM   47  C33 UNL     1       1.170  52.195 -25.906  1.00  0.00     0.001 A 
HETATM   48  C34 UNL     1       0.715  52.397 -24.598  1.00  0.00     0.014 A 
ENDBRANCH  38  39
ENDBRANCH  37  38
BRANCH  37  49
HETATM   49  C36 UNL     1       1.270  53.714 -21.123  1.00  0.00     0.163 C 
HETATM   50  O8  UNL     1       1.405  54.507 -22.045  1.00  0.00    -0.648 OA
BRANCH  49  51
HETATM   51  O9  UNL     1       1.669  54.040 -19.879  1.00  0.00    -0.775 OA
HETATM   52  H44 UNL     1       2.048  54.937 -19.964  1.00  0.00     0.167 HD
ENDBRANCH  49  51
ENDBRANCH  37  49
ENDBRANCH  35  37
ENDBRANCH  32  33
ENDBRANCH  31  32
ENDBRANCH  29  31
ENDBRANCH  28  29
ENDBRANCH  27  28
ENDBRANCH   1  27
TORSDOF 14
ENDMDL
MODEL 2
REMARK minimizedAffinity -8.98370743
REMARK CNNscore 0.536664963
REMARK CNNaffinity 5.93616104
REMARK  14 active torsions:
REMARK  status: ('A' for Active; 'I' for Inactive)
REMARK    1  A    between atoms: C12_13  and  O2_14 
REMARK    2  A    between atoms: C19_21  and  O3_22 
REMARK    3  A    between atoms: C19_21  and  C20_23 
REMARK    4  A    between atoms: C20_23  and  C21_25 
REMARK    5  A    between atoms: C21_25  and  O5_26 
REMARK    6  A    between atoms: O5_26  and  C22_27 
REMARK    7  A    between atoms: C22_27  and  C23_29 
REMARK    8  A    between atoms: C23_29  and  C24_30 
REMARK    9  A    between atoms: C24_30  and  C25_31 
REMARK       I    between atoms: C25_31  and  N1_33 
REMARK   10  A    between atoms: N1_33  and  C26_34 
REMARK   11  A    between atoms: C26_34  and  C27_35 
REMARK   12  A    between atoms: C26_34  and  C36_45 
REMARK   13  A    between atoms: C27_35  and  C28_36 
REMARK   14  A    between atoms: C36_45  and  O9_47 
ROOT
HETATM    1  C20 UNL     1      -9.085  48.082 -24.358  1.00  0.00     0.185 C 
HETATM    2  O4  UNL     1      -9.214  49.023 -25.152  1.00  0.00    -0.292 OA
ENDROOT
BRANCH   1   3
HETATM    3  C19 UNL     1      -7.990  48.074 -23.250  1.00  0.00     0.128 C 
HETATM    4  C14 UNL     1      -6.600  48.662 -23.689  1.00  0.00     0.001 C 
HETATM    5  C13 UNL     1      -6.410  50.191 -23.556  1.00  0.00     0.045 C 
HETATM    6  C15 UNL     1      -6.279  48.196 -25.135  1.00  0.00     0.019 C 
HETATM    7  C16 UNL     1      -5.680  48.015 -22.625  1.00  0.00     0.002 C 
HETATM    8  C12 UNL     1      -4.940  50.648 -23.681  1.00  0.00     0.124 C 
HETATM    9  C11 UNL     1      -3.966  49.865 -22.752  1.00  0.00     0.031 C 
HETATM   10  C2  UNL     1      -2.441  50.271 -22.868  1.00  0.00    -0.014 C 
HETATM   11  C10 UNL     1      -4.187  48.322 -22.820  1.00  0.00    -0.002 C 
HETATM   12  C1  UNL     1      -1.833  50.019 -24.267  1.00  0.00     0.020 C 
HETATM   13  C3  UNL     1      -2.315  51.786 -22.526  1.00  0.00     0.022 C 
HETATM   14  C7  UNL     1      -1.621  49.443 -21.865  1.00  0.00    -0.068 C 
HETATM   15  C4  UNL     1      -0.892  52.231 -22.224  1.00  0.00     0.084 C 
HETATM   16  C5  UNL     1      -0.311  51.396 -21.114  1.00  0.00     0.149 C 
HETATM   17  O1  UNL     1       0.515  51.840 -20.320  1.00  0.00    -0.293 OA
HETATM   18  C6  UNL     1      -0.692  49.967 -21.045  1.00  0.00     0.053 C 
HETATM   19  C8  UNL     1      -1.867  47.954 -21.867  1.00  0.00     0.035 C 
HETATM   20  C9  UNL     1      -3.347  47.621 -21.739  1.00  0.00     0.010 C 
HETATM   21  C17 UNL     1      -6.112  46.555 -22.614  1.00  0.00     0.009 C 
HETATM   22  C18 UNL     1      -7.631  46.605 -22.852  1.00  0.00     0.047 C 
BRANCH   8  23
HETATM   23  O2  UNL     1      -4.540  50.566 -25.039  1.00  0.00    -0.395 OA
HETATM   24  H16 UNL     1      -5.089  51.183 -25.554  1.00  0.00     0.210 HD
ENDBRANCH   8  23
BRANCH   3  25
HETATM   25  O3  UNL     1      -8.453  48.676 -22.040  1.00  0.00    -0.381 OA
HETATM   26  H27 UNL     1      -8.568  49.638 -22.173  1.00  0.00     0.211 HD
ENDBRANCH   3  25
ENDBRANCH   1   3
BRANCH   1  27
HETATM   27  C21 UNL     1     -10.052  46.910 -24.436  1.00  0.00     0.260 C 
BRANCH  27  28
HETATM   28  O5  UNL     1     -11.408  47.317 -24.595  1.00  0.00    -0.314 OA
BRANCH  28  29
HETATM   29  C22 UNL     1     -12.333  46.330 -24.568  1.00  0.00     0.259 C 
HETATM   30  O6  UNL     1     -12.069  45.147 -24.766  1.00  0.00    -0.265 OA
BRANCH  29  31
HETATM   31  C23 UNL     1     -13.733  46.823 -24.286  1.00  0.00     0.120 C 
BRANCH  31  32
HETATM   32  C24 UNL     1     -14.755  46.503 -25.370  1.00  0.00     0.112 C 
BRANCH  32  33
HETATM   33  C25 UNL     1     -15.879  45.628 -24.852  1.00  0.00     0.218 C 
HETATM   34  O7  UNL     1     -15.811  44.978 -23.816  1.00  0.00    -0.274 OA
HETATM   35  N1  UNL     1     -16.983  45.632 -25.668  1.00  0.00    -0.346 N 
HETATM   36  H34 UNL     1     -17.029  46.261 -26.464  1.00  0.00     0.163 HD
BRANCH  35  37
HETATM   37  C26 UNL     1     -18.207  44.898 -25.321  1.00  0.00     0.186 C 
BRANCH  37  38
HETATM   38  C27 UNL     1     -19.124  45.744 -24.429  1.00  0.00     0.077 C 
BRANCH  38  39
HETATM   39  C28 UNL     1     -19.451  45.089 -23.123  1.00  0.00    -0.028 A 
HETATM   40  C29 UNL     1     -20.204  43.947 -22.940  1.00  0.00     0.096 A 
HETATM   41  N2  UNL     1     -20.269  43.685 -21.597  1.00  0.00    -0.365 N 
HETATM   42  C30 UNL     1     -19.569  44.637 -20.893  1.00  0.00     0.042 A 
HETATM   43  H39 UNL     1     -20.757  42.909 -21.177  1.00  0.00     0.165 HD
HETATM   44  C31 UNL     1     -19.364  44.769 -19.514  1.00  0.00     0.030 A 
HETATM   45  C35 UNL     1     -19.048  45.536 -21.823  1.00  0.00    -0.002 A 
HETATM   46  C32 UNL     1     -18.600  45.855 -19.075  1.00  0.00     0.002 A 
HETATM   47  C33 UNL     1     -18.066  46.770 -19.979  1.00  0.00     0.001 A 
HETATM   48  C34 UNL     1     -18.282  46.622 -21.354  1.00  0.00     0.014 A 
ENDBRANCH  38  39
ENDBRANCH  37  38
BRANCH  37  49
HETATM   49  C36 UNL     1     -18.907  44.579 -26.637  1.00  0.00     0.163 C 
HETATM   50  O8  UNL     1     -19.787  43.742 -26.788  1.00  0.00    -0.648 OA
BRANCH  49  51
HETATM   51  O9  UNL     1     -18.491  45.327 -27.676  1.00  0.00    -0.775 OA
HETATM   52  H44 UNL     1     -19.015  45.011 -28.438  1.00  0.00     0.167 HD
ENDBRANCH  49  51
ENDBRANCH  37  49
ENDBRANCH  35  37
ENDBRANCH  32  33
ENDBRANCH  31  32
ENDBRANCH  29  31
ENDBRANCH  28  29
ENDBRANCH  27  28
ENDBRANCH   1  27
TORSDOF 14
ENDMDL
MODEL 3
REMARK minimizedAffinity -9.27485657
REMARK CNNscore 0.471487224
REMARK CNNaffinity 6.96668434
REMARK  14 active torsions:
REMARK  status: ('A' for Active; 'I' for Inactive)
REMARK    1  A    between atoms: C12_13  and  O2_14 
REMARK    2  A    between atoms: C19_21  and  O3_22 
REMARK    3  A    between atoms: C19_21  and  C20_23 
REMARK    4  A    between atoms: C20_23  and  C21_25 
REMARK    5  A    between atoms: C21_25  and  O5_26 
REMARK    6  A    between atoms: O5_26  and  C22_27 
REMARK    7  A    between atoms: C22_27  and  C23_29 
REMARK    8  A    between atoms: C23_29  and  C24_30 
REMARK    9  A    between atoms: C24_30  and  C25_31 
REMARK       I    between atoms: C25_31  and  N1_33 
REMARK   10  A    between atoms: N1_33  and  C26_34 
REMARK   11  A    between atoms: C26_34  and  C27_35 
REMARK   12  A    between atoms: C26_34  and  C36_45 
REMARK   13  A    between atoms: C27_35  and  C28_36 
REMARK   14  A    between atoms: C36_45  and  O9_47 
ROOT
HETATM    1  C20 UNL     1      -3.437  50.728 -12.169  1.00  0.00     0.185 C 
HETATM    2  O4  UNL     1      -4.411  50.351 -11.506  1.00  0.00    -0.292 OA
ENDROOT
BRANCH   1   3
HETATM    3  C19 UNL     1      -2.780  52.125 -11.959  1.00  0.00     0.128 C 
HETATM    4  C14 UNL     1      -1.769  52.207 -10.759  1.00  0.00     0.001 C 
HETATM    5  C13 UNL     1      -0.303  51.804 -11.045  1.00  0.00     0.045 C 
HETATM    6  C15 UNL     1      -2.331  51.399  -9.557  1.00  0.00     0.019 C 
HETATM    7  C16 UNL     1      -1.761  53.735 -10.511  1.00  0.00     0.002 C 
HETATM    8  C12 UNL     1       0.685  52.223  -9.933  1.00  0.00     0.124 C 
HETATM    9  C11 UNL     1       0.569  53.724  -9.534  1.00  0.00     0.031 C 
HETATM   10  C2  UNL     1       1.535  54.195  -8.373  1.00  0.00    -0.014 C 
HETATM   11  C10 UNL     1      -0.910  54.168  -9.306  1.00  0.00    -0.002 C 
HETATM   12  C1  UNL     1       1.290  53.477  -7.026  1.00  0.00     0.020 C 
HETATM   13  C3  UNL     1       3.002  53.933  -8.827  1.00  0.00     0.022 C 
HETATM   14  C7  UNL     1       1.330  55.698  -8.125  1.00  0.00    -0.068 C 
HETATM   15  C4  UNL     1       4.042  54.671  -7.999  1.00  0.00     0.084 C 
HETATM   16  C5  UNL     1       3.753  56.149  -7.998  1.00  0.00     0.149 C 
HETATM   17  O1  UNL     1       4.642  56.993  -7.921  1.00  0.00    -0.293 OA
HETATM   18  C6  UNL     1       2.338  56.581  -8.001  1.00  0.00     0.053 C 
HETATM   19  C8  UNL     1      -0.098  56.162  -7.969  1.00  0.00     0.035 C 
HETATM   20  C9  UNL     1      -0.979  55.693  -9.118  1.00  0.00     0.010 C 
HETATM   21  C17 UNL     1      -3.236  54.109 -10.513  1.00  0.00     0.009 C 
HETATM   22  C18 UNL     1      -3.863  53.182 -11.569  1.00  0.00     0.047 C 
BRANCH   8  23
HETATM   23  O2  UNL     1       0.513  51.372  -8.812  1.00  0.00    -0.395 OA
HETATM   24  H16 UNL     1       0.737  50.465  -9.084  1.00  0.00     0.210 HD
ENDBRANCH   8  23
BRANCH   3  25
HETATM   25  O3  UNL     1      -2.200  52.626 -13.165  1.00  0.00    -0.381 OA
HETATM   26  H27 UNL     1      -1.417  52.091 -13.402  1.00  0.00     0.211 HD
ENDBRANCH   3  25
ENDBRANCH   1   3
BRANCH   1  27
HETATM   27  C21 UNL     1      -2.831  49.784 -13.197  1.00  0.00     0.260 C 
BRANCH  27  28
HETATM   28  O5  UNL     1      -2.916  50.284 -14.529  1.00  0.00    -0.314 OA
BRANCH  28  29
HETATM   29  C22 UNL     1      -2.489  49.450 -15.505  1.00  0.00     0.259 C 
HETATM   30  O6  UNL     1      -2.196  48.273 -15.313  1.00  0.00    -0.265 OA
BRANCH  29  31
HETATM   31  C23 UNL     1      -2.388  50.111 -16.860  1.00  0.00     0.120 C 
BRANCH  31  32
HETATM   32  C24 UNL     1      -1.091  50.874 -17.106  1.00  0.00     0.112 C 
BRANCH  32  33
HETATM   33  C25 UNL     1      -1.095  51.586 -18.443  1.00  0.00     0.218 C 
HETATM   34  O7  UNL     1      -2.079  52.145 -18.912  1.00  0.00    -0.274 OA
HETATM   35  N1  UNL     1       0.119  51.535 -19.082  1.00  0.00    -0.346 N 
HETATM   36  H34 UNL     1       0.930  51.145 -18.611  1.00  0.00     0.163 HD
BRANCH  35  37
HETATM   37  C26 UNL     1       0.351  52.213 -20.364  1.00  0.00     0.186 C 
BRANCH  37  38
HETATM   38  C27 UNL     1      -0.903  52.171 -21.246  1.00  0.00     0.077 C 
BRANCH  38  39
HETATM   39  C28 UNL     1      -0.602  51.975 -22.699  1.00  0.00    -0.028 A 
HETATM   40  C29 UNL     1       0.394  52.599 -23.426  1.00  0.00     0.096 A 
HETATM   41  N2  UNL     1       0.330  52.148 -24.717  1.00  0.00    -0.365 N 
HETATM   42  C30 UNL     1      -0.691  51.236 -24.853  1.00  0.00     0.042 A 
HETATM   43  H39 UNL     1       0.940  52.437 -25.467  1.00  0.00     0.165 HD
HETATM   44  C31 UNL     1      -1.120  50.522 -25.979  1.00  0.00     0.030 A 
HETATM   45  C35 UNL     1      -1.298  51.110 -23.604  1.00  0.00    -0.002 A 
HETATM   46  C32 UNL     1      -2.203  49.652 -25.820  1.00  0.00     0.002 A 
HETATM   47  C33 UNL     1      -2.831  49.505 -24.586  1.00  0.00     0.001 A 
HETATM   48  C34 UNL     1      -2.389  50.227 -23.471  1.00  0.00     0.014 A 
ENDBRANCH  38  39
ENDBRANCH  37  38
BRANCH  37  49
HETATM   49  C36 UNL     1       0.708  53.657 -20.031  1.00  0.00     0.163 C 
HETATM   50  O8  UNL     1       1.603  54.306 -20.555  1.00  0.00    -0.648 OA
BRANCH  49  51
HETATM   51  O9  UNL     1      -0.077  54.213 -19.089  1.00  0.00    -0.775 OA
HETATM   52  H44 UNL     1       0.269  55.121 -18.979  1.00  0.00     0.167 HD
ENDBRANCH  49  51
ENDBRANCH  37  49
ENDBRANCH  35  37
ENDBRANCH  32  33
ENDBRANCH  31  32
ENDBRANCH  29  31
ENDBRANCH  28  29
ENDBRANCH  27  28
ENDBRANCH   1  27
TORSDOF 14
ENDMDL
MODEL 4
REMARK minimizedAffinity -9.7655201
REMARK CNNscore 0.417504579
REMARK CNNaffinity 6.82154655
REMARK  14 active torsions:
REMARK  status: ('A' for Active; 'I' for Inactive)
REMARK    1  A    between atoms: C12_13  and  O2_14 
REMARK    2  A    between atoms: C19_21  and  O3_22 
REMARK    3  A    between atoms: C19_21  and  C20_23 
REMARK    4  A    between atoms: C20_23  and  C21_25 
REMARK    5  A    between atoms: C21_25  and  O5_26 
REMARK    6  A    between atoms: O5_26  and  C22_27 
REMARK    7  A    between atoms: C22_27  and  C23_29 
REMARK    8  A    between atoms: C23_29  and  C24_30 
REMARK    9  A    between atoms: C24_30  and  C25_31 
REMARK       I    between atoms: C25_31  and  N1_33 
REMARK   10  A    between atoms: N1_33  and  C26_34 
REMARK   11  A    between atoms: C26_34  and  C27_35 
REMARK   12  A    between atoms: C26_34  and  C36_45 
REMARK   13  A    between atoms: C27_35  and  C28_36 
REMARK   14  A    between atoms: C36_45  and  O9_47 
ROOT
HETATM    1  C20 UNL     1       0.617  53.193 -23.429  1.00  0.00     0.185 C 
HETATM    2  O4  UNL     1       1.351  54.135 -23.754  1.00  0.00    -0.292 OA
ENDROOT
BRANCH   1   3
HETATM    3  C19 UNL     1      -0.509  52.655 -24.362  1.00  0.00     0.128 C 
HETATM    4  C14 UNL     1      -1.515  51.660 -23.679  1.00  0.00     0.001 C 
HETATM    5  C13 UNL     1      -2.726  52.279 -22.942  1.00  0.00     0.045 C 
HETATM    6  C15 UNL     1      -0.733  50.705 -22.736  1.00  0.00     0.019 C 
HETATM    7  C16 UNL     1      -2.085  50.945 -24.928  1.00  0.00     0.002 C 
HETATM    8  C12 UNL     1      -3.831  51.257 -22.593  1.00  0.00     0.124 C 
HETATM    9  C11 UNL     1      -4.279  50.390 -23.806  1.00  0.00     0.031 C 
HETATM   10  C2  UNL     1      -5.384  49.302 -23.493  1.00  0.00    -0.014 C 
HETATM   11  C10 UNL     1      -3.069  49.810 -24.605  1.00  0.00    -0.002 C 
HETATM   12  C1  UNL     1      -4.934  48.231 -22.473  1.00  0.00     0.020 C 
HETATM   13  C3  UNL     1      -6.642  50.034 -22.938  1.00  0.00     0.022 C 
HETATM   14  C7  UNL     1      -5.745  48.562 -24.792  1.00  0.00    -0.068 C 
HETATM   15  C4  UNL     1      -7.903  49.184 -22.951  1.00  0.00     0.084 C 
HETATM   16  C5  UNL     1      -8.170  48.671 -24.341  1.00  0.00     0.149 C 
HETATM   17  O1  UNL     1      -9.307  48.468 -24.760  1.00  0.00    -0.293 OA
HETATM   18  C6  UNL     1      -7.008  48.321 -25.189  1.00  0.00     0.053 C 
HETATM   19  C8  UNL     1      -4.588  48.051 -25.615  1.00  0.00     0.035 C 
HETATM   20  C9  UNL     1      -3.564  49.140 -25.898  1.00  0.00     0.010 C 
HETATM   21  C17 UNL     1      -0.846  50.603 -25.745  1.00  0.00     0.009 C 
HETATM   22  C18 UNL     1       0.105  51.789 -25.510  1.00  0.00     0.047 C 
BRANCH   8  23
HETATM   23  O2  UNL     1      -3.395  50.450 -21.511  1.00  0.00    -0.395 OA
HETATM   24  H16 UNL     1      -3.265  51.026 -20.737  1.00  0.00     0.210 HD
ENDBRANCH   8  23
BRANCH   3  25
HETATM   25  O3  UNL     1      -1.195  53.714 -25.032  1.00  0.00    -0.381 OA
HETATM   26  H27 UNL     1      -1.724  54.225 -24.387  1.00  0.00     0.211 HD
ENDBRANCH   3  25
ENDBRANCH   1   3
BRANCH   1  27
HETATM   27  C21 UNL     1       0.843  52.507 -22.090  1.00  0.00     0.260 C 
BRANCH  27  28
HETATM   28  O5  UNL     1       1.393  53.377 -21.104  1.00  0.00    -0.314 OA
BRANCH  28  29
HETATM   29  C22 UNL     1       0.679  53.507 -19.962  1.00  0.00     0.259 C 
HETATM   30  O6  UNL     1      -0.034  54.476 -19.713  1.00  0.00    -0.265 OA
BRANCH  29  31
HETATM   31  C23 UNL     1       0.855  52.350 -19.006  1.00  0.00     0.120 C 
BRANCH  31  32
HETATM   32  C24 UNL     1       1.702  52.659 -17.776  1.00  0.00     0.112 C 
BRANCH  32  33
HETATM   33  C25 UNL     1       1.118  52.051 -16.517  1.00  0.00     0.218 C 
HETATM   34  O7  UNL     1       0.075  51.409 -16.494  1.00  0.00    -0.274 OA
HETATM   35  N1  UNL     1       1.875  52.300 -15.399  1.00  0.00    -0.346 N 
HETATM   36  H34 UNL     1       2.780  52.754 -15.484  1.00  0.00     0.163 HD
BRANCH  35  37
HETATM   37  C26 UNL     1       1.521  51.751 -14.084  1.00  0.00     0.186 C 
BRANCH  37  38
HETATM   38  C27 UNL     1       0.012  51.852 -13.831  1.00  0.00     0.077 C 
BRANCH  38  39
HETATM   39  C28 UNL     1      -0.332  52.592 -12.576  1.00  0.00    -0.028 A 
HETATM   40  C29 UNL     1       0.552  53.216 -11.718  1.00  0.00     0.096 A 
HETATM   41  N2  UNL     1      -0.165  53.771 -10.691  1.00  0.00    -0.365 N 
HETATM   42  C30 UNL     1      -1.507  53.524 -10.860  1.00  0.00     0.042 A 
HETATM   43  H39 UNL     1       0.228  54.288  -9.918  1.00  0.00     0.165 HD
HETATM   44  C31 UNL     1      -2.600  53.897 -10.068  1.00  0.00     0.030 A 
HETATM   45  C35 UNL     1      -1.644  52.782 -12.033  1.00  0.00    -0.002 A 
HETATM   46  C32 UNL     1      -3.872  53.498 -10.490  1.00  0.00     0.002 A 
HETATM   47  C33 UNL     1      -4.041  52.756 -11.657  1.00  0.00     0.001 A 
HETATM   48  C34 UNL     1      -2.937  52.391 -12.436  1.00  0.00     0.014 A 
ENDBRANCH  38  39
ENDBRANCH  37  38
BRANCH  37  49
HETATM   49  C36 UNL     1       1.954  50.290 -14.095  1.00  0.00     0.163 C 
HETATM   50  O8  UNL     1       1.208  49.329 -14.229  1.00  0.00    -0.648 OA
BRANCH  49  51
HETATM   51  O9  UNL     1       3.281  50.110 -13.960  1.00  0.00    -0.775 OA
HETATM   52  H44 UNL     1       3.406  49.140 -13.979  1.00  0.00     0.167 HD
ENDBRANCH  49  51
ENDBRANCH  37  49
ENDBRANCH  35  37
ENDBRANCH  32  33
ENDBRANCH  31  32
ENDBRANCH  29  31
ENDBRANCH  28  29
ENDBRANCH  27  28
ENDBRANCH   1  27
TORSDOF 14
ENDMDL
MODEL 5
REMARK minimizedAffinity -9.32138634
REMARK CNNscore 0.416239381
REMARK CNNaffinity 7.32212687
REMARK  14 active torsions:
REMARK  status: ('A' for Active; 'I' for Inactive)
REMARK    1  A    between atoms: C12_13  and  O2_14 
REMARK    2  A    between atoms: C19_21  and  O3_22 
REMARK    3  A    between atoms: C19_21  and  C20_23 
REMARK    4  A    between atoms: C20_23  and  C21_25 
REMARK    5  A    between atoms: C21_25  and  O5_26 
REMARK    6  A    between atoms: O5_26  and  C22_27 
REMARK    7  A    between atoms: C22_27  and  C23_29 
REMARK    8  A    between atoms: C23_29  and  C24_30 
REMARK    9  A    between atoms: C24_30  and  C25_31 
REMARK       I    between atoms: C25_31  and  N1_33 
REMARK   10  A    between atoms: N1_33  and  C26_34 
REMARK   11  A    between atoms: C26_34  and  C27_35 
REMARK   12  A    between atoms: C26_34  and  C36_45 
REMARK   13  A    between atoms: C27_35  and  C28_36 
REMARK   14  A    between atoms: C36_45  and  O9_47 
ROOT
HETATM    1  C20 UNL     1      -2.910  50.496 -13.449  1.00  0.00     0.185 C 
HETATM    2  O4  UNL     1      -3.556  49.523 -13.041  1.00  0.00    -0.292 OA
ENDROOT
BRANCH   1   3
HETATM    3  C19 UNL     1      -2.715  51.783 -12.592  1.00  0.00     0.128 C 
HETATM    4  C14 UNL     1      -1.310  51.909 -11.900  1.00  0.00     0.001 C 
HETATM    5  C13 UNL     1      -0.173  52.553 -12.727  1.00  0.00     0.045 C 
HETATM    6  C15 UNL     1      -0.873  50.517 -11.365  1.00  0.00     0.019 C 
HETATM    7  C16 UNL     1      -1.650  52.913 -10.771  1.00  0.00     0.002 C 
HETATM    8  C12 UNL     1       1.062  52.947 -11.886  1.00  0.00     0.124 C 
HETATM    9  C11 UNL     1       0.712  53.799 -10.631  1.00  0.00     0.031 C 
HETATM   10  C2  UNL     1       1.939  54.198  -9.715  1.00  0.00    -0.014 C 
HETATM   11  C10 UNL     1      -0.479  53.201  -9.817  1.00  0.00    -0.002 C 
HETATM   12  C1  UNL     1       2.675  52.987  -9.095  1.00  0.00     0.020 C 
HETATM   13  C3  UNL     1       2.945  55.013 -10.581  1.00  0.00     0.022 C 
HETATM   14  C7  UNL     1       1.438  55.064  -8.549  1.00  0.00    -0.068 C 
HETATM   15  C4  UNL     1       3.973  55.783  -9.767  1.00  0.00     0.084 C 
HETATM   16  C5  UNL     1       3.284  56.686  -8.779  1.00  0.00     0.149 C 
HETATM   17  O1  UNL     1       3.765  57.758  -8.421  1.00  0.00    -0.293 OA
HETATM   18  C6  UNL     1       2.026  56.211  -8.162  1.00  0.00     0.053 C 
HETATM   19  C8  UNL     1       0.243  54.539  -7.790  1.00  0.00     0.035 C 
HETATM   20  C9  UNL     1      -0.911  54.184  -8.716  1.00  0.00     0.010 C 
HETATM   21  C17 UNL     1      -2.937  52.362 -10.173  1.00  0.00     0.009 C 
HETATM   22  C18 UNL     1      -3.698  51.780 -11.377  1.00  0.00     0.047 C 
BRANCH   8  23
HETATM   23  O2  UNL     1       1.780  51.775 -11.535  1.00  0.00    -0.395 OA
HETATM   24  H16 UNL     1       2.097  51.357 -12.355  1.00  0.00     0.210 HD
ENDBRANCH   8  23
BRANCH   3  25
HETATM   25  O3  UNL     1      -3.044  52.964 -13.325  1.00  0.00    -0.381 OA
HETATM   26  H27 UNL     1      -2.380  53.112 -14.028  1.00  0.00     0.211 HD
ENDBRANCH   3  25
ENDBRANCH   1   3
BRANCH   1  27
HETATM   27  C21 UNL     1      -2.247  50.424 -14.817  1.00  0.00     0.260 C 
BRANCH  27  28
HETATM   28  O5  UNL     1      -2.930  51.189 -15.807  1.00  0.00    -0.314 OA
BRANCH  28  29
HETATM   29  C22 UNL     1      -2.502  51.031 -17.081  1.00  0.00     0.259 C 
HETATM   30  O6  UNL     1      -3.108  51.460 -18.059  1.00  0.00    -0.265 OA
BRANCH  29  31
HETATM   31  C23 UNL     1      -1.208  50.257 -17.190  1.00  0.00     0.120 C 
BRANCH  31  32
HETATM   32  C24 UNL     1      -0.113  50.951 -17.991  1.00  0.00     0.112 C 
BRANCH  32  33
HETATM   33  C25 UNL     1      -0.336  50.830 -19.484  1.00  0.00     0.218 C 
HETATM   34  O7  UNL     1      -0.144  49.800 -20.118  1.00  0.00    -0.274 OA
HETATM   35  N1  UNL     1      -0.769  51.999 -20.059  1.00  0.00    -0.346 N 
HETATM   36  H34 UNL     1      -1.006  52.798 -19.479  1.00  0.00     0.163 HD
BRANCH  35  37
HETATM   37  C26 UNL     1      -1.104  52.084 -21.487  1.00  0.00     0.186 C 
BRANCH  37  38
HETATM   38  C27 UNL     1       0.068  51.618 -22.358  1.00  0.00     0.077 C 
BRANCH  38  39
HETATM   39  C28 UNL     1       0.275  52.461 -23.577  1.00  0.00    -0.028 A 
HETATM   40  C29 UNL     1       0.781  53.746 -23.616  1.00  0.00     0.096 A 
HETATM   41  N2  UNL     1       0.804  54.160 -24.921  1.00  0.00    -0.365 N 
HETATM   42  C30 UNL     1       0.321  53.168 -25.743  1.00  0.00     0.042 A 
HETATM   43  H39 UNL     1       1.126  55.061 -25.242  1.00  0.00     0.165 HD
HETATM   44  C31 UNL     1       0.164  53.148 -27.135  1.00  0.00     0.030 A 
HETATM   45  C35 UNL     1      -0.023  52.090 -24.929  1.00  0.00    -0.002 A 
HETATM   46  C32 UNL     1      -0.362  51.986 -27.709  1.00  0.00     0.002 A 
HETATM   47  C33 UNL     1      -0.717  50.893 -26.922  1.00  0.00     0.001 A 
HETATM   48  C34 UNL     1      -0.553  50.932 -25.533  1.00  0.00     0.014 A 
ENDBRANCH  38  39
ENDBRANCH  37  38
BRANCH  37  49
HETATM   49  C36 UNL     1      -2.310  51.178 -21.703  1.00  0.00     0.163 C 
HETATM   50  O8  UNL     1      -2.361  50.238 -22.485  1.00  0.00    -0.648 OA
BRANCH  49  51
HETATM   51  O9  UNL     1      -3.368  51.478 -20.926  1.00  0.00    -0.775 OA
HETATM   52  H44 UNL     1      -4.054  50.828 -21.176  1.00  0.00     0.167 HD
ENDBRANCH  49  51
ENDBRANCH  37  49
ENDBRANCH  35  37
ENDBRANCH  32  33
ENDBRANCH  31  32
ENDBRANCH  29  31
ENDBRANCH  28  29
ENDBRANCH  27  28
ENDBRANCH   1  27
TORSDOF 14
ENDMDL
MODEL 6
REMARK minimizedAffinity -9.72877884
REMARK CNNscore 0.386354566
REMARK CNNaffinity 6.28292704
REMARK  14 active torsions:
REMARK  status: ('A' for Active; 'I' for Inactive)
REMARK    1  A    between atoms: C12_13  and  O2_14 
REMARK    2  A    between atoms: C19_21  and  O3_22 
REMARK    3  A    between atoms: C19_21  and  C20_23 
REMARK    4  A    between atoms: C20_23  and  C21_25 
REMARK    5  A    between atoms: C21_25  and  O5_26 
REMARK    6  A    between atoms: O5_26  and  C22_27 
REMARK    7  A    between atoms: C22_27  and  C23_29 
REMARK    8  A    between atoms: C23_29  and  C24_30 
REMARK    9  A    between atoms: C24_30  and  C25_31 
REMARK       I    between atoms: C25_31  and  N1_33 
REMARK   10  A    between atoms: N1_33  and  C26_34 
REMARK   11  A    between atoms: C26_34  and  C27_35 
REMARK   12  A    between atoms: C26_34  and  C36_45 
REMARK   13  A    between atoms: C27_35  and  C28_36 
REMARK   14  A    between atoms: C36_45  and  O9_47 
ROOT
HETATM    1  C20 UNL     1      -9.499  47.302 -27.787  1.00  0.00     0.185 C 
HETATM    2  O4  UNL     1      -9.172  47.994 -26.814  1.00  0.00    -0.292 OA
ENDROOT
BRANCH   1   3
HETATM    3  C19 UNL     1     -10.975  47.196 -28.274  1.00  0.00     0.128 C 
HETATM    4  C14 UNL     1     -11.961  46.520 -27.253  1.00  0.00     0.001 C 
HETATM    5  C13 UNL     1     -12.610  47.437 -26.189  1.00  0.00     0.045 C 
HETATM    6  C15 UNL     1     -11.253  45.315 -26.575  1.00  0.00     0.019 C 
HETATM    7  C16 UNL     1     -13.099  46.094 -28.212  1.00  0.00     0.002 C 
HETATM    8  C12 UNL     1     -13.801  46.786 -25.451  1.00  0.00     0.124 C 
HETATM    9  C11 UNL     1     -14.865  46.175 -26.409  1.00  0.00     0.031 C 
HETATM   10  C2  UNL     1     -16.089  45.464 -25.701  1.00  0.00    -0.014 C 
HETATM   11  C10 UNL     1     -14.226  45.300 -27.532  1.00  0.00    -0.002 C 
HETATM   12  C1  UNL     1     -15.689  44.247 -24.837  1.00  0.00     0.020 C 
HETATM   13  C3  UNL     1     -16.803  46.514 -24.798  1.00  0.00     0.022 C 
HETATM   14  C7  UNL     1     -17.064  44.953 -26.774  1.00  0.00    -0.068 C 
HETATM   15  C4  UNL     1     -18.198  46.097 -24.358  1.00  0.00     0.084 C 
HETATM   16  C5  UNL     1     -19.049  45.777 -25.558  1.00  0.00     0.149 C 
HETATM   17  O1  UNL     1     -20.263  45.961 -25.572  1.00  0.00    -0.293 OA
HETATM   18  C6  UNL     1     -18.396  45.138 -26.723  1.00  0.00     0.053 C 
HETATM   19  C8  UNL     1     -16.458  44.161 -27.907  1.00  0.00     0.035 C 
HETATM   20  C9  UNL     1     -15.297  44.896 -28.560  1.00  0.00     0.010 C 
HETATM   21  C17 UNL     1     -12.365  45.436 -29.374  1.00  0.00     0.009 C 
HETATM   22  C18 UNL     1     -11.070  46.254 -29.518  1.00  0.00     0.047 C 
BRANCH   8  23
HETATM   23  O2  UNL     1     -13.310  45.820 -24.536  1.00  0.00    -0.395 OA
HETATM   24  H16 UNL     1     -12.764  46.280 -23.874  1.00  0.00     0.210 HD
ENDBRANCH   8  23
BRANCH   3  25
HETATM   25  O3  UNL     1     -11.476  48.453 -28.729  1.00  0.00    -0.381 OA
HETATM   26  H27 UNL     1     -11.579  49.062 -27.971  1.00  0.00     0.211 HD
ENDBRANCH   3  25
ENDBRANCH   1   3
BRANCH   1  27
HETATM   27  C21 UNL     1      -8.420  46.560 -28.563  1.00  0.00     0.260 C 
BRANCH  27  28
HETATM   28  O5  UNL     1      -7.101  46.962 -28.204  1.00  0.00    -0.314 OA
BRANCH  28  29
HETATM   29  C22 UNL     1      -6.291  47.325 -29.226  1.00  0.00     0.259 C 
HETATM   30  O6  UNL     1      -6.545  47.101 -30.406  1.00  0.00    -0.265 OA
BRANCH  29  31
HETATM   31  C23 UNL     1      -5.028  48.022 -28.775  1.00  0.00     0.120 C 
BRANCH  31  32
HETATM   32  C24 UNL     1      -4.831  48.076 -27.264  1.00  0.00     0.112 C 
BRANCH  32  33
HETATM   33  C25 UNL     1      -3.628  48.912 -26.877  1.00  0.00     0.218 C 
HETATM   34  O7  UNL     1      -2.469  48.538 -27.014  1.00  0.00    -0.274 OA
HETATM   35  N1  UNL     1      -3.968  50.131 -26.348  1.00  0.00    -0.346 N 
HETATM   36  H34 UNL     1      -4.938  50.435 -26.344  1.00  0.00     0.163 HD
BRANCH  35  37
HETATM   37  C26 UNL     1      -2.954  51.121 -25.963  1.00  0.00     0.186 C 
BRANCH  37  38
HETATM   38  C27 UNL     1      -1.652  50.437 -25.530  1.00  0.00     0.077 C 
BRANCH  38  39
HETATM   39  C28 UNL     1      -0.801  51.288 -24.640  1.00  0.00    -0.028 A 
HETATM   40  C29 UNL     1       0.192  52.162 -25.038  1.00  0.00     0.096 A 
HETATM   41  N2  UNL     1       0.730  52.740 -23.919  1.00  0.00    -0.365 N 
HETATM   42  C30 UNL     1       0.107  52.262 -22.790  1.00  0.00     0.042 A 
HETATM   43  H39 UNL     1       1.476  53.420 -23.915  1.00  0.00     0.165 HD
HETATM   44  C31 UNL     1       0.324  52.569 -21.441  1.00  0.00     0.030 A 
HETATM   45  C35 UNL     1      -0.857  51.345 -23.209  1.00  0.00    -0.002 A 
HETATM   46  C32 UNL     1      -0.470  51.917 -20.493  1.00  0.00     0.002 A 
HETATM   47  C33 UNL     1      -1.440  50.995 -20.880  1.00  0.00     0.001 A 
HETATM   48  C34 UNL     1      -1.643  50.700 -22.234  1.00  0.00     0.014 A 
ENDBRANCH  38  39
ENDBRANCH  37  38
BRANCH  37  49
HETATM   49  C36 UNL     1      -2.707  51.988 -27.191  1.00  0.00     0.163 C 
HETATM   50  O8  UNL     1      -2.307  53.144 -27.176  1.00  0.00    -0.648 OA
BRANCH  49  51
HETATM   51  O9  UNL     1      -2.950  51.365 -28.360  1.00  0.00    -0.775 OA
HETATM   52  H44 UNL     1      -2.757  52.035 -29.046  1.00  0.00     0.167 HD
ENDBRANCH  49  51
ENDBRANCH  37  49
ENDBRANCH  35  37
ENDBRANCH  32  33
ENDBRANCH  31  32
ENDBRANCH  29  31
ENDBRANCH  28  29
ENDBRANCH  27  28
ENDBRANCH   1  27
TORSDOF 14
ENDMDL
MODEL 7
REMARK minimizedAffinity -9.4966507
REMARK CNNscore 0.302873909
REMARK CNNaffinity 7.12176371
REMARK  14 active torsions:
REMARK  status: ('A' for Active; 'I' for Inactive)
REMARK    1  A    between atoms: C12_13  and  O2_14 
REMARK    2  A    between atoms: C19_21  and  O3_22 
REMARK    3  A    between atoms: C19_21  and  C20_23 
REMARK    4  A    between atoms: C20_23  and  C21_25 
REMARK    5  A    between atoms: C21_25  and  O5_26 
REMARK    6  A    between atoms: O5_26  and  C22_27 
REMARK    7  A    between atoms: C22_27  and  C23_29 
REMARK    8  A    between atoms: C23_29  and  C24_30 
REMARK    9  A    between atoms: C24_30  and  C25_31 
REMARK       I    between atoms: C25_31  and  N1_33 
REMARK   10  A    between atoms: N1_33  and  C26_34 
REMARK   11  A    between atoms: C26_34  and  C27_35 
REMARK   12  A    between atoms: C26_34  and  C36_45 
REMARK   13  A    between atoms: C27_35  and  C28_36 
REMARK   14  A    between atoms: C36_45  and  O9_47 
ROOT
HETATM    1  C20 UNL     1      -2.845  50.698 -21.384  1.00  0.00     0.185 C 
HETATM    2  O4  UNL     1      -3.453  51.643 -21.901  1.00  0.00    -0.292 OA
ENDROOT
BRANCH   1   3
HETATM    3  C19 UNL     1      -1.394  50.844 -20.834  1.00  0.00     0.128 C 
HETATM    4  C14 UNL     1      -1.280  50.862 -19.267  1.00  0.00     0.001 C 
HETATM    5  C13 UNL     1      -1.177  49.494 -18.553  1.00  0.00     0.045 C 
HETATM    6  C15 UNL     1      -2.448  51.699 -18.676  1.00  0.00     0.019 C 
HETATM    7  C16 UNL     1       0.099  51.545 -19.101  1.00  0.00     0.002 C 
HETATM    8  C12 UNL     1      -0.735  49.595 -17.076  1.00  0.00     0.124 C 
HETATM    9  C11 UNL     1       0.551  50.449 -16.871  1.00  0.00     0.031 C 
HETATM   10  C2  UNL     1       1.025  50.613 -15.370  1.00  0.00    -0.014 C 
HETATM   11  C10 UNL     1       0.496  51.806 -17.638  1.00  0.00    -0.002 C 
HETATM   12  C1  UNL     1       0.002  51.340 -14.468  1.00  0.00     0.020 C 
HETATM   13  C3  UNL     1       1.295  49.193 -14.788  1.00  0.00     0.022 C 
HETATM   14  C7  UNL     1       2.320  51.441 -15.338  1.00  0.00    -0.068 C 
HETATM   15  C4  UNL     1       2.110  49.200 -13.504  1.00  0.00     0.084 C 
HETATM   16  C5  UNL     1       3.408  49.932 -13.716  1.00  0.00     0.149 C 
HETATM   17  O1  UNL     1       4.436  49.636 -13.111  1.00  0.00    -0.293 OA
HETATM   18  C6  UNL     1       3.408  51.102 -14.623  1.00  0.00     0.053 C 
HETATM   19  C8  UNL     1       2.313  52.726 -16.130  1.00  0.00     0.035 C 
HETATM   20  C9  UNL     1       1.862  52.508 -17.568  1.00  0.00     0.010 C 
HETATM   21  C17 UNL     1       0.028  52.739 -20.044  1.00  0.00     0.009 C 
HETATM   22  C18 UNL     1      -0.798  52.231 -21.239  1.00  0.00     0.047 C 
BRANCH   8  23
HETATM   23  O2  UNL     1      -1.815  50.087 -16.299  1.00  0.00    -0.395 OA
HETATM   24  H16 UNL     1      -2.543  49.443 -16.350  1.00  0.00     0.210 HD
ENDBRANCH   8  23
BRANCH   3  25
HETATM   25  O3  UNL     1      -0.508  49.884 -21.411  1.00  0.00    -0.381 OA
HETATM   26  H27 UNL     1      -0.735  48.989 -21.088  1.00  0.00     0.211 HD
ENDBRANCH   3  25
ENDBRANCH   1   3
BRANCH   1  27
HETATM   27  C21 UNL     1      -3.547  49.355 -21.241  1.00  0.00     0.260 C 
BRANCH  27  28
HETATM   28  O5  UNL     1      -4.839  49.336 -21.842  1.00  0.00    -0.314 OA
BRANCH  28  29
HETATM   29  C22 UNL     1      -5.084  48.312 -22.692  1.00  0.00     0.259 C 
HETATM   30  O6  UNL     1      -5.350  47.172 -22.323  1.00  0.00    -0.265 OA
BRANCH  29  31
HETATM   31  C23 UNL     1      -4.982  48.701 -24.149  1.00  0.00     0.120 C 
BRANCH  31  32
HETATM   32  C24 UNL     1      -3.559  48.828 -24.680  1.00  0.00     0.112 C 
BRANCH  32  33
HETATM   33  C25 UNL     1      -3.466  48.471 -26.149  1.00  0.00     0.218 C 
HETATM   34  O7  UNL     1      -2.437  48.082 -26.689  1.00  0.00    -0.274 OA
HETATM   35  N1  UNL     1      -4.653  48.636 -26.819  1.00  0.00    -0.346 N 
HETATM   36  H34 UNL     1      -5.500  48.867 -26.308  1.00  0.00     0.163 HD
BRANCH  35  37
HETATM   37  C26 UNL     1      -4.798  48.289 -28.238  1.00  0.00     0.186 C 
BRANCH  37  38
HETATM   38  C27 UNL     1      -6.274  48.108 -28.614  1.00  0.00     0.077 C 
BRANCH  38  39
HETATM   39  C28 UNL     1      -6.630  46.697 -28.961  1.00  0.00    -0.028 A 
HETATM   40  C29 UNL     1      -7.350  45.813 -28.180  1.00  0.00     0.096 A 
HETATM   41  N2  UNL     1      -7.452  44.627 -28.858  1.00  0.00    -0.365 N 
HETATM   42  C30 UNL     1      -6.812  44.715 -30.072  1.00  0.00     0.042 A 
HETATM   43  H39 UNL     1      -7.926  43.802 -28.522  1.00  0.00     0.165 HD
HETATM   44  C31 UNL     1      -6.662  43.760 -31.085  1.00  0.00     0.030 A 
HETATM   45  C35 UNL     1      -6.281  46.002 -30.164  1.00  0.00    -0.002 A 
HETATM   46  C32 UNL     1      -5.948  44.134 -32.227  1.00  0.00     0.002 A 
HETATM   47  C33 UNL     1      -5.406  45.411 -32.349  1.00  0.00     0.001 A 
HETATM   48  C34 UNL     1      -5.565  46.354 -31.326  1.00  0.00     0.014 A 
ENDBRANCH  38  39
ENDBRANCH  37  38
BRANCH  37  49
HETATM   49  C36 UNL     1      -4.193  49.443 -29.029  1.00  0.00     0.163 C 
HETATM   50  O8  UNL     1      -3.426  50.285 -28.583  1.00  0.00    -0.648 OA
BRANCH  49  51
HETATM   51  O9  UNL     1      -4.559  49.471 -30.325  1.00  0.00    -0.775 OA
HETATM   52  H44 UNL     1      -4.106  50.254 -30.696  1.00  0.00     0.167 HD
ENDBRANCH  49  51
ENDBRANCH  37  49
ENDBRANCH  35  37
ENDBRANCH  32  33
ENDBRANCH  31  32
ENDBRANCH  29  31
ENDBRANCH  28  29
ENDBRANCH  27  28
ENDBRANCH   1  27
TORSDOF 14
ENDMDL
MODEL 8
REMARK minimizedAffinity -9.07443237
REMARK CNNscore 0.301948518
REMARK CNNaffinity 6.66405106
REMARK  14 active torsions:
REMARK  status: ('A' for Active; 'I' for Inactive)
REMARK    1  A    between atoms: C12_13  and  O2_14 
REMARK    2  A    between atoms: C19_21  and  O3_22 
REMARK    3  A    between atoms: C19_21  and  C20_23 
REMARK    4  A    between atoms: C20_23  and  C21_25 
REMARK    5  A    between atoms: C21_25  and  O5_26 
REMARK    6  A    between atoms: O5_26  and  C22_27 
REMARK    7  A    between atoms: C22_27  and  C23_29 
REMARK    8  A    between atoms: C23_29  and  C24_30 
REMARK    9  A    between atoms: C24_30  and  C25_31 
REMARK       I    between atoms: C25_31  and  N1_33 
REMARK   10  A    between atoms: N1_33  and  C26_34 
REMARK   11  A    between atoms: C26_34  and  C27_35 
REMARK   12  A    between atoms: C26_34  and  C36_45 
REMARK   13  A    between atoms: C27_35  and  C28_36 
REMARK   14  A    between atoms: C36_45  and  O9_47 
ROOT
HETATM    1  C20 UNL     1      -3.075  49.428 -18.399  1.00  0.00     0.185 C 
HETATM    2  O4  UNL     1      -4.190  48.943 -18.626  1.00  0.00    -0.292 OA
ENDROOT
BRANCH   1   3
HETATM    3  C19 UNL     1      -2.476  50.578 -19.263  1.00  0.00     0.128 C 
HETATM    4  C14 UNL     1      -2.354  50.258 -20.797  1.00  0.00     0.001 C 
HETATM    5  C13 UNL     1      -3.594  50.541 -21.676  1.00  0.00     0.045 C 
HETATM    6  C15 UNL     1      -1.880  48.790 -20.979  1.00  0.00     0.019 C 
HETATM    7  C16 UNL     1      -1.282  51.297 -21.209  1.00  0.00     0.002 C 
HETATM    8  C12 UNL     1      -3.299  50.524 -23.192  1.00  0.00     0.124 C 
HETATM    9  C11 UNL     1      -2.091  51.419 -23.599  1.00  0.00     0.031 C 
HETATM   10  C2  UNL     1      -1.725  51.409 -25.138  1.00  0.00    -0.014 C 
HETATM   11  C10 UNL     1      -0.849  51.198 -22.680  1.00  0.00    -0.002 C 
HETATM   12  C1  UNL     1      -1.297  50.021 -25.668  1.00  0.00     0.020 C 
HETATM   13  C3  UNL     1      -2.971  51.895 -25.936  1.00  0.00     0.022 C 
HETATM   14  C7  UNL     1      -0.547  52.366 -25.382  1.00  0.00    -0.068 C 
HETATM   15  C4  UNL     1      -2.662  52.300 -27.369  1.00  0.00     0.084 C 
HETATM   16  C5  UNL     1      -1.586  53.353 -27.392  1.00  0.00     0.149 C 
HETATM   17  O1  UNL     1      -1.532  54.220 -28.260  1.00  0.00    -0.293 OA
HETATM   18  C6  UNL     1      -0.512  53.271 -26.376  1.00  0.00     0.053 C 
HETATM   19  C8  UNL     1       0.640  52.215 -24.461  1.00  0.00     0.035 C 
HETATM   20  C9  UNL     1       0.233  52.245 -22.995  1.00  0.00     0.010 C 
HETATM   21  C17 UNL     1      -0.209  51.153 -20.138  1.00  0.00     0.009 C 
HETATM   22  C18 UNL     1      -0.994  50.853 -18.850  1.00  0.00     0.047 C 
BRANCH   8  23
HETATM   23  O2  UNL     1      -3.118  49.183 -23.617  1.00  0.00    -0.395 OA
HETATM   24  H16 UNL     1      -3.952  48.704 -23.470  1.00  0.00     0.210 HD
ENDBRANCH   8  23
BRANCH   3  25
HETATM   25  O3  UNL     1      -3.152  51.817 -19.041  1.00  0.00    -0.381 OA
HETATM   26  H27 UNL     1      -4.058  51.769 -19.406  1.00  0.00     0.211 HD
ENDBRANCH   3  25
ENDBRANCH   1   3
BRANCH   1  27
HETATM   27  C21 UNL     1      -2.273  48.915 -17.212  1.00  0.00     0.260 C 
BRANCH  27  28
HETATM   28  O5  UNL     1      -2.475  49.685 -16.030  1.00  0.00    -0.314 OA
BRANCH  28  29
HETATM   29  C22 UNL     1      -1.455  49.690 -15.141  1.00  0.00     0.259 C 
HETATM   30  O6  UNL     1      -0.328  49.276 -15.399  1.00  0.00    -0.265 OA
BRANCH  29  31
HETATM   31  C23 UNL     1      -1.838  50.240 -13.787  1.00  0.00     0.120 C 
BRANCH  31  32
HETATM   32  C24 UNL     1      -1.076  49.638 -12.612  1.00  0.00     0.112 C 
BRANCH  32  33
HETATM   33  C25 UNL     1      -1.179  50.495 -11.367  1.00  0.00     0.218 C 
HETATM   34  O7  UNL     1      -1.041  50.061 -10.230  1.00  0.00    -0.274 OA
HETATM   35  N1  UNL     1      -1.454  51.812 -11.642  1.00  0.00    -0.346 N 
HETATM   36  H34 UNL     1      -1.465  52.142 -12.603  1.00  0.00     0.163 HD
BRANCH  35  37
HETATM   37  C26 UNL     1      -1.537  52.826 -10.583  1.00  0.00     0.186 C 
BRANCH  37  38
HETATM   38  C27 UNL     1      -0.674  54.048 -10.920  1.00  0.00     0.077 C 
BRANCH  38  39
HETATM   39  C28 UNL     1       0.068  54.595  -9.741  1.00  0.00    -0.028 A 
HETATM   40  C29 UNL     1      -0.337  54.555  -8.421  1.00  0.00     0.096 A 
HETATM   41  N2  UNL     1       0.622  55.166  -7.659  1.00  0.00    -0.365 N 
HETATM   42  C30 UNL     1       1.653  55.607  -8.455  1.00  0.00     0.042 A 
HETATM   43  H39 UNL     1       0.586  55.281  -6.657  1.00  0.00     0.165 HD
HETATM   44  C31 UNL     1       2.835  56.278  -8.112  1.00  0.00     0.030 A 
HETATM   45  C35 UNL     1       1.333  55.267  -9.769  1.00  0.00    -0.002 A 
HETATM   46  C32 UNL     1       3.713  56.610  -9.148  1.00  0.00     0.002 A 
HETATM   47  C33 UNL     1       3.421  56.285 -10.471  1.00  0.00     0.001 A 
HETATM   48  C34 UNL     1       2.236  55.614 -10.794  1.00  0.00     0.014 A 
ENDBRANCH  38  39
ENDBRANCH  37  38
BRANCH  37  49
HETATM   49  C36 UNL     1      -3.003  53.231 -10.486  1.00  0.00     0.163 C 
HETATM   50  O8  UNL     1      -3.432  54.373 -10.581  1.00  0.00    -0.648 OA
BRANCH  49  51
HETATM   51  O9  UNL     1      -3.846  52.198 -10.298  1.00  0.00    -0.775 OA
HETATM   52  H44 UNL     1      -4.734  52.605 -10.251  1.00  0.00     0.167 HD
ENDBRANCH  49  51
ENDBRANCH  37  49
ENDBRANCH  35  37
ENDBRANCH  32  33
ENDBRANCH  31  32
ENDBRANCH  29  31
ENDBRANCH  28  29
ENDBRANCH  27  28
ENDBRANCH   1  27
TORSDOF 14
ENDMDL
MODEL 9
REMARK minimizedAffinity -10.7265682
REMARK CNNscore 0.280315906
REMARK CNNaffinity 7.0413413
REMARK  14 active torsions:
REMARK  status: ('A' for Active; 'I' for Inactive)
REMARK    1  A    between atoms: C12_13  and  O2_14 
REMARK    2  A    between atoms: C19_21  and  O3_22 
REMARK    3  A    between atoms: C19_21  and  C20_23 
REMARK    4  A    between atoms: C20_23  and  C21_25 
REMARK    5  A    between atoms: C21_25  and  O5_26 
REMARK    6  A    between atoms: O5_26  and  C22_27 
REMARK    7  A    between atoms: C22_27  and  C23_29 
REMARK    8  A    between atoms: C23_29  and  C24_30 
REMARK    9  A    between atoms: C24_30  and  C25_31 
REMARK       I    between atoms: C25_31  and  N1_33 
REMARK   10  A    between atoms: N1_33  and  C26_34 
REMARK   11  A    between atoms: C26_34  and  C27_35 
REMARK   12  A    between atoms: C26_34  and  C36_45 
REMARK   13  A    between atoms: C27_35  and  C28_36 
REMARK   14  A    between atoms: C36_45  and  O9_47 
ROOT
HETATM    1  C20 UNL     1      -2.017  51.963 -26.893  1.00  0.00     0.185 C 
HETATM    2  O4  UNL     1      -2.336  53.077 -27.326  1.00  0.00    -0.292 OA
ENDROOT
BRANCH   1   3
HETATM    3  C19 UNL     1      -0.988  51.785 -25.736  1.00  0.00     0.128 C 
HETATM    4  C14 UNL     1      -1.618  51.699 -24.299  1.00  0.00     0.001 C 
HETATM    5  C13 UNL     1      -2.074  50.303 -23.812  1.00  0.00     0.045 C 
HETATM    6  C15 UNL     1      -2.780  52.723 -24.185  1.00  0.00     0.019 C 
HETATM    7  C16 UNL     1      -0.388  52.079 -23.438  1.00  0.00     0.002 C 
HETATM    8  C12 UNL     1      -2.363  50.237 -22.296  1.00  0.00     0.124 C 
HETATM    9  C11 UNL     1      -1.207  50.801 -21.419  1.00  0.00     0.031 C 
HETATM   10  C2  UNL     1      -1.469  50.789 -19.859  1.00  0.00    -0.014 C 
HETATM   11  C10 UNL     1      -0.685  52.179 -21.933  1.00  0.00    -0.002 C 
HETATM   12  C1  UNL     1      -2.668  51.660 -19.420  1.00  0.00     0.020 C 
HETATM   13  C3  UNL     1      -1.726  49.315 -19.422  1.00  0.00     0.022 C 
HETATM   14  C7  UNL     1      -0.228  51.335 -19.135  1.00  0.00    -0.068 C 
HETATM   15  C4  UNL     1      -1.616  49.092 -17.922  1.00  0.00     0.084 C 
HETATM   16  C5  UNL     1      -0.272  49.555 -17.424  1.00  0.00     0.149 C 
HETATM   17  O1  UNL     1       0.294  49.027 -16.471  1.00  0.00    -0.293 OA
HETATM   18  C6  UNL     1       0.333  50.746 -18.062  1.00  0.00     0.053 C 
HETATM   19  C8  UNL     1       0.335  52.634 -19.658  1.00  0.00     0.035 C 
HETATM   20  C9  UNL     1       0.581  52.586 -21.159  1.00  0.00     0.010 C 
HETATM   21  C17 UNL     1       0.175  53.309 -24.136  1.00  0.00     0.009 C 
HETATM   22  C18 UNL     1      -0.064  53.041 -25.632  1.00  0.00     0.047 C 
BRANCH   8  23
HETATM   23  O2  UNL     1      -3.590  50.897 -22.026  1.00  0.00    -0.395 OA
HETATM   24  H16 UNL     1      -4.299  50.416 -22.487  1.00  0.00     0.210 HD
ENDBRANCH   8  23
BRANCH   3  25
HETATM   25  O3  UNL     1      -0.097  50.696 -25.981  1.00  0.00    -0.381 OA
HETATM   26  H27 UNL     1      -0.584  49.851 -25.922  1.00  0.00     0.211 HD
ENDBRANCH   3  25
ENDBRANCH   1   3
BRANCH   1  27
HETATM   27  C21 UNL     1      -2.679  50.724 -27.477  1.00  0.00     0.260 C 
BRANCH  27  28
HETATM   28  O5  UNL     1      -2.293  49.523 -26.815  1.00  0.00    -0.314 OA
BRANCH  28  29
HETATM   29  C22 UNL     1      -3.296  48.674 -26.490  1.00  0.00     0.259 C 
HETATM   30  O6  UNL     1      -3.374  48.098 -25.408  1.00  0.00    -0.265 OA
BRANCH  29  31
HETATM   31  C23 UNL     1      -4.309  48.488 -27.595  1.00  0.00     0.120 C 
BRANCH  31  32
HETATM   32  C24 UNL     1      -5.663  47.954 -27.139  1.00  0.00     0.112 C 
BRANCH  32  33
HETATM   33  C25 UNL     1      -6.533  47.539 -28.307  1.00  0.00     0.218 C 
HETATM   34  O7  UNL     1      -6.470  46.439 -28.844  1.00  0.00    -0.274 OA
HETATM   35  N1  UNL     1      -7.398  48.526 -28.710  1.00  0.00    -0.346 N 
HETATM   36  H34 UNL     1      -7.481  49.384 -28.174  1.00  0.00     0.163 HD
BRANCH  35  37
HETATM   37  C26 UNL     1      -8.373  48.312 -29.788  1.00  0.00     0.186 C 
BRANCH  37  38
HETATM   38  C27 UNL     1      -8.019  47.069 -30.614  1.00  0.00     0.077 C 
BRANCH  38  39
HETATM   39  C28 UNL     1      -7.628  47.384 -32.024  1.00  0.00    -0.028 A 
HETATM   40  C29 UNL     1      -8.482  47.630 -33.081  1.00  0.00     0.096 A 
HETATM   41  N2  UNL     1      -7.725  47.871 -34.197  1.00  0.00    -0.365 N 
HETATM   42  C30 UNL     1      -6.387  47.788 -33.892  1.00  0.00     0.042 A 
HETATM   43  H39 UNL     1      -8.089  48.079 -35.115  1.00  0.00     0.165 HD
HETATM   44  C31 UNL     1      -5.262  47.960 -34.709  1.00  0.00     0.030 A 
HETATM   45  C35 UNL     1      -6.293  47.479 -32.535  1.00  0.00    -0.002 A 
HETATM   46  C32 UNL     1      -4.004  47.811 -34.118  1.00  0.00     0.002 A 
HETATM   47  C33 UNL     1      -3.877  47.501 -32.766  1.00  0.00     0.001 A 
HETATM   48  C34 UNL     1      -5.012  47.333 -31.964  1.00  0.00     0.014 A 
ENDBRANCH  38  39
ENDBRANCH  37  38
BRANCH  37  49
HETATM   49  C36 UNL     1      -9.727  48.126 -29.115  1.00  0.00     0.163 C 
HETATM   50  O8  UNL     1     -10.749  47.744 -29.669  1.00  0.00    -0.648 OA
BRANCH  49  51
HETATM   51  O9  UNL     1      -9.728  48.403 -27.797  1.00  0.00    -0.775 OA
HETATM   52  H44 UNL     1     -10.649  48.246 -27.509  1.00  0.00     0.167 HD
ENDBRANCH  49  51
ENDBRANCH  37  49
ENDBRANCH  35  37
ENDBRANCH  32  33
ENDBRANCH  31  32
ENDBRANCH  29  31
ENDBRANCH  28  29
ENDBRANCH  27  28
ENDBRANCH   1  27
TORSDOF 14
ENDMDL
