MODEL 1
REMARK minimizedAffinity -10.5937681
REMARK CNNscore 0.45034796
REMARK CNNaffinity 7.75790453
REMARK  12 active torsions:
REMARK  status: ('A' for Active; 'I' for Inactive)
REMARK    1  A    between atoms: C3_3  and  O1_4 
REMARK    2  A    between atoms: N1_14  and  O2_16 
REMARK    3  A    between atoms: O2_16  and  C13_17 
REMARK    4  A    between atoms: C13_17  and  C14_18 
REMARK       I    between atoms: C14_18  and  N2_20 
REMARK    5  A    between atoms: N2_20  and  C15_21 
REMARK    6  A    between atoms: C15_21  and  C16_22 
REMARK    7  A    between atoms: C15_21  and  C26_36 
REMARK       I    between atoms: C16_22  and  N3_24 
REMARK    8  A    between atoms: N3_24  and  C17_25 
REMARK    9  A    between atoms: C17_25  and  C18_26 
REMARK   10  A    between atoms: C17_25  and  C25_33 
REMARK   11  A    between atoms: C18_26  and  C19_27 
REMARK   12  A    between atoms: C25_33  and  O6_35 
ROOT
HETATM    1  C1  UNL     1     -10.592   6.938  14.165  1.00  0.00     0.015 C 
HETATM    2  C2  UNL     1      -9.510   6.530  14.489  1.00  0.00    -0.078 C 
HETATM    3  C3  UNL     1      -8.194   5.999  14.909  1.00  0.00     0.128 C 
HETATM    4  C4  UNL     1      -7.742   4.897  13.946  1.00  0.00     0.052 C 
HETATM    5  C5  UNL     1      -7.164   5.667  12.770  1.00  0.00     0.010 C 
HETATM    6  C6  UNL     1      -6.422   6.857  13.399  1.00  0.00     0.002 C 
HETATM    7  C7  UNL     1      -4.870   6.784  13.300  1.00  0.00    -0.004 C 
HETATM    8  C8  UNL     1      -4.209   5.402  13.479  1.00  0.00     0.010 C 
HETATM    9  C9  UNL     1      -2.688   5.465  13.295  1.00  0.00     0.035 C 
HETATM   10  C10 UNL     1      -2.017   6.554  14.105  1.00  0.00    -0.069 C 
HETATM   11  C11 UNL     1      -0.891   6.288  14.791  1.00  0.00     0.030 C 
HETATM   12  C12 UNL     1      -0.119   7.358  15.477  1.00  0.00     0.032 C 
HETATM   13  N1  UNL     1       0.905   7.006  16.201  1.00  0.00    -0.271 N 
ATOM     14  H1  UNL     1       1.190   6.040  16.359  1.00  0.00     0.194 HD
HETATM   15  C29 UNL     1      -0.542   8.794  15.234  1.00  0.00     0.060 C 
HETATM   16  C30 UNL     1      -2.060   8.879  15.138  1.00  0.00     0.020 C 
HETATM   17  C31 UNL     1      -2.666   7.936  14.057  1.00  0.00    -0.016 C 
HETATM   18  C32 UNL     1      -2.367   8.565  12.671  1.00  0.00     0.020 C 
HETATM   19  C33 UNL     1      -4.225   7.808  14.265  1.00  0.00     0.002 C 
HETATM   20  C34 UNL     1      -4.624   7.487  15.729  1.00  0.00     0.007 C 
HETATM   21  C35 UNL     1      -5.946   6.739  15.915  1.00  0.00     0.014 C 
HETATM   22  C36 UNL     1      -7.014   7.038  14.839  1.00  0.00     0.003 C 
HETATM   23  C37 UNL     1      -7.500   8.492  15.062  1.00  0.00     0.020 C 
ENDROOT
BRANCH   3  24
HETATM   24  O1  UNL     1      -8.348   5.445  16.209  1.00  0.00    -0.377 OA
HETATM   25  H2  UNL     1      -8.719   6.148  16.768  1.00  0.00     0.211 HD
ENDBRANCH   3  24
BRANCH  13  26
HETATM   26  O2  UNL     1       1.566   8.119  16.737  1.00  0.00    -0.271 OA
BRANCH  26  27
HETATM   27  C13 UNL     1       1.709   9.112  15.726  1.00  0.00     0.303 C 
BRANCH  27  28
HETATM   28  C14 UNL     1       3.174   9.526  15.605  1.00  0.00     0.244 C 
HETATM   29  O3  UNL     1       3.745  10.158  16.490  1.00  0.00    -0.271 OA
HETATM   30  N2  UNL     1       3.775   9.125  14.426  1.00  0.00    -0.346 N 
HETATM   31  H16 UNL     1       3.241   8.449  13.893  1.00  0.00     0.163 HD
BRANCH  30  32
HETATM   32  C15 UNL     1       5.217   9.182  14.168  1.00  0.00     0.180 C 
BRANCH  32  33
HETATM   33  C16 UNL     1       5.458   8.796  12.684  1.00  0.00     0.241 C 
HETATM   34  O4  UNL     1       6.064   9.500  11.882  1.00  0.00    -0.271 OA
HETATM   35  N3  UNL     1       4.954   7.565  12.324  1.00  0.00    -0.345 N 
HETATM   36  H18 UNL     1       4.436   6.998  12.988  1.00  0.00     0.163 HD
BRANCH  35  37
HETATM   37  C17 UNL     1       5.033   7.070  10.942  1.00  0.00     0.186 C 
BRANCH  37  38
HETATM   38  C18 UNL     1       3.806   6.214  10.601  1.00  0.00     0.074 C 
BRANCH  38  39
HETATM   39  C19 UNL     1       2.736   6.972   9.855  1.00  0.00    -0.056 A 
HETATM   40  C20 UNL     1       2.873   7.206   8.479  1.00  0.00     0.007 A 
HETATM   41  C21 UNL     1       1.885   7.899   7.778  1.00  0.00     0.001 A 
HETATM   42  C22 UNL     1       0.751   8.359   8.443  1.00  0.00     0.000 A 
HETATM   43  C23 UNL     1       0.604   8.129   9.812  1.00  0.00     0.001 A 
HETATM   44  C24 UNL     1       1.593   7.440  10.516  1.00  0.00     0.007 A 
ENDBRANCH  38  39
ENDBRANCH  37  38
BRANCH  37  45
HETATM   45  C25 UNL     1       6.304   6.234  10.858  1.00  0.00     0.163 C 
HETATM   46  O5  UNL     1       7.441   6.651  11.041  1.00  0.00    -0.648 OA
BRANCH  45  47
HETATM   47  O6  UNL     1       6.090   4.942  10.548  1.00  0.00    -0.775 OA
HETATM   48  H27 UNL     1       6.975   4.524  10.549  1.00  0.00     0.167 HD
ENDBRANCH  45  47
ENDBRANCH  37  45
ENDBRANCH  35  37
ENDBRANCH  32  33
BRANCH  32  49
HETATM   49  C26 UNL     1       6.109   8.409  15.174  1.00  0.00     0.009 C 
HETATM   50  C27 UNL     1       7.052   7.411  14.489  1.00  0.00     0.012 C 
HETATM   51  C28 UNL     1       6.961   9.371  16.013  1.00  0.00     0.012 C 
ENDBRANCH  32  49
ENDBRANCH  30  32
ENDBRANCH  27  28
ENDBRANCH  26  27
ENDBRANCH  13  26
TORSDOF 12
ENDMDL
MODEL 2
REMARK minimizedAffinity -9.41779613
REMARK CNNscore 0.233036712
REMARK CNNaffinity 7.03815222
REMARK  12 active torsions:
REMARK  status: ('A' for Active; 'I' for Inactive)
REMARK    1  A    between atoms: C3_3  and  O1_4 
REMARK    2  A    between atoms: N1_14  and  O2_16 
REMARK    3  A    between atoms: O2_16  and  C13_17 
REMARK    4  A    between atoms: C13_17  and  C14_18 
REMARK       I    between atoms: C14_18  and  N2_20 
REMARK    5  A    between atoms: N2_20  and  C15_21 
REMARK    6  A    between atoms: C15_21  and  C16_22 
REMARK    7  A    between atoms: C15_21  and  C26_36 
REMARK       I    between atoms: C16_22  and  N3_24 
REMARK    8  A    between atoms: N3_24  and  C17_25 
REMARK    9  A    between atoms: C17_25  and  C18_26 
REMARK   10  A    between atoms: C17_25  and  C25_33 
REMARK   11  A    between atoms: C18_26  and  C19_27 
REMARK   12  A    between atoms: C25_33  and  O6_35 
ROOT
HETATM    1  C1  UNL     1      -8.356   7.409  15.084  1.00  0.00     0.015 C 
HETATM    2  C2  UNL     1      -7.230   6.997  15.151  1.00  0.00    -0.078 C 
HETATM    3  C3  UNL     1      -5.854   6.463  15.260  1.00  0.00     0.128 C 
HETATM    4  C4  UNL     1      -5.664   5.300  14.282  1.00  0.00     0.052 C 
HETATM    5  C5  UNL     1      -5.394   5.991  12.955  1.00  0.00     0.010 C 
HETATM    6  C6  UNL     1      -4.511   7.198  13.307  1.00  0.00     0.002 C 
HETATM    7  C7  UNL     1      -3.033   7.087  12.829  1.00  0.00    -0.004 C 
HETATM    8  C8  UNL     1      -2.357   5.703  12.919  1.00  0.00     0.010 C 
HETATM    9  C9  UNL     1      -0.931   5.724  12.358  1.00  0.00     0.035 C 
HETATM   10  C10 UNL     1      -0.071   6.842  12.909  1.00  0.00    -0.069 C 
HETATM   11  C11 UNL     1       1.189   6.590  13.307  1.00  0.00     0.030 C 
HETATM   12  C12 UNL     1       2.115   7.681  13.713  1.00  0.00     0.032 C 
HETATM   13  N1  UNL     1       3.285   7.348  14.179  1.00  0.00    -0.271 N 
ATOM     14  H1  UNL     1       3.595   6.386  14.317  1.00  0.00     0.194 HD
HETATM   15  C29 UNL     1       1.654   9.110  13.499  1.00  0.00     0.060 C 
HETATM   16  C30 UNL     1       0.161   9.221  13.780  1.00  0.00     0.020 C 
HETATM   17  C31 UNL     1      -0.702   8.232  12.942  1.00  0.00    -0.016 C 
HETATM   18  C32 UNL     1      -0.756   8.777  11.491  1.00  0.00     0.020 C 
HETATM   19  C33 UNL     1      -2.161   8.149  13.540  1.00  0.00     0.002 C 
HETATM   20  C34 UNL     1      -2.182   7.919  15.074  1.00  0.00     0.007 C 
HETATM   21  C35 UNL     1      -3.421   7.210  15.627  1.00  0.00     0.014 C 
HETATM   22  C36 UNL     1      -4.722   7.471  14.836  1.00  0.00     0.003 C 
HETATM   23  C37 UNL     1      -5.127   8.945  15.087  1.00  0.00     0.020 C 
ENDROOT
BRANCH   3  24
HETATM   24  O1  UNL     1      -5.681   5.986  16.588  1.00  0.00    -0.377 OA
HETATM   25  H2  UNL     1      -5.895   6.727  17.179  1.00  0.00     0.211 HD
ENDBRANCH   3  24
BRANCH  13  26
HETATM   26  O2  UNL     1       4.066   8.476  14.466  1.00  0.00    -0.271 OA
BRANCH  26  27
HETATM   27  C13 UNL     1       5.209   8.077  15.216  1.00  0.00     0.303 C 
BRANCH  27  28
HETATM   28  C14 UNL     1       6.229   9.214  15.256  1.00  0.00     0.244 C 
HETATM   29  O3  UNL     1       5.898  10.388  15.110  1.00  0.00    -0.271 OA
HETATM   30  N2  UNL     1       7.529   8.794  15.469  1.00  0.00    -0.346 N 
HETATM   31  H16 UNL     1       7.614   7.829  15.767  1.00  0.00     0.163 HD
BRANCH  30  32
HETATM   32  C15 UNL     1       8.648   9.685  15.786  1.00  0.00     0.180 C 
BRANCH  32  33
HETATM   33  C16 UNL     1       8.612   9.984  17.308  1.00  0.00     0.241 C 
HETATM   34  O4  UNL     1       7.619   9.827  18.015  1.00  0.00    -0.271 OA
HETATM   35  N3  UNL     1       9.807  10.424  17.835  1.00  0.00    -0.345 N 
HETATM   36  H18 UNL     1      10.617  10.569  17.240  1.00  0.00     0.163 HD
BRANCH  35  37
HETATM   37  C17 UNL     1       9.934  10.817  19.245  1.00  0.00     0.186 C 
BRANCH  37  38
HETATM   38  C18 UNL     1       9.270  12.178  19.490  1.00  0.00     0.074 C 
BRANCH  38  39
HETATM   39  C19 UNL     1       8.398  12.205  20.722  1.00  0.00    -0.056 A 
HETATM   40  C20 UNL     1       8.983  12.241  21.995  1.00  0.00     0.007 A 
HETATM   41  C21 UNL     1       8.185  12.275  23.139  1.00  0.00     0.001 A 
HETATM   42  C22 UNL     1       6.797  12.278  23.021  1.00  0.00     0.000 A 
HETATM   43  C23 UNL     1       6.205  12.244  21.759  1.00  0.00     0.001 A 
HETATM   44  C24 UNL     1       7.001  12.206  20.612  1.00  0.00     0.007 A 
ENDBRANCH  38  39
ENDBRANCH  37  38
BRANCH  37  45
HETATM   45  C25 UNL     1      11.428  10.894  19.536  1.00  0.00     0.163 C 
HETATM   46  O5  UNL     1      11.932  11.408  20.526  1.00  0.00    -0.648 OA
BRANCH  45  47
HETATM   47  O6  UNL     1      12.201  10.339  18.584  1.00  0.00    -0.775 OA
HETATM   48  H27 UNL     1      13.120  10.439  18.905  1.00  0.00     0.167 HD
ENDBRANCH  45  47
ENDBRANCH  37  45
ENDBRANCH  35  37
ENDBRANCH  32  33
BRANCH  32  49
HETATM   49  C26 UNL     1       8.771  10.950  14.897  1.00  0.00     0.009 C 
HETATM   50  C27 UNL     1       8.583  12.252  15.687  1.00  0.00     0.012 C 
HETATM   51  C28 UNL     1      10.136  11.009  14.199  1.00  0.00     0.012 C 
ENDBRANCH  32  49
ENDBRANCH  30  32
ENDBRANCH  27  28
ENDBRANCH  26  27
ENDBRANCH  13  26
TORSDOF 12
ENDMDL
MODEL 3
REMARK minimizedAffinity -10.0167007
REMARK CNNscore 0.207657874
REMARK CNNaffinity 7.37204599
REMARK  12 active torsions:
REMARK  status: ('A' for Active; 'I' for Inactive)
REMARK    1  A    between atoms: C3_3  and  O1_4 
REMARK    2  A    between atoms: N1_14  and  O2_16 
REMARK    3  A    between atoms: O2_16  and  C13_17 
REMARK    4  A    between atoms: C13_17  and  C14_18 
REMARK       I    between atoms: C14_18  and  N2_20 
REMARK    5  A    between atoms: N2_20  and  C15_21 
REMARK    6  A    between atoms: C15_21  and  C16_22 
REMARK    7  A    between atoms: C15_21  and  C26_36 
REMARK       I    between atoms: C16_22  and  N3_24 
REMARK    8  A    between atoms: N3_24  and  C17_25 
REMARK    9  A    between atoms: C17_25  and  C18_26 
REMARK   10  A    between atoms: C17_25  and  C25_33 
REMARK   11  A    between atoms: C18_26  and  C19_27 
REMARK   12  A    between atoms: C25_33  and  O6_35 
ROOT
HETATM    1  C1  UNL     1     -10.613   6.664  13.975  1.00  0.00     0.015 C 
HETATM    2  C2  UNL     1      -9.531   6.309  14.357  1.00  0.00    -0.078 C 
HETATM    3  C3  UNL     1      -8.214   5.847  14.850  1.00  0.00     0.128 C 
HETATM    4  C4  UNL     1      -7.719   4.673  14.001  1.00  0.00     0.052 C 
HETATM    5  C5  UNL     1      -7.129   5.347  12.772  1.00  0.00     0.010 C 
HETATM    6  C6  UNL     1      -6.425   6.604  13.307  1.00  0.00     0.002 C 
HETATM    7  C7  UNL     1      -4.870   6.556  13.249  1.00  0.00    -0.004 C 
HETATM    8  C8  UNL     1      -4.187   5.210  13.565  1.00  0.00     0.010 C 
HETATM    9  C9  UNL     1      -2.664   5.289  13.408  1.00  0.00     0.035 C 
HETATM   10  C10 UNL     1      -2.033   6.460  14.131  1.00  0.00    -0.069 C 
HETATM   11  C11 UNL     1      -0.918   6.281  14.863  1.00  0.00     0.030 C 
HETATM   12  C12 UNL     1      -0.183   7.425  15.465  1.00  0.00     0.032 C 
HETATM   13  N1  UNL     1       0.831   7.161  16.240  1.00  0.00    -0.271 N 
ATOM     14  H1  UNL     1       1.131   6.219  16.490  1.00  0.00     0.194 HD
HETATM   15  C29 UNL     1      -0.628   8.824  15.085  1.00  0.00     0.060 C 
HETATM   16  C30 UNL     1      -2.145   8.867  14.950  1.00  0.00     0.020 C 
HETATM   17  C31 UNL     1      -2.707   7.818  13.945  1.00  0.00    -0.016 C 
HETATM   18  C32 UNL     1      -2.389   8.327  12.515  1.00  0.00     0.020 C 
HETATM   19  C33 UNL     1      -4.268   7.676  14.130  1.00  0.00     0.002 C 
HETATM   20  C34 UNL     1      -4.694   7.479  15.609  1.00  0.00     0.007 C 
HETATM   21  C35 UNL     1      -6.006   6.722  15.833  1.00  0.00     0.014 C 
HETATM   22  C36 UNL     1      -7.054   6.900  14.712  1.00  0.00     0.003 C 
HETATM   23  C37 UNL     1      -7.573   8.357  14.793  1.00  0.00     0.020 C 
ENDROOT
BRANCH   3  24
HETATM   24  O1  UNL     1      -8.388   5.408  16.192  1.00  0.00    -0.377 OA
HETATM   25  H2  UNL     1      -8.785   6.150  16.677  1.00  0.00     0.211 HD
ENDBRANCH   3  24
BRANCH  13  26
HETATM   26  O2  UNL     1       1.457   8.332  16.687  1.00  0.00    -0.271 OA
BRANCH  26  27
HETATM   27  C13 UNL     1       2.813   8.336  16.251  1.00  0.00     0.303 C 
BRANCH  27  28
HETATM   28  C14 UNL     1       2.946   9.151  14.966  1.00  0.00     0.244 C 
HETATM   29  O3  UNL     1       2.989  10.379  14.979  1.00  0.00    -0.271 OA
HETATM   30  N2  UNL     1       3.011   8.383  13.818  1.00  0.00    -0.346 N 
HETATM   31  H16 UNL     1       3.163   7.395  13.984  1.00  0.00     0.163 HD
BRANCH  30  32
HETATM   32  C15 UNL     1       3.377   8.897  12.495  1.00  0.00     0.180 C 
BRANCH  32  33
HETATM   33  C16 UNL     1       2.809   7.927  11.426  1.00  0.00     0.241 C 
HETATM   34  O4  UNL     1       2.195   8.291  10.426  1.00  0.00    -0.271 OA
HETATM   35  N3  UNL     1       3.067   6.595  11.666  1.00  0.00    -0.345 N 
HETATM   36  H18 UNL     1       3.558   6.301  12.505  1.00  0.00     0.163 HD
BRANCH  35  37
HETATM   37  C17 UNL     1       2.546   5.535  10.792  1.00  0.00     0.186 C 
BRANCH  37  38
HETATM   38  C18 UNL     1       2.622   5.960   9.319  1.00  0.00     0.074 C 
BRANCH  38  39
HETATM   39  C19 UNL     1       3.301   4.941   8.437  1.00  0.00    -0.056 A 
HETATM   40  C20 UNL     1       4.187   4.009   8.996  1.00  0.00     0.007 A 
HETATM   41  C21 UNL     1       4.813   3.057   8.189  1.00  0.00     0.001 A 
HETATM   42  C22 UNL     1       4.555   3.025   6.821  1.00  0.00     0.000 A 
HETATM   43  C23 UNL     1       3.674   3.947   6.255  1.00  0.00     0.001 A 
HETATM   44  C24 UNL     1       3.050   4.902   7.059  1.00  0.00     0.007 A 
ENDBRANCH  38  39
ENDBRANCH  37  38
BRANCH  37  45
HETATM   45  C25 UNL     1       1.096   5.312  11.206  1.00  0.00     0.163 C 
HETATM   46  O5  UNL     1       0.359   6.160  11.693  1.00  0.00    -0.648 OA
BRANCH  45  47
HETATM   47  O6  UNL     1       0.654   4.059  10.997  1.00  0.00    -0.775 OA
HETATM   48  H27 UNL     1      -0.283   4.063  11.282  1.00  0.00     0.167 HD
ENDBRANCH  45  47
ENDBRANCH  37  45
ENDBRANCH  35  37
ENDBRANCH  32  33
BRANCH  32  49
HETATM   49  C26 UNL     1       4.877   9.242  12.302  1.00  0.00     0.009 C 
HETATM   50  C27 UNL     1       5.395   8.878  10.905  1.00  0.00     0.012 C 
HETATM   51  C28 UNL     1       5.137  10.737  12.532  1.00  0.00     0.012 C 
ENDBRANCH  32  49
ENDBRANCH  30  32
ENDBRANCH  27  28
ENDBRANCH  26  27
ENDBRANCH  13  26
TORSDOF 12
ENDMDL
MODEL 4
REMARK minimizedAffinity -8.5238905
REMARK CNNscore 0.201060876
REMARK CNNaffinity 7.02005768
REMARK  12 active torsions:
REMARK  status: ('A' for Active; 'I' for Inactive)
REMARK    1  A    between atoms: C3_3  and  O1_4 
REMARK    2  A    between atoms: N1_14  and  O2_16 
REMARK    3  A    between atoms: O2_16  and  C13_17 
REMARK    4  A    between atoms: C13_17  and  C14_18 
REMARK       I    between atoms: C14_18  and  N2_20 
REMARK    5  A    between atoms: N2_20  and  C15_21 
REMARK    6  A    between atoms: C15_21  and  C16_22 
REMARK    7  A    between atoms: C15_21  and  C26_36 
REMARK       I    between atoms: C16_22  and  N3_24 
REMARK    8  A    between atoms: N3_24  and  C17_25 
REMARK    9  A    between atoms: C17_25  and  C18_26 
REMARK   10  A    between atoms: C17_25  and  C25_33 
REMARK   11  A    between atoms: C18_26  and  C19_27 
REMARK   12  A    between atoms: C25_33  and  O6_35 
ROOT
HETATM    1  C1  UNL     1       0.515   8.036  14.567  1.00  0.00     0.015 C 
HETATM    2  C2  UNL     1      -0.521   7.904  13.973  1.00  0.00    -0.078 C 
HETATM    3  C3  UNL     1      -1.780   7.757  13.210  1.00  0.00     0.128 C 
HETATM    4  C4  UNL     1      -1.820   6.389  12.523  1.00  0.00     0.052 C 
HETATM    5  C5  UNL     1      -2.267   5.448  13.630  1.00  0.00     0.010 C 
HETATM    6  C6  UNL     1      -3.323   6.237  14.421  1.00  0.00     0.002 C 
HETATM    7  C7  UNL     1      -4.782   5.721  14.256  1.00  0.00    -0.004 C 
HETATM    8  C8  UNL     1      -5.210   5.229  12.858  1.00  0.00     0.010 C 
HETATM    9  C9  UNL     1      -6.646   4.691  12.854  1.00  0.00     0.035 C 
HETATM   10  C10 UNL     1      -7.653   5.627  13.488  1.00  0.00    -0.069 C 
HETATM   11  C11 UNL     1      -8.831   5.861  12.884  1.00  0.00     0.030 C 
HETATM   12  C12 UNL     1      -9.907   6.651  13.541  1.00  0.00     0.032 C 
HETATM   13  N1  UNL     1     -10.980   6.916  12.851  1.00  0.00    -0.271 N 
ATOM     14  H1  UNL     1     -11.116   6.647  11.877  1.00  0.00     0.194 HD
HETATM   15  C29 UNL     1      -9.704   7.042  14.992  1.00  0.00     0.060 C 
HETATM   16  C30 UNL     1      -8.239   7.378  15.239  1.00  0.00     0.020 C 
HETATM   17  C31 UNL     1      -7.264   6.232  14.836  1.00  0.00    -0.016 C 
HETATM   18  C32 UNL     1      -7.374   5.126  15.917  1.00  0.00     0.020 C 
HETATM   19  C33 UNL     1      -5.784   6.779  14.775  1.00  0.00     0.002 C 
HETATM   20  C34 UNL     1      -5.649   8.090  13.956  1.00  0.00     0.007 C 
HETATM   21  C35 UNL     1      -4.283   8.339  13.312  1.00  0.00     0.014 C 
HETATM   22  C36 UNL     1      -3.084   7.750  14.090  1.00  0.00     0.003 C 
HETATM   23  C37 UNL     1      -2.921   8.583  15.386  1.00  0.00     0.020 C 
ENDROOT
BRANCH   3  24
HETATM   24  O1  UNL     1      -1.804   8.775  12.218  1.00  0.00    -0.377 OA
HETATM   25  H2  UNL     1      -1.688   9.620  12.685  1.00  0.00     0.211 HD
ENDBRANCH   3  24
BRANCH  13  26
HETATM   26  O2  UNL     1     -11.924   7.615  13.614  1.00  0.00    -0.271 OA
BRANCH  26  27
HETATM   27  C13 UNL     1     -12.093   8.921  13.071  1.00  0.00     0.303 C 
BRANCH  27  28
HETATM   28  C14 UNL     1     -12.992   9.753  13.985  1.00  0.00     0.244 C 
HETATM   29  O3  UNL     1     -13.441  10.842  13.635  1.00  0.00    -0.271 OA
HETATM   30  N2  UNL     1     -13.240   9.168  15.213  1.00  0.00    -0.346 N 
HETATM   31  H16 UNL     1     -12.968   8.194  15.274  1.00  0.00     0.163 HD
BRANCH  30  32
HETATM   32  C15 UNL     1     -14.250   9.636  16.166  1.00  0.00     0.180 C 
BRANCH  32  33
HETATM   33  C16 UNL     1     -13.514  10.214  17.404  1.00  0.00     0.241 C 
HETATM   34  O4  UNL     1     -13.774  11.303  17.910  1.00  0.00    -0.271 OA
HETATM   35  N3  UNL     1     -12.541   9.391  17.929  1.00  0.00    -0.345 N 
HETATM   36  H18 UNL     1     -12.320   8.501  17.492  1.00  0.00     0.163 HD
BRANCH  35  37
HETATM   37  C17 UNL     1     -11.702   9.809  19.060  1.00  0.00     0.186 C 
BRANCH  37  38
HETATM   38  C18 UNL     1     -12.568  10.197  20.265  1.00  0.00     0.074 C 
BRANCH  38  39
HETATM   39  C19 UNL     1     -12.246   9.410  21.511  1.00  0.00    -0.056 A 
HETATM   40  C20 UNL     1     -12.939   8.224  21.791  1.00  0.00     0.007 A 
HETATM   41  C21 UNL     1     -12.642   7.485  22.937  1.00  0.00     0.001 A 
HETATM   42  C22 UNL     1     -11.648   7.921  23.810  1.00  0.00     0.000 A 
HETATM   43  C23 UNL     1     -10.951   9.099  23.540  1.00  0.00     0.001 A 
HETATM   44  C24 UNL     1     -11.248   9.842  22.396  1.00  0.00     0.007 A 
ENDBRANCH  38  39
ENDBRANCH  37  38
BRANCH  37  45
HETATM   45  C25 UNL     1     -10.896  11.009  18.576  1.00  0.00     0.163 C 
HETATM   46  O5  UNL     1     -10.416  11.137  17.457  1.00  0.00    -0.648 OA
BRANCH  45  47
HETATM   47  O6  UNL     1     -10.731  11.967  19.506  1.00  0.00    -0.775 OA
HETATM   48  H27 UNL     1     -10.223  12.677  19.060  1.00  0.00     0.167 HD
ENDBRANCH  45  47
ENDBRANCH  37  45
ENDBRANCH  35  37
ENDBRANCH  32  33
BRANCH  32  49
HETATM   49  C26 UNL     1     -15.366   8.617  16.513  1.00  0.00     0.009 C 
HETATM   50  C27 UNL     1     -14.907   7.160  16.371  1.00  0.00     0.012 C 
HETATM   51  C28 UNL     1     -15.875   8.818  17.947  1.00  0.00     0.012 C 
ENDBRANCH  32  49
ENDBRANCH  30  32
ENDBRANCH  27  28
ENDBRANCH  26  27
ENDBRANCH  13  26
TORSDOF 12
ENDMDL
MODEL 5
REMARK minimizedAffinity -8.97217941
REMARK CNNscore 0.194323793
REMARK CNNaffinity 7.21688461
REMARK  12 active torsions:
REMARK  status: ('A' for Active; 'I' for Inactive)
REMARK    1  A    between atoms: C3_3  and  O1_4 
REMARK    2  A    between atoms: N1_14  and  O2_16 
REMARK    3  A    between atoms: O2_16  and  C13_17 
REMARK    4  A    between atoms: C13_17  and  C14_18 
REMARK       I    between atoms: C14_18  and  N2_20 
REMARK    5  A    between atoms: N2_20  and  C15_21 
REMARK    6  A    between atoms: C15_21  and  C16_22 
REMARK    7  A    between atoms: C15_21  and  C26_36 
REMARK       I    between atoms: C16_22  and  N3_24 
REMARK    8  A    between atoms: N3_24  and  C17_25 
REMARK    9  A    between atoms: C17_25  and  C18_26 
REMARK   10  A    between atoms: C17_25  and  C25_33 
REMARK   11  A    between atoms: C18_26  and  C19_27 
REMARK   12  A    between atoms: C25_33  and  O6_35 
ROOT
HETATM    1  C1  UNL     1       0.769   8.362  14.474  1.00  0.00     0.015 C 
HETATM    2  C2  UNL     1      -0.260   8.124  13.902  1.00  0.00    -0.078 C 
HETATM    3  C3  UNL     1      -1.511   7.838  13.165  1.00  0.00     0.128 C 
HETATM    4  C4  UNL     1      -1.551   6.363  12.753  1.00  0.00     0.052 C 
HETATM    5  C5  UNL     1      -2.019   5.654  14.014  1.00  0.00     0.010 C 
HETATM    6  C6  UNL     1      -3.079   6.585  14.624  1.00  0.00     0.002 C 
HETATM    7  C7  UNL     1      -4.540   6.053  14.541  1.00  0.00    -0.004 C 
HETATM    8  C8  UNL     1      -4.954   5.303  13.258  1.00  0.00     0.010 C 
HETATM    9  C9  UNL     1      -6.393   4.782  13.338  1.00  0.00     0.035 C 
HETATM   10  C10 UNL     1      -7.401   5.826  13.768  1.00  0.00    -0.069 C 
HETATM   11  C11 UNL     1      -8.571   5.944  13.113  1.00  0.00     0.030 C 
HETATM   12  C12 UNL     1      -9.649   6.850  13.592  1.00  0.00     0.032 C 
HETATM   13  N1  UNL     1     -10.711   6.982  12.849  1.00  0.00    -0.271 N 
ATOM     14  H1  UNL     1     -10.837   6.532  11.943  1.00  0.00     0.194 HD
HETATM   15  C29 UNL     1      -9.461   7.513  14.943  1.00  0.00     0.060 C 
HETATM   16  C30 UNL     1      -7.997   7.884  15.140  1.00  0.00     0.020 C 
HETATM   17  C31 UNL     1      -7.025   6.678  14.979  1.00  0.00    -0.016 C 
HETATM   18  C32 UNL     1      -7.156   5.800  16.250  1.00  0.00     0.020 C 
HETATM   19  C33 UNL     1      -5.541   7.196  14.834  1.00  0.00     0.002 C 
HETATM   20  C34 UNL     1      -5.386   8.324  13.780  1.00  0.00     0.007 C 
HETATM   21  C35 UNL     1      -4.011   8.439  13.119  1.00  0.00     0.014 C 
HETATM   22  C36 UNL     1      -2.826   8.006  14.011  1.00  0.00     0.003 C 
HETATM   23  C37 UNL     1      -2.674   9.072  15.125  1.00  0.00     0.020 C 
ENDROOT
BRANCH   3  24
HETATM   24  O1  UNL     1      -1.515   8.646  11.995  1.00  0.00    -0.377 OA
HETATM   25  H2  UNL     1      -1.400   9.564  12.292  1.00  0.00     0.211 HD
ENDBRANCH   3  24
BRANCH  13  26
HETATM   26  O2  UNL     1     -11.660   7.819  13.451  1.00  0.00    -0.271 OA
BRANCH  26  27
HETATM   27  C13 UNL     1     -12.968   7.356  13.127  1.00  0.00     0.303 C 
BRANCH  27  28
HETATM   28  C14 UNL     1     -13.652   6.810  14.379  1.00  0.00     0.244 C 
HETATM   29  O3  UNL     1     -13.482   7.316  15.485  1.00  0.00    -0.271 OA
HETATM   30  N2  UNL     1     -14.463   5.715  14.142  1.00  0.00    -0.346 N 
HETATM   31  H16 UNL     1     -14.657   5.542  13.163  1.00  0.00     0.163 HD
BRANCH  30  32
HETATM   32  C15 UNL     1     -15.408   5.156  15.113  1.00  0.00     0.180 C 
BRANCH  32  33
HETATM   33  C16 UNL     1     -16.002   3.854  14.515  1.00  0.00     0.241 C 
HETATM   34  O4  UNL     1     -16.969   3.824  13.758  1.00  0.00    -0.271 OA
HETATM   35  N3  UNL     1     -15.339   2.702  14.879  1.00  0.00    -0.345 N 
HETATM   36  H18 UNL     1     -14.552   2.734  15.521  1.00  0.00     0.163 HD
BRANCH  35  37
HETATM   37  C17 UNL     1     -15.805   1.374  14.459  1.00  0.00     0.186 C 
BRANCH  37  38
HETATM   38  C18 UNL     1     -16.374   1.424  13.035  1.00  0.00     0.074 C 
BRANCH  38  39
HETATM   39  C19 UNL     1     -16.447   0.071  12.371  1.00  0.00    -0.056 A 
HETATM   40  C20 UNL     1     -15.341  -0.789  12.409  1.00  0.00     0.007 A 
HETATM   41  C21 UNL     1     -15.402  -2.046  11.805  1.00  0.00     0.001 A 
HETATM   42  C22 UNL     1     -16.568  -2.456  11.164  1.00  0.00     0.000 A 
HETATM   43  C23 UNL     1     -17.675  -1.608  11.123  1.00  0.00     0.001 A 
HETATM   44  C24 UNL     1     -17.616  -0.349  11.722  1.00  0.00     0.007 A 
ENDBRANCH  38  39
ENDBRANCH  37  38
BRANCH  37  45
HETATM   45  C25 UNL     1     -16.890   0.966  15.450  1.00  0.00     0.163 C 
HETATM   46  O5  UNL     1     -16.705   0.336  16.483  1.00  0.00    -0.648 OA
BRANCH  45  47
HETATM   47  O6  UNL     1     -18.128   1.358  15.097  1.00  0.00    -0.775 OA
HETATM   48  H27 UNL     1     -18.712   1.054  15.822  1.00  0.00     0.167 HD
ENDBRANCH  45  47
ENDBRANCH  37  45
ENDBRANCH  35  37
ENDBRANCH  32  33
BRANCH  32  49
HETATM   49  C26 UNL     1     -16.473   6.145  15.656  1.00  0.00     0.009 C 
HETATM   50  C27 UNL     1     -17.388   6.698  14.556  1.00  0.00     0.012 C 
HETATM   51  C28 UNL     1     -17.357   5.479  16.720  1.00  0.00     0.012 C 
ENDBRANCH  32  49
ENDBRANCH  30  32
ENDBRANCH  27  28
ENDBRANCH  26  27
ENDBRANCH  13  26
TORSDOF 12
ENDMDL
MODEL 6
REMARK minimizedAffinity -9.28907204
REMARK CNNscore 0.183855981
REMARK CNNaffinity 6.6266427
REMARK  12 active torsions:
REMARK  status: ('A' for Active; 'I' for Inactive)
REMARK    1  A    between atoms: C3_3  and  O1_4 
REMARK    2  A    between atoms: N1_14  and  O2_16 
REMARK    3  A    between atoms: O2_16  and  C13_17 
REMARK    4  A    between atoms: C13_17  and  C14_18 
REMARK       I    between atoms: C14_18  and  N2_20 
REMARK    5  A    between atoms: N2_20  and  C15_21 
REMARK    6  A    between atoms: C15_21  and  C16_22 
REMARK    7  A    between atoms: C15_21  and  C26_36 
REMARK       I    between atoms: C16_22  and  N3_24 
REMARK    8  A    between atoms: N3_24  and  C17_25 
REMARK    9  A    between atoms: C17_25  and  C18_26 
REMARK   10  A    between atoms: C17_25  and  C25_33 
REMARK   11  A    between atoms: C18_26  and  C19_27 
REMARK   12  A    between atoms: C25_33  and  O6_35 
ROOT
HETATM    1  C1  UNL     1      -9.538   6.967  14.896  1.00  0.00     0.015 C 
HETATM    2  C2  UNL     1      -8.429   6.518  15.007  1.00  0.00    -0.078 C 
HETATM    3  C3  UNL     1      -7.077   5.938  15.165  1.00  0.00     0.128 C 
HETATM    4  C4  UNL     1      -6.824   4.893  14.075  1.00  0.00     0.052 C 
HETATM    5  C5  UNL     1      -6.429   5.728  12.867  1.00  0.00     0.010 C 
HETATM    6  C6  UNL     1      -5.558   6.861  13.434  1.00  0.00     0.002 C 
HETATM    7  C7  UNL     1      -4.047   6.766  13.071  1.00  0.00    -0.004 C 
HETATM    8  C8  UNL     1      -3.406   5.363  13.050  1.00  0.00     0.010 C 
HETATM    9  C9  UNL     1      -1.936   5.411  12.617  1.00  0.00     0.035 C 
HETATM   10  C10 UNL     1      -1.108   6.432  13.367  1.00  0.00    -0.069 C 
HETATM   11  C11 UNL     1       0.108   6.102  13.836  1.00  0.00     0.030 C 
HETATM   12  C12 UNL     1       1.015   7.111  14.446  1.00  0.00     0.032 C 
HETATM   13  N1  UNL     1       2.135   6.694  14.964  1.00  0.00    -0.271 N 
ATOM     14  H1  UNL     1       2.415   5.714  15.012  1.00  0.00     0.194 HD
HETATM   15  C29 UNL     1       0.598   8.567  14.367  1.00  0.00     0.060 C 
HETATM   16  C30 UNL     1      -0.911   8.685  14.533  1.00  0.00     0.020 C 
HETATM   17  C31 UNL     1      -1.716   7.826  13.514  1.00  0.00    -0.016 C 
HETATM   18  C32 UNL     1      -1.635   8.539  12.139  1.00  0.00     0.020 C 
HETATM   19  C33 UNL     1      -3.222   7.713  13.973  1.00  0.00     0.002 C 
HETATM   20  C34 UNL     1      -3.379   7.304  15.462  1.00  0.00     0.007 C 
HETATM   21  C35 UNL     1      -4.673   6.570  15.821  1.00  0.00     0.014 C 
HETATM   22  C36 UNL     1      -5.897   6.957  14.961  1.00  0.00     0.003 C 
HETATM   23  C37 UNL     1      -6.296   8.402  15.352  1.00  0.00     0.020 C 
ENDROOT
BRANCH   3  24
HETATM   24  O1  UNL     1      -7.028   5.303  16.436  1.00  0.00    -0.377 OA
HETATM   25  H2  UNL     1      -7.280   5.975  17.092  1.00  0.00     0.211 HD
ENDBRANCH   3  24
BRANCH  13  26
HETATM   26  O2  UNL     1       2.907   7.758  15.448  1.00  0.00    -0.271 OA
BRANCH  26  27
HETATM   27  C13 UNL     1       3.767   8.224  14.413  1.00  0.00     0.303 C 
BRANCH  27  28
HETATM   28  C14 UNL     1       5.086   8.712  15.009  1.00  0.00     0.244 C 
HETATM   29  O3  UNL     1       6.068   7.979  15.097  1.00  0.00    -0.271 OA
HETATM   30  N2  UNL     1       5.060  10.029  15.427  1.00  0.00    -0.346 N 
HETATM   31  H16 UNL     1       4.254  10.554  15.108  1.00  0.00     0.163 HD
BRANCH  30  32
HETATM   32  C15 UNL     1       6.245  10.803  15.807  1.00  0.00     0.180 C 
BRANCH  32  33
HETATM   33  C16 UNL     1       6.503  10.581  17.321  1.00  0.00     0.241 C 
HETATM   34  O4  UNL     1       7.143   9.636  17.777  1.00  0.00    -0.271 OA
HETATM   35  N3  UNL     1       5.972  11.552  18.142  1.00  0.00    -0.345 N 
HETATM   36  H18 UNL     1       5.428  12.319  17.758  1.00  0.00     0.163 HD
BRANCH  35  37
HETATM   37  C17 UNL     1       6.064  11.464  19.605  1.00  0.00     0.186 C 
BRANCH  37  38
HETATM   38  C18 UNL     1       4.784  11.998  20.262  1.00  0.00     0.074 C 
BRANCH  38  39
HETATM   39  C19 UNL     1       4.157  11.023  21.228  1.00  0.00    -0.056 A 
HETATM   40  C20 UNL     1       3.110  10.193  20.806  1.00  0.00     0.007 A 
HETATM   41  C21 UNL     1       2.529   9.282  21.690  1.00  0.00     0.001 A 
HETATM   42  C22 UNL     1       2.991   9.191  23.000  1.00  0.00     0.000 A 
HETATM   43  C23 UNL     1       4.034  10.011  23.431  1.00  0.00     0.001 A 
HETATM   44  C24 UNL     1       4.615  10.926  22.550  1.00  0.00     0.007 A 
ENDBRANCH  38  39
ENDBRANCH  37  38
BRANCH  37  45
HETATM   45  C25 UNL     1       7.263  12.313  20.012  1.00  0.00     0.163 C 
HETATM   46  O5  UNL     1       7.300  13.076  20.969  1.00  0.00    -0.648 OA
BRANCH  45  47
HETATM   47  O6  UNL     1       8.333  12.168  19.209  1.00  0.00    -0.775 OA
HETATM   48  H27 UNL     1       9.026  12.745  19.594  1.00  0.00     0.167 HD
ENDBRANCH  45  47
ENDBRANCH  37  45
ENDBRANCH  35  37
ENDBRANCH  32  33
BRANCH  32  49
HETATM   49  C26 UNL     1       6.236  12.295  15.381  1.00  0.00     0.009 C 
HETATM   50  C27 UNL     1       7.539  12.724  14.695  1.00  0.00     0.012 C 
HETATM   51  C28 UNL     1       5.073  12.592  14.424  1.00  0.00     0.012 C 
ENDBRANCH  32  49
ENDBRANCH  30  32
ENDBRANCH  27  28
ENDBRANCH  26  27
ENDBRANCH  13  26
TORSDOF 12
ENDMDL
MODEL 7
REMARK minimizedAffinity -10.1239204
REMARK CNNscore 0.178675026
REMARK CNNaffinity 6.87610579
REMARK  12 active torsions:
REMARK  status: ('A' for Active; 'I' for Inactive)
REMARK    1  A    between atoms: C3_3  and  O1_4 
REMARK    2  A    between atoms: N1_14  and  O2_16 
REMARK    3  A    between atoms: O2_16  and  C13_17 
REMARK    4  A    between atoms: C13_17  and  C14_18 
REMARK       I    between atoms: C14_18  and  N2_20 
REMARK    5  A    between atoms: N2_20  and  C15_21 
REMARK    6  A    between atoms: C15_21  and  C16_22 
REMARK    7  A    between atoms: C15_21  and  C26_36 
REMARK       I    between atoms: C16_22  and  N3_24 
REMARK    8  A    between atoms: N3_24  and  C17_25 
REMARK    9  A    between atoms: C17_25  and  C18_26 
REMARK   10  A    between atoms: C17_25  and  C25_33 
REMARK   11  A    between atoms: C18_26  and  C19_27 
REMARK   12  A    between atoms: C25_33  and  O6_35 
ROOT
HETATM    1  C1  UNL     1     -10.001   6.959  14.893  1.00  0.00     0.015 C 
HETATM    2  C2  UNL     1      -8.898   6.490  14.966  1.00  0.00    -0.078 C 
HETATM    3  C3  UNL     1      -7.553   5.882  15.078  1.00  0.00     0.128 C 
HETATM    4  C4  UNL     1      -7.346   4.857  13.960  1.00  0.00     0.052 C 
HETATM    5  C5  UNL     1      -6.966   5.711  12.761  1.00  0.00     0.010 C 
HETATM    6  C6  UNL     1      -6.061   6.816  13.329  1.00  0.00     0.002 C 
HETATM    7  C7  UNL     1      -4.562   6.703  12.926  1.00  0.00    -0.004 C 
HETATM    8  C8  UNL     1      -3.946   5.290  12.860  1.00  0.00     0.010 C 
HETATM    9  C9  UNL     1      -2.487   5.322  12.391  1.00  0.00     0.035 C 
HETATM   10  C10 UNL     1      -1.623   6.312  13.142  1.00  0.00    -0.069 C 
HETATM   11  C11 UNL     1      -0.401   5.950  13.573  1.00  0.00     0.030 C 
HETATM   12  C12 UNL     1       0.539   6.930  14.181  1.00  0.00     0.032 C 
HETATM   13  N1  UNL     1       1.663   6.482  14.662  1.00  0.00    -0.271 N 
ATOM     14  H1  UNL     1       1.926   5.497  14.682  1.00  0.00     0.194 HD
HETATM   15  C29 UNL     1       0.146   8.394  14.143  1.00  0.00     0.060 C 
HETATM   16  C30 UNL     1      -1.356   8.535  14.350  1.00  0.00     0.020 C 
HETATM   17  C31 UNL     1      -2.201   7.713  13.333  1.00  0.00    -0.016 C 
HETATM   18  C32 UNL     1      -2.142   8.453  11.972  1.00  0.00     0.020 C 
HETATM   19  C33 UNL     1      -3.697   7.616  13.828  1.00  0.00     0.002 C 
HETATM   20  C34 UNL     1      -3.825   7.177  15.311  1.00  0.00     0.007 C 
HETATM   21  C35 UNL     1      -5.122   6.458  15.687  1.00  0.00     0.014 C 
HETATM   22  C36 UNL     1      -6.360   6.885  14.867  1.00  0.00     0.003 C 
HETATM   23  C37 UNL     1      -6.723   8.328  15.298  1.00  0.00     0.020 C 
ENDROOT
BRANCH   3  24
HETATM   24  O1  UNL     1      -7.484   5.219  16.334  1.00  0.00    -0.377 OA
HETATM   25  H2  UNL     1      -7.707   5.880  17.010  1.00  0.00     0.211 HD
ENDBRANCH   3  24
BRANCH  13  26
HETATM   26  O2  UNL     1       2.467   7.521  15.149  1.00  0.00    -0.271 OA
BRANCH  26  27
HETATM   27  C13 UNL     1       2.167   7.742  16.524  1.00  0.00     0.303 C 
BRANCH  27  28
HETATM   28  C14 UNL     1       2.684   9.113  16.957  1.00  0.00     0.244 C 
HETATM   29  O3  UNL     1       3.540   9.716  16.315  1.00  0.00    -0.271 OA
HETATM   30  N2  UNL     1       2.102   9.591  18.116  1.00  0.00    -0.346 N 
HETATM   31  H16 UNL     1       1.281   9.078  18.415  1.00  0.00     0.163 HD
BRANCH  30  32
HETATM   32  C15 UNL     1       2.240  10.965  18.609  1.00  0.00     0.180 C 
BRANCH  32  33
HETATM   33  C16 UNL     1       2.028  10.951  20.146  1.00  0.00     0.241 C 
HETATM   34  O4  UNL     1       1.074  11.479  20.712  1.00  0.00    -0.271 OA
HETATM   35  N3  UNL     1       2.993  10.265  20.851  1.00  0.00    -0.345 N 
HETATM   36  H18 UNL     1       3.788   9.848  20.377  1.00  0.00     0.163 HD
BRANCH  35  37
HETATM   37  C17 UNL     1       2.985  10.208  22.319  1.00  0.00     0.186 C 
BRANCH  37  38
HETATM   38  C18 UNL     1       4.410  10.332  22.875  1.00  0.00     0.074 C 
BRANCH  38  39
HETATM   39  C19 UNL     1       4.911  11.754  22.926  1.00  0.00    -0.056 A 
HETATM   40  C20 UNL     1       6.288  12.011  22.975  1.00  0.00     0.007 A 
HETATM   41  C21 UNL     1       6.761  13.324  23.015  1.00  0.00     0.001 A 
HETATM   42  C22 UNL     1       5.864  14.389  23.000  1.00  0.00     0.000 A 
HETATM   43  C23 UNL     1       4.491  14.144  22.949  1.00  0.00     0.001 A 
HETATM   44  C24 UNL     1       4.015  12.832  22.914  1.00  0.00     0.007 A 
ENDBRANCH  38  39
ENDBRANCH  37  38
BRANCH  37  45
HETATM   45  C25 UNL     1       2.384   8.858  22.693  1.00  0.00     0.163 C 
HETATM   46  O5  UNL     1       1.964   8.025  21.900  1.00  0.00    -0.648 OA
BRANCH  45  47
HETATM   47  O6  UNL     1       2.337   8.628  24.018  1.00  0.00    -0.775 OA
HETATM   48  H27 UNL     1       1.956   7.731  24.112  1.00  0.00     0.167 HD
ENDBRANCH  45  47
ENDBRANCH  37  45
ENDBRANCH  35  37
ENDBRANCH  32  33
BRANCH  32  49
HETATM   49  C26 UNL     1       1.395  12.032  17.864  1.00  0.00     0.009 C 
HETATM   50  C27 UNL     1      -0.069  12.055  18.320  1.00  0.00     0.012 C 
HETATM   51  C28 UNL     1       1.978  13.438  18.061  1.00  0.00     0.012 C 
ENDBRANCH  32  49
ENDBRANCH  30  32
ENDBRANCH  27  28
ENDBRANCH  26  27
ENDBRANCH  13  26
TORSDOF 12
ENDMDL
MODEL 8
REMARK minimizedAffinity -8.32855988
REMARK CNNscore 0.155431911
REMARK CNNaffinity 6.97134399
REMARK  12 active torsions:
REMARK  status: ('A' for Active; 'I' for Inactive)
REMARK    1  A    between atoms: C3_3  and  O1_4 
REMARK    2  A    between atoms: N1_14  and  O2_16 
REMARK    3  A    between atoms: O2_16  and  C13_17 
REMARK    4  A    between atoms: C13_17  and  C14_18 
REMARK       I    between atoms: C14_18  and  N2_20 
REMARK    5  A    between atoms: N2_20  and  C15_21 
REMARK    6  A    between atoms: C15_21  and  C16_22 
REMARK    7  A    between atoms: C15_21  and  C26_36 
REMARK       I    between atoms: C16_22  and  N3_24 
REMARK    8  A    between atoms: N3_24  and  C17_25 
REMARK    9  A    between atoms: C17_25  and  C18_26 
REMARK   10  A    between atoms: C17_25  and  C25_33 
REMARK   11  A    between atoms: C18_26  and  C19_27 
REMARK   12  A    between atoms: C25_33  and  O6_35 
ROOT
HETATM    1  C1  UNL     1       1.005   8.615  14.049  1.00  0.00     0.015 C 
HETATM    2  C2  UNL     1      -0.046   8.339  13.538  1.00  0.00    -0.078 C 
HETATM    3  C3  UNL     1      -1.327   8.008  12.874  1.00  0.00     0.128 C 
HETATM    4  C4  UNL     1      -1.323   6.543  12.429  1.00  0.00     0.052 C 
HETATM    5  C5  UNL     1      -1.675   5.785  13.699  1.00  0.00     0.010 C 
HETATM    6  C6  UNL     1      -2.737   6.649  14.397  1.00  0.00     0.002 C 
HETATM    7  C7  UNL     1      -4.173   6.048  14.394  1.00  0.00    -0.004 C 
HETATM    8  C8  UNL     1      -4.632   5.307  13.121  1.00  0.00     0.010 C 
HETATM    9  C9  UNL     1      -6.037   4.714  13.279  1.00  0.00     0.035 C 
HETATM   10  C10 UNL     1      -7.064   5.698  13.796  1.00  0.00    -0.069 C 
HETATM   11  C11 UNL     1      -8.277   5.773  13.220  1.00  0.00     0.030 C 
HETATM   12  C12 UNL     1      -9.364   6.615  13.787  1.00  0.00     0.032 C 
HETATM   13  N1  UNL     1     -10.477   6.710  13.117  1.00  0.00    -0.271 N 
ATOM     14  H1  UNL     1     -10.639   6.274  12.209  1.00  0.00     0.194 HD
HETATM   15  C29 UNL     1      -9.122   7.256  15.140  1.00  0.00     0.060 C 
HETATM   16  C30 UNL     1      -7.668   7.694  15.254  1.00  0.00     0.020 C 
HETATM   17  C31 UNL     1      -6.652   6.541  15.002  1.00  0.00    -0.016 C 
HETATM   18  C32 UNL     1      -6.660   5.631  16.257  1.00  0.00     0.020 C 
HETATM   19  C33 UNL     1      -5.207   7.134  14.776  1.00  0.00     0.002 C 
HETATM   20  C34 UNL     1      -5.173   8.291  13.743  1.00  0.00     0.007 C 
HETATM   21  C35 UNL     1      -3.850   8.487  13.000  1.00  0.00     0.014 C 
HETATM   22  C36 UNL     1      -2.591   8.094  13.805  1.00  0.00     0.003 C 
HETATM   23  C37 UNL     1      -2.419   9.141  14.933  1.00  0.00     0.020 C 
ENDROOT
BRANCH   3  24
HETATM   24  O1  UNL     1      -1.444   8.840  11.727  1.00  0.00    -0.377 OA
HETATM   25  H2  UNL     1      -1.354   9.757  12.038  1.00  0.00     0.211 HD
ENDBRANCH   3  24
BRANCH  13  26
HETATM   26  O2  UNL     1     -11.424   7.487  13.797  1.00  0.00    -0.271 OA
BRANCH  26  27
HETATM   27  C13 UNL     1     -12.000   8.425  12.893  1.00  0.00     0.303 C 
BRANCH  27  28
HETATM   28  C14 UNL     1     -13.385   8.842  13.386  1.00  0.00     0.244 C 
HETATM   29  O3  UNL     1     -13.744   8.655  14.545  1.00  0.00    -0.271 OA
HETATM   30  N2  UNL     1     -14.170   9.438  12.416  1.00  0.00    -0.346 N 
HETATM   31  H16 UNL     1     -13.669   9.700  11.575  1.00  0.00     0.163 HD
BRANCH  30  32
HETATM   32  C15 UNL     1     -15.429  10.138  12.682  1.00  0.00     0.180 C 
BRANCH  32  33
HETATM   33  C16 UNL     1     -16.386   9.881  11.488  1.00  0.00     0.241 C 
HETATM   34  O4  UNL     1     -16.096   9.195  10.511  1.00  0.00    -0.271 OA
HETATM   35  N3  UNL     1     -17.627  10.469  11.611  1.00  0.00    -0.345 N 
HETATM   36  H18 UNL     1     -17.851  11.050  12.413  1.00  0.00     0.163 HD
BRANCH  35  37
HETATM   37  C17 UNL     1     -18.633  10.385  10.544  1.00  0.00     0.186 C 
BRANCH  37  38
HETATM   38  C18 UNL     1     -19.477  11.665  10.492  1.00  0.00     0.074 C 
BRANCH  38  39
HETATM   39  C19 UNL     1     -18.827  12.779   9.709  1.00  0.00    -0.056 A 
HETATM   40  C20 UNL     1     -17.811  13.547  10.294  1.00  0.00     0.007 A 
HETATM   41  C21 UNL     1     -17.198  14.574   9.575  1.00  0.00     0.001 A 
HETATM   42  C22 UNL     1     -17.592  14.840   8.265  1.00  0.00     0.000 A 
HETATM   43  C23 UNL     1     -18.601  14.080   7.673  1.00  0.00     0.001 A 
HETATM   44  C24 UNL     1     -19.219  13.055   8.392  1.00  0.00     0.007 A 
ENDBRANCH  38  39
ENDBRANCH  37  38
BRANCH  37  45
HETATM   45  C25 UNL     1     -19.510   9.183  10.874  1.00  0.00     0.163 C 
HETATM   46  O5  UNL     1     -19.269   8.023  10.565  1.00  0.00    -0.648 OA
BRANCH  45  47
HETATM   47  O6  UNL     1     -20.628   9.493  11.557  1.00  0.00    -0.775 OA
HETATM   48  H27 UNL     1     -21.078   8.638  11.718  1.00  0.00     0.167 HD
ENDBRANCH  45  47
ENDBRANCH  37  45
ENDBRANCH  35  37
ENDBRANCH  32  33
BRANCH  32  49
HETATM   49  C26 UNL     1     -15.296  11.633  13.074  1.00  0.00     0.009 C 
HETATM   50  C27 UNL     1     -15.228  11.845  14.592  1.00  0.00     0.012 C 
HETATM   51  C28 UNL     1     -14.043  12.261  12.449  1.00  0.00     0.012 C 
ENDBRANCH  32  49
ENDBRANCH  30  32
ENDBRANCH  27  28
ENDBRANCH  26  27
ENDBRANCH  13  26
TORSDOF 12
ENDMDL
MODEL 9
REMARK minimizedAffinity -8.01985931
REMARK CNNscore 0.141974851
REMARK CNNaffinity 6.37810135
REMARK  12 active torsions:
REMARK  status: ('A' for Active; 'I' for Inactive)
REMARK    1  A    between atoms: C3_3  and  O1_4 
REMARK    2  A    between atoms: N1_14  and  O2_16 
REMARK    3  A    between atoms: O2_16  and  C13_17 
REMARK    4  A    between atoms: C13_17  and  C14_18 
REMARK       I    between atoms: C14_18  and  N2_20 
REMARK    5  A    between atoms: N2_20  and  C15_21 
REMARK    6  A    between atoms: C15_21  and  C16_22 
REMARK    7  A    between atoms: C15_21  and  C26_36 
REMARK       I    between atoms: C16_22  and  N3_24 
REMARK    8  A    between atoms: N3_24  and  C17_25 
REMARK    9  A    between atoms: C17_25  and  C18_26 
REMARK   10  A    between atoms: C17_25  and  C25_33 
REMARK   11  A    between atoms: C18_26  and  C19_27 
REMARK   12  A    between atoms: C25_33  and  O6_35 
ROOT
HETATM    1  C1  UNL     1      -6.302   0.830  11.261  1.00  0.00     0.015 C 
HETATM    2  C2  UNL     1      -5.728   1.871  11.090  1.00  0.00    -0.078 C 
HETATM    3  C3  UNL     1      -5.038   3.157  10.844  1.00  0.00     0.128 C 
HETATM    4  C4  UNL     1      -5.912   4.321  11.319  1.00  0.00     0.052 C 
HETATM    5  C5  UNL     1      -5.662   4.363  12.819  1.00  0.00     0.010 C 
HETATM    6  C6  UNL     1      -4.163   4.064  12.981  1.00  0.00     0.002 C 
HETATM    7  C7  UNL     1      -3.302   5.276  13.441  1.00  0.00    -0.004 C 
HETATM    8  C8  UNL     1      -3.658   6.663  12.866  1.00  0.00     0.010 C 
HETATM    9  C9  UNL     1      -2.774   7.770  13.450  1.00  0.00     0.035 C 
HETATM   10  C10 UNL     1      -1.292   7.466  13.394  1.00  0.00    -0.069 C 
HETATM   11  C11 UNL     1      -0.425   8.408  12.982  1.00  0.00     0.030 C 
HETATM   12  C12 UNL     1       1.047   8.205  13.052  1.00  0.00     0.032 C 
HETATM   13  N1  UNL     1       1.817   9.124  12.543  1.00  0.00    -0.271 N 
ATOM     14  H1  UNL     1       1.475   9.958  12.066  1.00  0.00     0.194 HD
HETATM   15  C29 UNL     1       1.550   6.966  13.769  1.00  0.00     0.060 C 
HETATM   16  C30 UNL     1       0.621   5.792  13.490  1.00  0.00     0.020 C 
HETATM   17  C31 UNL     1      -0.864   6.076  13.860  1.00  0.00    -0.016 C 
HETATM   18  C32 UNL     1      -0.976   6.026  15.406  1.00  0.00     0.020 C 
HETATM   19  C33 UNL     1      -1.800   4.979  13.217  1.00  0.00     0.002 C 
HETATM   20  C34 UNL     1      -1.521   4.744  11.710  1.00  0.00     0.007 C 
HETATM   21  C35 UNL     1      -2.704   4.236  10.881  1.00  0.00     0.014 C 
HETATM   22  C36 UNL     1      -3.707   3.355  11.659  1.00  0.00     0.003 C 
HETATM   23  C37 UNL     1      -3.001   2.011  11.965  1.00  0.00     0.020 C 
ENDROOT
BRANCH   3  24
HETATM   24  O1  UNL     1      -4.833   3.274   9.441  1.00  0.00    -0.377 OA
HETATM   25  H2  UNL     1      -4.353   2.476   9.163  1.00  0.00     0.211 HD
ENDBRANCH   3  24
BRANCH  13  26
HETATM   26  O2  UNL     1       3.172   8.824  12.732  1.00  0.00    -0.271 OA
BRANCH  26  27
HETATM   27  C13 UNL     1       3.901   9.187  11.563  1.00  0.00     0.303 C 
BRANCH  27  28
HETATM   28  C14 UNL     1       5.040  10.137  11.933  1.00  0.00     0.244 C 
HETATM   29  O3  UNL     1       4.837  11.318  12.205  1.00  0.00    -0.271 OA
HETATM   30  N2  UNL     1       6.289   9.544  11.930  1.00  0.00    -0.346 N 
HETATM   31  H16 UNL     1       6.271   8.532  11.883  1.00  0.00     0.163 HD
BRANCH  30  32
HETATM   32  C15 UNL     1       7.502  10.160  12.474  1.00  0.00     0.180 C 
BRANCH  32  33
HETATM   33  C16 UNL     1       8.311  10.759  11.293  1.00  0.00     0.241 C 
HETATM   34  O4  UNL     1       8.018  10.601  10.110  1.00  0.00    -0.271 OA
HETATM   35  N3  UNL     1       9.396  11.521  11.670  1.00  0.00    -0.345 N 
HETATM   36  H18 UNL     1       9.642  11.629  12.649  1.00  0.00     0.163 HD
BRANCH  35  37
HETATM   37  C17 UNL     1      10.311  12.107  10.681  1.00  0.00     0.186 C 
BRANCH  37  38
HETATM   38  C18 UNL     1      10.382  11.233   9.422  1.00  0.00     0.074 C 
BRANCH  38  39
HETATM   39  C19 UNL     1      10.696  12.013   8.169  1.00  0.00    -0.056 A 
HETATM   40  C20 UNL     1      10.971  11.336   6.973  1.00  0.00     0.007 A 
HETATM   41  C21 UNL     1      11.253  12.049   5.806  1.00  0.00     0.001 A 
HETATM   42  C22 UNL     1      11.258  13.442   5.825  1.00  0.00     0.000 A 
HETATM   43  C23 UNL     1      10.984  14.124   7.009  1.00  0.00     0.001 A 
HETATM   44  C24 UNL     1      10.705  13.414   8.178  1.00  0.00     0.007 A 
ENDBRANCH  38  39
ENDBRANCH  37  38
BRANCH  37  45
HETATM   45  C25 UNL     1      11.677  12.184  11.353  1.00  0.00     0.163 C 
HETATM   46  O5  UNL     1      12.360  13.194  11.457  1.00  0.00    -0.648 OA
BRANCH  45  47
HETATM   47  O6  UNL     1      12.111  11.009  11.846  1.00  0.00    -0.775 OA
HETATM   48  H27 UNL     1      12.975  11.206  12.262  1.00  0.00     0.167 HD
ENDBRANCH  45  47
ENDBRANCH  37  45
ENDBRANCH  35  37
ENDBRANCH  32  33
BRANCH  32  49
HETATM   49  C26 UNL     1       8.340   9.265  13.424  1.00  0.00     0.009 C 
HETATM   50  C27 UNL     1       8.225   9.688  14.894  1.00  0.00     0.012 C 
HETATM   51  C28 UNL     1       7.917   7.794  13.317  1.00  0.00     0.012 C 
ENDBRANCH  32  49
ENDBRANCH  30  32
ENDBRANCH  27  28
ENDBRANCH  26  27
ENDBRANCH  13  26
TORSDOF 12
ENDMDL
