MODEL 1
REMARK minimizedAffinity -9.76819038
REMARK CNNscore 0.789254189
REMARK CNNaffinity 7.49671364
REMARK  15 active torsions:
REMARK  status: ('A' for Active; 'I' for Inactive)
REMARK    1  A    between atoms: O1_2  and  C2_3 
REMARK    2  A    between atoms: C3_4  and  O2_5 
REMARK    3  A    between atoms: C4_6  and  O3_7 
REMARK    4  A    between atoms: C5_8  and  O4_9 
REMARK    5  A    between atoms: O4_9  and  C6_10 
REMARK    6  A    between atoms: C6_10  and  C7_11 
REMARK    7  A    between atoms: C6_10  and  C17_22 
REMARK    8  A    between atoms: C7_11  and  C8_12 
REMARK    9  A    between atoms: C19_24  and  C20_25 
REMARK   10  A    between atoms: C20_25  and  C21_26 
REMARK   11  A    between atoms: C22_27  and  O6_28 
REMARK   12  A    between atoms: C26_33  and  C27_34 
REMARK   13  A    between atoms: C28_36  and  O8_37 
REMARK   14  A    between atoms: C29_39  and  C30_40 
REMARK   15  A    between atoms: C30_40  and  O10_41 
ROOT
HETATM    1  C6  UNL     1       0.011   8.248  12.978  1.00  0.00     0.153 C 
ENDROOT
BRANCH   1   2
HETATM    2  O4  UNL     1       0.356   9.212  13.990  1.00  0.00    -0.349 OA
BRANCH   2   3
HETATM    3  C5  UNL     1       0.176   8.752  15.332  1.00  0.00     0.292 C 
HETATM    4  C4  UNL     1       0.963   7.437  15.583  1.00  0.00     0.204 C 
HETATM    5  C3  UNL     1       2.396   7.671  16.103  1.00  0.00     0.183 C 
HETATM    6  C2  UNL     1       2.907   9.033  15.624  1.00  0.00     0.183 C 
HETATM    7  C29 UNL     1       1.960  10.106  16.219  1.00  0.00     0.179 C 
HETATM    8  O9  UNL     1       0.574   9.732  16.284  1.00  0.00    -0.348 OA
BRANCH   4   9
HETATM    9  O3  UNL     1       0.290   6.601  16.544  1.00  0.00    -0.388 OA
HETATM   10  H8  UNL     1       0.105   7.151  17.330  1.00  0.00     0.210 HD
ENDBRANCH   4   9
BRANCH   5  11
HETATM   11  O2  UNL     1       3.217   6.587  15.645  1.00  0.00    -0.390 OA
HETATM   12  H6  UNL     1       2.803   5.767  15.976  1.00  0.00     0.210 HD
ENDBRANCH   5  11
BRANCH   6  13
HETATM   13  O1  UNL     1       4.236   9.379  16.055  1.00  0.00    -0.385 OA
HETATM   14  C1  UNL     1       5.188   9.445  14.996  1.00  0.00     0.202 C 
ENDBRANCH   6  13
BRANCH   7  15
HETATM   15  C30 UNL     1       2.124  11.434  15.479  1.00  0.00     0.198 C 
BRANCH  15  16
HETATM   16  O10 UNL     1       2.185  11.296  14.058  1.00  0.00    -0.398 OA
HETATM   17  H43 UNL     1       1.643  10.514  13.822  1.00  0.00     0.209 HD
ENDBRANCH  15  16
ENDBRANCH   7  15
ENDBRANCH   2   3
ENDBRANCH   1   2
BRANCH   1  18
HETATM   18  C7  UNL     1       0.448   8.787  11.580  1.00  0.00     0.047 C 
BRANCH  18  19
HETATM   19  C8  UNL     1       1.152   7.823  10.547  1.00  0.00    -0.028 C 
HETATM   20  C9  UNL     1       0.672   6.369  10.745  1.00  0.00     0.016 C 
HETATM   21  C10 UNL     1       0.901   8.320   9.059  1.00  0.00    -0.009 C 
HETATM   22  C11 UNL     1      -0.560   8.397   8.601  1.00  0.00     0.011 C 
HETATM   23  C12 UNL     1       1.682   7.486   8.023  1.00  0.00     0.012 C 
HETATM   24  C13 UNL     1       3.177   7.527   8.282  1.00  0.00     0.079 C 
HETATM   25  C14 UNL     1       3.468   7.122   9.703  1.00  0.00     0.131 C 
HETATM   26  O5  UNL     1       4.313   6.262   9.948  1.00  0.00    -0.298 OA
HETATM   27  C15 UNL     1       2.718   7.895  10.791  1.00  0.00     0.060 C 
HETATM   28  C16 UNL     1       3.212   7.437  12.169  1.00  0.00     0.018 C 
ENDBRANCH  18  19
ENDBRANCH   1  18
BRANCH   1  29
HETATM   29  C17 UNL     1      -1.502   7.967  13.004  1.00  0.00    -0.059 C 
HETATM   30  C18 UNL     1      -2.381   9.156  12.738  1.00  0.00     0.046 C 
HETATM   31  C19 UNL     1      -2.011   6.759  13.338  1.00  0.00    -0.017 C 
BRANCH  31  32
HETATM   32  C20 UNL     1      -3.429   6.331  13.652  1.00  0.00     0.072 C 
BRANCH  32  33
HETATM   33  C21 UNL     1      -3.946   5.033  13.072  1.00  0.00     0.014 A 
HETATM   34  C22 UNL     1      -5.316   4.739  13.061  1.00  0.00     0.097 A 
HETATM   35  C23 UNL     1      -5.817   3.536  12.521  1.00  0.00     0.074 A 
HETATM   36 CL1  UNL     1      -7.532   3.262  12.597  1.00  0.00    -0.081 Cl
HETATM   37  C24 UNL     1      -4.947   2.607  11.921  1.00  0.00    -0.021 A 
HETATM   38  C25 UNL     1      -5.445   1.330  11.292  1.00  0.00     0.051 C 
HETATM   39  C26 UNL     1      -3.568   2.915  11.912  1.00  0.00     0.043 A 
HETATM   40  C28 UNL     1      -3.076   4.100  12.491  1.00  0.00     0.088 A 
BRANCH  34  41
HETATM   41  O6  UNL     1      -6.178   5.675  13.587  1.00  0.00    -0.358 OA
HETATM   42  H34 UNL     1      -6.933   5.181  13.977  1.00  0.00     0.217 HD
ENDBRANCH  34  41
BRANCH  39  43
HETATM   43  C27 UNL     1      -2.600   2.025  11.236  1.00  0.00     0.273 C 
HETATM   44  O7  UNL     1      -1.763   2.443  10.445  1.00  0.00    -0.301 OA
ENDBRANCH  39  43
BRANCH  40  45
HETATM   45  O8  UNL     1      -1.736   4.394  12.507  1.00  0.00    -0.359 OA
HETATM   46  H39 UNL     1      -1.196   3.582  12.498  1.00  0.00     0.217 HD
ENDBRANCH  40  45
ENDBRANCH  32  33
ENDBRANCH  31  32
ENDBRANCH   1  29
TORSDOF 15
ENDMDL
MODEL 2
REMARK minimizedAffinity -9.18486977
REMARK CNNscore 0.76320231
REMARK CNNaffinity 7.15991735
REMARK  15 active torsions:
REMARK  status: ('A' for Active; 'I' for Inactive)
REMARK    1  A    between atoms: O1_2  and  C2_3 
REMARK    2  A    between atoms: C3_4  and  O2_5 
REMARK    3  A    between atoms: C4_6  and  O3_7 
REMARK    4  A    between atoms: C5_8  and  O4_9 
REMARK    5  A    between atoms: O4_9  and  C6_10 
REMARK    6  A    between atoms: C6_10  and  C7_11 
REMARK    7  A    between atoms: C6_10  and  C17_22 
REMARK    8  A    between atoms: C7_11  and  C8_12 
REMARK    9  A    between atoms: C19_24  and  C20_25 
REMARK   10  A    between atoms: C20_25  and  C21_26 
REMARK   11  A    between atoms: C22_27  and  O6_28 
REMARK   12  A    between atoms: C26_33  and  C27_34 
REMARK   13  A    between atoms: C28_36  and  O8_37 
REMARK   14  A    between atoms: C29_39  and  C30_40 
REMARK   15  A    between atoms: C30_40  and  O10_41 
ROOT
HETATM    1  C6  UNL     1      -0.185   7.787  13.076  1.00  0.00     0.153 C 
ENDROOT
BRANCH   1   2
HETATM    2  O4  UNL     1       0.143   8.481  14.292  1.00  0.00    -0.349 OA
BRANCH   2   3
HETATM    3  C5  UNL     1       0.380   9.883  14.131  1.00  0.00     0.292 C 
HETATM    4  C4  UNL     1      -0.793  10.718  14.711  1.00  0.00     0.204 C 
HETATM    5  C3  UNL     1      -0.600  11.096  16.194  1.00  0.00     0.183 C 
HETATM    6  C2  UNL     1       0.287  10.054  16.884  1.00  0.00     0.183 C 
HETATM    7  C29 UNL     1       1.658  10.078  16.162  1.00  0.00     0.179 C 
HETATM    8  O9  UNL     1       1.600  10.286  14.742  1.00  0.00    -0.348 OA
BRANCH   4   9
HETATM    9  O3  UNL     1      -0.972  11.946  13.978  1.00  0.00    -0.388 OA
HETATM   10  H8  UNL     1      -0.104  12.390  13.936  1.00  0.00     0.210 HD
ENDBRANCH   4   9
BRANCH   5  11
HETATM   11  O2  UNL     1      -1.897  11.196  16.799  1.00  0.00    -0.390 OA
HETATM   12  H6  UNL     1      -2.393  11.860  16.282  1.00  0.00     0.210 HD
ENDBRANCH   5  11
BRANCH   6  13
HETATM   13  O1  UNL     1       0.555  10.299  18.277  1.00  0.00    -0.385 OA
HETATM   14  C1  UNL     1       1.127  11.579  18.539  1.00  0.00     0.202 C 
ENDBRANCH   6  13
BRANCH   7  15
HETATM   15  C30 UNL     1       2.456   8.816  16.488  1.00  0.00     0.198 C 
BRANCH  15  16
HETATM   16  O10 UNL     1       3.052   8.201  15.343  1.00  0.00    -0.398 OA
HETATM   17  H43 UNL     1       3.252   8.918  14.704  1.00  0.00     0.209 HD
ENDBRANCH  15  16
ENDBRANCH   7  15
ENDBRANCH   2   3
ENDBRANCH   1   2
BRANCH   1  18
HETATM   18  C7  UNL     1       0.382   8.581  11.857  1.00  0.00     0.047 C 
BRANCH  18  19
HETATM   19  C8  UNL     1       1.025   7.808  10.641  1.00  0.00    -0.028 C 
HETATM   20  C9  UNL     1       0.549   6.338  10.618  1.00  0.00     0.016 C 
HETATM   21  C10 UNL     1       0.697   8.546   9.273  1.00  0.00    -0.009 C 
HETATM   22  C11 UNL     1      -0.787   8.693   8.914  1.00  0.00     0.011 C 
HETATM   23  C12 UNL     1       1.418   7.901   8.071  1.00  0.00     0.012 C 
HETATM   24  C13 UNL     1       2.924   7.905   8.253  1.00  0.00     0.079 C 
HETATM   25  C14 UNL     1       3.289   7.268   9.568  1.00  0.00     0.131 C 
HETATM   26  O5  UNL     1       4.142   6.383   9.619  1.00  0.00    -0.298 OA
HETATM   27  C15 UNL     1       2.602   7.844  10.809  1.00  0.00     0.060 C 
HETATM   28  C16 UNL     1       3.168   7.163  12.062  1.00  0.00     0.018 C 
ENDBRANCH  18  19
ENDBRANCH   1  18
BRANCH   1  29
HETATM   29  C17 UNL     1      -1.710   7.619  12.953  1.00  0.00    -0.059 C 
HETATM   30  C18 UNL     1      -2.424   8.735  12.243  1.00  0.00     0.046 C 
HETATM   31  C19 UNL     1      -2.377   6.591  13.525  1.00  0.00    -0.017 C 
BRANCH  31  32
HETATM   32  C20 UNL     1      -3.860   6.359  13.731  1.00  0.00     0.072 C 
BRANCH  32  33
HETATM   33  C21 UNL     1      -4.488   5.106  13.164  1.00  0.00     0.014 A 
HETATM   34  C22 UNL     1      -5.877   4.919  13.184  1.00  0.00     0.097 A 
HETATM   35  C23 UNL     1      -6.482   3.759  12.657  1.00  0.00     0.074 A 
HETATM   36 CL1  UNL     1      -8.210   3.619  12.772  1.00  0.00    -0.081 Cl
HETATM   37  C24 UNL     1      -5.700   2.765  12.040  1.00  0.00    -0.021 A 
HETATM   38  C25 UNL     1      -6.309   1.531  11.424  1.00  0.00     0.051 C 
HETATM   39  C26 UNL     1      -4.302   2.965  11.999  1.00  0.00     0.043 A 
HETATM   40  C28 UNL     1      -3.707   4.108  12.566  1.00  0.00     0.088 A 
BRANCH  34  41
HETATM   41  O6  UNL     1      -6.652   5.919  13.728  1.00  0.00    -0.358 OA
HETATM   42  H34 UNL     1      -7.434   5.486  14.136  1.00  0.00     0.217 HD
ENDBRANCH  34  41
BRANCH  39  43
HETATM   43  C27 UNL     1      -3.421   2.003  11.303  1.00  0.00     0.273 C 
HETATM   44  O7  UNL     1      -3.125   0.916  11.785  1.00  0.00    -0.301 OA
ENDBRANCH  39  43
BRANCH  40  45
HETATM   45  O8  UNL     1      -2.348   4.298  12.551  1.00  0.00    -0.359 OA
HETATM   46  H39 UNL     1      -1.873   3.446  12.531  1.00  0.00     0.217 HD
ENDBRANCH  40  45
ENDBRANCH  32  33
ENDBRANCH  31  32
ENDBRANCH   1  29
TORSDOF 15
ENDMDL
MODEL 3
REMARK minimizedAffinity -9.92608356
REMARK CNNscore 0.725762904
REMARK CNNaffinity 7.60188437
REMARK  15 active torsions:
REMARK  status: ('A' for Active; 'I' for Inactive)
REMARK    1  A    between atoms: O1_2  and  C2_3 
REMARK    2  A    between atoms: C3_4  and  O2_5 
REMARK    3  A    between atoms: C4_6  and  O3_7 
REMARK    4  A    between atoms: C5_8  and  O4_9 
REMARK    5  A    between atoms: O4_9  and  C6_10 
REMARK    6  A    between atoms: C6_10  and  C7_11 
REMARK    7  A    between atoms: C6_10  and  C17_22 
REMARK    8  A    between atoms: C7_11  and  C8_12 
REMARK    9  A    between atoms: C19_24  and  C20_25 
REMARK   10  A    between atoms: C20_25  and  C21_26 
REMARK   11  A    between atoms: C22_27  and  O6_28 
REMARK   12  A    between atoms: C26_33  and  C27_34 
REMARK   13  A    between atoms: C28_36  and  O8_37 
REMARK   14  A    between atoms: C29_39  and  C30_40 
REMARK   15  A    between atoms: C30_40  and  O10_41 
ROOT
HETATM    1  C6  UNL     1      -0.139   8.131  12.886  1.00  0.00     0.153 C 
ENDROOT
BRANCH   1   2
HETATM    2  O4  UNL     1       0.196   9.098  13.897  1.00  0.00    -0.349 OA
BRANCH   2   3
HETATM    3  C5  UNL     1      -0.002   8.646  15.240  1.00  0.00     0.292 C 
HETATM    4  C4  UNL     1       0.831   7.368  15.527  1.00  0.00     0.204 C 
HETATM    5  C3  UNL     1       2.238   7.666  16.083  1.00  0.00     0.183 C 
HETATM    6  C2  UNL     1       2.706   9.043  15.602  1.00  0.00     0.183 C 
HETATM    7  C29 UNL     1       1.699  10.082  16.158  1.00  0.00     0.179 C 
HETATM    8  O9  UNL     1       0.329   9.652  16.190  1.00  0.00    -0.348 OA
BRANCH   4   9
HETATM    9  O3  UNL     1       0.167   6.515  16.480  1.00  0.00    -0.388 OA
HETATM   10  H8  UNL     1      -0.062   7.065  17.253  1.00  0.00     0.210 HD
ENDBRANCH   4   9
BRANCH   5  11
HETATM   11  O2  UNL     1       3.115   6.612  15.660  1.00  0.00    -0.390 OA
HETATM   12  H6  UNL     1       2.726   5.779  15.989  1.00  0.00     0.210 HD
ENDBRANCH   5  11
BRANCH   6  13
HETATM   13  O1  UNL     1       4.008   9.448  16.065  1.00  0.00    -0.385 OA
HETATM   14  C1  UNL     1       5.019   9.395  15.062  1.00  0.00     0.202 C 
ENDBRANCH   6  13
BRANCH   7  15
HETATM   15  C30 UNL     1       1.829  11.408  15.408  1.00  0.00     0.198 C 
BRANCH  15  16
HETATM   16  O10 UNL     1       2.234  11.259  14.045  1.00  0.00    -0.398 OA
HETATM   17  H43 UNL     1       1.882  10.399  13.734  1.00  0.00     0.209 HD
ENDBRANCH  15  16
ENDBRANCH   7  15
ENDBRANCH   2   3
ENDBRANCH   1   2
BRANCH   1  18
HETATM   18  C7  UNL     1       0.235   8.699  11.482  1.00  0.00     0.047 C 
BRANCH  18  19
HETATM   19  C8  UNL     1       1.051   7.812  10.462  1.00  0.00    -0.028 C 
HETATM   20  C9  UNL     1       0.647   6.326  10.590  1.00  0.00     0.016 C 
HETATM   21  C10 UNL     1       0.854   8.342   8.978  1.00  0.00    -0.009 C 
HETATM   22  C11 UNL     1      -0.582   8.351   8.440  1.00  0.00     0.011 C 
HETATM   23  C12 UNL     1       1.739   7.588   7.964  1.00  0.00     0.012 C 
HETATM   24  C13 UNL     1       3.212   7.706   8.310  1.00  0.00     0.079 C 
HETATM   25  C14 UNL     1       3.447   7.271   9.732  1.00  0.00     0.131 C 
HETATM   26  O5  UNL     1       4.326   6.453   9.999  1.00  0.00    -0.298 OA
HETATM   27  C15 UNL     1       2.594   7.964  10.798  1.00  0.00     0.060 C 
HETATM   28  C16 UNL     1       3.037   7.490  12.188  1.00  0.00     0.018 C 
ENDBRANCH  18  19
ENDBRANCH   1  18
BRANCH   1  29
HETATM   29  C17 UNL     1      -1.639   7.789  12.953  1.00  0.00    -0.059 C 
HETATM   30  C18 UNL     1      -2.569   8.909  12.583  1.00  0.00     0.046 C 
HETATM   31  C19 UNL     1      -2.094   6.598  13.403  1.00  0.00    -0.017 C 
BRANCH  31  32
HETATM   32  C20 UNL     1      -3.491   6.142  13.769  1.00  0.00     0.072 C 
BRANCH  32  33
HETATM   33  C21 UNL     1      -4.057   4.913  13.096  1.00  0.00     0.014 A 
HETATM   34  C22 UNL     1      -3.216   3.927  12.561  1.00  0.00     0.097 A 
HETATM   35  C23 UNL     1      -3.726   2.771  11.932  1.00  0.00     0.074 A 
HETATM   36 CL1  UNL     1      -2.588   1.636  11.271  1.00  0.00    -0.081 Cl
HETATM   37  C24 UNL     1      -5.114   2.547  11.870  1.00  0.00    -0.021 A 
HETATM   38  C25 UNL     1      -5.700   1.305  11.248  1.00  0.00     0.051 C 
HETATM   39  C26 UNL     1      -5.960   3.530  12.431  1.00  0.00     0.043 A 
HETATM   40  C28 UNL     1      -5.440   4.699  13.018  1.00  0.00     0.088 A 
BRANCH  34  41
HETATM   41  O6  UNL     1      -1.857   4.110  12.677  1.00  0.00    -0.358 OA
HETATM   42  H34 UNL     1      -1.443   3.700  11.886  1.00  0.00     0.217 HD
ENDBRANCH  34  41
BRANCH  39  43
HETATM   43  C27 UNL     1      -7.425   3.331  12.470  1.00  0.00     0.273 C 
HETATM   44  O7  UNL     1      -8.044   3.209  13.521  1.00  0.00    -0.301 OA
ENDBRANCH  39  43
BRANCH  40  45
HETATM   45  O8  UNL     1      -6.257   5.668  13.543  1.00  0.00    -0.359 OA
HETATM   46  H39 UNL     1      -7.125   5.677  13.098  1.00  0.00     0.217 HD
ENDBRANCH  40  45
ENDBRANCH  32  33
ENDBRANCH  31  32
ENDBRANCH   1  29
TORSDOF 15
ENDMDL
MODEL 4
REMARK minimizedAffinity -8.23746967
REMARK CNNscore 0.710282564
REMARK CNNaffinity 7.07933187
REMARK  15 active torsions:
REMARK  status: ('A' for Active; 'I' for Inactive)
REMARK    1  A    between atoms: O1_2  and  C2_3 
REMARK    2  A    between atoms: C3_4  and  O2_5 
REMARK    3  A    between atoms: C4_6  and  O3_7 
REMARK    4  A    between atoms: C5_8  and  O4_9 
REMARK    5  A    between atoms: O4_9  and  C6_10 
REMARK    6  A    between atoms: C6_10  and  C7_11 
REMARK    7  A    between atoms: C6_10  and  C17_22 
REMARK    8  A    between atoms: C7_11  and  C8_12 
REMARK    9  A    between atoms: C19_24  and  C20_25 
REMARK   10  A    between atoms: C20_25  and  C21_26 
REMARK   11  A    between atoms: C22_27  and  O6_28 
REMARK   12  A    between atoms: C26_33  and  C27_34 
REMARK   13  A    between atoms: C28_36  and  O8_37 
REMARK   14  A    between atoms: C29_39  and  C30_40 
REMARK   15  A    between atoms: C30_40  and  O10_41 
ROOT
HETATM    1  C6  UNL     1       1.670   8.222  13.064  1.00  0.00     0.153 C 
ENDROOT
BRANCH   1   2
HETATM    2  O4  UNL     1       2.376   9.358  13.592  1.00  0.00    -0.349 OA
BRANCH   2   3
HETATM    3  C5  UNL     1       3.193   9.073  14.731  1.00  0.00     0.292 C 
HETATM    4  C4  UNL     1       4.392   8.166  14.344  1.00  0.00     0.204 C 
HETATM    5  C3  UNL     1       5.651   8.957  13.934  1.00  0.00     0.183 C 
HETATM    6  C2  UNL     1       5.245  10.324  13.373  1.00  0.00     0.183 C 
HETATM    7  C29 UNL     1       4.508  11.078  14.508  1.00  0.00     0.179 C 
HETATM    8  O9  UNL     1       3.675  10.262  15.346  1.00  0.00    -0.348 OA
BRANCH   4   9
HETATM    9  O3  UNL     1       4.768   7.304  15.436  1.00  0.00    -0.388 OA
HETATM   10  H8  UNL     1       4.887   7.866  16.225  1.00  0.00     0.210 HD
ENDBRANCH   4   9
BRANCH   5  11
HETATM   11  O2  UNL     1       6.380   8.170  12.982  1.00  0.00    -0.390 OA
HETATM   12  H6  UNL     1       6.571   7.316  13.417  1.00  0.00     0.210 HD
ENDBRANCH   5  11
BRANCH   6  13
HETATM   13  O1  UNL     1       6.335  11.170  12.962  1.00  0.00    -0.385 OA
HETATM   14  C1  UNL     1       7.305  11.398  13.982  1.00  0.00     0.202 C 
ENDBRANCH   6  13
BRANCH   7  15
HETATM   15  C30 UNL     1       3.711  12.253  13.941  1.00  0.00     0.198 C 
BRANCH  15  16
HETATM   16  O10 UNL     1       4.106  12.630  12.620  1.00  0.00    -0.398 OA
HETATM   17  H43 UNL     1       4.422  11.817  12.172  1.00  0.00     0.209 HD
ENDBRANCH  15  16
ENDBRANCH   7  15
ENDBRANCH   2   3
ENDBRANCH   1   2
BRANCH   1  18
HETATM   18  C7  UNL     1       0.983   8.617  11.719  1.00  0.00     0.047 C 
BRANCH  18  19
HETATM   19  C8  UNL     1       1.172   7.712  10.440  1.00  0.00    -0.028 C 
HETATM   20  C9  UNL     1       0.449   6.359  10.619  1.00  0.00     0.016 C 
HETATM   21  C10 UNL     1       0.668   8.471   9.139  1.00  0.00    -0.009 C 
HETATM   22  C11 UNL     1      -0.807   8.889   9.118  1.00  0.00     0.011 C 
HETATM   23  C12 UNL     1       0.957   7.678   7.848  1.00  0.00     0.012 C 
HETATM   24  C13 UNL     1       2.440   7.400   7.681  1.00  0.00     0.079 C 
HETATM   25  C14 UNL     1       2.985   6.732   8.916  1.00  0.00     0.131 C 
HETATM   26  O5  UNL     1       3.652   5.702   8.827  1.00  0.00    -0.298 OA
HETATM   27  C15 UNL     1       2.724   7.452  10.241  1.00  0.00     0.060 C 
HETATM   28  C16 UNL     1       3.438   6.702  11.373  1.00  0.00     0.018 C 
ENDBRANCH  18  19
ENDBRANCH   1  18
BRANCH   1  29
HETATM   29  C17 UNL     1       0.627   7.724  14.081  1.00  0.00    -0.059 C 
HETATM   30  C18 UNL     1       1.166   7.392  15.443  1.00  0.00     0.046 C 
HETATM   31  C19 UNL     1      -0.667   7.508  13.749  1.00  0.00    -0.017 C 
BRANCH  31  32
HETATM   32  C20 UNL     1      -1.783   6.815  14.502  1.00  0.00     0.072 C 
BRANCH  32  33
HETATM   33  C21 UNL     1      -2.692   5.869  13.751  1.00  0.00     0.014 A 
HETATM   34  C22 UNL     1      -4.079   6.072  13.715  1.00  0.00     0.097 A 
HETATM   35  C23 UNL     1      -4.943   5.203  13.017  1.00  0.00     0.074 A 
HETATM   36 CL1  UNL     1      -6.649   5.531  13.075  1.00  0.00    -0.081 Cl
HETATM   37  C24 UNL     1      -4.425   4.122  12.281  1.00  0.00    -0.021 A 
HETATM   38  C25 UNL     1      -5.307   3.195  11.483  1.00  0.00     0.051 C 
HETATM   39  C26 UNL     1      -3.024   3.932  12.297  1.00  0.00     0.043 A 
HETATM   40  C28 UNL     1      -2.177   4.782  13.033  1.00  0.00     0.088 A 
BRANCH  34  41
HETATM   41  O6  UNL     1      -4.585   7.166  14.380  1.00  0.00    -0.358 OA
HETATM   42  H34 UNL     1      -5.478   6.916  14.706  1.00  0.00     0.217 HD
ENDBRANCH  34  41
BRANCH  39  43
HETATM   43  C27 UNL     1      -2.397   2.864  11.490  1.00  0.00     0.273 C 
HETATM   44  O7  UNL     1      -1.593   3.100  10.596  1.00  0.00    -0.301 OA
ENDBRANCH  39  43
BRANCH  40  45
HETATM   45  O8  UNL     1      -0.818   4.589  13.072  1.00  0.00    -0.359 OA
HETATM   46  H39 UNL     1      -0.592   3.650  12.942  1.00  0.00     0.217 HD
ENDBRANCH  40  45
ENDBRANCH  32  33
ENDBRANCH  31  32
ENDBRANCH   1  29
TORSDOF 15
ENDMDL
MODEL 5
REMARK minimizedAffinity -9.77020836
REMARK CNNscore 0.705407441
REMARK CNNaffinity 7.48381996
REMARK  15 active torsions:
REMARK  status: ('A' for Active; 'I' for Inactive)
REMARK    1  A    between atoms: O1_2  and  C2_3 
REMARK    2  A    between atoms: C3_4  and  O2_5 
REMARK    3  A    between atoms: C4_6  and  O3_7 
REMARK    4  A    between atoms: C5_8  and  O4_9 
REMARK    5  A    between atoms: O4_9  and  C6_10 
REMARK    6  A    between atoms: C6_10  and  C7_11 
REMARK    7  A    between atoms: C6_10  and  C17_22 
REMARK    8  A    between atoms: C7_11  and  C8_12 
REMARK    9  A    between atoms: C19_24  and  C20_25 
REMARK   10  A    between atoms: C20_25  and  C21_26 
REMARK   11  A    between atoms: C22_27  and  O6_28 
REMARK   12  A    between atoms: C26_33  and  C27_34 
REMARK   13  A    between atoms: C28_36  and  O8_37 
REMARK   14  A    between atoms: C29_39  and  C30_40 
REMARK   15  A    between atoms: C30_40  and  O10_41 
ROOT
HETATM    1  C6  UNL     1       0.107   7.856  12.981  1.00  0.00     0.153 C 
ENDROOT
BRANCH   1   2
HETATM    2  O4  UNL     1       0.471   8.610  14.151  1.00  0.00    -0.349 OA
BRANCH   2   3
HETATM    3  C5  UNL     1       0.915   7.815  15.255  1.00  0.00     0.292 C 
HETATM    4  C4  UNL     1       2.463   7.836  15.370  1.00  0.00     0.204 C 
HETATM    5  C3  UNL     1       2.996   8.966  16.273  1.00  0.00     0.183 C 
HETATM    6  C2  UNL     1       2.005  10.135  16.280  1.00  0.00     0.183 C 
HETATM    7  C29 UNL     1       0.672   9.595  16.859  1.00  0.00     0.179 C 
HETATM    8  O9  UNL     1       0.342   8.248  16.483  1.00  0.00    -0.348 OA
BRANCH   4   9
HETATM    9  O3  UNL     1       2.964   6.593  15.902  1.00  0.00    -0.388 OA
HETATM   10  H8  UNL     1       2.471   6.408  16.724  1.00  0.00     0.210 HD
ENDBRANCH   4   9
BRANCH   5  11
HETATM   11  O2  UNL     1       4.290   9.350  15.789  1.00  0.00    -0.390 OA
HETATM   12  H6  UNL     1       4.840   8.543  15.798  1.00  0.00     0.210 HD
ENDBRANCH   5  11
BRANCH   6  13
HETATM   13  O1  UNL     1       2.381  11.257  17.101  1.00  0.00    -0.385 OA
HETATM   14  C1  UNL     1       2.607  10.921  18.468  1.00  0.00     0.202 C 
ENDBRANCH   6  13
BRANCH   7  15
HETATM   15  C30 UNL     1      -0.479  10.543  16.527  1.00  0.00     0.198 C 
BRANCH  15  16
HETATM   16  O10 UNL     1      -1.582   9.904  15.879  1.00  0.00    -0.398 OA
HETATM   17  H43 UNL     1      -1.610   8.980  16.207  1.00  0.00     0.209 HD
ENDBRANCH  15  16
ENDBRANCH   7  15
ENDBRANCH   2   3
ENDBRANCH   1   2
BRANCH   1  18
HETATM   18  C7  UNL     1       0.684   8.558  11.713  1.00  0.00     0.047 C 
BRANCH  18  19
HETATM   19  C8  UNL     1       1.099   7.700  10.454  1.00  0.00    -0.028 C 
HETATM   20  C9  UNL     1       0.448   6.301  10.512  1.00  0.00     0.016 C 
HETATM   21  C10 UNL     1       0.723   8.460   9.111  1.00  0.00    -0.009 C 
HETATM   22  C11 UNL     1      -0.760   8.786   8.901  1.00  0.00     0.011 C 
HETATM   23  C12 UNL     1       1.231   7.720   7.857  1.00  0.00     0.012 C 
HETATM   24  C13 UNL     1       2.738   7.540   7.884  1.00  0.00     0.079 C 
HETATM   25  C14 UNL     1       3.157   6.875   9.169  1.00  0.00     0.131 C 
HETATM   26  O5  UNL     1       3.896   5.892   9.153  1.00  0.00    -0.298 OA
HETATM   27  C15 UNL     1       2.678   7.543  10.460  1.00  0.00     0.060 C 
HETATM   28  C16 UNL     1       3.283   6.809  11.664  1.00  0.00     0.018 C 
ENDBRANCH  18  19
ENDBRANCH   1  18
BRANCH   1  29
HETATM   29  C17 UNL     1      -1.423   7.730  12.884  1.00  0.00    -0.059 C 
HETATM   30  C18 UNL     1      -2.142   8.969  12.430  1.00  0.00     0.046 C 
HETATM   31  C19 UNL     1      -2.088   6.617  13.270  1.00  0.00    -0.017 C 
BRANCH  31  32
HETATM   32  C20 UNL     1      -3.566   6.364  13.480  1.00  0.00     0.072 C 
BRANCH  32  33
HETATM   33  C21 UNL     1      -4.179   5.103  12.914  1.00  0.00     0.014 A 
HETATM   34  C22 UNL     1      -3.375   4.050  12.455  1.00  0.00     0.097 A 
HETATM   35  C23 UNL     1      -3.928   2.864  11.928  1.00  0.00     0.074 A 
HETATM   36 CL1  UNL     1      -2.834   1.642  11.352  1.00  0.00    -0.081 Cl
HETATM   37  C24 UNL     1      -5.323   2.680  11.898  1.00  0.00    -0.021 A 
HETATM   38  C25 UNL     1      -5.955   1.410  11.385  1.00  0.00     0.051 C 
HETATM   39  C26 UNL     1      -6.132   3.732  12.383  1.00  0.00     0.043 A 
HETATM   40  C28 UNL     1      -5.568   4.928  12.868  1.00  0.00     0.088 A 
BRANCH  34  41
HETATM   41  O6  UNL     1      -2.010   4.198  12.543  1.00  0.00    -0.358 OA
HETATM   42  H34 UNL     1      -1.619   3.711  11.785  1.00  0.00     0.217 HD
ENDBRANCH  34  41
BRANCH  39  43
HETATM   43  C27 UNL     1      -7.601   3.585  12.453  1.00  0.00     0.273 C 
HETATM   44  O7  UNL     1      -8.154   2.901  13.305  1.00  0.00    -0.301 OA
ENDBRANCH  39  43
BRANCH  40  45
HETATM   45  O8  UNL     1      -6.348   5.963  13.319  1.00  0.00    -0.359 OA
HETATM   46  H39 UNL     1      -7.221   5.963  12.882  1.00  0.00     0.217 HD
ENDBRANCH  40  45
ENDBRANCH  32  33
ENDBRANCH  31  32
ENDBRANCH   1  29
TORSDOF 15
ENDMDL
MODEL 6
REMARK minimizedAffinity -9.54833221
REMARK CNNscore 0.672804952
REMARK CNNaffinity 7.25244141
REMARK  15 active torsions:
REMARK  status: ('A' for Active; 'I' for Inactive)
REMARK    1  A    between atoms: O1_2  and  C2_3 
REMARK    2  A    between atoms: C3_4  and  O2_5 
REMARK    3  A    between atoms: C4_6  and  O3_7 
REMARK    4  A    between atoms: C5_8  and  O4_9 
REMARK    5  A    between atoms: O4_9  and  C6_10 
REMARK    6  A    between atoms: C6_10  and  C7_11 
REMARK    7  A    between atoms: C6_10  and  C17_22 
REMARK    8  A    between atoms: C7_11  and  C8_12 
REMARK    9  A    between atoms: C19_24  and  C20_25 
REMARK   10  A    between atoms: C20_25  and  C21_26 
REMARK   11  A    between atoms: C22_27  and  O6_28 
REMARK   12  A    between atoms: C26_33  and  C27_34 
REMARK   13  A    between atoms: C28_36  and  O8_37 
REMARK   14  A    between atoms: C29_39  and  C30_40 
REMARK   15  A    between atoms: C30_40  and  O10_41 
ROOT
HETATM    1  C6  UNL     1      -0.087   7.689  13.022  1.00  0.00     0.153 C 
ENDROOT
BRANCH   1   2
HETATM    2  O4  UNL     1       0.349   8.310  14.244  1.00  0.00    -0.349 OA
BRANCH   2   3
HETATM    3  C5  UNL     1       0.792   9.661  14.098  1.00  0.00     0.292 C 
HETATM    4  C4  UNL     1       0.015  10.610  15.049  1.00  0.00     0.204 C 
HETATM    5  C3  UNL     1       0.689  10.785  16.425  1.00  0.00     0.183 C 
HETATM    6  C2  UNL     1       1.520   9.542  16.758  1.00  0.00     0.183 C 
HETATM    7  C29 UNL     1       2.608   9.418  15.661  1.00  0.00     0.179 C 
HETATM    8  O9  UNL     1       2.189   9.788  14.338  1.00  0.00    -0.348 OA
BRANCH   4   9
HETATM    9  O3  UNL     1      -0.129  11.924  14.474  1.00  0.00    -0.388 OA
HETATM   10  H8  UNL     1       0.760  12.221  14.198  1.00  0.00     0.210 HD
ENDBRANCH   4   9
BRANCH   5  11
HETATM   11  O2  UNL     1      -0.338  11.032  17.395  1.00  0.00    -0.390 OA
HETATM   12  H6  UNL     1      -0.826  11.821  17.089  1.00  0.00     0.210 HD
ENDBRANCH   5  11
BRANCH   6  13
HETATM   13  O1  UNL     1       2.215   9.585  18.018  1.00  0.00    -0.385 OA
HETATM   14  C1  UNL     1       2.938  10.794  18.239  1.00  0.00     0.202 C 
ENDBRANCH   6  13
BRANCH   7  15
HETATM   15  C30 UNL     1       3.211   8.014  15.661  1.00  0.00     0.198 C 
BRANCH  15  16
HETATM   16  O10 UNL     1       2.318   7.006  16.141  1.00  0.00    -0.398 OA
HETATM   17  H43 UNL     1       1.409   7.294  15.912  1.00  0.00     0.209 HD
ENDBRANCH  15  16
ENDBRANCH   7  15
ENDBRANCH   2   3
ENDBRANCH   1   2
BRANCH   1  18
HETATM   18  C7  UNL     1       0.429   8.519  11.806  1.00  0.00     0.047 C 
BRANCH  18  19
HETATM   19  C8  UNL     1       1.108   7.790  10.581  1.00  0.00    -0.028 C 
HETATM   20  C9  UNL     1       0.698   6.301  10.541  1.00  0.00     0.016 C 
HETATM   21  C10 UNL     1       0.748   8.529   9.222  1.00  0.00    -0.009 C 
HETATM   22  C11 UNL     1      -0.740   8.614   8.862  1.00  0.00     0.011 C 
HETATM   23  C12 UNL     1       1.498   7.931   8.014  1.00  0.00     0.012 C 
HETATM   24  C13 UNL     1       3.003   8.000   8.198  1.00  0.00     0.079 C 
HETATM   25  C14 UNL     1       3.395   7.364   9.506  1.00  0.00     0.131 C 
HETATM   26  O5  UNL     1       4.286   6.517   9.548  1.00  0.00    -0.298 OA
HETATM   27  C15 UNL     1       2.681   7.894  10.753  1.00  0.00     0.060 C 
HETATM   28  C16 UNL     1       3.276   7.225  11.998  1.00  0.00     0.018 C 
ENDBRANCH  18  19
ENDBRANCH   1  18
BRANCH   1  29
HETATM   29  C17 UNL     1      -1.622   7.584  12.996  1.00  0.00    -0.059 C 
HETATM   30  C18 UNL     1      -2.341   8.810  12.508  1.00  0.00     0.046 C 
HETATM   31  C19 UNL     1      -2.286   6.504  13.468  1.00  0.00    -0.017 C 
BRANCH  31  32
HETATM   32  C20 UNL     1      -3.758   6.288  13.753  1.00  0.00     0.072 C 
BRANCH  32  33
HETATM   33  C21 UNL     1      -4.442   5.069  13.177  1.00  0.00     0.014 A 
HETATM   34  C22 UNL     1      -3.700   4.006  12.644  1.00  0.00     0.097 A 
HETATM   35  C23 UNL     1      -4.320   2.859  12.106  1.00  0.00     0.074 A 
HETATM   36 CL1  UNL     1      -3.299   1.621  11.436  1.00  0.00    -0.081 Cl
HETATM   37  C24 UNL     1      -5.720   2.723  12.138  1.00  0.00    -0.021 A 
HETATM   38  C25 UNL     1      -6.421   1.495  11.616  1.00  0.00     0.051 C 
HETATM   39  C26 UNL     1      -6.466   3.785  12.698  1.00  0.00     0.043 A 
HETATM   40  C28 UNL     1      -5.837   4.943  13.194  1.00  0.00     0.088 A 
BRANCH  34  41
HETATM   41  O6  UNL     1      -2.327   4.104  12.669  1.00  0.00    -0.358 OA
HETATM   42  H34 UNL     1      -1.991   3.631  11.876  1.00  0.00     0.217 HD
ENDBRANCH  34  41
BRANCH  39  43
HETATM   43  C27 UNL     1      -7.935   3.686  12.835  1.00  0.00     0.273 C 
HETATM   44  O7  UNL     1      -8.689   4.589  12.495  1.00  0.00    -0.301 OA
ENDBRANCH  39  43
BRANCH  40  45
HETATM   45  O8  UNL     1      -6.557   5.988  13.717  1.00  0.00    -0.359 OA
HETATM   46  H39 UNL     1      -7.449   6.033  13.324  1.00  0.00     0.217 HD
ENDBRANCH  40  45
ENDBRANCH  32  33
ENDBRANCH  31  32
ENDBRANCH   1  29
TORSDOF 15
ENDMDL
MODEL 7
REMARK minimizedAffinity -8.87005329
REMARK CNNscore 0.657583952
REMARK CNNaffinity 7.1618619
REMARK  15 active torsions:
REMARK  status: ('A' for Active; 'I' for Inactive)
REMARK    1  A    between atoms: O1_2  and  C2_3 
REMARK    2  A    between atoms: C3_4  and  O2_5 
REMARK    3  A    between atoms: C4_6  and  O3_7 
REMARK    4  A    between atoms: C5_8  and  O4_9 
REMARK    5  A    between atoms: O4_9  and  C6_10 
REMARK    6  A    between atoms: C6_10  and  C7_11 
REMARK    7  A    between atoms: C6_10  and  C17_22 
REMARK    8  A    between atoms: C7_11  and  C8_12 
REMARK    9  A    between atoms: C19_24  and  C20_25 
REMARK   10  A    between atoms: C20_25  and  C21_26 
REMARK   11  A    between atoms: C22_27  and  O6_28 
REMARK   12  A    between atoms: C26_33  and  C27_34 
REMARK   13  A    between atoms: C28_36  and  O8_37 
REMARK   14  A    between atoms: C29_39  and  C30_40 
REMARK   15  A    between atoms: C30_40  and  O10_41 
ROOT
HETATM    1  C6  UNL     1      -0.105   8.041  13.049  1.00  0.00     0.153 C 
ENDROOT
BRANCH   1   2
HETATM    2  O4  UNL     1       0.228   8.928  14.131  1.00  0.00    -0.349 OA
BRANCH   2   3
HETATM    3  C5  UNL     1       0.862   8.292  15.245  1.00  0.00     0.292 C 
HETATM    4  C4  UNL     1       2.050   9.143  15.772  1.00  0.00     0.204 C 
HETATM    5  C3  UNL     1       1.645  10.143  16.873  1.00  0.00     0.183 C 
HETATM    6  C2  UNL     1       0.171  10.527  16.710  1.00  0.00     0.183 C 
HETATM    7  C29 UNL     1      -0.656   9.225  16.865  1.00  0.00     0.179 C 
HETATM    8  O9  UNL     1      -0.054   8.047  16.306  1.00  0.00    -0.348 OA
BRANCH   4   9
HETATM    9  O3  UNL     1       3.090   8.307  16.316  1.00  0.00    -0.388 OA
HETATM   10  H8  UNL     1       2.673   7.702  16.958  1.00  0.00     0.210 HD
ENDBRANCH   4   9
BRANCH   5  11
HETATM   11  O2  UNL     1       2.518  11.278  16.786  1.00  0.00    -0.390 OA
HETATM   12  H6  UNL     1       3.428  10.935  16.876  1.00  0.00     0.210 HD
ENDBRANCH   5  11
BRANCH   6  13
HETATM   13  O1  UNL     1      -0.338  11.452  17.690  1.00  0.00    -0.385 OA
HETATM   14  C1  UNL     1      -0.444  12.793  17.218  1.00  0.00     0.202 C 
ENDBRANCH   6  13
BRANCH   7  15
HETATM   15  C30 UNL     1      -2.069   9.420  16.315  1.00  0.00     0.198 C 
BRANCH  15  16
HETATM   16  O10 UNL     1      -2.857  10.343  17.069  1.00  0.00    -0.398 OA
HETATM   17  H43 UNL     1      -2.240  11.003  17.449  1.00  0.00     0.209 HD
ENDBRANCH  15  16
ENDBRANCH   7  15
ENDBRANCH   2   3
ENDBRANCH   1   2
BRANCH   1  18
HETATM   18  C7  UNL     1       0.332   8.687  11.697  1.00  0.00     0.047 C 
BRANCH  18  19
HETATM   19  C8  UNL     1       1.040   7.808  10.593  1.00  0.00    -0.028 C 
HETATM   20  C9  UNL     1       0.564   6.341  10.680  1.00  0.00     0.016 C 
HETATM   21  C10 UNL     1       0.787   8.416   9.148  1.00  0.00    -0.009 C 
HETATM   22  C11 UNL     1      -0.674   8.523   8.696  1.00  0.00     0.011 C 
HETATM   23  C12 UNL     1       1.572   7.666   8.051  1.00  0.00     0.012 C 
HETATM   24  C13 UNL     1       3.066   7.693   8.314  1.00  0.00     0.079 C 
HETATM   25  C14 UNL     1       3.358   7.181   9.700  1.00  0.00     0.131 C 
HETATM   26  O5  UNL     1       4.206   6.307   9.878  1.00  0.00    -0.298 OA
HETATM   27  C15 UNL     1       2.605   7.866  10.843  1.00  0.00     0.060 C 
HETATM   28  C16 UNL     1       3.101   7.305  12.182  1.00  0.00     0.018 C 
ENDBRANCH  18  19
ENDBRANCH   1  18
BRANCH   1  29
HETATM   29  C17 UNL     1      -1.616   7.747  13.047  1.00  0.00    -0.059 C 
HETATM   30  C18 UNL     1      -2.477   8.816  12.436  1.00  0.00     0.046 C 
HETATM   31  C19 UNL     1      -2.144   6.652  13.640  1.00  0.00    -0.017 C 
BRANCH  31  32
HETATM   32  C20 UNL     1      -3.580   6.290  13.960  1.00  0.00     0.072 C 
BRANCH  32  33
HETATM   33  C21 UNL     1      -4.193   5.079  13.294  1.00  0.00     0.014 A 
HETATM   34  C22 UNL     1      -5.578   4.865  13.312  1.00  0.00     0.097 A 
HETATM   35  C23 UNL     1      -6.169   3.744  12.694  1.00  0.00     0.074 A 
HETATM   36 CL1  UNL     1      -7.893   3.562  12.815  1.00  0.00    -0.081 Cl
HETATM   37  C24 UNL     1      -5.378   2.821  11.985  1.00  0.00    -0.021 A 
HETATM   38  C25 UNL     1      -5.972   1.634  11.271  1.00  0.00     0.051 C 
HETATM   39  C26 UNL     1      -3.983   3.050  11.947  1.00  0.00     0.043 A 
HETATM   40  C28 UNL     1      -3.402   4.151  12.604  1.00  0.00     0.088 A 
BRANCH  34  41
HETATM   41  O6  UNL     1      -6.363   5.800  13.948  1.00  0.00    -0.358 OA
HETATM   42  H34 UNL     1      -7.133   5.319  14.325  1.00  0.00     0.217 HD
ENDBRANCH  34  41
BRANCH  39  43
HETATM   43  C27 UNL     1      -3.094   2.167  11.162  1.00  0.00     0.273 C 
HETATM   44  O7  UNL     1      -1.961   1.880  11.529  1.00  0.00    -0.301 OA
ENDBRANCH  39  43
BRANCH  40  45
HETATM   45  O8  UNL     1      -2.046   4.366  12.591  1.00  0.00    -0.359 OA
HETATM   46  H39 UNL     1      -1.557   3.528  12.493  1.00  0.00     0.217 HD
ENDBRANCH  40  45
ENDBRANCH  32  33
ENDBRANCH  31  32
ENDBRANCH   1  29
TORSDOF 15
ENDMDL
MODEL 8
REMARK minimizedAffinity -9.1155777
REMARK CNNscore 0.546823978
REMARK CNNaffinity 7.06833982
REMARK  15 active torsions:
REMARK  status: ('A' for Active; 'I' for Inactive)
REMARK    1  A    between atoms: O1_2  and  C2_3 
REMARK    2  A    between atoms: C3_4  and  O2_5 
REMARK    3  A    between atoms: C4_6  and  O3_7 
REMARK    4  A    between atoms: C5_8  and  O4_9 
REMARK    5  A    between atoms: O4_9  and  C6_10 
REMARK    6  A    between atoms: C6_10  and  C7_11 
REMARK    7  A    between atoms: C6_10  and  C17_22 
REMARK    8  A    between atoms: C7_11  and  C8_12 
REMARK    9  A    between atoms: C19_24  and  C20_25 
REMARK   10  A    between atoms: C20_25  and  C21_26 
REMARK   11  A    between atoms: C22_27  and  O6_28 
REMARK   12  A    between atoms: C26_33  and  C27_34 
REMARK   13  A    between atoms: C28_36  and  O8_37 
REMARK   14  A    between atoms: C29_39  and  C30_40 
REMARK   15  A    between atoms: C30_40  and  O10_41 
ROOT
HETATM    1  C6  UNL     1       1.121   6.663  13.908  1.00  0.00     0.153 C 
ENDROOT
BRANCH   1   2
HETATM    2  O4  UNL     1       1.838   7.813  14.392  1.00  0.00    -0.349 OA
BRANCH   2   3
HETATM    3  C5  UNL     1       2.782   7.530  15.429  1.00  0.00     0.292 C 
HETATM    4  C4  UNL     1       4.216   7.947  15.007  1.00  0.00     0.204 C 
HETATM    5  C3  UNL     1       4.574   9.394  15.398  1.00  0.00     0.183 C 
HETATM    6  C2  UNL     1       3.300  10.241  15.476  1.00  0.00     0.183 C 
HETATM    7  C29 UNL     1       2.407   9.614  16.577  1.00  0.00     0.179 C 
HETATM    8  O9  UNL     1       2.438   8.179  16.647  1.00  0.00    -0.348 OA
BRANCH   4   9
HETATM    9  O3  UNL     1       5.207   7.086  15.603  1.00  0.00    -0.388 OA
HETATM   10  H8  UNL     1       5.029   7.058  16.563  1.00  0.00     0.210 HD
ENDBRANCH   4   9
BRANCH   5  11
HETATM   11  O2  UNL     1       5.507   9.899  14.431  1.00  0.00    -0.390 OA
HETATM   12  H6  UNL     1       6.268   9.287  14.435  1.00  0.00     0.210 HD
ENDBRANCH   5  11
BRANCH   6  13
HETATM   13  O1  UNL     1       3.497  11.618  15.847  1.00  0.00    -0.385 OA
HETATM   14  C1  UNL     1       3.155  12.547  14.821  1.00  0.00     0.202 C 
ENDBRANCH   6  13
BRANCH   7  15
HETATM   15  C30 UNL     1       0.968  10.114  16.449  1.00  0.00     0.198 C 
BRANCH  15  16
HETATM   16  O10 UNL     1       0.195   9.951  17.640  1.00  0.00    -0.398 OA
HETATM   17  H43 UNL     1       0.814  10.022  18.396  1.00  0.00     0.209 HD
ENDBRANCH  15  16
ENDBRANCH   7  15
ENDBRANCH   2   3
ENDBRANCH   1   2
BRANCH   1  18
HETATM   18  C7  UNL     1       1.729   6.208  12.545  1.00  0.00     0.047 C 
BRANCH  18  19
HETATM   19  C8  UNL     1       2.138   7.283  11.464  1.00  0.00    -0.028 C 
HETATM   20  C9  UNL     1       2.089   8.705  12.066  1.00  0.00     0.016 C 
HETATM   21  C10 UNL     1       3.572   6.956  10.864  1.00  0.00    -0.009 C 
HETATM   22  C11 UNL     1       4.739   6.925  11.858  1.00  0.00     0.011 C 
HETATM   23  C12 UNL     1       3.954   7.903   9.708  1.00  0.00     0.012 C 
HETATM   24  C13 UNL     1       2.948   7.838   8.574  1.00  0.00     0.079 C 
HETATM   25  C14 UNL     1       1.558   8.082   9.099  1.00  0.00     0.131 C 
HETATM   26  O5  UNL     1       0.824   8.913   8.565  1.00  0.00    -0.298 OA
HETATM   27  C15 UNL     1       1.110   7.190  10.260  1.00  0.00     0.060 C 
HETATM   28  C16 UNL     1      -0.357   7.493  10.593  1.00  0.00     0.018 C 
ENDBRANCH  18  19
ENDBRANCH   1  18
BRANCH   1  29
HETATM   29  C17 UNL     1      -0.374   6.995  13.752  1.00  0.00    -0.059 C 
HETATM   30  C18 UNL     1      -0.755   8.412  14.078  1.00  0.00     0.046 C 
HETATM   31  C19 UNL     1      -1.298   6.059  13.437  1.00  0.00    -0.017 C 
BRANCH  31  32
HETATM   32  C20 UNL     1      -2.812   6.109  13.463  1.00  0.00     0.072 C 
BRANCH  32  33
HETATM   33  C21 UNL     1      -3.590   4.935  12.912  1.00  0.00     0.014 A 
HETATM   34  C22 UNL     1      -2.934   3.809  12.395  1.00  0.00     0.097 A 
HETATM   35  C23 UNL     1      -3.642   2.703  11.880  1.00  0.00     0.074 A 
HETATM   36 CL1  UNL     1      -2.723   1.380  11.228  1.00  0.00    -0.081 Cl
HETATM   37  C24 UNL     1      -5.049   2.676  11.921  1.00  0.00    -0.021 A 
HETATM   38  C25 UNL     1      -5.844   1.495  11.424  1.00  0.00     0.051 C 
HETATM   39  C26 UNL     1      -5.709   3.801  12.465  1.00  0.00     0.043 A 
HETATM   40  C28 UNL     1      -4.991   4.916  12.937  1.00  0.00     0.088 A 
BRANCH  34  41
HETATM   41  O6  UNL     1      -1.558   3.803  12.413  1.00  0.00    -0.358 OA
HETATM   42  H34 UNL     1      -1.263   3.292  11.627  1.00  0.00     0.217 HD
ENDBRANCH  34  41
BRANCH  39  43
HETATM   43  C27 UNL     1      -7.180   3.816  12.610  1.00  0.00     0.273 C 
HETATM   44  O7  UNL     1      -7.824   2.813  12.893  1.00  0.00    -0.301 OA
ENDBRANCH  39  43
BRANCH  40  45
HETATM   45  O8  UNL     1      -5.626   6.022  13.444  1.00  0.00    -0.359 OA
HETATM   46  H39 UNL     1      -6.514   6.128  13.055  1.00  0.00     0.217 HD
ENDBRANCH  40  45
ENDBRANCH  32  33
ENDBRANCH  31  32
ENDBRANCH   1  29
TORSDOF 15
ENDMDL
MODEL 9
REMARK minimizedAffinity -9.71893215
REMARK CNNscore 0.525170445
REMARK CNNaffinity 7.013515
REMARK  15 active torsions:
REMARK  status: ('A' for Active; 'I' for Inactive)
REMARK    1  A    between atoms: O1_2  and  C2_3 
REMARK    2  A    between atoms: C3_4  and  O2_5 
REMARK    3  A    between atoms: C4_6  and  O3_7 
REMARK    4  A    between atoms: C5_8  and  O4_9 
REMARK    5  A    between atoms: O4_9  and  C6_10 
REMARK    6  A    between atoms: C6_10  and  C7_11 
REMARK    7  A    between atoms: C6_10  and  C17_22 
REMARK    8  A    between atoms: C7_11  and  C8_12 
REMARK    9  A    between atoms: C19_24  and  C20_25 
REMARK   10  A    between atoms: C20_25  and  C21_26 
REMARK   11  A    between atoms: C22_27  and  O6_28 
REMARK   12  A    between atoms: C26_33  and  C27_34 
REMARK   13  A    between atoms: C28_36  and  O8_37 
REMARK   14  A    between atoms: C29_39  and  C30_40 
REMARK   15  A    between atoms: C30_40  and  O10_41 
ROOT
HETATM    1  C6  UNL     1       0.070   7.435  12.760  1.00  0.00     0.153 C 
ENDROOT
BRANCH   1   2
HETATM    2  O4  UNL     1      -0.740   8.268  13.609  1.00  0.00    -0.349 OA
BRANCH   2   3
HETATM    3  C5  UNL     1      -0.774   7.862  14.980  1.00  0.00     0.292 C 
HETATM    4  C4  UNL     1       0.647   7.885  15.605  1.00  0.00     0.204 C 
HETATM    5  C3  UNL     1       1.007   9.235  16.257  1.00  0.00     0.183 C 
HETATM    6  C2  UNL     1       0.225  10.365  15.580  1.00  0.00     0.183 C 
HETATM    7  C29 UNL     1      -1.280  10.069  15.802  1.00  0.00     0.179 C 
HETATM    8  O9  UNL     1      -1.646   8.681  15.752  1.00  0.00    -0.348 OA
BRANCH   4   9
HETATM    9  O3  UNL     1       0.788   6.870  16.618  1.00  0.00    -0.388 OA
HETATM   10  H8  UNL     1       0.041   6.971  17.239  1.00  0.00     0.210 HD
ENDBRANCH   4   9
BRANCH   5  11
HETATM   11  O2  UNL     1       2.427   9.414  16.153  1.00  0.00    -0.390 OA
HETATM   12  H6  UNL     1       2.836   8.641  16.588  1.00  0.00     0.210 HD
ENDBRANCH   5  11
BRANCH   6  13
HETATM   13  O1  UNL     1       0.464  11.683  16.108  1.00  0.00    -0.385 OA
HETATM   14  C1  UNL     1       1.238  12.517  15.250  1.00  0.00     0.202 C 
ENDBRANCH   6  13
BRANCH   7  15
HETATM   15  C30 UNL     1      -2.134  10.885  14.831  1.00  0.00     0.198 C 
BRANCH  15  16
HETATM   16  O10 UNL     1      -1.484  11.166  13.590  1.00  0.00    -0.398 OA
HETATM   17  H43 UNL     1      -0.877  10.417  13.408  1.00  0.00     0.209 HD
ENDBRANCH  15  16
ENDBRANCH   7  15
ENDBRANCH   2   3
ENDBRANCH   1   2
BRANCH   1  18
HETATM   18  C7  UNL     1       0.086   8.028  11.317  1.00  0.00     0.047 C 
BRANCH  18  19
HETATM   19  C8  UNL     1       1.230   7.621  10.308  1.00  0.00    -0.028 C 
HETATM   20  C9  UNL     1       1.242   6.092  10.089  1.00  0.00     0.016 C 
HETATM   21  C10 UNL     1       1.070   8.403   8.935  1.00  0.00    -0.009 C 
HETATM   22  C11 UNL     1      -0.238   8.177   8.168  1.00  0.00     0.011 C 
HETATM   23  C12 UNL     1       2.242   8.137   7.968  1.00  0.00     0.012 C 
HETATM   24  C13 UNL     1       3.573   8.535   8.579  1.00  0.00     0.079 C 
HETATM   25  C14 UNL     1       3.751   7.866   9.916  1.00  0.00     0.131 C 
HETATM   26  O5  UNL     1       4.785   7.252  10.176  1.00  0.00    -0.298 OA
HETATM   27  C15 UNL     1       2.620   8.070  10.927  1.00  0.00     0.060 C 
HETATM   28  C16 UNL     1       3.011   7.422  12.262  1.00  0.00     0.018 C 
ENDBRANCH  18  19
ENDBRANCH   1  18
BRANCH   1  29
HETATM   29  C17 UNL     1      -0.475   5.996  12.751  1.00  0.00    -0.059 C 
HETATM   30  C18 UNL     1       0.423   4.966  13.376  1.00  0.00     0.046 C 
HETATM   31  C19 UNL     1      -1.634   5.661  12.139  1.00  0.00    -0.017 C 
BRANCH  31  32
HETATM   32  C20 UNL     1      -2.228   4.307  11.808  1.00  0.00     0.072 C 
BRANCH  32  33
HETATM   33  C21 UNL     1      -3.692   4.063  12.094  1.00  0.00     0.014 A 
HETATM   34  C22 UNL     1      -4.338   2.907  11.633  1.00  0.00     0.097 A 
HETATM   35  C23 UNL     1      -5.701   2.660  11.893  1.00  0.00     0.074 A 
HETATM   36 CL1  UNL     1      -6.405   1.212  11.237  1.00  0.00    -0.081 Cl
HETATM   37  C24 UNL     1      -6.451   3.554  12.680  1.00  0.00    -0.021 A 
HETATM   38  C25 UNL     1      -7.899   3.305  13.020  1.00  0.00     0.051 C 
HETATM   39  C26 UNL     1      -5.793   4.707  13.165  1.00  0.00     0.043 A 
HETATM   40  C28 UNL     1      -4.442   4.963  12.863  1.00  0.00     0.088 A 
BRANCH  34  41
HETATM   41  O6  UNL     1      -3.592   1.997  10.918  1.00  0.00    -0.358 OA
HETATM   42  H34 UNL     1      -4.198   1.578  10.268  1.00  0.00     0.217 HD
ENDBRANCH  34  41
BRANCH  39  43
HETATM   43  C27 UNL     1      -6.492   5.655  14.058  1.00  0.00     0.273 C 
HETATM   44  O7  UNL     1      -6.969   6.709  13.655  1.00  0.00    -0.301 OA
ENDBRANCH  39  43
BRANCH  40  45
HETATM   45  O8  UNL     1      -3.804   6.092  13.310  1.00  0.00    -0.359 OA
HETATM   46  H39 UNL     1      -4.434   6.825  13.440  1.00  0.00     0.217 HD
ENDBRANCH  40  45
ENDBRANCH  32  33
ENDBRANCH  31  32
ENDBRANCH   1  29
TORSDOF 15
ENDMDL
