MODEL 1
REMARK minimizedAffinity -8.4664917
REMARK CNNscore 0.774676561
REMARK CNNaffinity 6.82117891
REMARK  13 active torsions:
REMARK  status: ('A' for Active; 'I' for Inactive)
REMARK    1  A    between atoms: C19_21  and  O3_22 
REMARK    2  A    between atoms: C19_21  and  C20_23 
REMARK    3  A    between atoms: C20_23  and  C21_25 
REMARK    4  A    between atoms: C21_25  and  O5_26 
REMARK    5  A    between atoms: O5_26  and  C22_27 
REMARK    6  A    between atoms: C22_27  and  C23_29 
REMARK    7  A    between atoms: C23_29  and  C24_30 
REMARK    8  A    between atoms: C24_30  and  C25_31 
REMARK       I    between atoms: C25_31  and  N1_33 
REMARK    9  A    between atoms: N1_33  and  C26_34 
REMARK   10  A    between atoms: C26_34  and  C27_35 
REMARK   11  A    between atoms: C27_35  and  C28_36 
REMARK   12  A    between atoms: C31_39  and  O8_40 
REMARK   13  A    between atoms: C32_41  and  O9_42 
ROOT
HETATM    1  C20 UNL     1      -1.034  52.200 -12.147  1.00  0.00     0.185 C 
HETATM    2  O4  UNL     1      -0.327  52.588 -13.085  1.00  0.00    -0.292 OA
ENDROOT
BRANCH   1   3
HETATM    3  C19 UNL     1      -0.546  52.298 -10.663  1.00  0.00     0.128 C 
HETATM    4  C14 UNL     1      -0.425  53.763 -10.127  1.00  0.00     0.005 C 
HETATM    5  C13 UNL     1      -0.326  53.774  -8.584  1.00  0.00     0.091 C 
HETATM    6  C15 UNL     1      -1.610  54.658 -10.533  1.00  0.00     0.019 C 
HETATM    7  C16 UNL     1       0.894  54.236 -10.774  1.00  0.00     0.002 C 
HETATM    8  C12 UNL     1       0.177  55.088  -8.033  1.00  0.00     0.133 C 
HETATM    9  C11 UNL     1       1.420  55.712  -8.651  1.00  0.00     0.072 C 
HETATM   10  O2  UNL     1      -0.347  55.590  -7.037  1.00  0.00    -0.297 OA
HETATM   11  C2  UNL     1       2.735  55.448  -7.827  1.00  0.00    -0.009 C 
HETATM   12  C10 UNL     1       1.465  55.547 -10.194  1.00  0.00     0.003 C 
HETATM   13  C1  UNL     1       2.843  56.543  -6.728  1.00  0.00     0.021 C 
HETATM   14  C3  UNL     1       2.756  54.064  -7.125  1.00  0.00     0.022 C 
HETATM   15  C7  UNL     1       3.962  55.579  -8.724  1.00  0.00    -0.067 C 
HETATM   16  C4  UNL     1       4.098  53.731  -6.476  1.00  0.00     0.084 C 
HETATM   17  C5  UNL     1       5.234  53.884  -7.457  1.00  0.00     0.149 C 
HETATM   18  O1  UNL     1       6.282  53.249  -7.353  1.00  0.00    -0.293 OA
HETATM   19  C6  UNL     1       5.088  54.862  -8.561  1.00  0.00     0.053 C 
HETATM   20  C8  UNL     1       3.818  56.532  -9.877  1.00  0.00     0.035 C 
HETATM   21  C9  UNL     1       2.808  55.942 -10.851  1.00  0.00     0.010 C 
HETATM   22  C17 UNL     1       1.813  53.005 -10.743  1.00  0.00     0.009 C 
HETATM   23  C18 UNL     1       0.906  51.781 -10.575  1.00  0.00     0.047 C 
BRANCH   3  24
HETATM   24  O3  UNL     1      -1.348  51.524  -9.781  1.00  0.00    -0.381 OA
HETATM   25  H25 UNL     1      -1.302  50.596 -10.078  1.00  0.00     0.211 HD
ENDBRANCH   3  24
ENDBRANCH   1   3
BRANCH   1  26
HETATM   26  C21 UNL     1      -2.452  51.716 -12.421  1.00  0.00     0.260 C 
BRANCH  26  27
HETATM   27  O5  UNL     1      -2.493  50.749 -13.470  1.00  0.00    -0.314 OA
BRANCH  27  28
HETATM   28  C22 UNL     1      -2.874  51.246 -14.681  1.00  0.00     0.259 C 
HETATM   29  O6  UNL     1      -3.767  52.064 -14.857  1.00  0.00    -0.265 OA
BRANCH  28  30
HETATM   30  C23 UNL     1      -2.071  50.606 -15.786  1.00  0.00     0.120 C 
BRANCH  30  31
HETATM   31  C24 UNL     1      -2.632  50.990 -17.151  1.00  0.00     0.112 C 
BRANCH  31  32
HETATM   32  C25 UNL     1      -2.000  50.164 -18.254  1.00  0.00     0.218 C 
HETATM   33  O7  UNL     1      -1.138  49.317 -18.045  1.00  0.00    -0.274 OA
HETATM   34  N1  UNL     1      -2.515  50.428 -19.505  1.00  0.00    -0.361 N 
HETATM   35  H32 UNL     1      -3.033  51.287 -19.636  1.00  0.00     0.162 HD
BRANCH  34  36
HETATM   36  C26 UNL     1      -1.945  49.817 -20.693  1.00  0.00     0.127 C 
BRANCH  36  37
HETATM   37  C27 UNL     1      -0.412  49.871 -20.721  1.00  0.00     0.058 C 
BRANCH  37  38
HETATM   38  C28 UNL     1       0.118  51.236 -21.102  1.00  0.00    -0.054 A 
HETATM   39  C29 UNL     1       0.082  51.657 -22.443  1.00  0.00     0.010 A 
HETATM   40  C30 UNL     1       0.585  52.907 -22.813  1.00  0.00     0.040 A 
HETATM   41  C31 UNL     1       1.120  53.735 -21.839  1.00  0.00     0.098 A 
HETATM   42  C32 UNL     1       1.160  53.334 -20.506  1.00  0.00     0.099 A 
HETATM   43  C33 UNL     1       0.665  52.088 -20.128  1.00  0.00     0.046 A 
BRANCH  41  44
HETATM   44  O8  UNL     1       1.610  54.959 -22.199  1.00  0.00    -0.358 OA
HETATM   45  H39 UNL     1       1.920  55.355 -21.360  1.00  0.00     0.217 HD
ENDBRANCH  41  44
BRANCH  42  46
HETATM   46  O9  UNL     1       1.698  54.205 -19.597  1.00  0.00    -0.358 OA
HETATM   47  H40 UNL     1       1.644  53.795 -18.718  1.00  0.00     0.217 HD
ENDBRANCH  42  46
ENDBRANCH  37  38
ENDBRANCH  36  37
ENDBRANCH  34  36
ENDBRANCH  31  32
ENDBRANCH  30  31
ENDBRANCH  28  30
ENDBRANCH  27  28
ENDBRANCH  26  27
ENDBRANCH   1  26
TORSDOF 13
ENDMDL
MODEL 2
REMARK minimizedAffinity -8.10002327
REMARK CNNscore 0.676809847
REMARK CNNaffinity 6.91682053
REMARK  13 active torsions:
REMARK  status: ('A' for Active; 'I' for Inactive)
REMARK    1  A    between atoms: C19_21  and  O3_22 
REMARK    2  A    between atoms: C19_21  and  C20_23 
REMARK    3  A    between atoms: C20_23  and  C21_25 
REMARK    4  A    between atoms: C21_25  and  O5_26 
REMARK    5  A    between atoms: O5_26  and  C22_27 
REMARK    6  A    between atoms: C22_27  and  C23_29 
REMARK    7  A    between atoms: C23_29  and  C24_30 
REMARK    8  A    between atoms: C24_30  and  C25_31 
REMARK       I    between atoms: C25_31  and  N1_33 
REMARK    9  A    between atoms: N1_33  and  C26_34 
REMARK   10  A    between atoms: C26_34  and  C27_35 
REMARK   11  A    between atoms: C27_35  and  C28_36 
REMARK   12  A    between atoms: C31_39  and  O8_40 
REMARK   13  A    between atoms: C32_41  and  O9_42 
ROOT
HETATM    1  C20 UNL     1      -1.519  53.090 -10.233  1.00  0.00     0.185 C 
HETATM    2  O4  UNL     1      -1.044  53.028 -11.374  1.00  0.00    -0.292 OA
ENDROOT
BRANCH   1   3
HETATM    3  C19 UNL     1      -0.617  53.387  -8.989  1.00  0.00     0.128 C 
HETATM    4  C14 UNL     1       0.096  54.779  -9.036  1.00  0.00     0.005 C 
HETATM    5  C13 UNL     1       0.637  55.163  -7.640  1.00  0.00     0.091 C 
HETATM    6  C15 UNL     1      -0.823  55.915  -9.520  1.00  0.00     0.019 C 
HETATM    7  C16 UNL     1       1.249  54.518 -10.029  1.00  0.00     0.002 C 
HETATM    8  C12 UNL     1       1.654  56.279  -7.686  1.00  0.00     0.133 C 
HETATM    9  C11 UNL     1       2.794  56.189  -8.692  1.00  0.00     0.072 C 
HETATM   10  O2  UNL     1       1.622  57.191  -6.857  1.00  0.00    -0.297 OA
HETATM   11  C2  UNL     1       4.144  55.671  -8.071  1.00  0.00    -0.009 C 
HETATM   12  C10 UNL     1       2.336  55.613 -10.059  1.00  0.00     0.003 C 
HETATM   13  C1  UNL     1       4.895  56.892  -7.467  1.00  0.00     0.021 C 
HETATM   14  C3  UNL     1       3.944  54.628  -6.940  1.00  0.00     0.022 C 
HETATM   15  C7  UNL     1       5.037  55.078  -9.155  1.00  0.00    -0.067 C 
HETATM   16  C4  UNL     1       5.247  53.993  -6.460  1.00  0.00     0.084 C 
HETATM   17  C5  UNL     1       6.040  53.429  -7.613  1.00  0.00     0.149 C 
HETATM   18  O1  UNL     1       6.826  52.495  -7.476  1.00  0.00    -0.293 OA
HETATM   19  C6  UNL     1       5.886  54.056  -8.948  1.00  0.00     0.053 C 
HETATM   20  C8  UNL     1       4.863  55.667 -10.526  1.00  0.00     0.035 C 
HETATM   21  C9  UNL     1       3.485  55.271 -11.037  1.00  0.00     0.010 C 
HETATM   22  C17 UNL     1       1.716  53.086  -9.725  1.00  0.00     0.009 C 
HETATM   23  C18 UNL     1       0.567  52.396  -8.979  1.00  0.00     0.047 C 
BRANCH   3  24
HETATM   24  O3  UNL     1      -1.325  53.246  -7.765  1.00  0.00    -0.381 OA
HETATM   25  H25 UNL     1      -1.652  52.329  -7.718  1.00  0.00     0.211 HD
ENDBRANCH   3  24
ENDBRANCH   1   3
BRANCH   1  26
HETATM   26  C21 UNL     1      -3.026  52.986 -10.037  1.00  0.00     0.260 C 
BRANCH  26  27
HETATM   27  O5  UNL     1      -3.693  52.571 -11.228  1.00  0.00    -0.314 OA
BRANCH  27  28
HETATM   28  C22 UNL     1      -4.025  51.248 -11.256  1.00  0.00     0.259 C 
HETATM   29  O6  UNL     1      -4.704  50.675 -10.416  1.00  0.00    -0.265 OA
BRANCH  28  30
HETATM   30  C23 UNL     1      -3.393  50.575 -12.450  1.00  0.00     0.120 C 
BRANCH  30  31
HETATM   31  C24 UNL     1      -3.237  51.560 -13.603  1.00  0.00     0.112 C 
BRANCH  31  32
HETATM   32  C25 UNL     1      -2.429  50.954 -14.734  1.00  0.00     0.218 C 
HETATM   33  O7  UNL     1      -1.227  50.726 -14.649  1.00  0.00    -0.274 OA
HETATM   34  N1  UNL     1      -3.181  50.650 -15.848  1.00  0.00    -0.361 N 
HETATM   35  H32 UNL     1      -4.093  51.080 -15.940  1.00  0.00     0.162 HD
BRANCH  34  36
HETATM   36  C26 UNL     1      -2.553  50.175 -17.069  1.00  0.00     0.127 C 
BRANCH  36  37
HETATM   37  C27 UNL     1      -2.934  51.003 -18.303  1.00  0.00     0.058 C 
BRANCH  37  38
HETATM   38  C28 UNL     1      -1.727  51.534 -19.046  1.00  0.00    -0.054 A 
HETATM   39  C29 UNL     1      -1.676  51.461 -20.449  1.00  0.00     0.010 A 
HETATM   40  C30 UNL     1      -0.561  51.929 -21.148  1.00  0.00     0.040 A 
HETATM   41  C31 UNL     1       0.500  52.472 -20.442  1.00  0.00     0.098 A 
HETATM   42  C32 UNL     1       0.464  52.554 -19.053  1.00  0.00     0.099 A 
HETATM   43  C33 UNL     1      -0.642  52.087 -18.346  1.00  0.00     0.046 A 
BRANCH  41  44
HETATM   44  O8  UNL     1       1.590  52.933 -21.126  1.00  0.00    -0.358 OA
HETATM   45  H39 UNL     1       2.191  53.269 -20.430  1.00  0.00     0.217 HD
ENDBRANCH  41  44
BRANCH  42  46
HETATM   46  O9  UNL     1       1.545  53.107 -18.421  1.00  0.00    -0.358 OA
HETATM   47  H40 UNL     1       1.369  53.107 -17.466  1.00  0.00     0.217 HD
ENDBRANCH  42  46
ENDBRANCH  37  38
ENDBRANCH  36  37
ENDBRANCH  34  36
ENDBRANCH  31  32
ENDBRANCH  30  31
ENDBRANCH  28  30
ENDBRANCH  27  28
ENDBRANCH  26  27
ENDBRANCH   1  26
TORSDOF 13
ENDMDL
MODEL 3
REMARK minimizedAffinity -9.36676788
REMARK CNNscore 0.672828794
REMARK CNNaffinity 7.19179678
REMARK  13 active torsions:
REMARK  status: ('A' for Active; 'I' for Inactive)
REMARK    1  A    between atoms: C19_21  and  O3_22 
REMARK    2  A    between atoms: C19_21  and  C20_23 
REMARK    3  A    between atoms: C20_23  and  C21_25 
REMARK    4  A    between atoms: C21_25  and  O5_26 
REMARK    5  A    between atoms: O5_26  and  C22_27 
REMARK    6  A    between atoms: C22_27  and  C23_29 
REMARK    7  A    between atoms: C23_29  and  C24_30 
REMARK    8  A    between atoms: C24_30  and  C25_31 
REMARK       I    between atoms: C25_31  and  N1_33 
REMARK    9  A    between atoms: N1_33  and  C26_34 
REMARK   10  A    between atoms: C26_34  and  C27_35 
REMARK   11  A    between atoms: C27_35  and  C28_36 
REMARK   12  A    between atoms: C31_39  and  O8_40 
REMARK   13  A    between atoms: C32_41  and  O9_42 
ROOT
HETATM    1  C20 UNL     1      -5.917  48.473 -24.740  1.00  0.00     0.185 C 
HETATM    2  O4  UNL     1      -6.917  47.788 -24.490  1.00  0.00    -0.292 OA
ENDROOT
BRANCH   1   3
HETATM    3  C19 UNL     1      -5.463  49.629 -23.787  1.00  0.00     0.128 C 
HETATM    4  C14 UNL     1      -3.917  49.866 -23.764  1.00  0.00     0.005 C 
HETATM    5  C13 UNL     1      -3.583  51.236 -23.130  1.00  0.00     0.091 C 
HETATM    6  C15 UNL     1      -3.274  49.818 -25.162  1.00  0.00     0.019 C 
HETATM    7  C16 UNL     1      -3.427  48.704 -22.873  1.00  0.00     0.002 C 
HETATM    8  C12 UNL     1      -2.134  51.362 -22.723  1.00  0.00     0.133 C 
HETATM    9  C11 UNL     1      -1.499  50.235 -21.919  1.00  0.00     0.072 C 
HETATM   10  O2  UNL     1      -1.508  52.400 -22.946  1.00  0.00    -0.297 OA
HETATM   11  C2  UNL     1      -1.429  50.523 -20.374  1.00  0.00    -0.009 C 
HETATM   12  C10 UNL     1      -1.965  48.831 -22.392  1.00  0.00     0.003 C 
HETATM   13  C1  UNL     1      -0.130  51.332 -20.094  1.00  0.00     0.021 C 
HETATM   14  C3  UNL     1      -2.629  51.353 -19.846  1.00  0.00     0.022 C 
HETATM   15  C7  UNL     1      -1.332  49.218 -19.591  1.00  0.00    -0.067 C 
HETATM   16  C4  UNL     1      -2.658  51.482 -18.324  1.00  0.00     0.084 C 
HETATM   17  C5  UNL     1      -2.568  50.131 -17.658  1.00  0.00     0.149 C 
HETATM   18  O1  UNL     1      -3.036  49.917 -16.541  1.00  0.00    -0.293 OA
HETATM   19  C6  UNL     1      -1.858  49.040 -18.366  1.00  0.00     0.053 C 
HETATM   20  C8  UNL     1      -0.656  48.085 -20.310  1.00  0.00     0.035 C 
HETATM   21  C9  UNL     1      -1.550  47.663 -21.467  1.00  0.00     0.010 C 
HETATM   22  C17 UNL     1      -4.503  48.557 -21.787  1.00  0.00     0.009 C 
HETATM   23  C18 UNL     1      -5.771  49.229 -22.328  1.00  0.00     0.047 C 
BRANCH   3  24
HETATM   24  O3  UNL     1      -6.135  50.850 -24.065  1.00  0.00    -0.381 OA
HETATM   25  H25 UNL     1      -7.092  50.692 -23.952  1.00  0.00     0.211 HD
ENDBRANCH   3  24
ENDBRANCH   1   3
BRANCH   1  26
HETATM   26  C21 UNL     1      -5.042  48.124 -25.937  1.00  0.00     0.260 C 
BRANCH  26  27
HETATM   27  O5  UNL     1      -5.771  48.171 -27.163  1.00  0.00    -0.314 OA
BRANCH  27  28
HETATM   28  C22 UNL     1      -4.991  48.206 -28.281  1.00  0.00     0.259 C 
HETATM   29  O6  UNL     1      -3.793  48.452 -28.297  1.00  0.00    -0.265 OA
BRANCH  28  30
HETATM   30  C23 UNL     1      -5.828  47.945 -29.510  1.00  0.00     0.120 C 
BRANCH  30  31
HETATM   31  C24 UNL     1      -7.309  47.897 -29.153  1.00  0.00     0.112 C 
BRANCH  31  32
HETATM   32  C25 UNL     1      -8.102  47.150 -30.209  1.00  0.00     0.218 C 
HETATM   33  O7  UNL     1      -8.607  46.051 -30.011  1.00  0.00    -0.274 OA
HETATM   34  N1  UNL     1      -8.232  47.842 -31.393  1.00  0.00    -0.361 N 
HETATM   35  H32 UNL     1      -7.599  48.613 -31.568  1.00  0.00     0.162 HD
BRANCH  34  36
HETATM   36  C26 UNL     1      -8.856  47.229 -32.553  1.00  0.00     0.127 C 
BRANCH  36  37
HETATM   37  C27 UNL     1      -7.936  46.238 -33.277  1.00  0.00     0.058 C 
BRANCH  37  38
HETATM   38  C28 UNL     1      -6.530  46.768 -33.456  1.00  0.00    -0.054 A 
HETATM   39  C29 UNL     1      -5.474  46.235 -32.695  1.00  0.00     0.010 A 
HETATM   40  C30 UNL     1      -4.175  46.727 -32.836  1.00  0.00     0.040 A 
HETATM   41  C31 UNL     1      -3.932  47.749 -33.740  1.00  0.00     0.098 A 
HETATM   42  C32 UNL     1      -4.966  48.285 -34.503  1.00  0.00     0.099 A 
HETATM   43  C33 UNL     1      -6.267  47.804 -34.367  1.00  0.00     0.046 A 
BRANCH  41  44
HETATM   44  O8  UNL     1      -2.660  48.229 -33.880  1.00  0.00    -0.358 OA
HETATM   45  H39 UNL     1      -2.736  48.925 -34.564  1.00  0.00     0.217 HD
ENDBRANCH  41  44
BRANCH  42  46
HETATM   46  O9  UNL     1      -4.654  49.289 -35.379  1.00  0.00    -0.358 OA
HETATM   47  H40 UNL     1      -5.468  49.548 -35.844  1.00  0.00     0.217 HD
ENDBRANCH  42  46
ENDBRANCH  37  38
ENDBRANCH  36  37
ENDBRANCH  34  36
ENDBRANCH  31  32
ENDBRANCH  30  31
ENDBRANCH  28  30
ENDBRANCH  27  28
ENDBRANCH  26  27
ENDBRANCH   1  26
TORSDOF 13
ENDMDL
MODEL 4
REMARK minimizedAffinity -8.61229324
REMARK CNNscore 0.642623901
REMARK CNNaffinity 7.18828058
REMARK  13 active torsions:
REMARK  status: ('A' for Active; 'I' for Inactive)
REMARK    1  A    between atoms: C19_21  and  O3_22 
REMARK    2  A    between atoms: C19_21  and  C20_23 
REMARK    3  A    between atoms: C20_23  and  C21_25 
REMARK    4  A    between atoms: C21_25  and  O5_26 
REMARK    5  A    between atoms: O5_26  and  C22_27 
REMARK    6  A    between atoms: C22_27  and  C23_29 
REMARK    7  A    between atoms: C23_29  and  C24_30 
REMARK    8  A    between atoms: C24_30  and  C25_31 
REMARK       I    between atoms: C25_31  and  N1_33 
REMARK    9  A    between atoms: N1_33  and  C26_34 
REMARK   10  A    between atoms: C26_34  and  C27_35 
REMARK   11  A    between atoms: C27_35  and  C28_36 
REMARK   12  A    between atoms: C31_39  and  O8_40 
REMARK   13  A    between atoms: C32_41  and  O9_42 
ROOT
HETATM    1  C20 UNL     1      -0.987  52.506 -11.680  1.00  0.00     0.185 C 
HETATM    2  O4  UNL     1      -2.210  52.592 -11.843  1.00  0.00    -0.292 OA
ENDROOT
BRANCH   1   3
HETATM    3  C19 UNL     1      -0.336  52.707 -10.271  1.00  0.00     0.128 C 
HETATM    4  C14 UNL     1       0.186  54.159 -10.011  1.00  0.00     0.005 C 
HETATM    5  C13 UNL     1       0.448  54.384  -8.504  1.00  0.00     0.091 C 
HETATM    6  C15 UNL     1      -0.787  55.249 -10.493  1.00  0.00     0.019 C 
HETATM    7  C16 UNL     1       1.504  54.177 -10.815  1.00  0.00     0.002 C 
HETATM    8  C12 UNL     1       1.304  55.597  -8.227  1.00  0.00     0.133 C 
HETATM    9  C11 UNL     1       2.588  55.784  -9.024  1.00  0.00     0.072 C 
HETATM   10  O2  UNL     1       1.023  56.364  -7.304  1.00  0.00    -0.297 OA
HETATM   11  C2  UNL     1       3.882  55.327  -8.252  1.00  0.00    -0.009 C 
HETATM   12  C10 UNL     1       2.429  55.375 -10.513  1.00  0.00     0.003 C 
HETATM   13  C1  UNL     1       4.362  56.517  -7.373  1.00  0.00     0.021 C 
HETATM   14  C3  UNL     1       3.647  54.110  -7.319  1.00  0.00     0.022 C 
HETATM   15  C7  UNL     1       5.003  55.004  -9.234  1.00  0.00    -0.067 C 
HETATM   16  C4  UNL     1       4.932  53.554  -6.709  1.00  0.00     0.084 C 
HETATM   17  C5  UNL     1       5.961  53.260  -7.772  1.00  0.00     0.149 C 
HETATM   18  O1  UNL     1       6.833  52.406  -7.625  1.00  0.00    -0.293 OA
HETATM   19  C6  UNL     1       5.936  54.060  -9.019  1.00  0.00     0.053 C 
HETATM   20  C8  UNL     1       4.969  55.771 -10.526  1.00  0.00     0.035 C 
HETATM   21  C9  UNL     1       3.750  55.311 -11.314  1.00  0.00     0.010 C 
HETATM   22  C17 UNL     1       2.102  52.775 -10.626  1.00  0.00     0.009 C 
HETATM   23  C18 UNL     1       0.952  51.860 -10.187  1.00  0.00     0.047 C 
BRANCH   3  24
HETATM   24  O3  UNL     1      -1.201  52.308  -9.217  1.00  0.00    -0.381 OA
HETATM   25  H25 UNL     1      -1.408  51.363  -9.348  1.00  0.00     0.211 HD
ENDBRANCH   3  24
ENDBRANCH   1   3
BRANCH   1  26
HETATM   26  C21 UNL     1      -0.097  52.092 -12.846  1.00  0.00     0.260 C 
BRANCH  26  27
HETATM   27  O5  UNL     1      -0.140  50.685 -13.077  1.00  0.00    -0.314 OA
BRANCH  27  28
HETATM   28  C22 UNL     1       0.358  50.297 -14.285  1.00  0.00     0.259 C 
HETATM   29  O6  UNL     1       0.823  49.192 -14.533  1.00  0.00    -0.265 OA
BRANCH  28  30
HETATM   30  C23 UNL     1       0.300  51.440 -15.268  1.00  0.00     0.120 C 
BRANCH  30  31
HETATM   31  C24 UNL     1       0.251  50.918 -16.699  1.00  0.00     0.112 C 
BRANCH  31  32
HETATM   32  C25 UNL     1       0.738  51.966 -17.682  1.00  0.00     0.218 C 
HETATM   33  O7  UNL     1       1.701  52.692 -17.461  1.00  0.00    -0.274 OA
HETATM   34  N1  UNL     1       0.020  51.996 -18.858  1.00  0.00    -0.361 N 
HETATM   35  H32 UNL     1      -0.889  51.551 -18.873  1.00  0.00     0.162 HD
BRANCH  34  36
HETATM   36  C26 UNL     1       0.270  53.015 -19.861  1.00  0.00     0.127 C 
BRANCH  36  37
HETATM   37  C27 UNL     1       0.986  52.473 -21.105  1.00  0.00     0.058 C 
BRANCH  37  38
HETATM   38  C28 UNL     1       0.158  52.611 -22.363  1.00  0.00    -0.054 A 
HETATM   39  C29 UNL     1      -1.167  52.141 -22.390  1.00  0.00     0.010 A 
HETATM   40  C30 UNL     1      -1.938  52.245 -23.550  1.00  0.00     0.040 A 
HETATM   41  C31 UNL     1      -1.383  52.821 -24.681  1.00  0.00     0.098 A 
HETATM   42  C32 UNL     1      -0.074  53.294 -24.670  1.00  0.00     0.099 A 
HETATM   43  C33 UNL     1       0.705  53.192 -23.520  1.00  0.00     0.046 A 
BRANCH  41  44
HETATM   44  O8  UNL     1      -2.138  52.925 -25.816  1.00  0.00    -0.358 OA
HETATM   45  H39 UNL     1      -1.547  53.361 -26.463  1.00  0.00     0.217 HD
ENDBRANCH  41  44
BRANCH  42  46
HETATM   46  O9  UNL     1       0.408  53.856 -25.822  1.00  0.00    -0.358 OA
HETATM   47  H40 UNL     1       1.320  54.148 -25.657  1.00  0.00     0.217 HD
ENDBRANCH  42  46
ENDBRANCH  37  38
ENDBRANCH  36  37
ENDBRANCH  34  36
ENDBRANCH  31  32
ENDBRANCH  30  31
ENDBRANCH  28  30
ENDBRANCH  27  28
ENDBRANCH  26  27
ENDBRANCH   1  26
TORSDOF 13
ENDMDL
MODEL 5
REMARK minimizedAffinity -8.22153282
REMARK CNNscore 0.563278913
REMARK CNNaffinity 6.00440359
REMARK  13 active torsions:
REMARK  status: ('A' for Active; 'I' for Inactive)
REMARK    1  A    between atoms: C19_21  and  O3_22 
REMARK    2  A    between atoms: C19_21  and  C20_23 
REMARK    3  A    between atoms: C20_23  and  C21_25 
REMARK    4  A    between atoms: C21_25  and  O5_26 
REMARK    5  A    between atoms: O5_26  and  C22_27 
REMARK    6  A    between atoms: C22_27  and  C23_29 
REMARK    7  A    between atoms: C23_29  and  C24_30 
REMARK    8  A    between atoms: C24_30  and  C25_31 
REMARK       I    between atoms: C25_31  and  N1_33 
REMARK    9  A    between atoms: N1_33  and  C26_34 
REMARK   10  A    between atoms: C26_34  and  C27_35 
REMARK   11  A    between atoms: C27_35  and  C28_36 
REMARK   12  A    between atoms: C31_39  and  O8_40 
REMARK   13  A    between atoms: C32_41  and  O9_42 
ROOT
HETATM    1  C20 UNL     1     -12.120  45.118 -28.570  1.00  0.00     0.185 C 
HETATM    2  O4  UNL     1     -12.588  44.060 -29.010  1.00  0.00    -0.292 OA
ENDROOT
BRANCH   1   3
HETATM    3  C19 UNL     1     -13.000  46.120 -27.751  1.00  0.00     0.128 C 
HETATM    4  C14 UNL     1     -13.064  45.809 -26.219  1.00  0.00     0.005 C 
HETATM    5  C13 UNL     1     -13.606  47.026 -25.435  1.00  0.00     0.091 C 
HETATM    6  C15 UNL     1     -11.698  45.427 -25.620  1.00  0.00     0.019 C 
HETATM    7  C16 UNL     1     -14.056  44.627 -26.171  1.00  0.00     0.002 C 
HETATM    8  C12 UNL     1     -14.056  46.677 -24.036  1.00  0.00     0.133 C 
HETATM    9  C11 UNL     1     -14.964  45.470 -23.840  1.00  0.00     0.072 C 
HETATM   10  O2  UNL     1     -13.779  47.413 -23.087  1.00  0.00    -0.297 OA
HETATM   11  C2  UNL     1     -16.486  45.844 -23.688  1.00  0.00    -0.009 C 
HETATM   12  C10 UNL     1     -14.580  44.281 -24.761  1.00  0.00     0.003 C 
HETATM   13  C1  UNL     1     -16.752  46.173 -22.192  1.00  0.00     0.021 C 
HETATM   14  C3  UNL     1     -16.906  47.077 -24.530  1.00  0.00     0.022 C 
HETATM   15  C7  UNL     1     -17.366  44.655 -24.057  1.00  0.00    -0.067 C 
HETATM   16  C4  UNL     1     -18.411  47.333 -24.526  1.00  0.00     0.084 C 
HETATM   17  C5  UNL     1     -19.179  46.094 -24.917  1.00  0.00     0.149 C 
HETATM   18  O1  UNL     1     -20.290  46.148 -25.440  1.00  0.00    -0.293 OA
HETATM   19  C6  UNL     1     -18.580  44.771 -24.623  1.00  0.00     0.053 C 
HETATM   20  C8  UNL     1     -16.759  43.302 -23.811  1.00  0.00     0.035 C 
HETATM   21  C9  UNL     1     -15.603  43.122 -24.785  1.00  0.00     0.010 C 
HETATM   22  C17 UNL     1     -15.109  44.951 -27.241  1.00  0.00     0.009 C 
HETATM   23  C18 UNL     1     -14.473  45.973 -28.191  1.00  0.00     0.047 C 
BRANCH   3  24
HETATM   24  O3  UNL     1     -12.608  47.471 -27.954  1.00  0.00    -0.381 OA
HETATM   25  H25 UNL     1     -12.697  47.663 -28.907  1.00  0.00     0.211 HD
ENDBRANCH   3  24
ENDBRANCH   1   3
BRANCH   1  26
HETATM   26  C21 UNL     1     -10.633  45.409 -28.729  1.00  0.00     0.260 C 
BRANCH  26  27
HETATM   27  O5  UNL     1     -10.314  46.757 -28.389  1.00  0.00    -0.314 OA
BRANCH  27  28
HETATM   28  C22 UNL     1      -9.301  47.300 -29.123  1.00  0.00     0.259 C 
HETATM   29  O6  UNL     1      -9.396  48.298 -29.824  1.00  0.00    -0.265 OA
BRANCH  28  30
HETATM   30  C23 UNL     1      -8.051  46.464 -28.990  1.00  0.00     0.120 C 
BRANCH  30  31
HETATM   31  C24 UNL     1      -7.174  46.985 -27.858  1.00  0.00     0.112 C 
BRANCH  31  32
HETATM   32  C25 UNL     1      -5.981  47.751 -28.399  1.00  0.00     0.218 C 
HETATM   33  O7  UNL     1      -5.847  48.025 -29.586  1.00  0.00    -0.274 OA
HETATM   34  N1  UNL     1      -5.088  48.141 -27.424  1.00  0.00    -0.361 N 
HETATM   35  H32 UNL     1      -5.134  47.682 -26.523  1.00  0.00     0.162 HD
BRANCH  34  36
HETATM   36  C26 UNL     1      -3.831  48.778 -27.773  1.00  0.00     0.127 C 
BRANCH  36  37
HETATM   37  C27 UNL     1      -2.920  49.016 -26.562  1.00  0.00     0.058 C 
BRANCH  37  38
HETATM   38  C28 UNL     1      -2.194  50.342 -26.628  1.00  0.00    -0.054 A 
HETATM   39  C29 UNL     1      -2.813  51.455 -27.223  1.00  0.00     0.010 A 
HETATM   40  C30 UNL     1      -2.149  52.681 -27.308  1.00  0.00     0.040 A 
HETATM   41  C31 UNL     1      -0.867  52.791 -26.794  1.00  0.00     0.098 A 
HETATM   42  C32 UNL     1      -0.241  51.699 -26.198  1.00  0.00     0.099 A 
HETATM   43  C33 UNL     1      -0.894  50.472 -26.112  1.00  0.00     0.046 A 
BRANCH  41  44
HETATM   44  O8  UNL     1      -0.217  53.991 -26.874  1.00  0.00    -0.358 OA
HETATM   45  H39 UNL     1       0.649  53.829 -26.448  1.00  0.00     0.217 HD
ENDBRANCH  41  44
BRANCH  42  46
HETATM   46  O9  UNL     1       1.024  51.882 -25.708  1.00  0.00    -0.358 OA
HETATM   47  H40 UNL     1       1.319  51.044 -25.315  1.00  0.00     0.217 HD
ENDBRANCH  42  46
ENDBRANCH  37  38
ENDBRANCH  36  37
ENDBRANCH  34  36
ENDBRANCH  31  32
ENDBRANCH  30  31
ENDBRANCH  28  30
ENDBRANCH  27  28
ENDBRANCH  26  27
ENDBRANCH   1  26
TORSDOF 13
ENDMDL
MODEL 6
REMARK minimizedAffinity -8.6642952
REMARK CNNscore 0.543846607
REMARK CNNaffinity 6.63756037
REMARK  13 active torsions:
REMARK  status: ('A' for Active; 'I' for Inactive)
REMARK    1  A    between atoms: C19_21  and  O3_22 
REMARK    2  A    between atoms: C19_21  and  C20_23 
REMARK    3  A    between atoms: C20_23  and  C21_25 
REMARK    4  A    between atoms: C21_25  and  O5_26 
REMARK    5  A    between atoms: O5_26  and  C22_27 
REMARK    6  A    between atoms: C22_27  and  C23_29 
REMARK    7  A    between atoms: C23_29  and  C24_30 
REMARK    8  A    between atoms: C24_30  and  C25_31 
REMARK       I    between atoms: C25_31  and  N1_33 
REMARK    9  A    between atoms: N1_33  and  C26_34 
REMARK   10  A    between atoms: C26_34  and  C27_35 
REMARK   11  A    between atoms: C27_35  and  C28_36 
REMARK   12  A    between atoms: C31_39  and  O8_40 
REMARK   13  A    between atoms: C32_41  and  O9_42 
ROOT
HETATM    1  C20 UNL     1      -6.467  48.233 -24.658  1.00  0.00     0.185 C 
HETATM    2  O4  UNL     1      -6.060  47.827 -25.754  1.00  0.00    -0.292 OA
ENDROOT
BRANCH   1   3
HETATM    3  C19 UNL     1      -5.793  49.447 -23.937  1.00  0.00     0.128 C 
HETATM    4  C14 UNL     1      -4.236  49.492 -24.084  1.00  0.00     0.005 C 
HETATM    5  C13 UNL     1      -3.690  50.886 -23.699  1.00  0.00     0.091 C 
HETATM    6  C15 UNL     1      -3.752  49.168 -25.509  1.00  0.00     0.019 C 
HETATM    7  C16 UNL     1      -3.785  48.416 -23.073  1.00  0.00     0.002 C 
HETATM    8  C12 UNL     1      -2.201  50.888 -23.443  1.00  0.00     0.133 C 
HETATM    9  C11 UNL     1      -1.613  49.816 -22.536  1.00  0.00     0.072 C 
HETATM   10  O2  UNL     1      -1.493  51.799 -23.876  1.00  0.00    -0.297 OA
HETATM   11  C2  UNL     1      -1.351  50.310 -21.064  1.00  0.00    -0.009 C 
HETATM   12  C10 UNL     1      -2.277  48.429 -22.746  1.00  0.00     0.003 C 
HETATM   13  C1  UNL     1       0.051  50.983 -21.025  1.00  0.00     0.021 C 
HETATM   14  C3  UNL     1      -2.392  51.348 -20.566  1.00  0.00     0.022 C 
HETATM   15  C7  UNL     1      -1.316  49.127 -20.103  1.00  0.00    -0.067 C 
HETATM   16  C4  UNL     1      -2.247  51.693 -19.086  1.00  0.00     0.084 C 
HETATM   17  C5  UNL     1      -2.237  50.449 -18.231  1.00  0.00     0.149 C 
HETATM   18  O1  UNL     1      -2.605  50.455 -17.059  1.00  0.00    -0.293 OA
HETATM   19  C6  UNL     1      -1.727  49.190 -18.824  1.00  0.00     0.053 C 
HETATM   20  C8  UNL     1      -0.846  47.829 -20.696  1.00  0.00     0.035 C 
HETATM   21  C9  UNL     1      -1.897  47.361 -21.693  1.00  0.00     0.010 C 
HETATM   22  C17 UNL     1      -4.752  48.558 -21.888  1.00  0.00     0.009 C 
HETATM   23  C18 UNL     1      -5.988  49.298 -22.413  1.00  0.00     0.047 C 
BRANCH   3  24
HETATM   24  O3  UNL     1      -6.353  50.690 -24.338  1.00  0.00    -0.381 OA
HETATM   25  H25 UNL     1      -7.303  50.669 -24.120  1.00  0.00     0.211 HD
ENDBRANCH   3  24
ENDBRANCH   1   3
BRANCH   1  26
HETATM   26  C21 UNL     1      -7.716  47.615 -24.041  1.00  0.00     0.260 C 
BRANCH  26  27
HETATM   27  O5  UNL     1      -8.629  47.152 -25.035  1.00  0.00    -0.314 OA
BRANCH  27  28
HETATM   28  C22 UNL     1      -9.544  48.081 -25.437  1.00  0.00     0.259 C 
HETATM   29  O6  UNL     1      -9.415  49.292 -25.320  1.00  0.00    -0.265 OA
BRANCH  28  30
HETATM   30  C23 UNL     1     -10.766  47.401 -26.004  1.00  0.00     0.120 C 
BRANCH  30  31
HETATM   31  C24 UNL     1     -10.968  46.033 -25.362  1.00  0.00     0.112 C 
BRANCH  31  32
HETATM   32  C25 UNL     1     -12.201  46.020 -24.480  1.00  0.00     0.218 C 
HETATM   33  O7  UNL     1     -12.582  47.001 -23.850  1.00  0.00    -0.274 OA
HETATM   34  N1  UNL     1     -12.871  44.816 -24.485  1.00  0.00    -0.361 N 
HETATM   35  H32 UNL     1     -12.379  43.997 -24.822  1.00  0.00     0.162 HD
BRANCH  34  36
HETATM   36  C26 UNL     1     -14.003  44.585 -23.606  1.00  0.00     0.127 C 
BRANCH  36  37
HETATM   37  C27 UNL     1     -15.138  43.803 -24.279  1.00  0.00     0.058 C 
BRANCH  37  38
HETATM   38  C28 UNL     1     -16.368  44.651 -24.520  1.00  0.00    -0.054 A 
HETATM   39  C29 UNL     1     -16.897  45.437 -23.481  1.00  0.00     0.010 A 
HETATM   40  C30 UNL     1     -18.043  46.210 -23.683  1.00  0.00     0.040 A 
HETATM   41  C31 UNL     1     -18.656  46.198 -24.926  1.00  0.00     0.098 A 
HETATM   42  C32 UNL     1     -18.143  45.428 -25.966  1.00  0.00     0.099 A 
HETATM   43  C33 UNL     1     -17.003  44.650 -25.774  1.00  0.00     0.046 A 
BRANCH  41  44
HETATM   44  O8  UNL     1     -19.776  46.957 -25.125  1.00  0.00    -0.358 OA
HETATM   45  H39 UNL     1     -20.018  46.794 -26.059  1.00  0.00     0.217 HD
ENDBRANCH  41  44
BRANCH  42  46
HETATM   46  O9  UNL     1     -18.797  45.468 -27.168  1.00  0.00    -0.358 OA
HETATM   47  H40 UNL     1     -18.319  44.896 -27.791  1.00  0.00     0.217 HD
ENDBRANCH  42  46
ENDBRANCH  37  38
ENDBRANCH  36  37
ENDBRANCH  34  36
ENDBRANCH  31  32
ENDBRANCH  30  31
ENDBRANCH  28  30
ENDBRANCH  27  28
ENDBRANCH  26  27
ENDBRANCH   1  26
TORSDOF 13
ENDMDL
MODEL 7
REMARK minimizedAffinity -8.79171371
REMARK CNNscore 0.451889336
REMARK CNNaffinity 6.54145765
REMARK  13 active torsions:
REMARK  status: ('A' for Active; 'I' for Inactive)
REMARK    1  A    between atoms: C19_21  and  O3_22 
REMARK    2  A    between atoms: C19_21  and  C20_23 
REMARK    3  A    between atoms: C20_23  and  C21_25 
REMARK    4  A    between atoms: C21_25  and  O5_26 
REMARK    5  A    between atoms: O5_26  and  C22_27 
REMARK    6  A    between atoms: C22_27  and  C23_29 
REMARK    7  A    between atoms: C23_29  and  C24_30 
REMARK    8  A    between atoms: C24_30  and  C25_31 
REMARK       I    between atoms: C25_31  and  N1_33 
REMARK    9  A    between atoms: N1_33  and  C26_34 
REMARK   10  A    between atoms: C26_34  and  C27_35 
REMARK   11  A    between atoms: C27_35  and  C28_36 
REMARK   12  A    between atoms: C31_39  and  O8_40 
REMARK   13  A    between atoms: C32_41  and  O9_42 
ROOT
HETATM    1  C20 UNL     1      -6.364  48.140 -24.876  1.00  0.00     0.185 C 
HETATM    2  O4  UNL     1      -5.887  47.904 -25.993  1.00  0.00    -0.292 OA
ENDROOT
BRANCH   1   3
HETATM    3  C19 UNL     1      -5.857  49.342 -24.011  1.00  0.00     0.128 C 
HETATM    4  C14 UNL     1      -4.310  49.571 -24.082  1.00  0.00     0.005 C 
HETATM    5  C13 UNL     1      -3.939  50.971 -23.540  1.00  0.00     0.091 C 
HETATM    6  C15 UNL     1      -3.744  49.448 -25.508  1.00  0.00     0.019 C 
HETATM    7  C16 UNL     1      -3.776  48.455 -23.159  1.00  0.00     0.002 C 
HETATM    8  C12 UNL     1      -2.470  51.110 -23.218  1.00  0.00     0.133 C 
HETATM    9  C11 UNL     1      -1.796  50.023 -22.391  1.00  0.00     0.072 C 
HETATM   10  O2  UNL     1      -1.855  52.132 -23.529  1.00  0.00    -0.297 OA
HETATM   11  C2  UNL     1      -1.643  50.392 -20.869  1.00  0.00    -0.009 C 
HETATM   12  C10 UNL     1      -2.291  48.600 -22.764  1.00  0.00     0.003 C 
HETATM   13  C1  UNL     1      -0.329  51.207 -20.702  1.00  0.00     0.021 C 
HETATM   14  C3  UNL     1      -2.811  51.255 -20.322  1.00  0.00     0.022 C 
HETATM   15  C7  UNL     1      -1.507  49.129 -20.025  1.00  0.00    -0.067 C 
HETATM   16  C4  UNL     1      -2.758  51.463 -18.810  1.00  0.00     0.084 C 
HETATM   17  C5  UNL     1      -2.636  50.148 -18.079  1.00  0.00     0.149 C 
HETATM   18  O1  UNL     1      -3.044  49.995 -16.930  1.00  0.00    -0.293 OA
HETATM   19  C6  UNL     1      -1.967  49.018 -18.767  1.00  0.00     0.053 C 
HETATM   20  C8  UNL     1      -0.873  47.956 -20.719  1.00  0.00     0.035 C 
HETATM   21  C9  UNL     1      -1.829  47.479 -21.803  1.00  0.00     0.010 C 
HETATM   22  C17 UNL     1      -4.793  48.371 -22.012  1.00  0.00     0.009 C 
HETATM   23  C18 UNL     1      -6.086  49.020 -22.519  1.00  0.00     0.047 C 
BRANCH   3  24
HETATM   24  O3  UNL     1      -6.539  50.551 -24.316  1.00  0.00    -0.381 OA
HETATM   25  H25 UNL     1      -7.488  50.404 -24.144  1.00  0.00     0.211 HD
ENDBRANCH   3  24
ENDBRANCH   1   3
BRANCH   1  26
HETATM   26  C21 UNL     1      -7.541  47.317 -24.368  1.00  0.00     0.260 C 
BRANCH  26  27
HETATM   27  O5  UNL     1      -8.457  46.994 -25.412  1.00  0.00    -0.314 OA
BRANCH  27  28
HETATM   28  C22 UNL     1      -8.617  45.657 -25.629  1.00  0.00     0.259 C 
HETATM   29  O6  UNL     1      -8.408  44.780 -24.802  1.00  0.00    -0.265 OA
BRANCH  28  30
HETATM   30  C23 UNL     1      -9.043  45.404 -27.055  1.00  0.00     0.120 C 
BRANCH  30  31
HETATM   31  C24 UNL     1      -7.874  45.611 -28.010  1.00  0.00     0.112 C 
BRANCH  31  32
HETATM   32  C25 UNL     1      -8.351  45.698 -29.447  1.00  0.00     0.218 C 
HETATM   33  O7  UNL     1      -7.634  46.075 -30.368  1.00  0.00    -0.274 OA
HETATM   34  N1  UNL     1      -9.651  45.277 -29.624  1.00  0.00    -0.361 N 
HETATM   35  H32 UNL     1     -10.248  45.215 -28.808  1.00  0.00     0.162 HD
BRANCH  34  36
HETATM   36  C26 UNL     1     -10.312  45.405 -30.911  1.00  0.00     0.127 C 
BRANCH  36  37
HETATM   37  C27 UNL     1     -11.278  46.594 -30.976  1.00  0.00     0.058 C 
BRANCH  37  38
HETATM   38  C28 UNL     1     -11.946  46.878 -29.648  1.00  0.00    -0.054 A 
HETATM   39  C29 UNL     1     -13.085  46.149 -29.263  1.00  0.00     0.010 A 
HETATM   40  C30 UNL     1     -13.724  46.411 -28.049  1.00  0.00     0.040 A 
HETATM   41  C31 UNL     1     -13.220  47.402 -27.220  1.00  0.00     0.098 A 
HETATM   42  C32 UNL     1     -12.092  48.131 -27.586  1.00  0.00     0.099 A 
HETATM   43  C33 UNL     1     -11.450  47.879 -28.796  1.00  0.00     0.046 A 
BRANCH  41  44
HETATM   44  O8  UNL     1     -13.843  47.658 -26.031  1.00  0.00    -0.358 OA
HETATM   45  H39 UNL     1     -13.314  48.376 -25.628  1.00  0.00     0.217 HD
ENDBRANCH  41  44
BRANCH  42  46
HETATM   46  O9  UNL     1     -11.647  49.090 -26.717  1.00  0.00    -0.358 OA
HETATM   47  H40 UNL     1     -10.853  49.500 -27.101  1.00  0.00     0.217 HD
ENDBRANCH  42  46
ENDBRANCH  37  38
ENDBRANCH  36  37
ENDBRANCH  34  36
ENDBRANCH  31  32
ENDBRANCH  30  31
ENDBRANCH  28  30
ENDBRANCH  27  28
ENDBRANCH  26  27
ENDBRANCH   1  26
TORSDOF 13
ENDMDL
MODEL 8
REMARK minimizedAffinity -9.39683437
REMARK CNNscore 0.406328201
REMARK CNNaffinity 6.60527468
REMARK  13 active torsions:
REMARK  status: ('A' for Active; 'I' for Inactive)
REMARK    1  A    between atoms: C19_21  and  O3_22 
REMARK    2  A    between atoms: C19_21  and  C20_23 
REMARK    3  A    between atoms: C20_23  and  C21_25 
REMARK    4  A    between atoms: C21_25  and  O5_26 
REMARK    5  A    between atoms: O5_26  and  C22_27 
REMARK    6  A    between atoms: C22_27  and  C23_29 
REMARK    7  A    between atoms: C23_29  and  C24_30 
REMARK    8  A    between atoms: C24_30  and  C25_31 
REMARK       I    between atoms: C25_31  and  N1_33 
REMARK    9  A    between atoms: N1_33  and  C26_34 
REMARK   10  A    between atoms: C26_34  and  C27_35 
REMARK   11  A    between atoms: C27_35  and  C28_36 
REMARK   12  A    between atoms: C31_39  and  O8_40 
REMARK   13  A    between atoms: C32_41  and  O9_42 
ROOT
HETATM    1  C20 UNL     1      -6.910  47.757 -24.017  1.00  0.00     0.185 C 
HETATM    2  O4  UNL     1      -6.798  46.685 -23.408  1.00  0.00    -0.292 OA
ENDROOT
BRANCH   1   3
HETATM    3  C19 UNL     1      -6.204  49.059 -23.513  1.00  0.00     0.128 C 
HETATM    4  C14 UNL     1      -4.677  49.126 -23.847  1.00  0.00     0.005 C 
HETATM    5  C13 UNL     1      -4.143  50.567 -23.678  1.00  0.00     0.091 C 
HETATM    6  C15 UNL     1      -4.347  48.660 -25.277  1.00  0.00     0.019 C 
HETATM    7  C16 UNL     1      -4.073  48.180 -22.787  1.00  0.00     0.002 C 
HETATM    8  C12 UNL     1      -2.636  50.635 -23.602  1.00  0.00     0.133 C 
HETATM    9  C11 UNL     1      -1.908  49.684 -22.661  1.00  0.00     0.072 C 
HETATM   10  O2  UNL     1      -2.016  51.510 -24.209  1.00  0.00    -0.297 OA
HETATM   11  C2  UNL     1      -1.498  50.342 -21.291  1.00  0.00    -0.009 C 
HETATM   12  C10 UNL     1      -2.539  48.266 -22.643  1.00  0.00     0.003 C 
HETATM   13  C1  UNL     1      -0.127  51.050 -21.489  1.00  0.00     0.021 C 
HETATM   14  C3  UNL     1      -2.513  51.402 -20.787  1.00  0.00     0.022 C 
HETATM   15  C7  UNL     1      -1.309  49.273 -20.221  1.00  0.00    -0.067 C 
HETATM   16  C4  UNL     1      -2.213  51.911 -19.379  1.00  0.00     0.084 C 
HETATM   17  C5  UNL     1      -2.058  50.769 -18.405  1.00  0.00     0.149 C 
HETATM   18  O1  UNL     1      -2.290  50.894 -17.204  1.00  0.00    -0.293 OA
HETATM   19  C6  UNL     1      -1.573  49.466 -18.917  1.00  0.00     0.053 C 
HETATM   20  C8  UNL     1      -0.862  47.930 -20.724  1.00  0.00     0.035 C 
HETATM   21  C9  UNL     1      -2.001  47.329 -21.536  1.00  0.00     0.010 C 
HETATM   22  C17 UNL     1      -4.903  48.426 -21.518  1.00  0.00     0.009 C 
HETATM   23  C18 UNL     1      -6.218  49.074 -21.969  1.00  0.00     0.047 C 
BRANCH   3  24
HETATM   24  O3  UNL     1      -6.852  50.236 -23.975  1.00  0.00    -0.381 OA
HETATM   25  H25 UNL     1      -7.770  50.216 -23.645  1.00  0.00     0.211 HD
ENDBRANCH   3  24
ENDBRANCH   1   3
BRANCH   1  26
HETATM   26  C21 UNL     1      -7.660  47.796 -25.343  1.00  0.00     0.260 C 
BRANCH  26  27
HETATM   27  O5  UNL     1      -9.021  47.393 -25.199  1.00  0.00    -0.314 OA
BRANCH  27  28
HETATM   28  C22 UNL     1      -9.914  48.167 -25.879  1.00  0.00     0.259 C 
HETATM   29  O6  UNL     1      -9.960  49.389 -25.837  1.00  0.00    -0.265 OA
BRANCH  28  30
HETATM   30  C23 UNL     1     -10.874  47.301 -26.656  1.00  0.00     0.120 C 
BRANCH  30  31
HETATM   31  C24 UNL     1     -11.806  48.158 -27.505  1.00  0.00     0.112 C 
BRANCH  31  32
HETATM   32  C25 UNL     1     -11.581  47.909 -28.985  1.00  0.00     0.218 C 
HETATM   33  O7  UNL     1     -12.459  47.495 -29.733  1.00  0.00    -0.274 OA
HETATM   34  N1  UNL     1     -10.310  48.230 -29.411  1.00  0.00    -0.361 N 
HETATM   35  H32 UNL     1      -9.583  48.330 -28.713  1.00  0.00     0.162 HD
BRANCH  34  36
HETATM   36  C26 UNL     1      -9.882  47.944 -30.769  1.00  0.00     0.127 C 
BRANCH  36  37
HETATM   37  C27 UNL     1      -8.846  46.815 -30.847  1.00  0.00     0.058 C 
BRANCH  37  38
HETATM   38  C28 UNL     1      -7.513  47.282 -31.390  1.00  0.00    -0.054 A 
HETATM   39  C29 UNL     1      -7.056  46.813 -32.635  1.00  0.00     0.010 A 
HETATM   40  C30 UNL     1      -5.819  47.220 -33.141  1.00  0.00     0.040 A 
HETATM   41  C31 UNL     1      -5.043  48.098 -32.402  1.00  0.00     0.098 A 
HETATM   42  C32 UNL     1      -5.482  48.574 -31.169  1.00  0.00     0.099 A 
HETATM   43  C33 UNL     1      -6.712  48.171 -30.654  1.00  0.00     0.046 A 
BRANCH  41  44
HETATM   44  O8  UNL     1      -3.833  48.499 -32.897  1.00  0.00    -0.358 OA
HETATM   45  H39 UNL     1      -3.481  49.109 -32.217  1.00  0.00     0.217 HD
ENDBRANCH  41  44
BRANCH  42  46
HETATM   46  O9  UNL     1      -4.665  49.442 -30.496  1.00  0.00    -0.358 OA
HETATM   47  H40 UNL     1      -5.109  49.693 -29.668  1.00  0.00     0.217 HD
ENDBRANCH  42  46
ENDBRANCH  37  38
ENDBRANCH  36  37
ENDBRANCH  34  36
ENDBRANCH  31  32
ENDBRANCH  30  31
ENDBRANCH  28  30
ENDBRANCH  27  28
ENDBRANCH  26  27
ENDBRANCH   1  26
TORSDOF 13
ENDMDL
MODEL 9
REMARK minimizedAffinity -8.89146996
REMARK CNNscore 0.398661047
REMARK CNNaffinity 7.41715431
REMARK  13 active torsions:
REMARK  status: ('A' for Active; 'I' for Inactive)
REMARK    1  A    between atoms: C19_21  and  O3_22 
REMARK    2  A    between atoms: C19_21  and  C20_23 
REMARK    3  A    between atoms: C20_23  and  C21_25 
REMARK    4  A    between atoms: C21_25  and  O5_26 
REMARK    5  A    between atoms: O5_26  and  C22_27 
REMARK    6  A    between atoms: C22_27  and  C23_29 
REMARK    7  A    between atoms: C23_29  and  C24_30 
REMARK    8  A    between atoms: C24_30  and  C25_31 
REMARK       I    between atoms: C25_31  and  N1_33 
REMARK    9  A    between atoms: N1_33  and  C26_34 
REMARK   10  A    between atoms: C26_34  and  C27_35 
REMARK   11  A    between atoms: C27_35  and  C28_36 
REMARK   12  A    between atoms: C31_39  and  O8_40 
REMARK   13  A    between atoms: C32_41  and  O9_42 
ROOT
HETATM    1  C20 UNL     1      -0.618  50.254 -16.606  1.00  0.00     0.185 C 
HETATM    2  O4  UNL     1      -0.015  49.175 -16.632  1.00  0.00    -0.292 OA
ENDROOT
BRANCH   1   3
HETATM    3  C19 UNL     1      -2.032  50.415 -17.257  1.00  0.00     0.128 C 
HETATM    4  C14 UNL     1      -2.620  49.087 -17.839  1.00  0.00     0.005 C 
HETATM    5  C13 UNL     1      -4.137  49.229 -18.102  1.00  0.00     0.091 C 
HETATM    6  C15 UNL     1      -2.409  47.874 -16.914  1.00  0.00     0.019 C 
HETATM    7  C16 UNL     1      -1.836  48.938 -19.160  1.00  0.00     0.002 C 
HETATM    8  C12 UNL     1      -4.684  48.151 -19.007  1.00  0.00     0.133 C 
HETATM    9  C11 UNL     1      -3.946  47.838 -20.302  1.00  0.00     0.072 C 
HETATM   10  O2  UNL     1      -5.761  47.608 -18.754  1.00  0.00    -0.297 OA
HETATM   11  C2  UNL     1      -4.584  48.516 -21.572  1.00  0.00    -0.009 C 
HETATM   12  C10 UNL     1      -2.404  47.883 -20.133  1.00  0.00     0.003 C 
HETATM   13  C1  UNL     1      -5.713  47.585 -22.097  1.00  0.00     0.021 C 
HETATM   14  C3  UNL     1      -5.209  49.906 -21.281  1.00  0.00     0.022 C 
HETATM   15  C7  UNL     1      -3.548  48.649 -22.682  1.00  0.00    -0.067 C 
HETATM   16  C4  UNL     1      -5.667  50.643 -22.538  1.00  0.00     0.084 C 
HETATM   17  C5  UNL     1      -4.560  50.724 -23.559  1.00  0.00     0.149 C 
HETATM   18  O1  UNL     1      -4.501  51.625 -24.394  1.00  0.00    -0.293 OA
HETATM   19  C6  UNL     1      -3.534  49.655 -23.574  1.00  0.00     0.053 C 
HETATM   20  C8  UNL     1      -2.471  47.602 -22.687  1.00  0.00     0.035 C 
HETATM   21  C9  UNL     1      -1.603  47.814 -21.455  1.00  0.00     0.010 C 
HETATM   22  C17 UNL     1      -1.691  50.369 -19.697  1.00  0.00     0.009 C 
HETATM   23  C18 UNL     1      -1.911  51.312 -18.508  1.00  0.00     0.047 C 
BRANCH   3  24
HETATM   24  O3  UNL     1      -2.969  51.011 -16.370  1.00  0.00    -0.381 OA
HETATM   25  H25 UNL     1      -2.623  51.890 -16.124  1.00  0.00     0.211 HD
ENDBRANCH   3  24
ENDBRANCH   1   3
BRANCH   1  26
HETATM   26  C21 UNL     1      -0.030  51.429 -15.833  1.00  0.00     0.260 C 
BRANCH  26  27
HETATM   27  O5  UNL     1       1.396  51.416 -15.847  1.00  0.00    -0.314 OA
BRANCH  27  28
HETATM   28  C22 UNL     1       1.962  52.386 -16.621  1.00  0.00     0.259 C 
HETATM   29  O6  UNL     1       3.026  52.942 -16.387  1.00  0.00    -0.265 OA
BRANCH  28  30
HETATM   30  C23 UNL     1       1.063  52.714 -17.789  1.00  0.00     0.120 C 
BRANCH  30  31
HETATM   31  C24 UNL     1       1.879  52.875 -19.066  1.00  0.00     0.112 C 
BRANCH  31  32
HETATM   32  C25 UNL     1       1.007  53.342 -20.217  1.00  0.00     0.218 C 
HETATM   33  O7  UNL     1       0.657  54.508 -20.358  1.00  0.00    -0.274 OA
HETATM   34  N1  UNL     1       0.682  52.339 -21.105  1.00  0.00    -0.361 N 
HETATM   35  H32 UNL     1       0.796  51.379 -20.803  1.00  0.00     0.162 HD
BRANCH  34  36
HETATM   36  C26 UNL     1      -0.243  52.579 -22.198  1.00  0.00     0.127 C 
BRANCH  36  37
HETATM   37  C27 UNL     1      -0.298  51.421 -23.203  1.00  0.00     0.058 C 
BRANCH  37  38
HETATM   38  C28 UNL     1      -0.359  51.897 -24.639  1.00  0.00    -0.054 A 
HETATM   39  C29 UNL     1      -0.715  51.002 -25.663  1.00  0.00     0.010 A 
HETATM   40  C30 UNL     1      -0.757  51.421 -26.995  1.00  0.00     0.040 A 
HETATM   41  C31 UNL     1      -0.446  52.737 -27.299  1.00  0.00     0.098 A 
HETATM   42  C32 UNL     1      -0.095  53.636 -26.296  1.00  0.00     0.099 A 
HETATM   43  C33 UNL     1      -0.046  53.227 -24.966  1.00  0.00     0.046 A 
BRANCH  41  44
HETATM   44  O8  UNL     1      -0.490  53.148 -28.602  1.00  0.00    -0.358 OA
HETATM   45  H39 UNL     1      -0.243  54.095 -28.568  1.00  0.00     0.217 HD
ENDBRANCH  41  44
BRANCH  42  46
HETATM   46  O9  UNL     1       0.196  54.921 -26.669  1.00  0.00    -0.358 OA
HETATM   47  H40 UNL     1       0.407  55.427 -25.867  1.00  0.00     0.217 HD
ENDBRANCH  42  46
ENDBRANCH  37  38
ENDBRANCH  36  37
ENDBRANCH  34  36
ENDBRANCH  31  32
ENDBRANCH  30  31
ENDBRANCH  28  30
ENDBRANCH  27  28
ENDBRANCH  26  27
ENDBRANCH   1  26
TORSDOF 13
ENDMDL
