MODEL 1
REMARK minimizedAffinity -8.76774979
REMARK CNNscore 0.601908147
REMARK CNNaffinity 7.04689217
REMARK  19 active torsions:
REMARK  status: ('A' for Active; 'I' for Inactive)
REMARK    1  A    between atoms: C19_20  and  O2_21 
REMARK    2  A    between atoms: C19_20  and  C20_22 
REMARK    3  A    between atoms: C20_22  and  C21_24 
REMARK    4  A    between atoms: C21_24  and  O4_25 
REMARK    5  A    between atoms: O4_25  and  C22_26 
REMARK    6  A    between atoms: C22_26  and  C23_28 
REMARK    7  A    between atoms: C23_28  and  C24_29 
REMARK    8  A    between atoms: C24_29  and  C25_30 
REMARK       I    between atoms: C25_30  and  N1_32 
REMARK    9  A    between atoms: N1_32  and  C26_33 
REMARK   10  A    between atoms: C26_33  and  C27_34 
REMARK   11  A    between atoms: C27_34  and  C28_35 
REMARK   12  A    between atoms: C28_35  and  C29_36 
REMARK   13  A    between atoms: C29_36  and  C30_37 
REMARK   14  A    between atoms: C30_37  and  C31_38 
REMARK       I    between atoms: C31_38  and  N2_40 
REMARK   15  A    between atoms: N2_40  and  C32_41 
REMARK   16  A    between atoms: C32_41  and  C33_42 
REMARK   17  A    between atoms: C32_41  and  C40_49 
REMARK   18  A    between atoms: C33_42  and  C34_43 
REMARK   19  A    between atoms: C40_49  and  O9_51 
ROOT
HETATM    1  C22 UNL     1      -5.474   6.950  14.473  1.00  0.00     0.259 C 
HETATM    2  O5  UNL     1      -5.463   7.269  13.289  1.00  0.00    -0.265 OA
ENDROOT
BRANCH   1   3
HETATM    3  O4  UNL     1      -4.457   7.181  15.339  1.00  0.00    -0.314 OA
BRANCH   3   4
HETATM    4  C21 UNL     1      -3.373   6.253  15.253  1.00  0.00     0.260 C 
BRANCH   4   5
HETATM    5  C20 UNL     1      -2.110   7.003  14.842  1.00  0.00     0.185 C 
HETATM    6  O3  UNL     1      -1.372   7.532  15.679  1.00  0.00    -0.292 OA
BRANCH   5   7
HETATM    7  C19 UNL     1      -1.844   7.155  13.326  1.00  0.00     0.128 C 
HETATM    8  C14 UNL     1      -0.382   6.868  12.852  1.00  0.00    -0.002 C 
HETATM    9  C13 UNL     1      -0.006   5.382  12.646  1.00  0.00     0.013 C 
HETATM   10  C15 UNL     1       0.625   7.555  13.812  1.00  0.00     0.019 C 
HETATM   11  C16 UNL     1      -0.421   7.529  11.459  1.00  0.00     0.002 C 
HETATM   12  C12 UNL     1       0.771   5.088  11.338  1.00  0.00     0.007 C 
HETATM   13  C11 UNL     1       1.739   6.228  10.944  1.00  0.00     0.002 C 
HETATM   14  C2  UNL     1       2.846   5.908   9.847  1.00  0.00    -0.016 C 
HETATM   15  C10 UNL     1       0.925   7.548  10.700  1.00  0.00    -0.004 C 
HETATM   16  C1  UNL     1       4.133   6.682  10.246  1.00  0.00     0.020 C 
HETATM   17  C3  UNL     1       3.181   4.390   9.810  1.00  0.00     0.022 C 
HETATM   18  C7  UNL     1       2.470   6.378   8.442  1.00  0.00    -0.068 C 
HETATM   19  C4  UNL     1       4.098   3.985   8.664  1.00  0.00     0.084 C 
HETATM   20  C5  UNL     1       3.485   4.404   7.356  1.00  0.00     0.149 C 
HETATM   21  O1  UNL     1       3.635   3.762   6.321  1.00  0.00    -0.293 OA
HETATM   22  C6  UNL     1       2.727   5.678   7.321  1.00  0.00     0.053 C 
HETATM   23  C8  UNL     1       1.839   7.738   8.337  1.00  0.00     0.035 C 
HETATM   24  C9  UNL     1       0.610   7.806   9.216  1.00  0.00     0.010 C 
HETATM   25  C17 UNL     1      -1.101   8.873  11.693  1.00  0.00     0.009 C 
HETATM   26  C18 UNL     1      -2.101   8.607  12.829  1.00  0.00     0.047 C 
BRANCH   7  27
HETATM   27  O2  UNL     1      -2.763   6.292  12.643  1.00  0.00    -0.381 OA
HETATM   28  H27 UNL     1      -3.662   6.640  12.787  1.00  0.00     0.211 HD
ENDBRANCH   7  27
ENDBRANCH   5   7
ENDBRANCH   4   5
ENDBRANCH   3   4
ENDBRANCH   1   3
BRANCH   1  29
HETATM   29  C23 UNL     1      -6.577   6.145  15.119  1.00  0.00     0.120 C 
BRANCH  29  30
HETATM   30  C24 UNL     1      -7.117   5.023  14.238  1.00  0.00     0.112 C 
BRANCH  30  31
HETATM   31  C25 UNL     1      -8.363   5.439  13.485  1.00  0.00     0.217 C 
HETATM   32  O6  UNL     1      -8.548   5.174  12.303  1.00  0.00    -0.274 OA
HETATM   33  N1  UNL     1      -9.272   6.116  14.269  1.00  0.00    -0.361 N 
HETATM   34  H34 UNL     1      -9.075   6.248  15.253  1.00  0.00     0.162 HD
BRANCH  33  35
HETATM   35  C26 UNL     1     -10.590   6.469  13.779  1.00  0.00     0.122 C 
BRANCH  35  36
HETATM   36  C27 UNL     1     -10.901   7.932  14.082  1.00  0.00     0.020 C 
BRANCH  36  37
HETATM   37  C28 UNL     1     -12.088   8.477  13.283  1.00  0.00     0.002 C 
BRANCH  37  38
HETATM   38  C29 UNL     1     -12.233   9.998  13.411  1.00  0.00     0.009 C 
BRANCH  38  39
HETATM   39  C30 UNL     1     -13.561  10.412  14.044  1.00  0.00     0.103 C 
BRANCH  39  40
HETATM   40  C31 UNL     1     -14.715   9.491  13.690  1.00  0.00     0.218 C 
HETATM   41  O7  UNL     1     -15.873   9.677  14.041  1.00  0.00    -0.274 OA
HETATM   42  N2  UNL     1     -14.324   8.410  12.926  1.00  0.00    -0.346 N 
HETATM   43  H45 UNL     1     -13.350   8.135  13.009  1.00  0.00     0.163 HD
BRANCH  42  44
HETATM   44  C32 UNL     1     -15.274   7.325  12.643  1.00  0.00     0.186 C 
BRANCH  44  45
HETATM   45  C33 UNL     1     -15.953   6.867  13.939  1.00  0.00     0.074 C 
BRANCH  45  46
HETATM   46  C34 UNL     1     -16.200   5.379  14.004  1.00  0.00    -0.056 A 
HETATM   47  C35 UNL     1     -17.318   4.815  13.373  1.00  0.00     0.007 A 
HETATM   48  C36 UNL     1     -17.553   3.441  13.447  1.00  0.00     0.001 A 
HETATM   49  C37 UNL     1     -16.674   2.618  14.148  1.00  0.00     0.000 A 
HETATM   50  C38 UNL     1     -15.559   3.169  14.776  1.00  0.00     0.001 A 
HETATM   51  C39 UNL     1     -15.321   4.543  14.706  1.00  0.00     0.007 A 
ENDBRANCH  45  46
ENDBRANCH  44  45
BRANCH  44  52
HETATM   52  C40 UNL     1     -16.315   7.882  11.677  1.00  0.00     0.163 C 
HETATM   53  O8  UNL     1     -17.487   7.535  11.617  1.00  0.00    -0.648 OA
BRANCH  52  54
HETATM   54  O9  UNL     1     -15.833   8.824  10.846  1.00  0.00    -0.775 OA
HETATM   55  H54 UNL     1     -16.600   9.103  10.306  1.00  0.00     0.167 HD
ENDBRANCH  52  54
ENDBRANCH  44  52
ENDBRANCH  42  44
ENDBRANCH  39  40
ENDBRANCH  38  39
ENDBRANCH  37  38
ENDBRANCH  36  37
ENDBRANCH  35  36
ENDBRANCH  33  35
ENDBRANCH  30  31
ENDBRANCH  29  30
ENDBRANCH   1  29
TORSDOF 19
ENDMDL
MODEL 2
REMARK minimizedAffinity -8.42645073
REMARK CNNscore 0.462274283
REMARK CNNaffinity 7.22518349
REMARK  19 active torsions:
REMARK  status: ('A' for Active; 'I' for Inactive)
REMARK    1  A    between atoms: C19_20  and  O2_21 
REMARK    2  A    between atoms: C19_20  and  C20_22 
REMARK    3  A    between atoms: C20_22  and  C21_24 
REMARK    4  A    between atoms: C21_24  and  O4_25 
REMARK    5  A    between atoms: O4_25  and  C22_26 
REMARK    6  A    between atoms: C22_26  and  C23_28 
REMARK    7  A    between atoms: C23_28  and  C24_29 
REMARK    8  A    between atoms: C24_29  and  C25_30 
REMARK       I    between atoms: C25_30  and  N1_32 
REMARK    9  A    between atoms: N1_32  and  C26_33 
REMARK   10  A    between atoms: C26_33  and  C27_34 
REMARK   11  A    between atoms: C27_34  and  C28_35 
REMARK   12  A    between atoms: C28_35  and  C29_36 
REMARK   13  A    between atoms: C29_36  and  C30_37 
REMARK   14  A    between atoms: C30_37  and  C31_38 
REMARK       I    between atoms: C31_38  and  N2_40 
REMARK   15  A    between atoms: N2_40  and  C32_41 
REMARK   16  A    between atoms: C32_41  and  C33_42 
REMARK   17  A    between atoms: C32_41  and  C40_49 
REMARK   18  A    between atoms: C33_42  and  C34_43 
REMARK   19  A    between atoms: C40_49  and  O9_51 
ROOT
HETATM    1  C22 UNL     1      -0.800  11.544  16.481  1.00  0.00     0.259 C 
HETATM    2  O5  UNL     1      -0.568  12.745  16.551  1.00  0.00    -0.265 OA
ENDROOT
BRANCH   1   3
HETATM    3  O4  UNL     1      -1.003  10.867  15.323  1.00  0.00    -0.314 OA
BRANCH   3   4
HETATM    4  C21 UNL     1      -0.756   9.461  15.398  1.00  0.00     0.260 C 
BRANCH   4   5
HETATM    5  C20 UNL     1      -0.458   8.934  13.998  1.00  0.00     0.185 C 
HETATM    6  O3  UNL     1       0.610   9.179  13.430  1.00  0.00    -0.292 OA
BRANCH   5   7
HETATM    7  C19 UNL     1      -1.591   8.160  13.283  1.00  0.00     0.128 C 
HETATM    8  C14 UNL     1      -2.838   7.805  14.156  1.00  0.00    -0.002 C 
HETATM    9  C13 UNL     1      -3.887   8.927  14.342  1.00  0.00     0.013 C 
HETATM   10  C15 UNL     1      -2.376   7.259  15.533  1.00  0.00     0.019 C 
HETATM   11  C16 UNL     1      -3.480   6.718  13.270  1.00  0.00     0.002 C 
HETATM   12  C12 UNL     1      -5.358   8.471  14.164  1.00  0.00     0.007 C 
HETATM   13  C11 UNL     1      -5.609   7.034  14.681  1.00  0.00     0.002 C 
HETATM   14  C2  UNL     1      -7.120   6.582  14.893  1.00  0.00    -0.016 C 
HETATM   15  C10 UNL     1      -4.720   6.022  13.874  1.00  0.00    -0.004 C 
HETATM   16  C1  UNL     1      -7.159   5.669  16.149  1.00  0.00     0.020 C 
HETATM   17  C3  UNL     1      -8.044   7.807  15.150  1.00  0.00     0.022 C 
HETATM   18  C7  UNL     1      -7.682   5.758  13.734  1.00  0.00    -0.068 C 
HETATM   19  C4  UNL     1      -9.528   7.467  15.183  1.00  0.00     0.084 C 
HETATM   20  C5  UNL     1      -9.920   6.794  13.896  1.00  0.00     0.149 C 
HETATM   21  O1  UNL     1     -11.029   6.932  13.390  1.00  0.00    -0.293 OA
HETATM   22  C6  UNL     1      -8.936   5.884  13.262  1.00  0.00     0.053 C 
HETATM   23  C8  UNL     1      -6.774   4.709  13.157  1.00  0.00     0.035 C 
HETATM   24  C9  UNL     1      -5.471   5.338  12.718  1.00  0.00     0.010 C 
HETATM   25  C17 UNL     1      -2.317   5.822  12.860  1.00  0.00     0.009 C 
HETATM   26  C18 UNL     1      -1.114   6.774  12.763  1.00  0.00     0.047 C 
BRANCH   7  27
HETATM   27  O2  UNL     1      -1.989   8.938  12.146  1.00  0.00    -0.381 OA
HETATM   28  H27 UNL     1      -1.244   8.951  11.518  1.00  0.00     0.211 HD
ENDBRANCH   7  27
ENDBRANCH   5   7
ENDBRANCH   4   5
ENDBRANCH   3   4
ENDBRANCH   1   3
BRANCH   1  29
HETATM   29  C23 UNL     1      -1.011  10.654  17.683  1.00  0.00     0.120 C 
BRANCH  29  30
HETATM   30  C24 UNL     1      -0.316  11.151  18.947  1.00  0.00     0.112 C 
BRANCH  30  31
HETATM   31  C25 UNL     1       1.030  10.490  19.155  1.00  0.00     0.217 C 
HETATM   32  O6  UNL     1       1.672   9.983  18.242  1.00  0.00    -0.274 OA
HETATM   33  N1  UNL     1       1.467  10.543  20.460  1.00  0.00    -0.361 N 
HETATM   34  H34 UNL     1       0.908  11.030  21.149  1.00  0.00     0.162 HD
BRANCH  33  35
HETATM   35  C26 UNL     1       2.795  10.102  20.840  1.00  0.00     0.122 C 
BRANCH  35  36
HETATM   36  C27 UNL     1       2.730   9.200  22.069  1.00  0.00     0.020 C 
BRANCH  36  37
HETATM   37  C28 UNL     1       3.318   9.844  23.326  1.00  0.00     0.002 C 
BRANCH  37  38
HETATM   38  C29 UNL     1       3.851  11.258  23.067  1.00  0.00     0.009 C 
BRANCH  38  39
HETATM   39  C30 UNL     1       5.376  11.304  22.973  1.00  0.00     0.103 C 
BRANCH  39  40
HETATM   40  C31 UNL     1       5.941  12.713  22.959  1.00  0.00     0.218 C 
HETATM   41  O7  UNL     1       5.257  13.727  23.026  1.00  0.00    -0.274 OA
HETATM   42  N2  UNL     1       7.317  12.738  22.860  1.00  0.00    -0.346 N 
HETATM   43  H45 UNL     1       7.749  11.923  22.437  1.00  0.00     0.163 HD
BRANCH  42  44
HETATM   44  C32 UNL     1       8.018  14.013  22.654  1.00  0.00     0.186 C 
BRANCH  44  45
HETATM   45  C33 UNL     1       8.722  14.444  23.946  1.00  0.00     0.074 C 
BRANCH  45  46
HETATM   46  C34 UNL     1       8.328  15.820  24.424  1.00  0.00    -0.056 A 
HETATM   47  C35 UNL     1       7.234  16.486  23.852  1.00  0.00     0.007 A 
HETATM   48  C36 UNL     1       6.880  17.766  24.285  1.00  0.00     0.001 A 
HETATM   49  C37 UNL     1       7.613  18.389  25.292  1.00  0.00     0.000 A 
HETATM   50  C38 UNL     1       8.699  17.735  25.869  1.00  0.00     0.001 A 
HETATM   51  C39 UNL     1       9.058  16.456  25.437  1.00  0.00     0.007 A 
ENDBRANCH  45  46
ENDBRANCH  44  45
BRANCH  44  52
HETATM   52  C40 UNL     1       9.048  13.785  21.550  1.00  0.00     0.163 C 
HETATM   53  O8  UNL     1       8.997  14.257  20.422  1.00  0.00    -0.648 OA
BRANCH  52  54
HETATM   54  O9  UNL     1      10.064  12.983  21.916  1.00  0.00    -0.775 OA
HETATM   55  H54 UNL     1      10.649  12.942  21.132  1.00  0.00     0.167 HD
ENDBRANCH  52  54
ENDBRANCH  44  52
ENDBRANCH  42  44
ENDBRANCH  39  40
ENDBRANCH  38  39
ENDBRANCH  37  38
ENDBRANCH  36  37
ENDBRANCH  35  36
ENDBRANCH  33  35
ENDBRANCH  30  31
ENDBRANCH  29  30
ENDBRANCH   1  29
TORSDOF 19
ENDMDL
MODEL 3
REMARK minimizedAffinity -9.18191147
REMARK CNNscore 0.361779541
REMARK CNNaffinity 6.89689779
REMARK  19 active torsions:
REMARK  status: ('A' for Active; 'I' for Inactive)
REMARK    1  A    between atoms: C19_20  and  O2_21 
REMARK    2  A    between atoms: C19_20  and  C20_22 
REMARK    3  A    between atoms: C20_22  and  C21_24 
REMARK    4  A    between atoms: C21_24  and  O4_25 
REMARK    5  A    between atoms: O4_25  and  C22_26 
REMARK    6  A    between atoms: C22_26  and  C23_28 
REMARK    7  A    between atoms: C23_28  and  C24_29 
REMARK    8  A    between atoms: C24_29  and  C25_30 
REMARK       I    between atoms: C25_30  and  N1_32 
REMARK    9  A    between atoms: N1_32  and  C26_33 
REMARK   10  A    between atoms: C26_33  and  C27_34 
REMARK   11  A    between atoms: C27_34  and  C28_35 
REMARK   12  A    between atoms: C28_35  and  C29_36 
REMARK   13  A    between atoms: C29_36  and  C30_37 
REMARK   14  A    between atoms: C30_37  and  C31_38 
REMARK       I    between atoms: C31_38  and  N2_40 
REMARK   15  A    between atoms: N2_40  and  C32_41 
REMARK   16  A    between atoms: C32_41  and  C33_42 
REMARK   17  A    between atoms: C32_41  and  C40_49 
REMARK   18  A    between atoms: C33_42  and  C34_43 
REMARK   19  A    between atoms: C40_49  and  O9_51 
ROOT
HETATM    1  C22 UNL     1       5.118   8.727  11.574  1.00  0.00     0.259 C 
HETATM    2  O5  UNL     1       5.242   9.872  11.991  1.00  0.00    -0.265 OA
ENDROOT
BRANCH   1   3
HETATM    3  O4  UNL     1       4.060   8.283  10.853  1.00  0.00    -0.314 OA
BRANCH   3   4
HETATM    4  C21 UNL     1       3.185   7.395  11.555  1.00  0.00     0.260 C 
BRANCH   4   5
HETATM    5  C20 UNL     1       1.817   8.054  11.695  1.00  0.00     0.185 C 
HETATM    6  O3  UNL     1       1.698   9.215  12.098  1.00  0.00    -0.292 OA
BRANCH   5   7
HETATM    7  C19 UNL     1       0.579   7.175  11.401  1.00  0.00     0.128 C 
HETATM    8  C14 UNL     1      -0.507   7.118  12.524  1.00  0.00    -0.002 C 
HETATM    9  C13 UNL     1      -1.507   8.297  12.570  1.00  0.00     0.013 C 
HETATM   10  C15 UNL     1       0.175   6.929  13.905  1.00  0.00     0.019 C 
HETATM   11  C16 UNL     1      -1.290   5.869  12.072  1.00  0.00     0.002 C 
HETATM   12  C12 UNL     1      -2.988   7.880  12.756  1.00  0.00     0.007 C 
HETATM   13  C11 UNL     1      -3.155   6.642  13.669  1.00  0.00     0.002 C 
HETATM   14  C2  UNL     1      -4.611   6.332  14.230  1.00  0.00    -0.016 C 
HETATM   15  C10 UNL     1      -2.415   5.414  13.028  1.00  0.00    -0.004 C 
HETATM   16  C1  UNL     1      -4.444   5.781  15.674  1.00  0.00     0.020 C 
HETATM   17  C3  UNL     1      -5.475   7.623  14.297  1.00  0.00     0.022 C 
HETATM   18  C7  UNL     1      -5.359   5.261  13.436  1.00  0.00    -0.068 C 
HETATM   19  C4  UNL     1      -6.935   7.374  14.655  1.00  0.00     0.084 C 
HETATM   20  C5  UNL     1      -7.537   6.407  13.671  1.00  0.00     0.149 C 
HETATM   21  O1  UNL     1      -8.714   6.460  13.330  1.00  0.00    -0.293 OA
HETATM   22  C6  UNL     1      -6.674   5.318  13.153  1.00  0.00     0.053 C 
HETATM   23  C8  UNL     1      -4.564   4.056  13.021  1.00  0.00     0.035 C 
HETATM   24  C9  UNL     1      -3.349   4.487  12.229  1.00  0.00     0.010 C 
HETATM   25  C17 UNL     1      -0.214   4.844  11.735  1.00  0.00     0.009 C 
HETATM   26  C18 UNL     1       0.959   5.679  11.198  1.00  0.00     0.047 C 
BRANCH   7  27
HETATM   27  O2  UNL     1       0.001   7.646  10.177  1.00  0.00    -0.381 OA
HETATM   28  H27 UNL     1       0.631   7.460   9.457  1.00  0.00     0.211 HD
ENDBRANCH   7  27
ENDBRANCH   5   7
ENDBRANCH   4   5
ENDBRANCH   3   4
ENDBRANCH   1   3
BRANCH   1  29
HETATM   29  C23 UNL     1       6.073   7.602  11.902  1.00  0.00     0.120 C 
BRANCH  29  30
HETATM   30  C24 UNL     1       6.279   7.386  13.398  1.00  0.00     0.112 C 
BRANCH  30  31
HETATM   31  C25 UNL     1       7.663   7.805  13.848  1.00  0.00     0.217 C 
HETATM   32  O6  UNL     1       8.575   8.043  13.065  1.00  0.00    -0.274 OA
HETATM   33  N1  UNL     1       7.779   7.916  15.216  1.00  0.00    -0.361 N 
HETATM   34  H34 UNL     1       6.965   7.758  15.796  1.00  0.00     0.162 HD
BRANCH  33  35
HETATM   35  C26 UNL     1       8.975   8.449  15.840  1.00  0.00     0.122 C 
BRANCH  35  36
HETATM   36  C27 UNL     1       8.669   9.764  16.551  1.00  0.00     0.020 C 
BRANCH  36  37
HETATM   37  C28 UNL     1       9.362   9.893  17.910  1.00  0.00     0.002 C 
BRANCH  37  38
HETATM   38  C29 UNL     1       8.835  11.078  18.728  1.00  0.00     0.009 C 
BRANCH  38  39
HETATM   39  C30 UNL     1       9.892  11.665  19.662  1.00  0.00     0.103 C 
BRANCH  39  40
HETATM   40  C31 UNL     1       9.333  12.134  20.993  1.00  0.00     0.218 C 
HETATM   41  O7  UNL     1       9.422  11.499  22.036  1.00  0.00    -0.274 OA
HETATM   42  N2  UNL     1       8.705  13.360  20.909  1.00  0.00    -0.346 N 
HETATM   43  H45 UNL     1       8.350  13.617  19.994  1.00  0.00     0.163 HD
BRANCH  42  44
HETATM   44  C32 UNL     1       7.952  13.883  22.058  1.00  0.00     0.186 C 
BRANCH  44  45
HETATM   45  C33 UNL     1       7.504  12.731  22.964  1.00  0.00     0.074 C 
BRANCH  45  46
HETATM   46  C34 UNL     1       6.009  12.523  22.989  1.00  0.00    -0.056 A 
HETATM   47  C35 UNL     1       5.138  13.621  23.001  1.00  0.00     0.007 A 
HETATM   48  C36 UNL     1       3.755  13.427  23.040  1.00  0.00     0.001 A 
HETATM   49  C37 UNL     1       3.232  12.136  23.065  1.00  0.00     0.000 A 
HETATM   50  C38 UNL     1       4.089  11.038  23.050  1.00  0.00     0.001 A 
HETATM   51  C39 UNL     1       5.472  11.228  23.014  1.00  0.00     0.007 A 
ENDBRANCH  45  46
ENDBRANCH  44  45
BRANCH  44  52
HETATM   52  C40 UNL     1       8.890  14.814  22.822  1.00  0.00     0.163 C 
HETATM   53  O8  UNL     1       9.761  15.513  22.322  1.00  0.00    -0.648 OA
BRANCH  52  54
HETATM   54  O9  UNL     1       8.690  14.810  24.153  1.00  0.00    -0.775 OA
HETATM   55  H54 UNL     1       9.334  15.456  24.508  1.00  0.00     0.167 HD
ENDBRANCH  52  54
ENDBRANCH  44  52
ENDBRANCH  42  44
ENDBRANCH  39  40
ENDBRANCH  38  39
ENDBRANCH  37  38
ENDBRANCH  36  37
ENDBRANCH  35  36
ENDBRANCH  33  35
ENDBRANCH  30  31
ENDBRANCH  29  30
ENDBRANCH   1  29
TORSDOF 19
ENDMDL
MODEL 4
REMARK minimizedAffinity -8.54079151
REMARK CNNscore 0.330271184
REMARK CNNaffinity 6.88347435
REMARK  19 active torsions:
REMARK  status: ('A' for Active; 'I' for Inactive)
REMARK    1  A    between atoms: C19_20  and  O2_21 
REMARK    2  A    between atoms: C19_20  and  C20_22 
REMARK    3  A    between atoms: C20_22  and  C21_24 
REMARK    4  A    between atoms: C21_24  and  O4_25 
REMARK    5  A    between atoms: O4_25  and  C22_26 
REMARK    6  A    between atoms: C22_26  and  C23_28 
REMARK    7  A    between atoms: C23_28  and  C24_29 
REMARK    8  A    between atoms: C24_29  and  C25_30 
REMARK       I    between atoms: C25_30  and  N1_32 
REMARK    9  A    between atoms: N1_32  and  C26_33 
REMARK   10  A    between atoms: C26_33  and  C27_34 
REMARK   11  A    between atoms: C27_34  and  C28_35 
REMARK   12  A    between atoms: C28_35  and  C29_36 
REMARK   13  A    between atoms: C29_36  and  C30_37 
REMARK   14  A    between atoms: C30_37  and  C31_38 
REMARK       I    between atoms: C31_38  and  N2_40 
REMARK   15  A    between atoms: N2_40  and  C32_41 
REMARK   16  A    between atoms: C32_41  and  C33_42 
REMARK   17  A    between atoms: C32_41  and  C40_49 
REMARK   18  A    between atoms: C33_42  and  C34_43 
REMARK   19  A    between atoms: C40_49  and  O9_51 
ROOT
HETATM    1  C22 UNL     1       2.053   7.909  10.436  1.00  0.00     0.259 C 
HETATM    2  O5  UNL     1       1.135   8.463   9.842  1.00  0.00    -0.265 OA
ENDROOT
BRANCH   1   3
HETATM    3  O4  UNL     1       2.141   7.804  11.785  1.00  0.00    -0.314 OA
BRANCH   3   4
HETATM    4  C21 UNL     1       0.920   8.051  12.487  1.00  0.00     0.260 C 
BRANCH   4   5
HETATM    5  C20 UNL     1       0.412   6.739  13.076  1.00  0.00     0.185 C 
HETATM    6  O3  UNL     1       1.038   6.142  13.957  1.00  0.00    -0.292 OA
BRANCH   5   7
HETATM    7  C19 UNL     1      -0.871   6.140  12.454  1.00  0.00     0.128 C 
HETATM    8  C14 UNL     1      -2.134   6.113  13.376  1.00  0.00    -0.002 C 
HETATM    9  C13 UNL     1      -2.940   7.430  13.472  1.00  0.00     0.013 C 
HETATM   10  C15 UNL     1      -1.741   5.613  14.791  1.00  0.00     0.019 C 
HETATM   11  C16 UNL     1      -3.002   5.098  12.606  1.00  0.00     0.002 C 
HETATM   12  C12 UNL     1      -4.476   7.255  13.360  1.00  0.00     0.007 C 
HETATM   13  C11 UNL     1      -4.983   5.947  14.013  1.00  0.00     0.002 C 
HETATM   14  C2  UNL     1      -6.544   5.819  14.289  1.00  0.00    -0.016 C 
HETATM   15  C10 UNL     1      -4.332   4.714  13.292  1.00  0.00    -0.004 C 
HETATM   16  C1  UNL     1      -6.717   5.046  15.626  1.00  0.00     0.020 C 
HETATM   17  C3  UNL     1      -7.206   7.218  14.445  1.00  0.00     0.022 C 
HETATM   18  C7  UNL     1      -7.292   5.020  13.222  1.00  0.00    -0.068 C 
HETATM   19  C4  UNL     1      -8.726   7.178  14.532  1.00  0.00     0.084 C 
HETATM   20  C5  UNL     1      -9.282   6.482  13.319  1.00  0.00     0.149 C 
HETATM   21  O1  UNL     1     -10.360   6.788  12.820  1.00  0.00    -0.293 OA
HETATM   22  C6  UNL     1      -8.514   5.345  12.759  1.00  0.00     0.053 C 
HETATM   23  C8  UNL     1      -6.623   3.767  12.732  1.00  0.00     0.035 C 
HETATM   24  C9  UNL     1      -5.239   4.088  12.216  1.00  0.00     0.010 C 
HETATM   25  C17 UNL     1      -2.048   3.960  12.265  1.00  0.00     0.009 C 
HETATM   26  C18 UNL     1      -0.688   4.646  12.060  1.00  0.00     0.047 C 
BRANCH   7  27
HETATM   27  O2  UNL     1      -1.149   6.876  11.256  1.00  0.00    -0.381 OA
HETATM   28  H27 UNL     1      -0.437   6.687  10.618  1.00  0.00     0.211 HD
ENDBRANCH   7  27
ENDBRANCH   5   7
ENDBRANCH   4   5
ENDBRANCH   3   4
ENDBRANCH   1   3
BRANCH   1  29
HETATM   29  C23 UNL     1       3.287   7.360   9.759  1.00  0.00     0.120 C 
BRANCH  29  30
HETATM   30  C24 UNL     1       3.805   6.066  10.379  1.00  0.00     0.112 C 
BRANCH  30  31
HETATM   31  C25 UNL     1       5.193   6.231  10.962  1.00  0.00     0.217 C 
HETATM   32  O6  UNL     1       6.206   5.836  10.395  1.00  0.00    -0.274 OA
HETATM   33  N1  UNL     1       5.201   6.890  12.171  1.00  0.00    -0.361 N 
HETATM   34  H34 UNL     1       4.329   7.238  12.550  1.00  0.00     0.162 HD
BRANCH  33  35
HETATM   35  C26 UNL     1       6.437   7.281  12.821  1.00  0.00     0.122 C 
BRANCH  35  36
HETATM   36  C27 UNL     1       6.199   7.559  14.303  1.00  0.00     0.020 C 
BRANCH  36  37
HETATM   37  C28 UNL     1       6.944   8.795  14.814  1.00  0.00     0.002 C 
BRANCH  37  38
HETATM   38  C29 UNL     1       7.634   8.549  16.161  1.00  0.00     0.009 C 
BRANCH  38  39
HETATM   39  C30 UNL     1       9.146   8.759  16.095  1.00  0.00     0.103 C 
BRANCH  39  40
HETATM   40  C31 UNL     1       9.602  10.080  16.689  1.00  0.00     0.218 C 
HETATM   41  O7  UNL     1       9.352  11.174  16.200  1.00  0.00    -0.274 OA
HETATM   42  N2  UNL     1      10.335   9.922  17.848  1.00  0.00    -0.346 N 
HETATM   43  H45 UNL     1      10.803   9.029  17.961  1.00  0.00     0.163 HD
BRANCH  42  44
HETATM   44  C32 UNL     1      11.006  11.078  18.459  1.00  0.00     0.186 C 
BRANCH  44  45
HETATM   45  C33 UNL     1      11.479  12.049  17.372  1.00  0.00     0.074 C 
BRANCH  45  46
HETATM   46  C34 UNL     1      12.979  12.098  17.211  1.00  0.00    -0.056 A 
HETATM   47  C35 UNL     1      13.593  11.520  16.090  1.00  0.00     0.007 A 
HETATM   48  C36 UNL     1      14.982  11.552  15.950  1.00  0.00     0.001 A 
HETATM   49  C37 UNL     1      15.769  12.162  16.924  1.00  0.00     0.000 A 
HETATM   50  C38 UNL     1      15.168  12.742  18.040  1.00  0.00     0.001 A 
HETATM   51  C39 UNL     1      13.779  12.710  18.185  1.00  0.00     0.007 A 
ENDBRANCH  45  46
ENDBRANCH  44  45
BRANCH  44  52
HETATM   52  C40 UNL     1       9.984  11.763  19.362  1.00  0.00     0.163 C 
HETATM   53  O8  UNL     1       9.187  12.623  19.010  1.00  0.00    -0.648 OA
BRANCH  52  54
HETATM   54  O9  UNL     1      10.023  11.343  20.640  1.00  0.00    -0.775 OA
HETATM   55  H54 UNL     1       9.313  11.842  21.092  1.00  0.00     0.167 HD
ENDBRANCH  52  54
ENDBRANCH  44  52
ENDBRANCH  42  44
ENDBRANCH  39  40
ENDBRANCH  38  39
ENDBRANCH  37  38
ENDBRANCH  36  37
ENDBRANCH  35  36
ENDBRANCH  33  35
ENDBRANCH  30  31
ENDBRANCH  29  30
ENDBRANCH   1  29
TORSDOF 19
ENDMDL
MODEL 5
REMARK minimizedAffinity -7.52640104
REMARK CNNscore 0.275586933
REMARK CNNaffinity 6.15084076
REMARK  19 active torsions:
REMARK  status: ('A' for Active; 'I' for Inactive)
REMARK    1  A    between atoms: C19_20  and  O2_21 
REMARK    2  A    between atoms: C19_20  and  C20_22 
REMARK    3  A    between atoms: C20_22  and  C21_24 
REMARK    4  A    between atoms: C21_24  and  O4_25 
REMARK    5  A    between atoms: O4_25  and  C22_26 
REMARK    6  A    between atoms: C22_26  and  C23_28 
REMARK    7  A    between atoms: C23_28  and  C24_29 
REMARK    8  A    between atoms: C24_29  and  C25_30 
REMARK       I    between atoms: C25_30  and  N1_32 
REMARK    9  A    between atoms: N1_32  and  C26_33 
REMARK   10  A    between atoms: C26_33  and  C27_34 
REMARK   11  A    between atoms: C27_34  and  C28_35 
REMARK   12  A    between atoms: C28_35  and  C29_36 
REMARK   13  A    between atoms: C29_36  and  C30_37 
REMARK   14  A    between atoms: C30_37  and  C31_38 
REMARK       I    between atoms: C31_38  and  N2_40 
REMARK   15  A    between atoms: N2_40  and  C32_41 
REMARK   16  A    between atoms: C32_41  and  C33_42 
REMARK   17  A    between atoms: C32_41  and  C40_49 
REMARK   18  A    between atoms: C33_42  and  C34_43 
REMARK   19  A    between atoms: C40_49  and  O9_51 
ROOT
HETATM    1  C22 UNL     1      -6.512   6.857  15.124  1.00  0.00     0.259 C 
HETATM    2  O5  UNL     1      -6.925   6.751  13.975  1.00  0.00    -0.265 OA
ENDROOT
BRANCH   1   3
HETATM    3  O4  UNL     1      -5.210   6.743  15.485  1.00  0.00    -0.314 OA
BRANCH   3   4
HETATM    4  C21 UNL     1      -4.283   6.731  14.396  1.00  0.00     0.260 C 
BRANCH   4   5
HETATM    5  C20 UNL     1      -2.878   6.972  14.937  1.00  0.00     0.185 C 
HETATM    6  O3  UNL     1      -2.656   7.832  15.794  1.00  0.00    -0.292 OA
BRANCH   5   7
HETATM    7  C19 UNL     1      -1.729   6.159  14.297  1.00  0.00     0.128 C 
HETATM    8  C14 UNL     1      -0.788   6.944  13.327  1.00  0.00    -0.002 C 
HETATM    9  C13 UNL     1       0.334   7.781  13.986  1.00  0.00     0.013 C 
HETATM   10  C15 UNL     1      -1.636   7.828  12.374  1.00  0.00     0.019 C 
HETATM   11  C16 UNL     1      -0.113   5.764  12.599  1.00  0.00     0.002 C 
HETATM   12  C12 UNL     1       1.726   7.633  13.320  1.00  0.00     0.007 C 
HETATM   13  C11 UNL     1       1.642   7.460  11.784  1.00  0.00     0.002 C 
HETATM   14  C2  UNL     1       2.980   7.662  10.947  1.00  0.00    -0.016 C 
HETATM   15  C10 UNL     1       0.837   6.156  11.445  1.00  0.00    -0.004 C 
HETATM   16  C1  UNL     1       2.590   8.346   9.607  1.00  0.00     0.020 C 
HETATM   17  C3  UNL     1       3.979   8.589  11.696  1.00  0.00     0.022 C 
HETATM   18  C7  UNL     1       3.679   6.352  10.584  1.00  0.00    -0.068 C 
HETATM   19  C4  UNL     1       5.350   8.682  11.039  1.00  0.00     0.084 C 
HETATM   20  C5  UNL     1       5.937   7.304  10.901  1.00  0.00     0.149 C 
HETATM   21  O1  UNL     1       7.143   7.090  10.977  1.00  0.00    -0.293 OA
HETATM   22  C6  UNL     1       5.014   6.183  10.601  1.00  0.00     0.053 C 
HETATM   23  C8  UNL     1       2.796   5.228  10.119  1.00  0.00     0.035 C 
HETATM   24  C9  UNL     1       1.737   4.940  11.159  1.00  0.00     0.010 C 
HETATM   25  C17 UNL     1      -1.260   4.819  12.258  1.00  0.00     0.009 C 
HETATM   26  C18 UNL     1      -2.259   4.993  13.413  1.00  0.00     0.047 C 
BRANCH   7  27
HETATM   27  O2  UNL     1      -0.967   5.582  15.366  1.00  0.00    -0.381 OA
HETATM   28  H27 UNL     1      -1.531   4.928  15.816  1.00  0.00     0.211 HD
ENDBRANCH   7  27
ENDBRANCH   5   7
ENDBRANCH   4   5
ENDBRANCH   3   4
ENDBRANCH   1   3
BRANCH   1  29
HETATM   29  C23 UNL     1      -7.407   7.015  16.331  1.00  0.00     0.120 C 
BRANCH  29  30
HETATM   30  C24 UNL     1      -8.884   6.773  16.037  1.00  0.00     0.112 C 
BRANCH  30  31
HETATM   31  C25 UNL     1      -9.642   8.068  15.829  1.00  0.00     0.217 C 
HETATM   32  O6  UNL     1      -9.546   8.741  14.809  1.00  0.00    -0.274 OA
HETATM   33  N1  UNL     1     -10.465   8.393  16.885  1.00  0.00    -0.361 N 
HETATM   34  H34 UNL     1     -10.535   7.758  17.671  1.00  0.00     0.162 HD
BRANCH  33  35
HETATM   35  C26 UNL     1     -11.386   9.511  16.821  1.00  0.00     0.122 C 
BRANCH  35  36
HETATM   36  C27 UNL     1     -11.350  10.311  18.120  1.00  0.00     0.020 C 
BRANCH  36  37
HETATM   37  C28 UNL     1     -10.966   9.470  19.339  1.00  0.00     0.002 C 
BRANCH  37  38
HETATM   38  C29 UNL     1     -12.080   9.418  20.392  1.00  0.00     0.009 C 
BRANCH  38  39
HETATM   39  C30 UNL     1     -12.385  10.789  20.993  1.00  0.00     0.103 C 
BRANCH  39  40
HETATM   40  C31 UNL     1     -11.516  11.134  22.190  1.00  0.00     0.218 C 
HETATM   41  O7  UNL     1     -10.593  10.436  22.591  1.00  0.00    -0.274 OA
HETATM   42  N2  UNL     1     -11.874  12.325  22.788  1.00  0.00    -0.346 N 
HETATM   43  H45 UNL     1     -12.835  12.622  22.648  1.00  0.00     0.163 HD
BRANCH  42  44
HETATM   44  C32 UNL     1     -11.260  12.724  24.062  1.00  0.00     0.186 C 
BRANCH  44  45
HETATM   45  C33 UNL     1     -10.482  14.033  23.885  1.00  0.00     0.074 C 
BRANCH  45  46
HETATM   46  C34 UNL     1      -9.225  13.888  23.062  1.00  0.00    -0.056 A 
HETATM   47  C35 UNL     1      -9.109  14.532  21.822  1.00  0.00     0.007 A 
HETATM   48  C36 UNL     1      -7.952  14.384  21.054  1.00  0.00     0.001 A 
HETATM   49  C37 UNL     1      -6.902  13.596  21.519  1.00  0.00     0.000 A 
HETATM   50  C38 UNL     1      -7.006  12.954  22.751  1.00  0.00     0.001 A 
HETATM   51  C39 UNL     1      -8.163  13.097  23.520  1.00  0.00     0.007 A 
ENDBRANCH  45  46
ENDBRANCH  44  45
BRANCH  44  52
HETATM   52  C40 UNL     1     -12.394  12.922  25.064  1.00  0.00     0.163 C 
HETATM   53  O8  UNL     1     -12.850  14.001  25.418  1.00  0.00    -0.648 OA
BRANCH  52  54
HETATM   54  O9  UNL     1     -12.880  11.772  25.565  1.00  0.00    -0.775 OA
HETATM   55  H54 UNL     1     -13.602  12.043  26.167  1.00  0.00     0.167 HD
ENDBRANCH  52  54
ENDBRANCH  44  52
ENDBRANCH  42  44
ENDBRANCH  39  40
ENDBRANCH  38  39
ENDBRANCH  37  38
ENDBRANCH  36  37
ENDBRANCH  35  36
ENDBRANCH  33  35
ENDBRANCH  30  31
ENDBRANCH  29  30
ENDBRANCH   1  29
TORSDOF 19
ENDMDL
MODEL 6
REMARK minimizedAffinity -8.12103939
REMARK CNNscore 0.27431491
REMARK CNNaffinity 6.3820529
REMARK  19 active torsions:
REMARK  status: ('A' for Active; 'I' for Inactive)
REMARK    1  A    between atoms: C19_20  and  O2_21 
REMARK    2  A    between atoms: C19_20  and  C20_22 
REMARK    3  A    between atoms: C20_22  and  C21_24 
REMARK    4  A    between atoms: C21_24  and  O4_25 
REMARK    5  A    between atoms: O4_25  and  C22_26 
REMARK    6  A    between atoms: C22_26  and  C23_28 
REMARK    7  A    between atoms: C23_28  and  C24_29 
REMARK    8  A    between atoms: C24_29  and  C25_30 
REMARK       I    between atoms: C25_30  and  N1_32 
REMARK    9  A    between atoms: N1_32  and  C26_33 
REMARK   10  A    between atoms: C26_33  and  C27_34 
REMARK   11  A    between atoms: C27_34  and  C28_35 
REMARK   12  A    between atoms: C28_35  and  C29_36 
REMARK   13  A    between atoms: C29_36  and  C30_37 
REMARK   14  A    between atoms: C30_37  and  C31_38 
REMARK       I    between atoms: C31_38  and  N2_40 
REMARK   15  A    between atoms: N2_40  and  C32_41 
REMARK   16  A    between atoms: C32_41  and  C33_42 
REMARK   17  A    between atoms: C32_41  and  C40_49 
REMARK   18  A    between atoms: C33_42  and  C34_43 
REMARK   19  A    between atoms: C40_49  and  O9_51 
ROOT
HETATM    1  C22 UNL     1      -5.446   6.422  14.880  1.00  0.00     0.259 C 
HETATM    2  O5  UNL     1      -5.324   5.459  14.133  1.00  0.00    -0.265 OA
ENDROOT
BRANCH   1   3
HETATM    3  O4  UNL     1      -4.560   7.444  14.966  1.00  0.00    -0.314 OA
BRANCH   3   4
HETATM    4  C21 UNL     1      -4.213   8.045  13.716  1.00  0.00     0.260 C 
BRANCH   4   5
HETATM    5  C20 UNL     1      -2.773   8.544  13.788  1.00  0.00     0.185 C 
HETATM    6  O3  UNL     1      -2.511   9.730  14.009  1.00  0.00    -0.292 OA
BRANCH   5   7
HETATM    7  C19 UNL     1      -1.658   7.519  13.477  1.00  0.00     0.128 C 
HETATM    8  C14 UNL     1      -0.536   7.998  12.499  1.00  0.00    -0.002 C 
HETATM    9  C13 UNL     1       0.593   8.857  13.118  1.00  0.00     0.013 C 
HETATM   10  C15 UNL     1      -1.173   8.730  11.288  1.00  0.00     0.019 C 
HETATM   11  C16 UNL     1       0.080   6.637  12.115  1.00  0.00     0.002 C 
HETATM   12  C12 UNL     1       2.024   8.454  12.679  1.00  0.00     0.007 C 
HETATM   13  C11 UNL     1       2.089   7.968  11.211  1.00  0.00     0.002 C 
HETATM   14  C2  UNL     1       3.524   7.873  10.530  1.00  0.00    -0.016 C 
HETATM   15  C10 UNL     1       1.187   6.695  11.039  1.00  0.00    -0.004 C 
HETATM   16  C1  UNL     1       3.360   8.289   9.042  1.00  0.00     0.020 C 
HETATM   17  C3  UNL     1       4.531   8.849  11.202  1.00  0.00     0.022 C 
HETATM   18  C7  UNL     1       4.110   6.461  10.529  1.00  0.00    -0.068 C 
HETATM   19  C4  UNL     1       5.967   8.685  10.722  1.00  0.00     0.084 C 
HETATM   20  C5  UNL     1       6.411   7.263  10.939  1.00  0.00     0.149 C 
HETATM   21  O1  UNL     1       7.570   6.968  11.211  1.00  0.00    -0.293 OA
HETATM   22  C6  UNL     1       5.409   6.187  10.752  1.00  0.00     0.053 C 
HETATM   23  C8  UNL     1       3.165   5.344  10.188  1.00  0.00     0.035 C 
HETATM   24  C9  UNL     1       1.973   5.374  11.119  1.00  0.00     0.010 C 
HETATM   25  C17 UNL     1      -1.120   5.744  11.824  1.00  0.00     0.009 C 
HETATM   26  C18 UNL     1      -2.213   6.242  12.782  1.00  0.00     0.047 C 
BRANCH   7  27
HETATM   27  O2  UNL     1      -1.084   7.119  14.728  1.00  0.00    -0.381 OA
HETATM   28  H27 UNL     1      -1.763   6.624  15.223  1.00  0.00     0.211 HD
ENDBRANCH   7  27
ENDBRANCH   5   7
ENDBRANCH   4   5
ENDBRANCH   3   4
ENDBRANCH   1   3
BRANCH   1  29
HETATM   29  C23 UNL     1      -6.547   6.559  15.907  1.00  0.00     0.120 C 
BRANCH  29  30
HETATM   30  C24 UNL     1      -7.940   6.266  15.359  1.00  0.00     0.112 C 
BRANCH  30  31
HETATM   31  C25 UNL     1      -8.801   7.510  15.300  1.00  0.00     0.217 C 
HETATM   32  O6  UNL     1      -8.335   8.642  15.230  1.00  0.00    -0.274 OA
HETATM   33  N1  UNL     1     -10.152   7.238  15.303  1.00  0.00    -0.361 N 
HETATM   34  H34 UNL     1     -10.462   6.275  15.304  1.00  0.00     0.162 HD
BRANCH  33  35
HETATM   35  C26 UNL     1     -11.142   8.278  15.101  1.00  0.00     0.122 C 
BRANCH  35  36
HETATM   36  C27 UNL     1     -11.853   8.090  13.764  1.00  0.00     0.020 C 
BRANCH  36  37
HETATM   37  C28 UNL     1     -13.376   8.003  13.895  1.00  0.00     0.002 C 
BRANCH  37  38
HETATM   38  C29 UNL     1     -14.004   7.082  12.842  1.00  0.00     0.009 C 
BRANCH  38  39
HETATM   39  C30 UNL     1     -15.471   7.411  12.573  1.00  0.00     0.103 C 
BRANCH  39  40
HETATM   40  C31 UNL     1     -16.414   6.253  12.848  1.00  0.00     0.218 C 
HETATM   41  O7  UNL     1     -17.443   6.042  12.219  1.00  0.00    -0.274 OA
HETATM   42  N2  UNL     1     -15.991   5.455  13.892  1.00  0.00    -0.346 N 
HETATM   43  H45 UNL     1     -15.380   5.896  14.572  1.00  0.00     0.163 HD
BRANCH  42  44
HETATM   44  C32 UNL     1     -16.868   4.396  14.412  1.00  0.00     0.186 C 
BRANCH  44  45
HETATM   45  C33 UNL     1     -16.038   3.168  14.802  1.00  0.00     0.074 C 
BRANCH  45  46
HETATM   46  C34 UNL     1     -16.240   1.982  13.890  1.00  0.00    -0.056 A 
HETATM   47  C35 UNL     1     -17.120   2.063  12.802  1.00  0.00     0.007 A 
HETATM   48  C36 UNL     1     -17.318   0.960  11.969  1.00  0.00     0.001 A 
HETATM   49  C37 UNL     1     -16.638  -0.230  12.213  1.00  0.00     0.000 A 
HETATM   50  C38 UNL     1     -15.758  -0.321  13.290  1.00  0.00     0.001 A 
HETATM   51  C39 UNL     1     -15.560   0.780  14.127  1.00  0.00     0.007 A 
ENDBRANCH  45  46
ENDBRANCH  44  45
BRANCH  44  52
HETATM   52  C40 UNL     1     -17.573   4.962  15.641  1.00  0.00     0.163 C 
HETATM   53  O8  UNL     1     -17.099   5.023  16.768  1.00  0.00    -0.648 OA
BRANCH  52  54
HETATM   54  O9  UNL     1     -18.819   5.405  15.394  1.00  0.00    -0.775 OA
HETATM   55  H54 UNL     1     -19.138   5.754  16.251  1.00  0.00     0.167 HD
ENDBRANCH  52  54
ENDBRANCH  44  52
ENDBRANCH  42  44
ENDBRANCH  39  40
ENDBRANCH  38  39
ENDBRANCH  37  38
ENDBRANCH  36  37
ENDBRANCH  35  36
ENDBRANCH  33  35
ENDBRANCH  30  31
ENDBRANCH  29  30
ENDBRANCH   1  29
TORSDOF 19
ENDMDL
MODEL 7
REMARK minimizedAffinity -8.90242863
REMARK CNNscore 0.260060191
REMARK CNNaffinity 6.89614439
REMARK  19 active torsions:
REMARK  status: ('A' for Active; 'I' for Inactive)
REMARK    1  A    between atoms: C19_20  and  O2_21 
REMARK    2  A    between atoms: C19_20  and  C20_22 
REMARK    3  A    between atoms: C20_22  and  C21_24 
REMARK    4  A    between atoms: C21_24  and  O4_25 
REMARK    5  A    between atoms: O4_25  and  C22_26 
REMARK    6  A    between atoms: C22_26  and  C23_28 
REMARK    7  A    between atoms: C23_28  and  C24_29 
REMARK    8  A    between atoms: C24_29  and  C25_30 
REMARK       I    between atoms: C25_30  and  N1_32 
REMARK    9  A    between atoms: N1_32  and  C26_33 
REMARK   10  A    between atoms: C26_33  and  C27_34 
REMARK   11  A    between atoms: C27_34  and  C28_35 
REMARK   12  A    between atoms: C28_35  and  C29_36 
REMARK   13  A    between atoms: C29_36  and  C30_37 
REMARK   14  A    between atoms: C30_37  and  C31_38 
REMARK       I    between atoms: C31_38  and  N2_40 
REMARK   15  A    between atoms: N2_40  and  C32_41 
REMARK   16  A    between atoms: C32_41  and  C33_42 
REMARK   17  A    between atoms: C32_41  and  C40_49 
REMARK   18  A    between atoms: C33_42  and  C34_43 
REMARK   19  A    between atoms: C40_49  and  O9_51 
ROOT
HETATM    1  C22 UNL     1       3.224   8.652  13.400  1.00  0.00     0.259 C 
HETATM    2  O5  UNL     1       3.743   7.654  12.913  1.00  0.00    -0.265 OA
ENDROOT
BRANCH   1   3
HETATM    3  O4  UNL     1       2.124   8.637  14.192  1.00  0.00    -0.314 OA
BRANCH   3   4
HETATM    4  C21 UNL     1       1.099   7.730  13.778  1.00  0.00     0.260 C 
BRANCH   4   5
HETATM    5  C20 UNL     1      -0.178   8.517  13.500  1.00  0.00     0.185 C 
HETATM    6  O3  UNL     1      -0.285   9.705  13.817  1.00  0.00    -0.292 OA
BRANCH   5   7
HETATM    7  C19 UNL     1      -1.366   7.737  12.891  1.00  0.00     0.128 C 
HETATM    8  C14 UNL     1      -2.601   7.524  13.826  1.00  0.00    -0.002 C 
HETATM    9  C13 UNL     1      -3.591   8.708  13.934  1.00  0.00     0.013 C 
HETATM   10  C15 UNL     1      -2.123   7.086  15.235  1.00  0.00     0.019 C 
HETATM   11  C16 UNL     1      -3.319   6.393  13.063  1.00  0.00     0.002 C 
HETATM   12  C12 UNL     1      -5.086   8.310  13.837  1.00  0.00     0.007 C 
HETATM   13  C11 UNL     1      -5.388   6.941  14.493  1.00  0.00     0.002 C 
HETATM   14  C2  UNL     1      -6.910   6.585  14.786  1.00  0.00    -0.016 C 
HETATM   15  C10 UNL     1      -4.571   5.817  13.762  1.00  0.00    -0.004 C 
HETATM   16  C1  UNL     1      -6.953   5.794  16.123  1.00  0.00     0.020 C 
HETATM   17  C3  UNL     1      -7.768   7.871  14.951  1.00  0.00     0.022 C 
HETATM   18  C7  UNL     1      -7.545   5.686  13.724  1.00  0.00    -0.068 C 
HETATM   19  C4  UNL     1      -9.265   7.609  15.055  1.00  0.00     0.084 C 
HETATM   20  C5  UNL     1      -9.727   6.840  13.847  1.00  0.00     0.149 C 
HETATM   21  O1  UNL     1     -10.843   6.984  13.359  1.00  0.00    -0.293 OA
HETATM   22  C6  UNL     1      -8.806   5.828  13.275  1.00  0.00     0.053 C 
HETATM   23  C8  UNL     1      -6.705   4.545  13.224  1.00  0.00     0.035 C 
HETATM   24  C9  UNL     1      -5.388   5.066  12.694  1.00  0.00     0.010 C 
HETATM   25  C17 UNL     1      -2.212   5.408  12.709  1.00  0.00     0.009 C 
HETATM   26  C18 UNL     1      -0.970   6.286  12.491  1.00  0.00     0.047 C 
BRANCH   7  27
HETATM   27  O2  UNL     1      -1.762   8.424  11.697  1.00  0.00    -0.381 OA
HETATM   28  H27 UNL     1      -1.037   8.343  11.051  1.00  0.00     0.211 HD
ENDBRANCH   7  27
ENDBRANCH   5   7
ENDBRANCH   4   5
ENDBRANCH   3   4
ENDBRANCH   1   3
BRANCH   1  29
HETATM   29  C23 UNL     1       3.664  10.065  13.094  1.00  0.00     0.120 C 
BRANCH  29  30
HETATM   30  C24 UNL     1       3.952  10.903  14.335  1.00  0.00     0.112 C 
BRANCH  30  31
HETATM   31  C25 UNL     1       4.882  10.193  15.297  1.00  0.00     0.217 C 
HETATM   32  O6  UNL     1       4.489   9.629  16.312  1.00  0.00    -0.274 OA
HETATM   33  N1  UNL     1       6.201  10.221  14.900  1.00  0.00    -0.361 N 
HETATM   34  H34 UNL     1       6.443  10.656  14.019  1.00  0.00     0.162 HD
BRANCH  33  35
HETATM   35  C26 UNL     1       7.227   9.473  15.601  1.00  0.00     0.122 C 
BRANCH  35  36
HETATM   36  C27 UNL     1       7.714  10.246  16.823  1.00  0.00     0.020 C 
BRANCH  36  37
HETATM   37  C28 UNL     1       9.142   9.886  17.238  1.00  0.00     0.002 C 
BRANCH  37  38
HETATM   38  C29 UNL     1       9.594  10.633  18.499  1.00  0.00     0.009 C 
BRANCH  38  39
HETATM   39  C30 UNL     1       8.585  11.688  18.950  1.00  0.00     0.103 C 
BRANCH  39  40
HETATM   40  C31 UNL     1       8.670  12.014  20.431  1.00  0.00     0.218 C 
HETATM   41  O7  UNL     1       9.453  11.481  21.207  1.00  0.00    -0.274 OA
HETATM   42  N2  UNL     1       7.764  12.981  20.819  1.00  0.00    -0.346 N 
HETATM   43  H45 UNL     1       6.938  13.077  20.238  1.00  0.00     0.163 HD
BRANCH  42  44
HETATM   44  C32 UNL     1       7.583  13.291  22.244  1.00  0.00     0.186 C 
BRANCH  44  45
HETATM   45  C33 UNL     1       7.136  12.037  23.005  1.00  0.00     0.074 C 
BRANCH  45  46
HETATM   46  C34 UNL     1       5.639  11.841  23.029  1.00  0.00    -0.056 A 
HETATM   47  C35 UNL     1       5.092  10.559  23.179  1.00  0.00     0.007 A 
HETATM   48  C36 UNL     1       3.708  10.377  23.186  1.00  0.00     0.001 A 
HETATM   49  C37 UNL     1       2.859  11.473  23.047  1.00  0.00     0.000 A 
HETATM   50  C38 UNL     1       3.393  12.752  22.900  1.00  0.00     0.001 A 
HETATM   51  C39 UNL     1       4.777  12.937  22.890  1.00  0.00     0.007 A 
ENDBRANCH  45  46
ENDBRANCH  44  45
BRANCH  44  52
HETATM   52  C40 UNL     1       8.932  13.769  22.774  1.00  0.00     0.163 C 
HETATM   53  O8  UNL     1       9.556  14.736  22.359  1.00  0.00    -0.648 OA
BRANCH  52  54
HETATM   54  O9  UNL     1       9.419  13.013  23.775  1.00  0.00    -0.775 OA
HETATM   55  H54 UNL     1      10.262  13.440  24.028  1.00  0.00     0.167 HD
ENDBRANCH  52  54
ENDBRANCH  44  52
ENDBRANCH  42  44
ENDBRANCH  39  40
ENDBRANCH  38  39
ENDBRANCH  37  38
ENDBRANCH  36  37
ENDBRANCH  35  36
ENDBRANCH  33  35
ENDBRANCH  30  31
ENDBRANCH  29  30
ENDBRANCH   1  29
TORSDOF 19
ENDMDL
MODEL 8
REMARK minimizedAffinity -8.26750088
REMARK CNNscore 0.250346184
REMARK CNNaffinity 5.7818532
REMARK  19 active torsions:
REMARK  status: ('A' for Active; 'I' for Inactive)
REMARK    1  A    between atoms: C19_20  and  O2_21 
REMARK    2  A    between atoms: C19_20  and  C20_22 
REMARK    3  A    between atoms: C20_22  and  C21_24 
REMARK    4  A    between atoms: C21_24  and  O4_25 
REMARK    5  A    between atoms: O4_25  and  C22_26 
REMARK    6  A    between atoms: C22_26  and  C23_28 
REMARK    7  A    between atoms: C23_28  and  C24_29 
REMARK    8  A    between atoms: C24_29  and  C25_30 
REMARK       I    between atoms: C25_30  and  N1_32 
REMARK    9  A    between atoms: N1_32  and  C26_33 
REMARK   10  A    between atoms: C26_33  and  C27_34 
REMARK   11  A    between atoms: C27_34  and  C28_35 
REMARK   12  A    between atoms: C28_35  and  C29_36 
REMARK   13  A    between atoms: C29_36  and  C30_37 
REMARK   14  A    between atoms: C30_37  and  C31_38 
REMARK       I    between atoms: C31_38  and  N2_40 
REMARK   15  A    between atoms: N2_40  and  C32_41 
REMARK   16  A    between atoms: C32_41  and  C33_42 
REMARK   17  A    between atoms: C32_41  and  C40_49 
REMARK   18  A    between atoms: C33_42  and  C34_43 
REMARK   19  A    between atoms: C40_49  and  O9_51 
ROOT
HETATM    1  C22 UNL     1       6.209   7.371  11.500  1.00  0.00     0.259 C 
HETATM    2  O5  UNL     1       6.964   7.216  10.547  1.00  0.00    -0.265 OA
ENDROOT
BRANCH   1   3
HETATM    3  O4  UNL     1       4.961   7.894  11.413  1.00  0.00    -0.314 OA
BRANCH   3   4
HETATM    4  C21 UNL     1       3.905   6.930  11.414  1.00  0.00     0.260 C 
BRANCH   4   5
HETATM    5  C20 UNL     1       2.567   7.661  11.361  1.00  0.00     0.185 C 
HETATM    6  O3  UNL     1       2.488   8.878  11.550  1.00  0.00    -0.292 OA
BRANCH   5   7
HETATM    7  C19 UNL     1       1.301   6.795  11.155  1.00  0.00     0.128 C 
HETATM    8  C14 UNL     1       0.243   6.841  12.305  1.00  0.00    -0.002 C 
HETATM    9  C13 UNL     1      -0.727   8.046  12.297  1.00  0.00     0.013 C 
HETATM   10  C15 UNL     1       0.955   6.726  13.679  1.00  0.00     0.019 C 
HETATM   11  C16 UNL     1      -0.581   5.585  11.956  1.00  0.00     0.002 C 
HETATM   12  C12 UNL     1      -2.213   7.679  12.545  1.00  0.00     0.007 C 
HETATM   13  C11 UNL     1      -2.386   6.509  13.542  1.00  0.00     0.002 C 
HETATM   14  C2  UNL     1      -3.834   6.273  14.157  1.00  0.00    -0.016 C 
HETATM   15  C10 UNL     1      -1.692   5.223  12.967  1.00  0.00    -0.004 C 
HETATM   16  C1  UNL     1      -3.644   5.815  15.630  1.00  0.00     0.020 C 
HETATM   17  C3  UNL     1      -4.665   7.588  14.159  1.00  0.00     0.022 C 
HETATM   18  C7  UNL     1      -4.628   5.172  13.454  1.00  0.00    -0.068 C 
HETATM   19  C4  UNL     1      -6.121   7.400  14.567  1.00  0.00     0.084 C 
HETATM   20  C5  UNL     1      -6.770   6.386  13.665  1.00  0.00     0.149 C 
HETATM   21  O1  UNL     1      -7.954   6.446  13.349  1.00  0.00    -0.293 OA
HETATM   22  C6  UNL     1      -5.948   5.244  13.199  1.00  0.00     0.053 C 
HETATM   23  C8  UNL     1      -3.872   3.923  13.102  1.00  0.00     0.035 C 
HETATM   24  C9  UNL     1      -2.668   4.269  12.254  1.00  0.00     0.010 C 
HETATM   25  C17 UNL     1       0.461   4.513  11.662  1.00  0.00     0.009 C 
HETATM   26  C18 UNL     1       1.640   5.281  11.043  1.00  0.00     0.047 C 
BRANCH   7  27
HETATM   27  O2  UNL     1       0.703   7.200   9.917  1.00  0.00    -0.381 OA
HETATM   28  H27 UNL     1       1.311   6.951   9.197  1.00  0.00     0.211 HD
ENDBRANCH   7  27
ENDBRANCH   5   7
ENDBRANCH   4   5
ENDBRANCH   3   4
ENDBRANCH   1   3
BRANCH   1  29
HETATM   29  C23 UNL     1       6.599   7.112  12.936  1.00  0.00     0.120 C 
BRANCH  29  30
HETATM   30  C24 UNL     1       6.853   8.381  13.744  1.00  0.00     0.112 C 
BRANCH  30  31
HETATM   31  C25 UNL     1       8.331   8.637  13.953  1.00  0.00     0.217 C 
HETATM   32  O6  UNL     1       9.193   8.239  13.178  1.00  0.00    -0.274 OA
HETATM   33  N1  UNL     1       8.600   9.382  15.080  1.00  0.00    -0.361 N 
HETATM   34  H34 UNL     1       7.831   9.725  15.642  1.00  0.00     0.162 HD
BRANCH  33  35
HETATM   35  C26 UNL     1       9.936   9.863  15.378  1.00  0.00     0.122 C 
BRANCH  35  36
HETATM   36  C27 UNL     1       9.967  10.552  16.739  1.00  0.00     0.020 C 
BRANCH  36  37
HETATM   37  C28 UNL     1      11.027  11.652  16.836  1.00  0.00     0.002 C 
BRANCH  37  38
HETATM   38  C29 UNL     1      11.790  11.615  18.166  1.00  0.00     0.009 C 
BRANCH  38  39
HETATM   39  C30 UNL     1      13.051  12.478  18.145  1.00  0.00     0.103 C 
BRANCH  39  40
HETATM   40  C31 UNL     1      13.774  12.529  19.479  1.00  0.00     0.218 C 
HETATM   41  O7  UNL     1      13.316  12.087  20.525  1.00  0.00    -0.274 OA
HETATM   42  N2  UNL     1      15.013  13.132  19.395  1.00  0.00    -0.346 N 
HETATM   43  H45 UNL     1      15.141  13.782  18.626  1.00  0.00     0.163 HD
BRANCH  42  44
HETATM   44  C32 UNL     1      15.773  13.427  20.617  1.00  0.00     0.186 C 
BRANCH  44  45
HETATM   45  C33 UNL     1      17.040  12.566  20.672  1.00  0.00     0.074 C 
BRANCH  45  46
HETATM   46  C34 UNL     1      17.911  12.686  19.445  1.00  0.00    -0.056 A 
HETATM   47  C35 UNL     1      19.215  13.192  19.545  1.00  0.00     0.007 A 
HETATM   48  C36 UNL     1      20.014  13.316  18.407  1.00  0.00     0.001 A 
HETATM   49  C37 UNL     1      19.520  12.935  17.162  1.00  0.00     0.000 A 
HETATM   50  C38 UNL     1      18.227  12.429  17.052  1.00  0.00     0.001 A 
HETATM   51  C39 UNL     1      17.424  12.305  18.187  1.00  0.00     0.007 A 
ENDBRANCH  45  46
ENDBRANCH  44  45
BRANCH  44  52
HETATM   52  C40 UNL     1      16.149  14.906  20.565  1.00  0.00     0.163 C 
HETATM   53  O8  UNL     1      16.842  15.433  19.704  1.00  0.00    -0.648 OA
BRANCH  52  54
HETATM   54  O9  UNL     1      15.649  15.627  21.584  1.00  0.00    -0.775 OA
HETATM   55  H54 UNL     1      15.945  16.545  21.414  1.00  0.00     0.167 HD
ENDBRANCH  52  54
ENDBRANCH  44  52
ENDBRANCH  42  44
ENDBRANCH  39  40
ENDBRANCH  38  39
ENDBRANCH  37  38
ENDBRANCH  36  37
ENDBRANCH  35  36
ENDBRANCH  33  35
ENDBRANCH  30  31
ENDBRANCH  29  30
ENDBRANCH   1  29
TORSDOF 19
ENDMDL
MODEL 9
REMARK minimizedAffinity -9.1625948
REMARK CNNscore 0.243821979
REMARK CNNaffinity 6.833323
REMARK  19 active torsions:
REMARK  status: ('A' for Active; 'I' for Inactive)
REMARK    1  A    between atoms: C19_20  and  O2_21 
REMARK    2  A    between atoms: C19_20  and  C20_22 
REMARK    3  A    between atoms: C20_22  and  C21_24 
REMARK    4  A    between atoms: C21_24  and  O4_25 
REMARK    5  A    between atoms: O4_25  and  C22_26 
REMARK    6  A    between atoms: C22_26  and  C23_28 
REMARK    7  A    between atoms: C23_28  and  C24_29 
REMARK    8  A    between atoms: C24_29  and  C25_30 
REMARK       I    between atoms: C25_30  and  N1_32 
REMARK    9  A    between atoms: N1_32  and  C26_33 
REMARK   10  A    between atoms: C26_33  and  C27_34 
REMARK   11  A    between atoms: C27_34  and  C28_35 
REMARK   12  A    between atoms: C28_35  and  C29_36 
REMARK   13  A    between atoms: C29_36  and  C30_37 
REMARK   14  A    between atoms: C30_37  and  C31_38 
REMARK       I    between atoms: C31_38  and  N2_40 
REMARK   15  A    between atoms: N2_40  and  C32_41 
REMARK   16  A    between atoms: C32_41  and  C33_42 
REMARK   17  A    between atoms: C32_41  and  C40_49 
REMARK   18  A    between atoms: C33_42  and  C34_43 
REMARK   19  A    between atoms: C40_49  and  O9_51 
ROOT
HETATM    1  C22 UNL     1       2.411   5.866  10.722  1.00  0.00     0.259 C 
HETATM    2  O5  UNL     1       1.677   4.991  10.278  1.00  0.00    -0.265 OA
ENDROOT
BRANCH   1   3
HETATM    3  O4  UNL     1       2.020   6.823  11.600  1.00  0.00    -0.314 OA
BRANCH   3   4
HETATM    4  C21 UNL     1       1.554   6.329  12.858  1.00  0.00     0.260 C 
BRANCH   4   5
HETATM    5  C20 UNL     1       0.227   7.001  13.194  1.00  0.00     0.185 C 
HETATM    6  O3  UNL     1       0.166   7.956  13.974  1.00  0.00    -0.292 OA
BRANCH   5   7
HETATM    7  C19 UNL     1      -1.051   6.374  12.590  1.00  0.00     0.128 C 
HETATM    8  C14 UNL     1      -2.313   6.360  13.513  1.00  0.00    -0.002 C 
HETATM    9  C13 UNL     1      -3.132   7.671  13.575  1.00  0.00     0.013 C 
HETATM   10  C15 UNL     1      -1.914   5.901  14.940  1.00  0.00     0.019 C 
HETATM   11  C16 UNL     1      -3.173   5.316  12.771  1.00  0.00     0.002 C 
HETATM   12  C12 UNL     1      -4.666   7.479  13.469  1.00  0.00     0.007 C 
HETATM   13  C11 UNL     1      -5.160   6.185  14.157  1.00  0.00     0.002 C 
HETATM   14  C2  UNL     1      -6.720   6.049  14.438  1.00  0.00    -0.016 C 
HETATM   15  C10 UNL     1      -4.499   4.938  13.468  1.00  0.00    -0.004 C 
HETATM   16  C1  UNL     1      -6.885   5.311  15.796  1.00  0.00     0.020 C 
HETATM   17  C3  UNL     1      -7.394   7.445  14.557  1.00  0.00     0.022 C 
HETATM   18  C7  UNL     1      -7.461   5.215  13.393  1.00  0.00    -0.068 C 
HETATM   19  C4  UNL     1      -8.914   7.394  14.647  1.00  0.00     0.084 C 
HETATM   20  C5  UNL     1      -9.465   6.661  13.454  1.00  0.00     0.149 C 
HETATM   21  O1  UNL     1     -10.546   6.943  12.947  1.00  0.00    -0.293 OA
HETATM   22  C6  UNL     1      -8.686   5.516  12.923  1.00  0.00     0.053 C 
HETATM   23  C8  UNL     1      -6.781   3.956  12.936  1.00  0.00     0.035 C 
HETATM   24  C9  UNL     1      -5.400   4.276  12.410  1.00  0.00     0.010 C 
HETATM   25  C17 UNL     1      -2.208   4.179  12.459  1.00  0.00     0.009 C 
HETATM   26  C18 UNL     1      -0.854   4.872  12.235  1.00  0.00     0.047 C 
BRANCH   7  27
HETATM   27  O2  UNL     1      -1.337   7.075  11.373  1.00  0.00    -0.381 OA
HETATM   28  H27 UNL     1      -0.624   6.876  10.739  1.00  0.00     0.211 HD
ENDBRANCH   7  27
ENDBRANCH   5   7
ENDBRANCH   4   5
ENDBRANCH   3   4
ENDBRANCH   1   3
BRANCH   1  29
HETATM   29  C23 UNL     1       3.835   6.084  10.267  1.00  0.00     0.120 C 
BRANCH  29  30
HETATM   30  C24 UNL     1       4.336   7.510  10.471  1.00  0.00     0.112 C 
BRANCH  30  31
HETATM   31  C25 UNL     1       5.738   7.545  11.041  1.00  0.00     0.217 C 
HETATM   32  O6  UNL     1       6.727   7.204  10.401  1.00  0.00    -0.274 OA
HETATM   33  N1  UNL     1       5.790   8.023  12.332  1.00  0.00    -0.361 N 
HETATM   34  H34 UNL     1       4.937   8.339  12.776  1.00  0.00     0.162 HD
BRANCH  33  35
HETATM   35  C26 UNL     1       7.050   8.276  13.004  1.00  0.00     0.122 C 
BRANCH  35  36
HETATM   36  C27 UNL     1       6.872   9.322  14.101  1.00  0.00     0.020 C 
BRANCH  36  37
HETATM   37  C28 UNL     1       7.754   9.070  15.326  1.00  0.00     0.002 C 
BRANCH  37  38
HETATM   38  C29 UNL     1       7.701  10.223  16.335  1.00  0.00     0.009 C 
BRANCH  38  39
HETATM   39  C30 UNL     1       8.607   9.990  17.543  1.00  0.00     0.103 C 
BRANCH  39  40
HETATM   40  C31 UNL     1       9.124  11.273  18.170  1.00  0.00     0.218 C 
HETATM   41  O7  UNL     1       9.214  12.339  17.575  1.00  0.00    -0.274 OA
HETATM   42  N2  UNL     1       9.487  11.115  19.492  1.00  0.00    -0.346 N 
HETATM   43  H45 UNL     1       9.739  10.173  19.776  1.00  0.00     0.163 HD
BRANCH  42  44
HETATM   44  C32 UNL     1      10.174  12.202  20.204  1.00  0.00     0.186 C 
BRANCH  44  45
HETATM   45  C33 UNL     1       9.726  12.240  21.669  1.00  0.00     0.074 C 
BRANCH  45  46
HETATM   46  C34 UNL     1       8.277  12.624  21.853  1.00  0.00    -0.056 A 
HETATM   47  C35 UNL     1       7.575  12.222  22.998  1.00  0.00     0.007 A 
HETATM   48  C36 UNL     1       6.231  12.565  23.160  1.00  0.00     0.001 A 
HETATM   49  C37 UNL     1       5.579  13.313  22.183  1.00  0.00     0.000 A 
HETATM   50  C38 UNL     1       6.269  13.720  21.042  1.00  0.00     0.001 A 
HETATM   51  C39 UNL     1       7.612  13.376  20.876  1.00  0.00     0.007 A 
ENDBRANCH  45  46
ENDBRANCH  44  45
BRANCH  44  52
HETATM   52  C40 UNL     1      11.671  11.917  20.122  1.00  0.00     0.163 C 
HETATM   53  O8  UNL     1      12.553  12.761  20.046  1.00  0.00    -0.648 OA
BRANCH  52  54
HETATM   54  O9  UNL     1      11.972  10.605  20.134  1.00  0.00    -0.775 OA
HETATM   55  H54 UNL     1      12.950  10.570  20.099  1.00  0.00     0.167 HD
ENDBRANCH  52  54
ENDBRANCH  44  52
ENDBRANCH  42  44
ENDBRANCH  39  40
ENDBRANCH  38  39
ENDBRANCH  37  38
ENDBRANCH  36  37
ENDBRANCH  35  36
ENDBRANCH  33  35
ENDBRANCH  30  31
ENDBRANCH  29  30
ENDBRANCH   1  29
TORSDOF 19
ENDMDL
