MODEL 1
REMARK minimizedAffinity -9.77050686
REMARK  8 active torsions:
REMARK  status: ('A' for Active; 'I' for Inactive)
REMARK    1  A    between atoms: C4_4  and  C5_5 
REMARK    2  A    between atoms: C5_5  and  C6_6 
REMARK    3  A    between atoms: C6_6  and  C7_7 
REMARK    4  A    between atoms: C7_7  and  C9_9 
REMARK    5  A    between atoms: C25_26  and  C27_28 
REMARK    6  A    between atoms: C27_28  and  O3_30 
REMARK    7  A    between atoms: C28_31  and  O4_32 
REMARK    8  A    between atoms: C30_34  and  O5_35 
ROOT
HETATM    1  C9  UNL     1      -2.984   8.396  14.891  1.00  0.00    -0.002 C 
HETATM    2  C10 UNL     1      -2.208   7.794  16.100  1.00  0.00     0.007 C 
HETATM    3  C11 UNL     1      -0.771   7.503  15.630  1.00  0.00     0.015 C 
HETATM    4  C12 UNL     1      -0.629   8.230  14.280  1.00  0.00    -0.005 C 
HETATM    5  C13 UNL     1      -0.278   9.718  14.599  1.00  0.00     0.021 C 
HETATM    6  C14 UNL     1       0.432   7.798  13.273  1.00  0.00    -0.000 C 
HETATM    7  C15 UNL     1       0.231   7.926  11.931  1.00  0.00    -0.058 C 
HETATM    8  C16 UNL     1      -1.095   8.472  11.396  1.00  0.00     0.036 C 
HETATM    9  C17 UNL     1      -2.186   8.844  12.419  1.00  0.00     0.015 C 
HETATM   10  C18 UNL     1      -2.076   7.993  13.689  1.00  0.00    -0.028 C 
HETATM   11  C19 UNL     1      -2.354   6.502  13.313  1.00  0.00     0.016 C 
HETATM   12  C20 UNL     1       1.296   7.477  10.868  1.00  0.00     0.011 C 
HETATM   13  C21 UNL     1       0.973   5.988  10.615  1.00  0.00     0.023 C 
HETATM   14  C22 UNL     1       2.696   7.745  11.524  1.00  0.00     0.029 C 
HETATM   15  C23 UNL     1       2.851   6.956  12.825  1.00  0.00     0.090 C 
HETATM   16  C24 UNL     1       1.741   7.281  13.798  1.00  0.00     0.157 C 
HETATM   17  O1  UNL     1       1.924   7.114  15.003  1.00  0.00    -0.293 OA
HETATM   18  C25 UNL     1       3.955   7.790  10.572  1.00  0.00     0.072 C 
HETATM   19  C26 UNL     1       4.460   9.269  10.579  1.00  0.00     0.030 C 
HETATM   20  C28 UNL     1       3.664   7.434   9.098  1.00  0.00     0.139 C 
HETATM   21  C29 UNL     1       2.395   8.062   8.536  1.00  0.00     0.065 C 
HETATM   22  C30 UNL     1       1.254   8.308   9.539  1.00  0.00     0.133 C 
ENDROOT
BRANCH   1  23
HETATM   23  C7  UNL     1      -4.484   7.979  14.908  1.00  0.00    -0.014 C 
HETATM   24  C8  UNL     1      -5.199   8.455  13.630  1.00  0.00     0.010 C 
BRANCH  23  25
HETATM   25  C6  UNL     1      -4.746   6.469  15.113  1.00  0.00     0.008 C 
BRANCH  25  26
HETATM   26  C5  UNL     1      -5.974   5.915  14.382  1.00  0.00     0.028 C 
BRANCH  26  27
HETATM   27  C4  UNL     1      -5.585   4.860  13.383  1.00  0.00    -0.025 C 
HETATM   28  C2  UNL     1      -6.326   3.823  12.947  1.00  0.00    -0.091 C 
HETATM   29  C1  UNL     1      -7.705   3.478  13.442  1.00  0.00     0.042 C 
HETATM   30  C3  UNL     1      -5.799   2.893  11.884  1.00  0.00     0.042 C 
ENDBRANCH  26  27
ENDBRANCH  25  26
ENDBRANCH  23  25
ENDBRANCH   1  23
BRANCH  22  31
HETATM   31  O5  UNL     1       0.034   8.150   8.809  1.00  0.00    -0.394 OA
HETATM   32  H46 UNL     1      -0.029   7.225   8.515  1.00  0.00     0.210 HD
ENDBRANCH  22  31
BRANCH  18  33
HETATM   33  C27 UNL     1       5.164   6.955  11.016  1.00  0.00     0.151 C 
HETATM   34  O2  UNL     1       6.195   6.792  10.374  1.00  0.00    -0.649 OA
BRANCH  33  35
HETATM   35  O3  UNL     1       5.036   6.339  12.205  1.00  0.00    -0.776 OA
HETATM   36  H40 UNL     1       5.871   5.834  12.301  1.00  0.00     0.167 HD
ENDBRANCH  33  35
ENDBRANCH  18  33
BRANCH  20  37
HETATM   37  O4  UNL     1       3.572   6.024   8.905  1.00  0.00    -0.394 OA
HETATM   38  H42 UNL     1       3.689   5.843   7.955  1.00  0.00     0.210 HD
ENDBRANCH  20  37
TORSDOF 8
ENDMDL
MODEL 2
REMARK minimizedAffinity -9.76404572
REMARK  8 active torsions:
REMARK  status: ('A' for Active; 'I' for Inactive)
REMARK    1  A    between atoms: C4_4  and  C5_5 
REMARK    2  A    between atoms: C5_5  and  C6_6 
REMARK    3  A    between atoms: C6_6  and  C7_7 
REMARK    4  A    between atoms: C7_7  and  C9_9 
REMARK    5  A    between atoms: C25_26  and  C27_28 
REMARK    6  A    between atoms: C27_28  and  O3_30 
REMARK    7  A    between atoms: C28_31  and  O4_32 
REMARK    8  A    between atoms: C30_34  and  O5_35 
ROOT
HETATM    1  C9  UNL     1      -2.708   8.754  14.985  1.00  0.00    -0.002 C 
HETATM    2  C10 UNL     1      -1.897   8.019  16.094  1.00  0.00     0.007 C 
HETATM    3  C11 UNL     1      -0.570   7.554  15.466  1.00  0.00     0.015 C 
HETATM    4  C12 UNL     1      -0.474   8.296  14.120  1.00  0.00    -0.005 C 
HETATM    5  C13 UNL     1       0.106   9.714  14.422  1.00  0.00     0.021 C 
HETATM    6  C14 UNL     1       0.407   7.757  12.997  1.00  0.00    -0.000 C 
HETATM    7  C15 UNL     1       0.085   7.952  11.687  1.00  0.00    -0.058 C 
HETATM    8  C16 UNL     1      -1.204   8.684  11.308  1.00  0.00     0.036 C 
HETATM    9  C17 UNL     1      -2.120   9.166  12.449  1.00  0.00     0.015 C 
HETATM   10  C18 UNL     1      -1.994   8.271  13.685  1.00  0.00    -0.028 C 
HETATM   11  C19 UNL     1      -2.509   6.841  13.319  1.00  0.00     0.016 C 
HETATM   12  C20 UNL     1       0.962   7.397  10.508  1.00  0.00     0.011 C 
HETATM   13  C21 UNL     1       0.416   5.972  10.268  1.00  0.00     0.023 C 
HETATM   14  C22 UNL     1       2.446   7.457  11.012  1.00  0.00     0.029 C 
HETATM   15  C23 UNL     1       2.629   6.616  12.277  1.00  0.00     0.090 C 
HETATM   16  C24 UNL     1       1.682   7.056  13.369  1.00  0.00     0.157 C 
HETATM   17  O1  UNL     1       1.967   6.830  14.545  1.00  0.00    -0.293 OA
HETATM   18  C25 UNL     1       3.592   7.363   9.930  1.00  0.00     0.072 C 
HETATM   19  C26 UNL     1       4.291   8.762   9.906  1.00  0.00     0.030 C 
HETATM   20  C28 UNL     1       3.103   7.094   8.492  1.00  0.00     0.139 C 
HETATM   21  C29 UNL     1       1.878   7.901   8.080  1.00  0.00     0.065 C 
HETATM   22  C30 UNL     1       0.893   8.266   9.204  1.00  0.00     0.133 C 
ENDROOT
BRANCH   1  23
HETATM   23  C7  UNL     1      -4.240   8.540  15.157  1.00  0.00    -0.014 C 
HETATM   24  C8  UNL     1      -4.896   9.772  15.808  1.00  0.00     0.010 C 
BRANCH  23  25
HETATM   25  C6  UNL     1      -5.003   8.173  13.864  1.00  0.00     0.008 C 
BRANCH  25  26
HETATM   26  C5  UNL     1      -6.254   7.311  14.067  1.00  0.00     0.028 C 
BRANCH  26  27
HETATM   27  C4  UNL     1      -6.010   5.888  13.645  1.00  0.00    -0.025 C 
HETATM   28  C2  UNL     1      -6.836   5.079  12.953  1.00  0.00    -0.091 C 
HETATM   29  C1  UNL     1      -8.229   5.440  12.512  1.00  0.00     0.042 C 
HETATM   30  C3  UNL     1      -6.400   3.692  12.555  1.00  0.00     0.042 C 
ENDBRANCH  26  27
ENDBRANCH  25  26
ENDBRANCH  23  25
ENDBRANCH   1  23
BRANCH  22  31
HETATM   31  O5  UNL     1      -0.407   8.293   8.609  1.00  0.00    -0.394 OA
HETATM   32  H46 UNL     1      -0.626   7.394   8.309  1.00  0.00     0.210 HD
ENDBRANCH  22  31
BRANCH  18  33
HETATM   33  C27 UNL     1       4.718   6.362  10.228  1.00  0.00     0.151 C 
HETATM   34  O2  UNL     1       5.869   6.651  10.532  1.00  0.00    -0.649 OA
BRANCH  33  35
HETATM   35  O3  UNL     1       4.384   5.065  10.107  1.00  0.00    -0.776 OA
HETATM   36  H40 UNL     1       5.221   4.587  10.293  1.00  0.00     0.167 HD
ENDBRANCH  33  35
ENDBRANCH  18  33
BRANCH  20  37
HETATM   37  O4  UNL     1       2.801   5.715   8.287  1.00  0.00    -0.394 OA
HETATM   38  H42 UNL     1       2.792   5.548   7.328  1.00  0.00     0.210 HD
ENDBRANCH  20  37
TORSDOF 8
ENDMDL
MODEL 3
REMARK minimizedAffinity -9.39155006
REMARK  8 active torsions:
REMARK  status: ('A' for Active; 'I' for Inactive)
REMARK    1  A    between atoms: C4_4  and  C5_5 
REMARK    2  A    between atoms: C5_5  and  C6_6 
REMARK    3  A    between atoms: C6_6  and  C7_7 
REMARK    4  A    between atoms: C7_7  and  C9_9 
REMARK    5  A    between atoms: C25_26  and  C27_28 
REMARK    6  A    between atoms: C27_28  and  O3_30 
REMARK    7  A    between atoms: C28_31  and  O4_32 
REMARK    8  A    between atoms: C30_34  and  O5_35 
ROOT
HETATM    1  C9  UNL     1      -5.689   7.056  14.931  1.00  0.00    -0.002 C 
HETATM    2  C10 UNL     1      -5.431   8.452  15.574  1.00  0.00     0.007 C 
HETATM    3  C11 UNL     1      -4.046   8.932  15.102  1.00  0.00     0.015 C 
HETATM    4  C12 UNL     1      -3.661   7.988  13.948  1.00  0.00    -0.005 C 
HETATM    5  C13 UNL     1      -4.348   8.539  12.659  1.00  0.00     0.021 C 
HETATM    6  C14 UNL     1      -2.199   7.806  13.550  1.00  0.00    -0.000 C 
HETATM    7  C15 UNL     1      -1.744   6.626  13.040  1.00  0.00    -0.058 C 
HETATM    8  C16 UNL     1      -2.688   5.430  12.896  1.00  0.00     0.036 C 
HETATM    9  C17 UNL     1      -4.146   5.604  13.363  1.00  0.00     0.015 C 
HETATM   10  C18 UNL     1      -4.254   6.628  14.496  1.00  0.00    -0.028 C 
HETATM   11  C19 UNL     1      -3.485   6.076  15.740  1.00  0.00     0.016 C 
HETATM   12  C20 UNL     1      -0.244   6.401  12.635  1.00  0.00     0.011 C 
HETATM   13  C21 UNL     1       0.432   5.918  13.937  1.00  0.00     0.023 C 
HETATM   14  C22 UNL     1       0.269   7.784  12.102  1.00  0.00     0.029 C 
HETATM   15  C23 UNL     1       0.145   8.865  13.176  1.00  0.00     0.090 C 
HETATM   16  C24 UNL     1      -1.277   8.985  13.673  1.00  0.00     0.157 C 
HETATM   17  O1  UNL     1      -1.657  10.043  14.173  1.00  0.00    -0.293 OA
HETATM   18  C25 UNL     1       1.592   7.793  11.240  1.00  0.00     0.072 C 
HETATM   19  C26 UNL     1       1.170   8.190   9.788  1.00  0.00     0.030 C 
HETATM   20  C28 UNL     1       2.302   6.427  11.131  1.00  0.00     0.139 C 
HETATM   21  C29 UNL     1       1.367   5.248  10.884  1.00  0.00     0.065 C 
HETATM   22  C30 UNL     1      -0.050   5.368  11.471  1.00  0.00     0.133 C 
ENDROOT
BRANCH   1  23
HETATM   23  C7  UNL     1      -6.525   6.138  15.868  1.00  0.00    -0.014 C 
HETATM   24  C8  UNL     1      -7.600   6.949  16.616  1.00  0.00     0.010 C 
BRANCH  23  25
HETATM   25  C6  UNL     1      -7.185   4.920  15.181  1.00  0.00     0.008 C 
BRANCH  25  26
HETATM   26  C5  UNL     1      -7.788   5.199  13.799  1.00  0.00     0.028 C 
BRANCH  26  27
HETATM   27  C4  UNL     1      -6.906   4.666  12.702  1.00  0.00    -0.025 C 
HETATM   28  C2  UNL     1      -6.806   3.393  12.269  1.00  0.00    -0.091 C 
HETATM   29  C1  UNL     1      -7.533   2.219  12.864  1.00  0.00     0.042 C 
HETATM   30  C3  UNL     1      -5.914   3.046  11.105  1.00  0.00     0.042 C 
ENDBRANCH  26  27
ENDBRANCH  25  26
ENDBRANCH  23  25
ENDBRANCH   1  23
BRANCH  22  31
HETATM   31  O5  UNL     1      -0.457   4.041  11.816  1.00  0.00    -0.394 OA
HETATM   32  H46 UNL     1       0.125   3.716  12.523  1.00  0.00     0.210 HD
ENDBRANCH  22  31
BRANCH  18  33
HETATM   33  C27 UNL     1       2.650   8.830  11.644  1.00  0.00     0.151 C 
HETATM   34  O2  UNL     1       2.498   9.721  12.471  1.00  0.00    -0.649 OA
BRANCH  33  35
HETATM   35  O3  UNL     1       3.824   8.741  10.993  1.00  0.00    -0.776 OA
HETATM   36  H40 UNL     1       4.348   9.490  11.347  1.00  0.00     0.167 HD
ENDBRANCH  33  35
ENDBRANCH  18  33
BRANCH  20  37
HETATM   37  O4  UNL     1       3.067   6.136  12.299  1.00  0.00    -0.394 OA
HETATM   38  H42 UNL     1       3.712   5.442  12.070  1.00  0.00     0.210 HD
ENDBRANCH  20  37
TORSDOF 8
ENDMDL
MODEL 4
REMARK minimizedAffinity -9.11896038
REMARK  8 active torsions:
REMARK  status: ('A' for Active; 'I' for Inactive)
REMARK    1  A    between atoms: C4_4  and  C5_5 
REMARK    2  A    between atoms: C5_5  and  C6_6 
REMARK    3  A    between atoms: C6_6  and  C7_7 
REMARK    4  A    between atoms: C7_7  and  C9_9 
REMARK    5  A    between atoms: C25_26  and  C27_28 
REMARK    6  A    between atoms: C27_28  and  O3_30 
REMARK    7  A    between atoms: C28_31  and  O4_32 
REMARK    8  A    between atoms: C30_34  and  O5_35 
ROOT
HETATM    1  C9  UNL     1       0.718   5.713  11.211  1.00  0.00    -0.002 C 
HETATM    2  C10 UNL     1       0.698   4.156  11.242  1.00  0.00     0.007 C 
HETATM    3  C11 UNL     1      -0.675   3.721  11.787  1.00  0.00     0.015 C 
HETATM    4  C12 UNL     1      -1.547   4.990  11.754  1.00  0.00    -0.005 C 
HETATM    5  C13 UNL     1      -2.106   5.120  10.302  1.00  0.00     0.021 C 
HETATM    6  C14 UNL     1      -2.778   5.109  12.647  1.00  0.00    -0.000 C 
HETATM    7  C15 UNL     1      -3.192   6.316  13.126  1.00  0.00    -0.058 C 
HETATM    8  C16 UNL     1      -2.399   7.587  12.813  1.00  0.00     0.036 C 
HETATM    9  C17 UNL     1      -1.119   7.446  11.966  1.00  0.00     0.015 C 
HETATM   10  C18 UNL     1      -0.468   6.073  12.158  1.00  0.00    -0.028 C 
HETATM   11  C19 UNL     1       0.005   5.950  13.642  1.00  0.00     0.016 C 
HETATM   12  C20 UNL     1      -4.446   6.472  14.059  1.00  0.00     0.011 C 
HETATM   13  C21 UNL     1      -3.883   6.276  15.485  1.00  0.00     0.023 C 
HETATM   14  C22 UNL     1      -5.464   5.372  13.597  1.00  0.00     0.029 C 
HETATM   15  C23 UNL     1      -4.856   3.975  13.721  1.00  0.00     0.090 C 
HETATM   16  C24 UNL     1      -3.568   3.866  12.937  1.00  0.00     0.157 C 
HETATM   17  O1  UNL     1      -3.185   2.762  12.552  1.00  0.00    -0.293 OA
HETATM   18  C25 UNL     1      -6.969   5.530  14.049  1.00  0.00     0.072 C 
HETATM   19  C26 UNL     1      -7.790   5.829  12.753  1.00  0.00     0.030 C 
HETATM   20  C28 UNL     1      -7.234   6.704  15.015  1.00  0.00     0.139 C 
HETATM   21  C29 UNL     1      -6.522   8.000  14.644  1.00  0.00     0.065 C 
HETATM   22  C30 UNL     1      -5.176   7.853  13.915  1.00  0.00     0.133 C 
ENDROOT
BRANCH   1  23
HETATM   23  C7  UNL     1       2.141   6.275  11.499  1.00  0.00    -0.014 C 
HETATM   24  C8  UNL     1       3.210   5.486  10.719  1.00  0.00     0.010 C 
BRANCH  23  25
HETATM   25  C6  UNL     1       2.319   7.787  11.230  1.00  0.00     0.008 C 
BRANCH  25  26
HETATM   26  C5  UNL     1       1.253   8.420  10.329  1.00  0.00     0.028 C 
BRANCH  26  27
HETATM   27  C4  UNL     1       1.205   7.746   8.985  1.00  0.00    -0.025 C 
HETATM   28  C2  UNL     1       2.062   7.897   7.955  1.00  0.00    -0.091 C 
HETATM   29  C1  UNL     1       3.228   8.847   7.934  1.00  0.00     0.042 C 
HETATM   30  C3  UNL     1       1.900   7.087   6.695  1.00  0.00     0.042 C 
ENDBRANCH  26  27
ENDBRANCH  25  26
ENDBRANCH  23  25
ENDBRANCH   1  23
BRANCH  22  31
HETATM   31  O5  UNL     1      -4.373   8.964  14.323  1.00  0.00    -0.394 OA
HETATM   32  H46 UNL     1      -4.199   8.883  15.277  1.00  0.00     0.210 HD
ENDBRANCH  22  31
BRANCH  18  33
HETATM   33  C27 UNL     1      -7.623   4.280  14.655  1.00  0.00     0.151 C 
HETATM   34  O2  UNL     1      -7.910   3.256  14.045  1.00  0.00    -0.649 OA
BRANCH  33  35
HETATM   35  O3  UNL     1      -7.921   4.360  15.964  1.00  0.00    -0.776 OA
HETATM   36  H40 UNL     1      -8.357   3.504  16.160  1.00  0.00     0.167 HD
ENDBRANCH  33  35
ENDBRANCH  18  33
BRANCH  20  37
HETATM   37  O4  UNL     1      -6.868   6.378  16.355  1.00  0.00    -0.394 OA
HETATM   38  H42 UNL     1      -7.317   7.004  16.950  1.00  0.00     0.210 HD
ENDBRANCH  20  37
TORSDOF 8
ENDMDL
MODEL 5
REMARK minimizedAffinity -8.73165035
REMARK  8 active torsions:
REMARK  status: ('A' for Active; 'I' for Inactive)
REMARK    1  A    between atoms: C4_4  and  C5_5 
REMARK    2  A    between atoms: C5_5  and  C6_6 
REMARK    3  A    between atoms: C6_6  and  C7_7 
REMARK    4  A    between atoms: C7_7  and  C9_9 
REMARK    5  A    between atoms: C25_26  and  C27_28 
REMARK    6  A    between atoms: C27_28  and  O3_30 
REMARK    7  A    between atoms: C28_31  and  O4_32 
REMARK    8  A    between atoms: C30_34  and  O5_35 
ROOT
HETATM    1  C9  UNL     1      -1.674   5.856  12.443  1.00  0.00    -0.002 C 
HETATM    2  C10 UNL     1      -1.512   5.640  13.977  1.00  0.00     0.007 C 
HETATM    3  C11 UNL     1      -0.157   6.244  14.391  1.00  0.00     0.015 C 
HETATM    4  C12 UNL     1       0.298   7.085  13.184  1.00  0.00    -0.005 C 
HETATM    5  C13 UNL     1      -0.414   8.470  13.300  1.00  0.00     0.021 C 
HETATM    6  C14 UNL     1       1.772   7.431  12.990  1.00  0.00    -0.000 C 
HETATM    7  C15 UNL     1       2.306   7.588  11.746  1.00  0.00    -0.058 C 
HETATM    8  C16 UNL     1       1.442   7.376  10.501  1.00  0.00     0.036 C 
HETATM    9  C17 UNL     1      -0.028   6.962  10.706  1.00  0.00     0.015 C 
HETATM   10  C18 UNL     1      -0.210   6.166  12.002  1.00  0.00    -0.028 C 
HETATM   11  C19 UNL     1       0.583   4.825  11.877  1.00  0.00     0.016 C 
HETATM   12  C20 UNL     1       3.820   7.929  11.512  1.00  0.00     0.011 C 
HETATM   13  C21 UNL     1       4.515   6.550  11.464  1.00  0.00     0.023 C 
HETATM   14  C22 UNL     1       4.247   8.840  12.715  1.00  0.00     0.029 C 
HETATM   15  C23 UNL     1       4.045   8.116  14.048  1.00  0.00     0.090 C 
HETATM   16  C24 UNL     1       2.614   7.659  14.212  1.00  0.00     0.157 C 
HETATM   17  O1  UNL     1       2.163   7.477  15.342  1.00  0.00    -0.293 OA
HETATM   18  C25 UNL     1       5.573   9.682  12.563  1.00  0.00     0.072 C 
HETATM   19  C26 UNL     1       5.138  11.183  12.503  1.00  0.00     0.030 C 
HETATM   20  C28 UNL     1       6.371   9.406  11.272  1.00  0.00     0.139 C 
HETATM   21  C29 UNL     1       5.516   9.296  10.014  1.00  0.00     0.065 C 
HETATM   22  C30 UNL     1       4.090   8.753  10.205  1.00  0.00     0.133 C 
ENDROOT
BRANCH   1  23
HETATM   23  C7  UNL     1      -2.456   4.687  11.778  1.00  0.00    -0.014 C 
HETATM   24  C8  UNL     1      -1.505   3.774  10.981  1.00  0.00     0.010 C 
BRANCH  23  25
HETATM   25  C6  UNL     1      -3.305   3.828  12.744  1.00  0.00     0.008 C 
BRANCH  25  26
HETATM   26  C5  UNL     1      -4.745   3.567  12.291  1.00  0.00     0.028 C 
BRANCH  26  27
HETATM   27  C4  UNL     1      -5.702   4.536  12.929  1.00  0.00    -0.025 C 
HETATM   28  C2  UNL     1      -6.970   4.305  13.324  1.00  0.00    -0.091 C 
HETATM   29  C1  UNL     1      -7.710   3.008  13.138  1.00  0.00     0.042 C 
HETATM   30  C3  UNL     1      -7.769   5.381  14.013  1.00  0.00     0.042 C 
ENDBRANCH  26  27
ENDBRANCH  25  26
ENDBRANCH  23  25
ENDBRANCH   1  23
BRANCH  22  31
HETATM   31  O5  UNL     1       3.766   8.040   9.008  1.00  0.00    -0.394 OA
HETATM   32  H46 UNL     1       4.363   7.276   8.936  1.00  0.00     0.210 HD
ENDBRANCH  22  31
BRANCH  18  33
HETATM   33  C27 UNL     1       6.559   9.602  13.738  1.00  0.00     0.151 C 
HETATM   34  O2  UNL     1       7.236   8.625  14.038  1.00  0.00    -0.649 OA
BRANCH  33  35
HETATM   35  O3  UNL     1       6.642  10.707  14.500  1.00  0.00    -0.776 OA
HETATM   36  H40 UNL     1       7.276  10.461  15.206  1.00  0.00     0.167 HD
ENDBRANCH  33  35
ENDBRANCH  18  33
BRANCH  20  37
HETATM   37  O4  UNL     1       7.144   8.212  11.375  1.00  0.00    -0.394 OA
HETATM   38  H42 UNL     1       7.834   8.241  10.688  1.00  0.00     0.210 HD
ENDBRANCH  20  37
TORSDOF 8
ENDMDL
MODEL 6
REMARK minimizedAffinity -8.69859219
REMARK  8 active torsions:
REMARK  status: ('A' for Active; 'I' for Inactive)
REMARK    1  A    between atoms: C4_4  and  C5_5 
REMARK    2  A    between atoms: C5_5  and  C6_6 
REMARK    3  A    between atoms: C6_6  and  C7_7 
REMARK    4  A    between atoms: C7_7  and  C9_9 
REMARK    5  A    between atoms: C25_26  and  C27_28 
REMARK    6  A    between atoms: C27_28  and  O3_30 
REMARK    7  A    between atoms: C28_31  and  O4_32 
REMARK    8  A    between atoms: C30_34  and  O5_35 
ROOT
HETATM    1  C9  UNL     1      -2.212   5.786  13.855  1.00  0.00    -0.002 C 
HETATM    2  C10 UNL     1      -2.382   5.539  12.326  1.00  0.00     0.007 C 
HETATM    3  C11 UNL     1      -1.041   5.879  11.650  1.00  0.00     0.015 C 
HETATM    4  C12 UNL     1      -0.023   5.997  12.800  1.00  0.00    -0.005 C 
HETATM    5  C13 UNL     1       0.454   4.548  13.135  1.00  0.00     0.021 C 
HETATM    6  C14 UNL     1       1.268   6.789  12.616  1.00  0.00    -0.000 C 
HETATM    7  C15 UNL     1       1.857   7.437  13.660  1.00  0.00    -0.058 C 
HETATM    8  C16 UNL     1       1.208   7.422  15.046  1.00  0.00     0.036 C 
HETATM    9  C17 UNL     1      -0.130   6.676  15.206  1.00  0.00     0.015 C 
HETATM   10  C18 UNL     1      -0.932   6.676  13.901  1.00  0.00    -0.028 C 
HETATM   11  C19 UNL     1      -1.321   8.151  13.557  1.00  0.00     0.016 C 
HETATM   12  C20 UNL     1       3.177   8.272  13.501  1.00  0.00     0.011 C 
HETATM   13  C21 UNL     1       2.687   9.683  13.107  1.00  0.00     0.023 C 
HETATM   14  C22 UNL     1       4.021   7.538  12.402  1.00  0.00     0.029 C 
HETATM   15  C23 UNL     1       3.254   7.465  11.081  1.00  0.00     0.090 C 
HETATM   16  C24 UNL     1       1.916   6.786  11.261  1.00  0.00     0.157 C 
HETATM   17  O1  UNL     1       1.376   6.246  10.296  1.00  0.00    -0.293 OA
HETATM   18  C25 UNL     1       5.559   7.881  12.308  1.00  0.00     0.072 C 
HETATM   19  C26 UNL     1       6.326   6.592  12.750  1.00  0.00     0.030 C 
HETATM   20  C28 UNL     1       6.029   9.013  13.245  1.00  0.00     0.139 C 
HETATM   21  C29 UNL     1       5.460   8.939  14.657  1.00  0.00     0.065 C 
HETATM   22  C30 UNL     1       4.061   8.313  14.797  1.00  0.00     0.133 C 
ENDROOT
BRANCH   1  23
HETATM   23  C7  UNL     1      -3.533   6.288  14.506  1.00  0.00    -0.014 C 
HETATM   24  C8  UNL     1      -3.264   7.478  15.447  1.00  0.00     0.010 C 
BRANCH  23  25
HETATM   25  C6  UNL     1      -4.656   6.663  13.511  1.00  0.00     0.008 C 
BRANCH  25  26
HETATM   26  C5  UNL     1      -5.875   5.734  13.523  1.00  0.00     0.028 C 
BRANCH  26  27
HETATM   27  C4  UNL     1      -5.605   4.469  12.755  1.00  0.00    -0.025 C 
HETATM   28  C2  UNL     1      -6.436   3.425  12.565  1.00  0.00    -0.091 C 
HETATM   29  C1  UNL     1      -7.812   3.298  13.160  1.00  0.00     0.042 C 
HETATM   30  C3  UNL     1      -6.022   2.259  11.705  1.00  0.00     0.042 C 
ENDBRANCH  26  27
ENDBRANCH  25  26
ENDBRANCH  23  25
ENDBRANCH   1  23
BRANCH  22  31
HETATM   31  O5  UNL     1       3.429   8.978  15.894  1.00  0.00    -0.394 OA
HETATM   32  H46 UNL     1       3.309   9.914  15.657  1.00  0.00     0.210 HD
ENDBRANCH  22  31
BRANCH  18  33
HETATM   33  C27 UNL     1       6.092   8.198  10.903  1.00  0.00     0.151 C 
HETATM   34  O2  UNL     1       7.009   7.614  10.337  1.00  0.00    -0.649 OA
BRANCH  33  35
HETATM   35  O3  UNL     1       5.498   9.231  10.279  1.00  0.00    -0.776 OA
HETATM   36  H40 UNL     1       5.985   9.307   9.431  1.00  0.00     0.167 HD
ENDBRANCH  33  35
ENDBRANCH  18  33
BRANCH  20  37
HETATM   37  O4  UNL     1       5.711  10.300  12.718  1.00  0.00    -0.394 OA
HETATM   38  H42 UNL     1       6.272  10.956  13.171  1.00  0.00     0.210 HD
ENDBRANCH  20  37
TORSDOF 8
ENDMDL
MODEL 7
REMARK minimizedAffinity -8.63866615
REMARK  8 active torsions:
REMARK  status: ('A' for Active; 'I' for Inactive)
REMARK    1  A    between atoms: C4_4  and  C5_5 
REMARK    2  A    between atoms: C5_5  and  C6_6 
REMARK    3  A    between atoms: C6_6  and  C7_7 
REMARK    4  A    between atoms: C7_7  and  C9_9 
REMARK    5  A    between atoms: C25_26  and  C27_28 
REMARK    6  A    between atoms: C27_28  and  O3_30 
REMARK    7  A    between atoms: C28_31  and  O4_32 
REMARK    8  A    between atoms: C30_34  and  O5_35 
ROOT
HETATM    1  C9  UNL     1       3.678   7.849  10.233  1.00  0.00    -0.002 C 
HETATM    2  C10 UNL     1       3.347   6.513   9.504  1.00  0.00     0.007 C 
HETATM    3  C11 UNL     1       1.963   6.048   9.994  1.00  0.00     0.015 C 
HETATM    4  C12 UNL     1       1.365   7.259  10.733  1.00  0.00    -0.005 C 
HETATM    5  C13 UNL     1       0.728   8.185   9.649  1.00  0.00     0.021 C 
HETATM    6  C14 UNL     1       0.259   7.069  11.767  1.00  0.00    -0.000 C 
HETATM    7  C15 UNL     1       0.137   7.905  12.837  1.00  0.00    -0.058 C 
HETATM    8  C16 UNL     1       1.143   9.039  13.052  1.00  0.00     0.036 C 
HETATM    9  C17 UNL     1       2.295   9.181  12.039  1.00  0.00     0.015 C 
HETATM   10  C18 UNL     1       2.669   7.830  11.422  1.00  0.00    -0.028 C 
HETATM   11  C19 UNL     1       3.226   6.905  12.552  1.00  0.00     0.016 C 
HETATM   12  C20 UNL     1      -0.980   7.729  13.926  1.00  0.00     0.011 C 
HETATM   13  C21 UNL     1      -0.355   6.760  14.955  1.00  0.00     0.023 C 
HETATM   14  C22 UNL     1      -2.233   7.166  13.170  1.00  0.00     0.029 C 
HETATM   15  C23 UNL     1      -1.910   5.834  12.491  1.00  0.00     0.090 C 
HETATM   16  C24 UNL     1      -0.739   5.970  11.545  1.00  0.00     0.157 C 
HETATM   17  O1  UNL     1      -0.619   5.177  10.612  1.00  0.00    -0.293 OA
HETATM   18  C25 UNL     1      -3.633   7.270  13.892  1.00  0.00     0.072 C 
HETATM   19  C26 UNL     1      -4.479   8.294  13.068  1.00  0.00     0.030 C 
HETATM   20  C28 UNL     1      -3.578   7.810  15.336  1.00  0.00     0.139 C 
HETATM   21  C29 UNL     1      -2.651   9.005  15.528  1.00  0.00     0.065 C 
HETATM   22  C30 UNL     1      -1.425   9.072  14.601  1.00  0.00     0.133 C 
ENDROOT
BRANCH   1  23
HETATM   23  C7  UNL     1       5.203   7.989  10.509  1.00  0.00    -0.014 C 
HETATM   24  C8  UNL     1       5.543   9.408  11.003  1.00  0.00     0.010 C 
BRANCH  23  25
HETATM   25  C6  UNL     1       5.795   6.948  11.487  1.00  0.00     0.008 C 
BRANCH  25  26
HETATM   26  C5  UNL     1       7.185   7.285  12.036  1.00  0.00     0.028 C 
BRANCH  26  27
HETATM   27  C4  UNL     1       7.132   7.581  13.511  1.00  0.00    -0.025 C 
HETATM   28  C2  UNL     1       8.159   7.890  14.328  1.00  0.00    -0.091 C 
HETATM   29  C1  UNL     1       9.606   7.936  13.917  1.00  0.00     0.042 C 
HETATM   30  C3  UNL     1       7.915   8.226  15.776  1.00  0.00     0.042 C 
ENDBRANCH  26  27
ENDBRANCH  25  26
ENDBRANCH  23  25
ENDBRANCH   1  23
BRANCH  22  31
HETATM   31  O5  UNL     1      -0.385   9.702  15.354  1.00  0.00    -0.394 OA
HETATM   32  H46 UNL     1      -0.155   9.123  16.102  1.00  0.00     0.210 HD
ENDBRANCH  22  31
BRANCH  18  33
HETATM   33  C27 UNL     1      -4.475   5.986  13.913  1.00  0.00     0.151 C 
HETATM   34  O2  UNL     1      -4.107   4.897  14.339  1.00  0.00    -0.649 OA
BRANCH  33  35
HETATM   35  O3  UNL     1      -5.707   6.094  13.386  1.00  0.00    -0.776 OA
HETATM   36  H40 UNL     1      -6.073   5.186  13.450  1.00  0.00     0.167 HD
ENDBRANCH  33  35
ENDBRANCH  18  33
BRANCH  20  37
HETATM   37  O4  UNL     1      -3.178   6.800  16.261  1.00  0.00    -0.394 OA
HETATM   38  H42 UNL     1      -3.442   7.089  17.153  1.00  0.00     0.210 HD
ENDBRANCH  20  37
TORSDOF 8
ENDMDL
MODEL 8
REMARK minimizedAffinity -8.6238842
REMARK  8 active torsions:
REMARK  status: ('A' for Active; 'I' for Inactive)
REMARK    1  A    between atoms: C4_4  and  C5_5 
REMARK    2  A    between atoms: C5_5  and  C6_6 
REMARK    3  A    between atoms: C6_6  and  C7_7 
REMARK    4  A    between atoms: C7_7  and  C9_9 
REMARK    5  A    between atoms: C25_26  and  C27_28 
REMARK    6  A    between atoms: C27_28  and  O3_30 
REMARK    7  A    between atoms: C28_31  and  O4_32 
REMARK    8  A    between atoms: C30_34  and  O5_35 
ROOT
HETATM    1  C9  UNL     1      -3.271   6.710  14.978  1.00  0.00    -0.002 C 
HETATM    2  C10 UNL     1      -3.795   5.428  14.264  1.00  0.00     0.007 C 
HETATM    3  C11 UNL     1      -2.774   5.054  13.174  1.00  0.00     0.015 C 
HETATM    4  C12 UNL     1      -1.526   5.905  13.478  1.00  0.00    -0.005 C 
HETATM    5  C13 UNL     1      -0.713   5.146  14.573  1.00  0.00     0.021 C 
HETATM    6  C14 UNL     1      -0.504   6.201  12.384  1.00  0.00    -0.000 C 
HETATM    7  C15 UNL     1       0.211   7.362  12.377  1.00  0.00    -0.058 C 
HETATM    8  C16 UNL     1      -0.028   8.425  13.451  1.00  0.00     0.036 C 
HETATM    9  C17 UNL     1      -1.110   8.145  14.513  1.00  0.00     0.015 C 
HETATM   10  C18 UNL     1      -2.217   7.243  13.960  1.00  0.00    -0.028 C 
HETATM   11  C19 UNL     1      -2.954   8.006  12.812  1.00  0.00     0.016 C 
HETATM   12  C20 UNL     1       1.259   7.704  11.258  1.00  0.00     0.011 C 
HETATM   13  C21 UNL     1       0.424   8.395  10.157  1.00  0.00     0.023 C 
HETATM   14  C22 UNL     1       1.899   6.336  10.837  1.00  0.00     0.029 C 
HETATM   15  C23 UNL     1       0.834   5.369  10.316  1.00  0.00     0.090 C 
HETATM   16  C24 UNL     1      -0.255   5.150  11.341  1.00  0.00     0.157 C 
HETATM   17  O1  UNL     1      -0.922   4.117  11.304  1.00  0.00    -0.293 OA
HETATM   18  C25 UNL     1       3.263   6.379  10.042  1.00  0.00     0.072 C 
HETATM   19  C26 UNL     1       4.348   5.783  10.997  1.00  0.00     0.030 C 
HETATM   20  C28 UNL     1       3.745   7.794   9.660  1.00  0.00     0.139 C 
HETATM   21  C29 UNL     1       3.599   8.830  10.768  1.00  0.00     0.065 C 
HETATM   22  C30 UNL     1       2.433   8.620  11.749  1.00  0.00     0.133 C 
ENDROOT
BRANCH   1  23
HETATM   23  C7  UNL     1      -4.440   7.627  15.441  1.00  0.00    -0.014 C 
HETATM   24  C8  UNL     1      -4.511   8.902  14.580  1.00  0.00     0.010 C 
BRANCH  23  25
HETATM   25  C6  UNL     1      -5.832   6.954  15.478  1.00  0.00     0.008 C 
BRANCH  25  26
HETATM   26  C5  UNL     1      -6.545   6.856  14.125  1.00  0.00     0.028 C 
BRANCH  26  27
HETATM   27  C4  UNL     1      -6.940   5.436  13.819  1.00  0.00    -0.025 C 
HETATM   28  C2  UNL     1      -7.944   5.012  13.026  1.00  0.00    -0.091 C 
HETATM   29  C1  UNL     1      -8.929   5.908  12.325  1.00  0.00     0.042 C 
HETATM   30  C3  UNL     1      -8.157   3.541  12.776  1.00  0.00     0.042 C 
ENDBRANCH  26  27
ENDBRANCH  25  26
ENDBRANCH  23  25
ENDBRANCH   1  23
BRANCH  22  31
HETATM   31  O5  UNL     1       2.005   9.924  12.152  1.00  0.00    -0.394 OA
HETATM   32  H46 UNL     1       1.652  10.385  11.371  1.00  0.00     0.210 HD
ENDBRANCH  22  31
BRANCH  18  33
HETATM   33  C27 UNL     1       3.330   5.513   8.775  1.00  0.00     0.151 C 
HETATM   34  O2  UNL     1       2.715   5.719   7.735  1.00  0.00    -0.649 OA
BRANCH  33  35
HETATM   35  O3  UNL     1       4.119   4.427   8.859  1.00  0.00    -0.776 OA
HETATM   36  H40 UNL     1       4.008   3.986   7.990  1.00  0.00     0.167 HD
ENDBRANCH  33  35
ENDBRANCH  18  33
BRANCH  20  37
HETATM   37  O4  UNL     1       3.062   8.291   8.511  1.00  0.00    -0.394 OA
HETATM   38  H42 UNL     1       3.589   9.022   8.141  1.00  0.00     0.210 HD
ENDBRANCH  20  37
TORSDOF 8
ENDMDL
MODEL 9
REMARK minimizedAffinity -8.53366375
REMARK  8 active torsions:
REMARK  status: ('A' for Active; 'I' for Inactive)
REMARK    1  A    between atoms: C4_4  and  C5_5 
REMARK    2  A    between atoms: C5_5  and  C6_6 
REMARK    3  A    between atoms: C6_6  and  C7_7 
REMARK    4  A    between atoms: C7_7  and  C9_9 
REMARK    5  A    between atoms: C25_26  and  C27_28 
REMARK    6  A    between atoms: C27_28  and  O3_30 
REMARK    7  A    between atoms: C28_31  and  O4_32 
REMARK    8  A    between atoms: C30_34  and  O5_35 
ROOT
HETATM    1  C9  UNL     1      -4.109   5.976  13.077  1.00  0.00    -0.002 C 
HETATM    2  C10 UNL     1      -4.759   6.089  14.488  1.00  0.00     0.007 C 
HETATM    3  C11 UNL     1      -3.821   6.940  15.364  1.00  0.00     0.015 C 
HETATM    4  C12 UNL     1      -2.821   7.582  14.384  1.00  0.00    -0.005 C 
HETATM    5  C13 UNL     1      -3.510   8.854  13.797  1.00  0.00     0.021 C 
HETATM    6  C14 UNL     1      -1.463   8.079  14.875  1.00  0.00    -0.000 C 
HETATM    7  C15 UNL     1      -0.367   8.059  14.066  1.00  0.00    -0.058 C 
HETATM    8  C16 UNL     1      -0.461   7.492  12.648  1.00  0.00     0.036 C 
HETATM    9  C17 UNL     1      -1.820   6.931  12.185  1.00  0.00     0.015 C 
HETATM   10  C18 UNL     1      -2.633   6.388  13.364  1.00  0.00    -0.028 C 
HETATM   11  C19 UNL     1      -1.869   5.168  13.974  1.00  0.00     0.016 C 
HETATM   12  C20 UNL     1       1.047   8.549  14.544  1.00  0.00     0.011 C 
HETATM   13  C21 UNL     1       1.687   7.294  15.178  1.00  0.00     0.023 C 
HETATM   14  C22 UNL     1       0.778   9.727  15.543  1.00  0.00     0.029 C 
HETATM   15  C23 UNL     1      -0.072   9.259  16.726  1.00  0.00     0.090 C 
HETATM   16  C24 UNL     1      -1.376   8.654  16.259  1.00  0.00     0.157 C 
HETATM   17  O1  UNL     1      -2.343   8.637  17.019  1.00  0.00    -0.293 OA
HETATM   18  C25 UNL     1       1.980  10.694  15.877  1.00  0.00     0.072 C 
HETATM   19  C26 UNL     1       1.616  12.081  15.253  1.00  0.00     0.030 C 
HETATM   20  C28 UNL     1       3.333  10.280  15.263  1.00  0.00     0.139 C 
HETATM   21  C29 UNL     1       3.252   9.811  13.815  1.00  0.00     0.065 C 
HETATM   22  C30 UNL     1       1.940   9.128  13.392  1.00  0.00     0.133 C 
ENDROOT
BRANCH   1  23
HETATM   23  C7  UNL     1      -4.419   4.604  12.410  1.00  0.00    -0.014 C 
HETATM   24  C8  UNL     1      -3.195   3.671  12.482  1.00  0.00     0.010 C 
BRANCH  23  25
HETATM   25  C6  UNL     1      -5.660   3.868  12.964  1.00  0.00     0.008 C 
BRANCH  25  26
HETATM   26  C5  UNL     1      -6.965   4.124  12.201  1.00  0.00     0.028 C 
BRANCH  26  27
HETATM   27  C4  UNL     1      -7.908   4.978  13.003  1.00  0.00    -0.025 C 
HETATM   28  C2  UNL     1      -8.885   5.785  12.543  1.00  0.00    -0.091 C 
HETATM   29  C1  UNL     1      -9.183   6.038  11.090  1.00  0.00     0.042 C 
HETATM   30  C3  UNL     1      -9.787   6.522  13.499  1.00  0.00     0.042 C 
ENDBRANCH  26  27
ENDBRANCH  25  26
ENDBRANCH  23  25
ENDBRANCH   1  23
BRANCH  22  31
HETATM   31  O5  UNL     1       2.290   8.157  12.403  1.00  0.00    -0.394 OA
HETATM   32  H46 UNL     1       2.850   7.481  12.822  1.00  0.00     0.210 HD
ENDBRANCH  22  31
BRANCH  18  33
HETATM   33  C27 UNL     1       2.219  10.980  17.367  1.00  0.00     0.151 C 
HETATM   34  O2  UNL     1       2.147  12.079  17.904  1.00  0.00    -0.649 OA
BRANCH  33  35
HETATM   35  O3  UNL     1       2.564   9.915  18.111  1.00  0.00    -0.776 OA
HETATM   36  H40 UNL     1       2.711  10.289  19.006  1.00  0.00     0.167 HD
ENDBRANCH  33  35
ENDBRANCH  18  33
BRANCH  20  37
HETATM   37  O4  UNL     1       3.960   9.245  16.018  1.00  0.00    -0.394 OA
HETATM   38  H42 UNL     1       4.905   9.231  15.782  1.00  0.00     0.210 HD
ENDBRANCH  20  37
TORSDOF 8
ENDMDL
