MODEL 1
REMARK minimizedAffinity -6.18896484
REMARK CNNscore 0.586560726
REMARK CNNaffinity 7.31554842
REMARK  9 active torsions:
REMARK  status: ('A' for Active; 'I' for Inactive)
REMARK    1  A    between atoms: C2_2  and  O1_3 
REMARK    2  A    between atoms: O1_3  and  C3_4 
REMARK    3  A    between atoms: C3_4  and  C4_6 
REMARK    4  A    between atoms: C5_7  and  C6_8 
REMARK    5  A    between atoms: C22_26  and  C23_27 
REMARK    6  A    between atoms: C23_27  and  O5_28 
REMARK    7  A    between atoms: C28_34  and  C29_35 
REMARK    8  A    between atoms: C29_35  and  O7_36 
REMARK    9  A    between atoms: C37_46  and  O10_48 
ROOT
HETATM    1  C4  UNL     1     -15.177  11.702  -2.583  1.00  0.00     0.165 C 
HETATM    2  C5  UNL     1     -14.100  11.593  -3.380  1.00  0.00     0.053 C 
HETATM    3  C7  UNL     1     -12.950  12.532  -3.199  1.00  0.00    -0.002 C 
HETATM    4  C8  UNL     1     -12.048  12.649  -4.226  1.00  0.00    -0.066 C 
HETATM    5  C9  UNL     1     -10.571  12.965  -4.074  1.00  0.00     0.042 C 
HETATM    6  C10 UNL     1      -9.723  12.551  -5.277  1.00  0.00     0.083 C 
HETATM    7  C11 UNL     1     -10.234  13.263  -6.517  1.00  0.00     0.136 C 
HETATM    8  O4  UNL     1      -9.449  13.747  -7.333  1.00  0.00    -0.297 OA
HETATM    9  C12 UNL     1     -11.735  13.303  -6.714  1.00  0.00     0.092 C 
HETATM   10  C13 UNL     1     -12.411  12.360  -5.688  1.00  0.00     0.052 C 
HETATM   11  C14 UNL     1     -12.443  14.652  -6.875  1.00  0.00    -0.039 A 
HETATM   12  C15 UNL     1     -13.676  14.548  -7.581  1.00  0.00     0.022 A 
HETATM   13  C16 UNL     1     -14.473  15.667  -7.865  1.00  0.00    -0.008 A 
HETATM   14  C17 UNL     1     -14.024  16.911  -7.451  1.00  0.00     0.042 A 
HETATM   15  C18 UNL     1     -12.823  17.070  -6.756  1.00  0.00     0.038 A 
HETATM   16  C19 UNL     1     -12.031  15.936  -6.439  1.00  0.00    -0.049 A 
HETATM   17  C20 UNL     1     -10.745  16.238  -5.695  1.00  0.00     0.040 C 
HETATM   18  C21 UNL     1     -10.865  17.017  -4.371  1.00  0.00     0.013 C 
HETATM   19  C22 UNL     1     -11.874  16.432  -3.350  1.00  0.00     0.034 C 
HETATM   20  C24 UNL     1     -11.192  16.038  -2.018  1.00  0.00     0.182 C 
HETATM   21  O6  UNL     1     -10.911  14.618  -1.958  1.00  0.00    -0.349 OA
HETATM   22  C25 UNL     1     -11.848  13.944  -1.218  1.00  0.00     0.092 C 
HETATM   23  C26 UNL     1     -11.841  14.146   0.160  1.00  0.00     0.021 C 
HETATM   24  C27 UNL     1     -12.971  13.857   0.929  1.00  0.00     0.090 C 
HETATM   25  C28 UNL     1     -14.117  13.349   0.375  1.00  0.00     0.034 C 
HETATM   26  C30 UNL     1     -14.040  13.011  -0.993  1.00  0.00     0.101 C 
HETATM   27  C31 UNL     1     -12.868  13.167  -1.806  1.00  0.00     0.044 C 
HETATM   28  O8  UNL     1     -15.238  12.590  -1.534  1.00  0.00    -0.302 OA
HETATM   29  O9  UNL     1     -12.822  14.193   2.264  1.00  0.00    -0.341 OA
HETATM   30  C32 UNL     1     -11.385  14.199   2.364  1.00  0.00     0.175 C 
HETATM   31  C33 UNL     1     -10.866  14.824   1.059  1.00  0.00     0.079 C 
HETATM   32  C34 UNL     1      -9.395  14.585   0.967  1.00  0.00    -0.019 C 
HETATM   33  C35 UNL     1      -8.649  14.537   2.086  1.00  0.00    -0.027 C 
HETATM   34  C36 UNL     1      -9.216  14.679   3.495  1.00  0.00     0.067 C 
HETATM   35  C37 UNL     1     -10.757  14.920   3.566  1.00  0.00     0.085 C 
HETATM   36  C38 UNL     1     -11.344  14.414   4.885  1.00  0.00     0.049 C 
HETATM   37  N1  UNL     1     -14.957  17.836  -7.859  1.00  0.00    -0.365 N 
HETATM   38  C39 UNL     1     -15.989  17.212  -8.508  1.00  0.00     0.089 A 
HETATM   39  C40 UNL     1     -15.715  15.862  -8.528  1.00  0.00     0.030 A 
HETATM   40  H39 UNL     1     -14.890  18.833  -7.696  1.00  0.00     0.165 HD
ENDROOT
BRANCH   1  41
HETATM   41  C3  UNL     1     -16.338  10.787  -2.651  1.00  0.00     0.318 C 
HETATM   42  O2  UNL     1     -16.771  10.326  -3.695  1.00  0.00    -0.257 OA
BRANCH  41  43
HETATM   43  O1  UNL     1     -16.805  10.556  -1.396  1.00  0.00    -0.316 OA
BRANCH  43  44
HETATM   44  C2  UNL     1     -18.039  11.217  -1.068  1.00  0.00     0.175 C 
HETATM   45  C1  UNL     1     -19.216  10.513  -1.721  1.00  0.00     0.034 C 
ENDBRANCH  43  44
ENDBRANCH  41  43
ENDBRANCH   1  41
BRANCH   2  46
HETATM   46  C6  UNL     1     -14.001  10.318  -4.169  1.00  0.00     0.273 C 
HETATM   47  O3  UNL     1     -14.352  10.217  -5.343  1.00  0.00    -0.301 OA
ENDBRANCH   2  46
BRANCH  25  48
HETATM   48  C29 UNL     1     -15.372  13.184   1.178  1.00  0.00     0.208 C 
BRANCH  48  49
HETATM   49  O7  UNL     1     -15.741  11.813   1.189  1.00  0.00    -0.396 OA
HETATM   50  H28 UNL     1     -16.012  11.596   0.280  1.00  0.00     0.209 HD
ENDBRANCH  48  49
ENDBRANCH  25  48
BRANCH  19  51
HETATM   51  C23 UNL     1     -12.977  17.473  -3.077  1.00  0.00     0.170 C 
BRANCH  51  52
HETATM   52  O5  UNL     1     -12.648  18.270  -1.945  1.00  0.00    -0.400 OA
HETATM   53  H23 UNL     1     -12.564  17.672  -1.178  1.00  0.00     0.209 HD
ENDBRANCH  51  52
ENDBRANCH  19  51
BRANCH  35  54
HETATM   54  O10 UNL     1     -11.016  16.334   3.495  1.00  0.00    -0.387 OA
HETATM   55  H38 UNL     1     -10.746  16.728   4.338  1.00  0.00     0.210 HD
ENDBRANCH  35  54
TORSDOF 9
ENDMDL
MODEL 2
REMARK minimizedAffinity -8.24955082
REMARK CNNscore 0.318906397
REMARK CNNaffinity 6.88189363
REMARK  9 active torsions:
REMARK  status: ('A' for Active; 'I' for Inactive)
REMARK    1  A    between atoms: C2_2  and  O1_3 
REMARK    2  A    between atoms: O1_3  and  C3_4 
REMARK    3  A    between atoms: C3_4  and  C4_6 
REMARK    4  A    between atoms: C5_7  and  C6_8 
REMARK    5  A    between atoms: C22_26  and  C23_27 
REMARK    6  A    between atoms: C23_27  and  O5_28 
REMARK    7  A    between atoms: C28_34  and  C29_35 
REMARK    8  A    between atoms: C29_35  and  O7_36 
REMARK    9  A    between atoms: C37_46  and  O10_48 
ROOT
HETATM    1  C4  UNL     1       1.512  10.928  18.448  1.00  0.00     0.165 C 
HETATM    2  C5  UNL     1       0.553  11.639  19.066  1.00  0.00     0.053 C 
HETATM    3  C7  UNL     1      -0.765  11.845  18.390  1.00  0.00    -0.002 C 
HETATM    4  C8  UNL     1      -1.574  12.853  18.852  1.00  0.00    -0.066 C 
HETATM    5  C9  UNL     1      -3.091  12.854  18.818  1.00  0.00     0.042 C 
HETATM    6  C10 UNL     1      -3.732  13.821  19.815  1.00  0.00     0.083 C 
HETATM    7  C11 UNL     1      -3.251  15.231  19.522  1.00  0.00     0.136 C 
HETATM    8  O4  UNL     1      -4.033  16.181  19.550  1.00  0.00    -0.297 OA
HETATM    9  C12 UNL     1      -1.771  15.407  19.246  1.00  0.00     0.092 C 
HETATM   10  C13 UNL     1      -1.029  14.089  19.579  1.00  0.00     0.052 C 
HETATM   11  C14 UNL     1      -1.318  16.059  17.936  1.00  0.00    -0.039 A 
HETATM   12  C15 UNL     1      -0.027  16.655  18.033  1.00  0.00     0.022 A 
HETATM   13  C16 UNL     1       0.569  17.332  16.959  1.00  0.00    -0.008 A 
HETATM   14  C17 UNL     1      -0.143  17.429  15.774  1.00  0.00     0.042 A 
HETATM   15  C18 UNL     1      -1.412  16.865  15.624  1.00  0.00     0.038 A 
HETATM   16  C19 UNL     1      -2.002  16.152  16.699  1.00  0.00    -0.049 A 
HETATM   17  C20 UNL     1      -3.385  15.597  16.418  1.00  0.00     0.040 C 
HETATM   18  C21 UNL     1      -3.537  14.668  15.199  1.00  0.00     0.013 C 
HETATM   19  C22 UNL     1      -2.536  13.487  15.140  1.00  0.00     0.034 C 
HETATM   20  C24 UNL     1      -3.252  12.115  15.146  1.00  0.00     0.182 C 
HETATM   21  O6  UNL     1      -3.265  11.523  16.468  1.00  0.00    -0.349 OA
HETATM   22  C25 UNL     1      -2.291  10.569  16.609  1.00  0.00     0.092 C 
HETATM   23  C26 UNL     1      -2.464   9.371  15.918  1.00  0.00     0.021 C 
HETATM   24  C27 UNL     1      -1.376   8.534  15.659  1.00  0.00     0.090 C 
HETATM   25  C28 UNL     1      -0.109   8.836  16.084  1.00  0.00     0.034 C 
HETATM   26  C30 UNL     1       0.006   9.973  16.913  1.00  0.00     0.101 C 
HETATM   27  C31 UNL     1      -1.093  10.801  17.317  1.00  0.00     0.044 C 
HETATM   28  O8  UNL     1       1.307  10.295  17.243  1.00  0.00    -0.302 OA
HETATM   29  O9  UNL     1      -1.709   7.430  14.892  1.00  0.00    -0.341 OA
HETATM   30  C32 UNL     1      -3.124   7.361  15.150  1.00  0.00     0.175 C 
HETATM   31  C33 UNL     1      -3.628   8.813  15.175  1.00  0.00     0.079 C 
HETATM   32  C34 UNL     1      -5.013   8.829  15.733  1.00  0.00    -0.019 C 
HETATM   33  C35 UNL     1      -5.837   7.786  15.518  1.00  0.00    -0.027 C 
HETATM   34  C36 UNL     1      -5.440   6.530  14.750  1.00  0.00     0.067 C 
HETATM   35  C37 UNL     1      -3.985   6.533  14.184  1.00  0.00     0.085 C 
HETATM   36  C38 UNL     1      -3.438   5.113  14.032  1.00  0.00     0.049 C 
HETATM   37  N1  UNL     1       0.634  18.145  14.892  1.00  0.00    -0.365 N 
HETATM   38  C39 UNL     1       1.820  18.492  15.482  1.00  0.00     0.089 A 
HETATM   39  C40 UNL     1       1.808  18.000  16.769  1.00  0.00     0.030 A 
HETATM   40  H39 UNL     1       0.366  18.376  13.943  1.00  0.00     0.165 HD
ENDROOT
BRANCH   1  41
HETATM   41  C3  UNL     1       2.825  10.625  19.059  1.00  0.00     0.318 C 
HETATM   42  O2  UNL     1       3.845  11.243  18.802  1.00  0.00    -0.257 OA
BRANCH  41  43
HETATM   43  O1  UNL     1       2.690   9.589  19.928  1.00  0.00    -0.316 OA
BRANCH  43  44
HETATM   44  C2  UNL     1       3.364   9.751  21.188  1.00  0.00     0.175 C 
HETATM   45  C1  UNL     1       2.658   8.966  22.280  1.00  0.00     0.034 C 
ENDBRANCH  43  44
ENDBRANCH  41  43
ENDBRANCH   1  41
BRANCH   2  46
HETATM   46  C6  UNL     1       0.768  11.884  20.533  1.00  0.00     0.273 C 
HETATM   47  O3  UNL     1       1.521  12.750  20.973  1.00  0.00    -0.301 OA
ENDBRANCH   2  46
BRANCH  25  48
HETATM   48  C29 UNL     1       1.075   8.013  15.675  1.00  0.00     0.208 C 
BRANCH  48  49
HETATM   49  O7  UNL     1       1.288   6.991  16.638  1.00  0.00    -0.396 OA
HETATM   50  H28 UNL     1       1.581   7.438  17.450  1.00  0.00     0.209 HD
ENDBRANCH  48  49
ENDBRANCH  25  48
BRANCH  19  51
HETATM   51  C23 UNL     1      -1.678  13.616  13.866  1.00  0.00     0.170 C 
BRANCH  51  52
HETATM   52  O5  UNL     1      -2.312  14.463  12.915  1.00  0.00    -0.400 OA
HETATM   53  H23 UNL     1      -3.174  14.062  12.692  1.00  0.00     0.209 HD
ENDBRANCH  51  52
ENDBRANCH  19  51
BRANCH  35  54
HETATM   54  O10 UNL     1      -3.991   7.134  12.876  1.00  0.00    -0.387 OA
HETATM   55  H38 UNL     1      -4.407   6.509  12.264  1.00  0.00     0.210 HD
ENDBRANCH  35  54
TORSDOF 9
ENDMDL
MODEL 3
REMARK minimizedAffinity -7.38843441
REMARK CNNscore 0.303326607
REMARK CNNaffinity 6.66915274
REMARK  9 active torsions:
REMARK  status: ('A' for Active; 'I' for Inactive)
REMARK    1  A    between atoms: C2_2  and  O1_3 
REMARK    2  A    between atoms: O1_3  and  C3_4 
REMARK    3  A    between atoms: C3_4  and  C4_6 
REMARK    4  A    between atoms: C5_7  and  C6_8 
REMARK    5  A    between atoms: C22_26  and  C23_27 
REMARK    6  A    between atoms: C23_27  and  O5_28 
REMARK    7  A    between atoms: C28_34  and  C29_35 
REMARK    8  A    between atoms: C29_35  and  O7_36 
REMARK    9  A    between atoms: C37_46  and  O10_48 
ROOT
HETATM    1  C4  UNL     1       3.578   9.538  15.100  1.00  0.00     0.165 C 
HETATM    2  C5  UNL     1       2.301   9.664  15.501  1.00  0.00     0.053 C 
HETATM    3  C7  UNL     1       1.686  11.024  15.593  1.00  0.00    -0.002 C 
HETATM    4  C8  UNL     1       0.541  11.163  16.336  1.00  0.00    -0.066 C 
HETATM    5  C9  UNL     1      -0.566  12.168  16.074  1.00  0.00     0.042 C 
HETATM    6  C10 UNL     1      -1.906  11.792  16.707  1.00  0.00     0.083 C 
HETATM    7  C11 UNL     1      -1.730  11.663  18.210  1.00  0.00     0.136 C 
HETATM    8  O4  UNL     1      -2.572  12.118  18.983  1.00  0.00    -0.297 OA
HETATM    9  C12 UNL     1      -0.505  10.914  18.694  1.00  0.00     0.092 C 
HETATM   10  C13 UNL     1       0.179  10.220  17.490  1.00  0.00     0.052 C 
HETATM   11  C14 UNL     1       0.474  11.602  19.651  1.00  0.00    -0.039 A 
HETATM   12  C15 UNL     1       1.220  10.677  20.437  1.00  0.00     0.022 A 
HETATM   13  C16 UNL     1       2.153  11.092  21.398  1.00  0.00    -0.008 A 
HETATM   14  C17 UNL     1       2.332  12.453  21.589  1.00  0.00     0.042 A 
HETATM   15  C18 UNL     1       1.627  13.403  20.847  1.00  0.00     0.038 A 
HETATM   16  C19 UNL     1       0.707  12.985  19.851  1.00  0.00    -0.049 A 
HETATM   17  C20 UNL     1      -0.005  14.108  19.123  1.00  0.00     0.040 C 
HETATM   18  C21 UNL     1       0.874  15.165  18.427  1.00  0.00     0.013 C 
HETATM   19  C22 UNL     1       1.958  14.599  17.475  1.00  0.00     0.034 C 
HETATM   20  C24 UNL     1       1.774  15.097  16.021  1.00  0.00     0.182 C 
HETATM   21  O6  UNL     1       1.099  14.114  15.199  1.00  0.00    -0.349 OA
HETATM   22  C25 UNL     1       1.980  13.406  14.423  1.00  0.00     0.092 C 
HETATM   23  C26 UNL     1       2.586  14.081  13.365  1.00  0.00     0.021 C 
HETATM   24  C27 UNL     1       3.770  13.602  12.799  1.00  0.00     0.090 C 
HETATM   25  C28 UNL     1       4.371  12.451  13.235  1.00  0.00     0.034 C 
HETATM   26  C30 UNL     1       3.653  11.710  14.199  1.00  0.00     0.101 C 
HETATM   27  C31 UNL     1       2.374  12.086  14.727  1.00  0.00     0.044 C 
HETATM   28  O8  UNL     1       4.333  10.608  14.678  1.00  0.00    -0.302 OA
HETATM   29  O9  UNL     1       4.280  14.435  11.817  1.00  0.00    -0.341 OA
HETATM   30  C32 UNL     1       3.087  15.153  11.450  1.00  0.00     0.175 C 
HETATM   31  C33 UNL     1       2.324  15.416  12.759  1.00  0.00     0.079 C 
HETATM   32  C34 UNL     1       0.946  15.883  12.423  1.00  0.00    -0.019 C 
HETATM   33  C35 UNL     1       0.734  16.610  11.311  1.00  0.00    -0.027 C 
HETATM   34  C36 UNL     1       1.826  16.978  10.311  1.00  0.00     0.067 C 
HETATM   35  C37 UNL     1       3.257  16.471  10.680  1.00  0.00     0.085 C 
HETATM   36  C38 UNL     1       4.122  16.277   9.433  1.00  0.00     0.049 C 
HETATM   37  N1  UNL     1       3.270  12.603  22.584  1.00  0.00    -0.365 N 
HETATM   38  C39 UNL     1       3.698  11.378  23.019  1.00  0.00     0.089 A 
HETATM   39  C40 UNL     1       3.020  10.418  22.300  1.00  0.00     0.030 A 
HETATM   40  H39 UNL     1       3.598  13.494  22.937  1.00  0.00     0.165 HD
ENDROOT
BRANCH   1  41
HETATM   41  C3  UNL     1       4.253   8.233  14.926  1.00  0.00     0.318 C 
HETATM   42  O2  UNL     1       4.766   7.613  15.843  1.00  0.00    -0.257 OA
BRANCH  41  43
HETATM   43  O1  UNL     1       4.191   7.863  13.620  1.00  0.00    -0.316 OA
BRANCH  43  44
HETATM   44  C2  UNL     1       5.461   7.672  12.973  1.00  0.00     0.175 C 
HETATM   45  C1  UNL     1       5.298   6.866  11.695  1.00  0.00     0.034 C 
ENDBRANCH  43  44
ENDBRANCH  41  43
ENDBRANCH   1  41
BRANCH   2  46
HETATM   46  C6  UNL     1       1.491   8.398  15.500  1.00  0.00     0.273 C 
HETATM   47  O3  UNL     1       1.519   7.574  16.412  1.00  0.00    -0.301 OA
ENDBRANCH   2  46
BRANCH  25  48
HETATM   48  C29 UNL     1       5.715  12.024  12.727  1.00  0.00     0.208 C 
BRANCH  48  49
HETATM   49  O7  UNL     1       5.602  11.655  11.360  1.00  0.00    -0.396 OA
HETATM   50  H28 UNL     1       5.072  10.839  11.341  1.00  0.00     0.209 HD
ENDBRANCH  48  49
ENDBRANCH  25  48
BRANCH  19  51
HETATM   51  C23 UNL     1       3.350  15.014  17.991  1.00  0.00     0.170 C 
BRANCH  51  52
HETATM   52  O5  UNL     1       4.373  14.310  17.298  1.00  0.00    -0.400 OA
HETATM   53  H23 UNL     1       4.236  13.357  17.457  1.00  0.00     0.209 HD
ENDBRANCH  51  52
ENDBRANCH  19  51
BRANCH  35  54
HETATM   54  O10 UNL     1       3.906  17.456  11.504  1.00  0.00    -0.387 OA
HETATM   55  H38 UNL     1       4.136  18.210  10.942  1.00  0.00     0.210 HD
ENDBRANCH  35  54
TORSDOF 9
ENDMDL
MODEL 4
REMARK minimizedAffinity -6.18713713
REMARK CNNscore 0.256815553
REMARK CNNaffinity 6.08205414
REMARK  9 active torsions:
REMARK  status: ('A' for Active; 'I' for Inactive)
REMARK    1  A    between atoms: C2_2  and  O1_3 
REMARK    2  A    between atoms: O1_3  and  C3_4 
REMARK    3  A    between atoms: C3_4  and  C4_6 
REMARK    4  A    between atoms: C5_7  and  C6_8 
REMARK    5  A    between atoms: C22_26  and  C23_27 
REMARK    6  A    between atoms: C23_27  and  O5_28 
REMARK    7  A    between atoms: C28_34  and  C29_35 
REMARK    8  A    between atoms: C29_35  and  O7_36 
REMARK    9  A    between atoms: C37_46  and  O10_48 
ROOT
HETATM    1  C4  UNL     1       2.268  12.994  20.341  1.00  0.00     0.165 C 
HETATM    2  C5  UNL     1       1.572  11.968  19.821  1.00  0.00     0.053 C 
HETATM    3  C7  UNL     1       1.283  11.939  18.354  1.00  0.00    -0.002 C 
HETATM    4  C8  UNL     1       0.286  11.108  17.911  1.00  0.00    -0.066 C 
HETATM    5  C9  UNL     1       0.239  10.429  16.554  1.00  0.00     0.042 C 
HETATM    6  C10 UNL     1      -0.678   9.206  16.506  1.00  0.00     0.083 C 
HETATM    7  C11 UNL     1      -2.090   9.626  16.875  1.00  0.00     0.136 C 
HETATM    8  O4  UNL     1      -3.058   9.192  16.250  1.00  0.00    -0.297 OA
HETATM    9  C12 UNL     1      -2.242  10.553  18.063  1.00  0.00     0.092 C 
HETATM   10  C13 UNL     1      -0.883  10.665  18.800  1.00  0.00     0.052 C 
HETATM   11  C14 UNL     1      -2.966  11.892  17.892  1.00  0.00    -0.039 A 
HETATM   12  C15 UNL     1      -3.516  12.382  19.112  1.00  0.00     0.022 A 
HETATM   13  C16 UNL     1      -4.245  13.579  19.177  1.00  0.00    -0.008 A 
HETATM   14  C17 UNL     1      -4.442  14.288  18.003  1.00  0.00     0.042 A 
HETATM   15  C18 UNL     1      -3.926  13.854  16.780  1.00  0.00     0.038 A 
HETATM   16  C19 UNL     1      -3.160  12.661  16.718  1.00  0.00    -0.049 A 
HETATM   17  C20 UNL     1      -2.665  12.287  15.334  1.00  0.00     0.040 C 
HETATM   18  C21 UNL     1      -1.824  13.335  14.581  1.00  0.00     0.013 C 
HETATM   19  C22 UNL     1      -0.621  13.908  15.372  1.00  0.00     0.034 C 
HETATM   20  C24 UNL     1       0.727  13.630  14.665  1.00  0.00     0.182 C 
HETATM   21  O6  UNL     1       1.405  12.483  15.234  1.00  0.00    -0.349 OA
HETATM   22  C25 UNL     1       2.394  12.857  16.106  1.00  0.00     0.092 C 
HETATM   23  C26 UNL     1       3.538  13.440  15.565  1.00  0.00     0.021 C 
HETATM   24  C27 UNL     1       4.387  14.215  16.358  1.00  0.00     0.090 C 
HETATM   25  C28 UNL     1       4.151  14.418  17.693  1.00  0.00     0.034 C 
HETATM   26  C30 UNL     1       3.075  13.689  18.244  1.00  0.00     0.101 C 
HETATM   27  C31 UNL     1       2.244  12.781  17.507  1.00  0.00     0.044 C 
HETATM   28  O8  UNL     1       2.813  13.990  19.565  1.00  0.00    -0.302 OA
HETATM   29  O9  UNL     1       5.428  14.786  15.646  1.00  0.00    -0.341 OA
HETATM   30  C32 UNL     1       5.473  13.901  14.511  1.00  0.00     0.175 C 
HETATM   31  C33 UNL     1       4.013  13.577  14.159  1.00  0.00     0.079 C 
HETATM   32  C34 UNL     1       3.994  12.437  13.195  1.00  0.00    -0.019 C 
HETATM   33  C35 UNL     1       4.995  12.289  12.309  1.00  0.00    -0.027 C 
HETATM   34  C36 UNL     1       6.209  13.210  12.232  1.00  0.00     0.067 C 
HETATM   35  C37 UNL     1       6.210  14.389  13.255  1.00  0.00     0.085 C 
HETATM   36  C38 UNL     1       7.632  14.843  13.587  1.00  0.00     0.049 C 
HETATM   37  N1  UNL     1      -5.192  15.397  18.321  1.00  0.00    -0.365 N 
HETATM   38  C39 UNL     1      -5.465  15.415  19.662  1.00  0.00     0.089 A 
HETATM   39  C40 UNL     1      -4.889  14.296  20.222  1.00  0.00     0.030 A 
HETATM   40  H39 UNL     1      -5.492  16.099  17.656  1.00  0.00     0.165 HD
ENDROOT
BRANCH   1  41
HETATM   41  C3  UNL     1       2.648  13.081  21.769  1.00  0.00     0.318 C 
HETATM   42  O2  UNL     1       1.986  13.672  22.606  1.00  0.00    -0.257 OA
BRANCH  41  43
HETATM   43  O1  UNL     1       3.809  12.403  21.969  1.00  0.00    -0.316 OA
BRANCH  43  44
HETATM   44  C2  UNL     1       4.731  13.020  22.883  1.00  0.00     0.175 C 
HETATM   45  C1  UNL     1       6.025  12.228  22.958  1.00  0.00     0.034 C 
ENDBRANCH  43  44
ENDBRANCH  41  43
ENDBRANCH   1  41
BRANCH   2  46
HETATM   46  C6  UNL     1       1.431  10.762  20.707  1.00  0.00     0.273 C 
HETATM   47  O3  UNL     1       2.150   9.768  20.621  1.00  0.00    -0.301 OA
ENDBRANCH   2  46
BRANCH  25  48
HETATM   48  C29 UNL     1       4.979  15.370  18.503  1.00  0.00     0.208 C 
BRANCH  48  49
HETATM   49  O7  UNL     1       5.541  14.675  19.606  1.00  0.00    -0.396 OA
HETATM   50  H28 UNL     1       4.799  14.450  20.194  1.00  0.00     0.209 HD
ENDBRANCH  48  49
ENDBRANCH  25  48
BRANCH  19  51
HETATM   51  C23 UNL     1      -0.808  15.428  15.545  1.00  0.00     0.170 C 
BRANCH  51  52
HETATM   52  O5  UNL     1      -0.957  15.763  16.920  1.00  0.00    -0.400 OA
HETATM   53  H23 UNL     1      -1.746  15.295  17.254  1.00  0.00     0.209 HD
ENDBRANCH  51  52
ENDBRANCH  19  51
BRANCH  35  54
HETATM   54  O10 UNL     1       5.524  15.514  12.675  1.00  0.00    -0.387 OA
HETATM   55  H38 UNL     1       6.095  15.888  11.988  1.00  0.00     0.210 HD
ENDBRANCH  35  54
TORSDOF 9
ENDMDL
MODEL 5
REMARK minimizedAffinity -6.93710661
REMARK CNNscore 0.255615592
REMARK CNNaffinity 6.63884878
REMARK  9 active torsions:
REMARK  status: ('A' for Active; 'I' for Inactive)
REMARK    1  A    between atoms: C2_2  and  O1_3 
REMARK    2  A    between atoms: O1_3  and  C3_4 
REMARK    3  A    between atoms: C3_4  and  C4_6 
REMARK    4  A    between atoms: C5_7  and  C6_8 
REMARK    5  A    between atoms: C22_26  and  C23_27 
REMARK    6  A    between atoms: C23_27  and  O5_28 
REMARK    7  A    between atoms: C28_34  and  C29_35 
REMARK    8  A    between atoms: C29_35  and  O7_36 
REMARK    9  A    between atoms: C37_46  and  O10_48 
ROOT
HETATM    1  C4  UNL     1     -12.108  -7.473  16.702  1.00  0.00     0.165 C 
HETATM    2  C5  UNL     1     -13.359  -7.874  16.987  1.00  0.00     0.053 C 
HETATM    3  C7  UNL     1     -13.577  -9.194  17.656  1.00  0.00    -0.002 C 
HETATM    4  C8  UNL     1     -14.834  -9.741  17.604  1.00  0.00    -0.066 C 
HETATM    5  C9  UNL     1     -15.453 -10.635  18.663  1.00  0.00     0.042 C 
HETATM    6  C10 UNL     1     -16.980 -10.690  18.611  1.00  0.00     0.083 C 
HETATM    7  C11 UNL     1     -17.416 -11.199  17.248  1.00  0.00     0.136 C 
HETATM    8  O4  UNL     1     -18.331 -12.016  17.145  1.00  0.00    -0.297 OA
HETATM    9  C12 UNL     1     -16.706 -10.619  16.042  1.00  0.00     0.092 C 
HETATM   10  C13 UNL     1     -15.836  -9.418  16.488  1.00  0.00     0.052 C 
HETATM   11  C14 UNL     1     -16.007 -11.557  15.051  1.00  0.00    -0.039 A 
HETATM   12  C15 UNL     1     -15.882 -10.991  13.750  1.00  0.00     0.022 A 
HETATM   13  C16 UNL     1     -15.298 -11.690  12.682  1.00  0.00    -0.008 A 
HETATM   14  C17 UNL     1     -14.847 -12.979  12.915  1.00  0.00     0.042 A 
HETATM   15  C18 UNL     1     -14.945 -13.582  14.171  1.00  0.00     0.038 A 
HETATM   16  C19 UNL     1     -15.505 -12.865  15.260  1.00  0.00    -0.049 A 
HETATM   17  C20 UNL     1     -15.568 -13.630  16.568  1.00  0.00     0.040 C 
HETATM   18  C21 UNL     1     -14.246 -14.203  17.113  1.00  0.00     0.013 C 
HETATM   19  C22 UNL     1     -13.080 -13.188  17.217  1.00  0.00     0.034 C 
HETATM   20  C24 UNL     1     -12.571 -13.033  18.670  1.00  0.00     0.182 C 
HETATM   21  O6  UNL     1     -13.128 -11.859  19.311  1.00  0.00    -0.349 OA
HETATM   22  C25 UNL     1     -12.245 -10.811  19.312  1.00  0.00     0.092 C 
HETATM   23  C26 UNL     1     -11.133 -10.911  20.145  1.00  0.00     0.021 C 
HETATM   24  C27 UNL     1      -9.998 -10.129  19.917  1.00  0.00     0.090 C 
HETATM   25  C28 UNL     1      -9.933  -9.224  18.890  1.00  0.00     0.034 C 
HETATM   26  C30 UNL     1     -11.127  -9.035  18.162  1.00  0.00     0.101 C 
HETATM   27  C31 UNL     1     -12.361  -9.716  18.429  1.00  0.00     0.044 C 
HETATM   28  O8  UNL     1     -10.995  -8.186  17.081  1.00  0.00    -0.302 OA
HETATM   29  O9  UNL     1      -8.958 -10.412  20.786  1.00  0.00    -0.341 OA
HETATM   30  C32 UNL     1      -9.691 -11.012  21.871  1.00  0.00     0.175 C 
HETATM   31  C33 UNL     1     -10.785 -11.877  21.225  1.00  0.00     0.079 C 
HETATM   32  C34 UNL     1     -11.762 -12.281  22.280  1.00  0.00    -0.019 C 
HETATM   33  C35 UNL     1     -11.343 -12.479  23.543  1.00  0.00    -0.027 C 
HETATM   34  C36 UNL     1      -9.902 -12.283  24.005  1.00  0.00     0.067 C 
HETATM   35  C37 UNL     1      -8.903 -11.853  22.885  1.00  0.00     0.085 C 
HETATM   36  C38 UNL     1      -7.722 -11.067  23.459  1.00  0.00     0.049 C 
HETATM   37  N1  UNL     1     -14.342 -13.453  11.727  1.00  0.00    -0.365 N 
HETATM   38  C39 UNL     1     -14.450 -12.496  10.753  1.00  0.00     0.089 A 
HETATM   39  C40 UNL     1     -15.042 -11.388  11.318  1.00  0.00     0.030 A 
HETATM   40  H39 UNL     1     -13.944 -14.375  11.596  1.00  0.00     0.165 HD
ENDROOT
BRANCH   1  41
HETATM   41  C3  UNL     1     -11.792  -6.162  16.092  1.00  0.00     0.318 C 
HETATM   42  O2  UNL     1     -11.497  -5.172  16.740  1.00  0.00    -0.257 OA
BRANCH  41  43
HETATM   43  O1  UNL     1     -11.874  -6.262  14.738  1.00  0.00    -0.316 OA
BRANCH  43  44
HETATM   44  C2  UNL     1     -12.103  -5.025  14.043  1.00  0.00     0.175 C 
HETATM   45  C1  UNL     1     -13.150  -5.204  12.957  1.00  0.00     0.034 C 
ENDBRANCH  43  44
ENDBRANCH  41  43
ENDBRANCH   1  41
BRANCH   2  46
HETATM   46  C6  UNL     1     -14.417  -6.809  16.913  1.00  0.00     0.273 C 
HETATM   47  O3  UNL     1     -14.945  -6.449  15.862  1.00  0.00    -0.301 OA
ENDBRANCH   2  46
BRANCH  25  48
HETATM   48  C29 UNL     1      -8.663  -8.500  18.560  1.00  0.00     0.208 C 
BRANCH  48  49
HETATM   49  O7  UNL     1      -8.221  -7.787  19.706  1.00  0.00    -0.396 OA
HETATM   50  H28 UNL     1      -8.868  -7.075  19.850  1.00  0.00     0.209 HD
ENDBRANCH  48  49
ENDBRANCH  25  48
BRANCH  19  51
HETATM   51  C23 UNL     1     -11.923 -13.654  16.312  1.00  0.00     0.170 C 
BRANCH  51  52
HETATM   52  O5  UNL     1     -11.147 -12.544  15.876  1.00  0.00    -0.400 OA
HETATM   53  H23 UNL     1     -11.737 -11.950  15.374  1.00  0.00     0.209 HD
ENDBRANCH  51  52
ENDBRANCH  19  51
BRANCH  35  54
HETATM   54  O10 UNL     1      -8.368 -13.031  22.255  1.00  0.00    -0.387 OA
HETATM   55  H38 UNL     1      -7.754 -13.448  22.876  1.00  0.00     0.210 HD
ENDBRANCH  35  54
TORSDOF 9
ENDMDL
MODEL 6
REMARK minimizedAffinity -7.39487171
REMARK CNNscore 0.243323833
REMARK CNNaffinity 6.50884819
REMARK  9 active torsions:
REMARK  status: ('A' for Active; 'I' for Inactive)
REMARK    1  A    between atoms: C2_2  and  O1_3 
REMARK    2  A    between atoms: O1_3  and  C3_4 
REMARK    3  A    between atoms: C3_4  and  C4_6 
REMARK    4  A    between atoms: C5_7  and  C6_8 
REMARK    5  A    between atoms: C22_26  and  C23_27 
REMARK    6  A    between atoms: C23_27  and  O5_28 
REMARK    7  A    between atoms: C28_34  and  C29_35 
REMARK    8  A    between atoms: C29_35  and  O7_36 
REMARK    9  A    between atoms: C37_46  and  O10_48 
ROOT
HETATM    1  C4  UNL     1       2.435  11.760  18.273  1.00  0.00     0.165 C 
HETATM    2  C5  UNL     1       1.182  11.690  18.755  1.00  0.00     0.053 C 
HETATM    3  C7  UNL     1       0.038  11.491  17.812  1.00  0.00    -0.002 C 
HETATM    4  C8  UNL     1      -1.224  11.787  18.261  1.00  0.00    -0.066 C 
HETATM    5  C9  UNL     1      -2.504  11.106  17.811  1.00  0.00     0.042 C 
HETATM    6  C10 UNL     1      -3.665  11.260  18.794  1.00  0.00     0.083 C 
HETATM    7  C11 UNL     1      -3.959  12.737  18.993  1.00  0.00     0.136 C 
HETATM    8  O4  UNL     1      -5.118  13.148  19.032  1.00  0.00    -0.297 OA
HETATM    9  C12 UNL     1      -2.767  13.652  19.186  1.00  0.00     0.092 C 
HETATM   10  C13 UNL     1      -1.491  12.796  19.385  1.00  0.00     0.052 C 
HETATM   11  C14 UNL     1      -2.571  14.848  18.248  1.00  0.00    -0.039 A 
HETATM   12  C15 UNL     1      -1.801  15.892  18.838  1.00  0.00     0.022 A 
HETATM   13  C16 UNL     1      -1.525  17.091  18.165  1.00  0.00    -0.008 A 
HETATM   14  C17 UNL     1      -2.040  17.257  16.889  1.00  0.00     0.042 A 
HETATM   15  C18 UNL     1      -2.801  16.267  16.264  1.00  0.00     0.038 A 
HETATM   16  C19 UNL     1      -3.054  15.040  16.931  1.00  0.00    -0.049 A 
HETATM   17  C20 UNL     1      -3.902  14.051  16.155  1.00  0.00     0.040 C 
HETATM   18  C21 UNL     1      -3.405  13.643  14.755  1.00  0.00     0.013 C 
HETATM   19  C22 UNL     1      -1.936  13.154  14.693  1.00  0.00     0.034 C 
HETATM   20  C24 UNL     1      -1.828  11.701  14.172  1.00  0.00     0.182 C 
HETATM   21  O6  UNL     1      -1.685  10.751  15.257  1.00  0.00    -0.349 OA
HETATM   22  C25 UNL     1      -0.381  10.365  15.427  1.00  0.00     0.092 C 
HETATM   23  C26 UNL     1       0.177   9.545  14.449  1.00  0.00     0.021 C 
HETATM   24  C27 UNL     1       1.564   9.446  14.307  1.00  0.00     0.090 C 
HETATM   25  C28 UNL     1       2.429  10.125  15.125  1.00  0.00     0.034 C 
HETATM   26  C30 UNL     1       1.838  10.822  16.200  1.00  0.00     0.101 C 
HETATM   27  C31 UNL     1       0.430  10.857  16.472  1.00  0.00     0.044 C 
HETATM   28  O8  UNL     1       2.732  11.565  16.944  1.00  0.00    -0.302 OA
HETATM   29  O9  UNL     1       1.946   8.655  13.236  1.00  0.00    -0.341 OA
HETATM   30  C32 UNL     1       0.755   7.862  13.069  1.00  0.00     0.175 C 
HETATM   31  C33 UNL     1      -0.430   8.813  13.302  1.00  0.00     0.079 C 
HETATM   32  C34 UNL     1      -1.674   8.000  13.444  1.00  0.00    -0.019 C 
HETATM   33  C35 UNL     1      -1.804   6.844  12.766  1.00  0.00    -0.027 C 
HETATM   34  C36 UNL     1      -0.724   6.262  11.859  1.00  0.00     0.067 C 
HETATM   35  C37 UNL     1       0.571   7.126  11.735  1.00  0.00     0.085 C 
HETATM   36  C38 UNL     1       1.791   6.265  11.402  1.00  0.00     0.049 C 
HETATM   37  N1  UNL     1      -1.653  18.504  16.455  1.00  0.00    -0.365 N 
HETATM   38  C39 UNL     1      -0.899  19.125  17.414  1.00  0.00     0.089 A 
HETATM   39  C40 UNL     1      -0.802  18.271  18.490  1.00  0.00     0.030 A 
HETATM   40  H39 UNL     1      -1.890  18.899  15.553  1.00  0.00     0.165 HD
ENDROOT
BRANCH   1  41
HETATM   41  C3  UNL     1       3.632  11.900  19.132  1.00  0.00     0.318 C 
HETATM   42  O2  UNL     1       4.186  12.966  19.345  1.00  0.00    -0.257 OA
BRANCH  41  43
HETATM   43  O1  UNL     1       3.978  10.682  19.626  1.00  0.00    -0.316 OA
BRANCH  43  44
HETATM   44  C2  UNL     1       4.701  10.705  20.869  1.00  0.00     0.175 C 
HETATM   45  C1  UNL     1       4.007   9.843  21.911  1.00  0.00     0.034 C 
ENDBRANCH  43  44
ENDBRANCH  41  43
ENDBRANCH   1  41
BRANCH   2  46
HETATM   46  C6  UNL     1       1.066  11.480  20.239  1.00  0.00     0.273 C 
HETATM   47  O3  UNL     1       0.832  10.388  20.754  1.00  0.00    -0.301 OA
ENDBRANCH   2  46
BRANCH  25  48
HETATM   48  C29 UNL     1       3.906  10.133  14.873  1.00  0.00     0.208 C 
BRANCH  48  49
HETATM   49  O7  UNL     1       4.573   9.568  15.992  1.00  0.00    -0.396 OA
HETATM   50  H28 UNL     1       4.456  10.197  16.725  1.00  0.00     0.209 HD
ENDBRANCH  48  49
ENDBRANCH  25  48
BRANCH  19  51
HETATM   51  C23 UNL     1      -1.129  14.093  13.774  1.00  0.00     0.170 C 
BRANCH  51  52
HETATM   52  O5  UNL     1      -1.990  14.767  12.864  1.00  0.00    -0.400 OA
HETATM   53  H23 UNL     1      -2.440  14.089  12.326  1.00  0.00     0.209 HD
ENDBRANCH  51  52
ENDBRANCH  19  51
BRANCH  35  54
HETATM   54  O10 UNL     1       0.405   8.069  10.659  1.00  0.00    -0.387 OA
HETATM   55  H38 UNL     1       0.449   7.579   9.825  1.00  0.00     0.210 HD
ENDBRANCH  35  54
TORSDOF 9
ENDMDL
MODEL 7
REMARK minimizedAffinity -6.23851252
REMARK CNNscore 0.22146821
REMARK CNNaffinity 6.38154936
REMARK  9 active torsions:
REMARK  status: ('A' for Active; 'I' for Inactive)
REMARK    1  A    between atoms: C2_2  and  O1_3 
REMARK    2  A    between atoms: O1_3  and  C3_4 
REMARK    3  A    between atoms: C3_4  and  C4_6 
REMARK    4  A    between atoms: C5_7  and  C6_8 
REMARK    5  A    between atoms: C22_26  and  C23_27 
REMARK    6  A    between atoms: C23_27  and  O5_28 
REMARK    7  A    between atoms: C28_34  and  C29_35 
REMARK    8  A    between atoms: C29_35  and  O7_36 
REMARK    9  A    between atoms: C37_46  and  O10_48 
ROOT
HETATM    1  C4  UNL     1       5.101  13.208  22.691  1.00  0.00     0.165 C 
HETATM    2  C5  UNL     1       4.191  14.185  22.533  1.00  0.00     0.053 C 
HETATM    3  C7  UNL     1       4.536  15.586  22.927  1.00  0.00    -0.002 C 
HETATM    4  C8  UNL     1       3.507  16.475  23.105  1.00  0.00    -0.066 C 
HETATM    5  C9  UNL     1       3.580  17.971  22.857  1.00  0.00     0.042 C 
HETATM    6  C10 UNL     1       2.217  18.631  22.647  1.00  0.00     0.083 C 
HETATM    7  C11 UNL     1       1.353  18.395  23.874  1.00  0.00     0.136 C 
HETATM    8  O4  UNL     1       0.658  19.299  24.337  1.00  0.00    -0.297 OA
HETATM    9  C12 UNL     1       1.359  16.997  24.458  1.00  0.00     0.092 C 
HETATM   10  C13 UNL     1       2.086  16.039  23.482  1.00  0.00     0.052 C 
HETATM   11  C14 UNL     1       1.741  16.791  25.928  1.00  0.00    -0.039 A 
HETATM   12  C15 UNL     1       1.192  15.598  26.479  1.00  0.00     0.022 A 
HETATM   13  C16 UNL     1       1.393  15.230  27.818  1.00  0.00    -0.008 A 
HETATM   14  C17 UNL     1       2.141  16.075  28.622  1.00  0.00     0.042 A 
HETATM   15  C18 UNL     1       2.701  17.258  28.134  1.00  0.00     0.038 A 
HETATM   16  C19 UNL     1       2.527  17.615  26.771  1.00  0.00    -0.049 A 
HETATM   17  C20 UNL     1       3.172  18.925  26.364  1.00  0.00     0.040 C 
HETATM   18  C21 UNL     1       4.683  19.076  26.620  1.00  0.00     0.013 C 
HETATM   19  C22 UNL     1       5.564  17.926  26.067  1.00  0.00     0.034 C 
HETATM   20  C24 UNL     1       6.599  18.430  25.033  1.00  0.00     0.182 C 
HETATM   21  O6  UNL     1       6.149  18.210  23.673  1.00  0.00    -0.349 OA
HETATM   22  C25 UNL     1       6.728  17.099  23.119  1.00  0.00     0.092 C 
HETATM   23  C26 UNL     1       8.084  17.171  22.807  1.00  0.00     0.021 C 
HETATM   24  C27 UNL     1       8.842  16.009  22.643  1.00  0.00     0.090 C 
HETATM   25  C28 UNL     1       8.290  14.760  22.757  1.00  0.00     0.034 C 
HETATM   26  C30 UNL     1       6.889  14.719  22.918  1.00  0.00     0.101 C 
HETATM   27  C31 UNL     1       6.041  15.876  22.968  1.00  0.00     0.044 C 
HETATM   28  O8  UNL     1       6.385  13.450  23.121  1.00  0.00    -0.302 OA
HETATM   29  O9  UNL     1      10.185  16.261  22.419  1.00  0.00    -0.341 OA
HETATM   30  C32 UNL     1      10.110  17.614  21.931  1.00  0.00     0.175 C 
HETATM   31  C33 UNL     1       9.036  18.317  22.775  1.00  0.00     0.079 C 
HETATM   32  C34 UNL     1       8.695  19.619  22.128  1.00  0.00    -0.019 C 
HETATM   33  C35 UNL     1       9.638  20.302  21.453  1.00  0.00    -0.027 C 
HETATM   34  C36 UNL     1      11.071  19.814  21.262  1.00  0.00     0.067 C 
HETATM   35  C37 UNL     1      11.400  18.447  21.940  1.00  0.00     0.085 C 
HETATM   36  C38 UNL     1      12.536  17.720  21.217  1.00  0.00     0.049 C 
HETATM   37  N1  UNL     1       2.177  15.514  29.877  1.00  0.00    -0.365 N 
HETATM   38  C39 UNL     1       1.484  14.333  29.887  1.00  0.00     0.089 A 
HETATM   39  C40 UNL     1       0.985  14.130  28.619  1.00  0.00     0.030 A 
HETATM   40  H39 UNL     1       2.653  15.916  30.676  1.00  0.00     0.165 HD
ENDROOT
BRANCH   1  41
HETATM   41  C3  UNL     1       4.870  11.804  22.281  1.00  0.00     0.318 C 
HETATM   42  O2  UNL     1       5.249  11.343  21.217  1.00  0.00    -0.257 OA
BRANCH  41  43
HETATM   43  O1  UNL     1       4.198  11.151  23.266  1.00  0.00    -0.316 OA
BRANCH  43  44
HETATM   44  C2  UNL     1       4.180   9.718  23.151  1.00  0.00     0.175 C 
HETATM   45  C1  UNL     1       2.782   9.222  22.821  1.00  0.00     0.034 C 
ENDBRANCH  43  44
ENDBRANCH  41  43
ENDBRANCH   1  41
BRANCH   2  46
HETATM   46  C6  UNL     1       3.017  13.846  21.658  1.00  0.00     0.273 C 
HETATM   47  O3  UNL     1       2.007  13.277  22.068  1.00  0.00    -0.301 OA
ENDBRANCH   2  46
BRANCH  25  48
HETATM   48  C29 UNL     1       9.135  13.521  22.729  1.00  0.00     0.208 C 
BRANCH  48  49
HETATM   49  O7  UNL     1      10.077  13.623  21.672  1.00  0.00    -0.396 OA
HETATM   50  H28 UNL     1       9.565  13.578  20.845  1.00  0.00     0.209 HD
ENDBRANCH  48  49
ENDBRANCH  25  48
BRANCH  19  51
HETATM   51  C23 UNL     1       6.296  17.243  27.239  1.00  0.00     0.170 C 
BRANCH  51  52
HETATM   52  O5  UNL     1       6.626  18.190  28.247  1.00  0.00    -0.400 OA
HETATM   53  H23 UNL     1       7.208  18.861  27.843  1.00  0.00     0.209 HD
ENDBRANCH  51  52
ENDBRANCH  19  51
BRANCH  35  54
HETATM   54  O10 UNL     1      11.835  18.686  23.292  1.00  0.00    -0.387 OA
HETATM   55  H38 UNL     1      12.722  19.072  23.254  1.00  0.00     0.210 HD
ENDBRANCH  35  54
TORSDOF 9
ENDMDL
MODEL 8
REMARK minimizedAffinity -7.51666307
REMARK CNNscore 0.218503386
REMARK CNNaffinity 6.25680923
REMARK  9 active torsions:
REMARK  status: ('A' for Active; 'I' for Inactive)
REMARK    1  A    between atoms: C2_2  and  O1_3 
REMARK    2  A    between atoms: O1_3  and  C3_4 
REMARK    3  A    between atoms: C3_4  and  C4_6 
REMARK    4  A    between atoms: C5_7  and  C6_8 
REMARK    5  A    between atoms: C22_26  and  C23_27 
REMARK    6  A    between atoms: C23_27  and  O5_28 
REMARK    7  A    between atoms: C28_34  and  C29_35 
REMARK    8  A    between atoms: C29_35  and  O7_36 
REMARK    9  A    between atoms: C37_46  and  O10_48 
ROOT
HETATM    1  C4  UNL     1       5.134  12.478  19.093  1.00  0.00     0.165 C 
HETATM    2  C5  UNL     1       5.229  13.116  17.914  1.00  0.00     0.053 C 
HETATM    3  C7  UNL     1       4.381  12.673  16.765  1.00  0.00    -0.002 C 
HETATM    4  C8  UNL     1       4.745  13.074  15.504  1.00  0.00    -0.066 C 
HETATM    5  C9  UNL     1       3.795  13.327  14.348  1.00  0.00     0.042 C 
HETATM    6  C10 UNL     1       4.378  14.219  13.251  1.00  0.00     0.083 C 
HETATM    7  C11 UNL     1       5.636  13.573  12.698  1.00  0.00     0.136 C 
HETATM    8  O4  UNL     1       5.857  13.564  11.487  1.00  0.00    -0.297 OA
HETATM    9  C12 UNL     1       6.609  12.995  13.705  1.00  0.00     0.092 C 
HETATM   10  C13 UNL     1       6.189  13.432  15.131  1.00  0.00     0.052 C 
HETATM   11  C14 UNL     1       7.018  11.522  13.603  1.00  0.00    -0.039 A 
HETATM   12  C15 UNL     1       8.284  11.258  14.202  1.00  0.00     0.022 A 
HETATM   13  C16 UNL     1       8.862   9.980  14.197  1.00  0.00    -0.008 A 
HETATM   14  C17 UNL     1       8.173   8.954  13.570  1.00  0.00     0.042 A 
HETATM   15  C18 UNL     1       6.930   9.157  12.968  1.00  0.00     0.038 A 
HETATM   16  C19 UNL     1       6.328  10.442  13.001  1.00  0.00    -0.049 A 
HETATM   17  C20 UNL     1       4.986  10.539  12.302  1.00  0.00     0.040 C 
HETATM   18  C21 UNL     1       3.878   9.574  12.766  1.00  0.00     0.013 C 
HETATM   19  C22 UNL     1       3.615   9.558  14.294  1.00  0.00     0.034 C 
HETATM   20  C24 UNL     1       2.162   9.964  14.638  1.00  0.00     0.182 C 
HETATM   21  O6  UNL     1       2.074  11.355  15.036  1.00  0.00    -0.349 OA
HETATM   22  C25 UNL     1       2.014  11.493  16.398  1.00  0.00     0.092 C 
HETATM   23  C26 UNL     1       0.839  11.092  17.031  1.00  0.00     0.021 C 
HETATM   24  C27 UNL     1       0.828  10.800  18.397  1.00  0.00     0.090 C 
HETATM   25  C28 UNL     1       1.951  10.913  19.173  1.00  0.00     0.034 C 
HETATM   26  C30 UNL     1       3.083  11.468  18.539  1.00  0.00     0.101 C 
HETATM   27  C31 UNL     1       3.119  11.904  17.173  1.00  0.00     0.044 C 
HETATM   28  O8  UNL     1       4.217  11.480  19.326  1.00  0.00    -0.302 OA
HETATM   29  O9  UNL     1      -0.398  10.339  18.846  1.00  0.00    -0.341 OA
HETATM   30  C32 UNL     1      -1.258  10.866  17.818  1.00  0.00     0.175 C 
HETATM   31  C33 UNL     1      -0.496  10.704  16.493  1.00  0.00     0.079 C 
HETATM   32  C34 UNL     1      -1.193  11.499  15.439  1.00  0.00    -0.019 C 
HETATM   33  C35 UNL     1      -2.530  11.649  15.483  1.00  0.00    -0.027 C 
HETATM   34  C36 UNL     1      -3.416  11.078  16.587  1.00  0.00     0.067 C 
HETATM   35  C37 UNL     1      -2.662  10.259  17.682  1.00  0.00     0.085 C 
HETATM   36  C38 UNL     1      -3.410  10.285  19.016  1.00  0.00     0.049 C 
HETATM   37  N1  UNL     1       8.945   7.820  13.682  1.00  0.00    -0.365 N 
HETATM   38  C39 UNL     1      10.096   8.098  14.370  1.00  0.00     0.089 A 
HETATM   39  C40 UNL     1      10.073   9.434  14.703  1.00  0.00     0.030 A 
HETATM   40  H39 UNL     1       8.692   6.912  13.311  1.00  0.00     0.165 HD
ENDROOT
BRANCH   1  41
HETATM   41  C3  UNL     1       5.892  12.879  20.300  1.00  0.00     0.318 C 
HETATM   42  O2  UNL     1       6.528  13.916  20.381  1.00  0.00    -0.257 OA
BRANCH  41  43
HETATM   43  O1  UNL     1       5.746  11.928  21.261  1.00  0.00    -0.316 OA
BRANCH  43  44
HETATM   44  C2  UNL     1       5.872  12.397  22.614  1.00  0.00     0.175 C 
HETATM   45  C1  UNL     1       7.269  12.130  23.147  1.00  0.00     0.034 C 
ENDBRANCH  43  44
ENDBRANCH  41  43
ENDBRANCH   1  41
BRANCH   2  46
HETATM   46  C6  UNL     1       5.939  14.440  17.945  1.00  0.00     0.273 C 
HETATM   47  O3  UNL     1       5.360  15.522  17.865  1.00  0.00    -0.301 OA
ENDBRANCH   2  46
BRANCH  25  48
HETATM   48  C29 UNL     1       1.970  10.456  20.601  1.00  0.00     0.208 C 
BRANCH  48  49
HETATM   49  O7  UNL     1       2.786   9.299  20.709  1.00  0.00    -0.396 OA
HETATM   50  H28 UNL     1       2.316   8.588  20.240  1.00  0.00     0.209 HD
ENDBRANCH  48  49
ENDBRANCH  25  48
BRANCH  19  51
HETATM   51  C23 UNL     1       3.898   8.145  14.840  1.00  0.00     0.170 C 
BRANCH  51  52
HETATM   52  O5  UNL     1       2.991   7.200  14.286  1.00  0.00    -0.400 OA
HETATM   53  H23 UNL     1       2.089   7.474  14.538  1.00  0.00     0.209 HD
ENDBRANCH  51  52
ENDBRANCH  19  51
BRANCH  35  54
HETATM   54  O10 UNL     1      -2.576   8.884  17.264  1.00  0.00    -0.387 OA
HETATM   55  H38 UNL     1      -3.460   8.494  17.341  1.00  0.00     0.210 HD
ENDBRANCH  35  54
TORSDOF 9
ENDMDL
MODEL 9
REMARK minimizedAffinity -6.15937519
REMARK CNNscore 0.21614559
REMARK CNNaffinity 5.9893837
REMARK  9 active torsions:
REMARK  status: ('A' for Active; 'I' for Inactive)
REMARK    1  A    between atoms: C2_2  and  O1_3 
REMARK    2  A    between atoms: O1_3  and  C3_4 
REMARK    3  A    between atoms: C3_4  and  C4_6 
REMARK    4  A    between atoms: C5_7  and  C6_8 
REMARK    5  A    between atoms: C22_26  and  C23_27 
REMARK    6  A    between atoms: C23_27  and  O5_28 
REMARK    7  A    between atoms: C28_34  and  C29_35 
REMARK    8  A    between atoms: C29_35  and  O7_36 
REMARK    9  A    between atoms: C37_46  and  O10_48 
ROOT
HETATM    1  C4  UNL     1      -0.896  16.993  20.327  1.00  0.00     0.165 C 
HETATM    2  C5  UNL     1      -1.879  16.131  20.012  1.00  0.00     0.053 C 
HETATM    3  C7  UNL     1      -1.530  14.774  19.490  1.00  0.00    -0.002 C 
HETATM    4  C8  UNL     1      -2.509  14.064  18.841  1.00  0.00    -0.066 C 
HETATM    5  C9  UNL     1      -2.634  12.552  18.815  1.00  0.00     0.042 C 
HETATM    6  C10 UNL     1      -4.037  12.052  18.468  1.00  0.00     0.083 C 
HETATM    7  C11 UNL     1      -4.432  12.584  17.101  1.00  0.00     0.136 C 
HETATM    8  O4  UNL     1      -5.005  11.860  16.287  1.00  0.00    -0.297 OA
HETATM    9  C12 UNL     1      -4.131  14.041  16.819  1.00  0.00     0.092 C 
HETATM   10  C13 UNL     1      -3.692  14.736  18.133  1.00  0.00     0.052 C 
HETATM   11  C14 UNL     1      -3.276  14.417  15.604  1.00  0.00    -0.039 A 
HETATM   12  C15 UNL     1      -3.524  15.742  15.143  1.00  0.00     0.022 A 
HETATM   13  C16 UNL     1      -2.870  16.281  14.025  1.00  0.00    -0.008 A 
HETATM   14  C17 UNL     1      -1.967  15.477  13.347  1.00  0.00     0.042 A 
HETATM   15  C18 UNL     1      -1.687  14.171  13.755  1.00  0.00     0.038 A 
HETATM   16  C19 UNL     1      -2.323  13.636  14.906  1.00  0.00    -0.049 A 
HETATM   17  C20 UNL     1      -1.946  12.206  15.240  1.00  0.00     0.040 C 
HETATM   18  C21 UNL     1      -0.450  11.900  15.439  1.00  0.00     0.013 C 
HETATM   19  C22 UNL     1       0.286  12.826  16.440  1.00  0.00     0.034 C 
HETATM   20  C24 UNL     1       0.886  12.039  17.630  1.00  0.00     0.182 C 
HETATM   21  O6  UNL     1       0.035  12.105  18.801  1.00  0.00    -0.349 OA
HETATM   22  C25 UNL     1       0.484  13.033  19.704  1.00  0.00     0.092 C 
HETATM   23  C26 UNL     1       1.654  12.737  20.399  1.00  0.00     0.021 C 
HETATM   24  C27 UNL     1       2.402  13.751  21.002  1.00  0.00     0.090 C 
HETATM   25  C28 UNL     1       2.014  15.064  20.959  1.00  0.00     0.034 C 
HETATM   26  C30 UNL     1       0.748  15.312  20.384  1.00  0.00     0.101 C 
HETATM   27  C31 UNL     1      -0.121  14.298  19.861  1.00  0.00     0.044 C 
HETATM   28  O8  UNL     1       0.435  16.652  20.277  1.00  0.00    -0.302 OA
HETATM   29  O9  UNL     1       3.576  13.294  21.577  1.00  0.00    -0.341 OA
HETATM   30  C32 UNL     1       3.244  11.904  21.758  1.00  0.00     0.175 C 
HETATM   31  C33 UNL     1       2.454  11.485  20.508  1.00  0.00     0.079 C 
HETATM   32  C34 UNL     1       1.824  10.155  20.764  1.00  0.00    -0.019 C 
HETATM   33  C35 UNL     1       2.441   9.260  21.557  1.00  0.00    -0.027 C 
HETATM   34  C36 UNL     1       3.766   9.520  22.267  1.00  0.00     0.067 C 
HETATM   35  C37 UNL     1       4.400  10.920  21.991  1.00  0.00     0.085 C 
HETATM   36  C38 UNL     1       5.289  11.373  23.151  1.00  0.00     0.049 C 
HETATM   37  N1  UNL     1      -1.481  16.215  12.293  1.00  0.00    -0.365 N 
HETATM   38  C39 UNL     1      -2.041  17.464  12.291  1.00  0.00     0.089 A 
HETATM   39  C40 UNL     1      -2.910  17.535  13.357  1.00  0.00     0.030 A 
HETATM   40  H39 UNL     1      -0.802  15.880  11.619  1.00  0.00     0.165 HD
ENDROOT
BRANCH   1  41
HETATM   41  C3  UNL     1      -1.142  18.335  20.901  1.00  0.00     0.318 C 
HETATM   42  O2  UNL     1      -1.257  19.345  20.226  1.00  0.00    -0.257 OA
BRANCH  41  43
HETATM   43  O1  UNL     1      -1.225  18.239  22.254  1.00  0.00    -0.316 OA
BRANCH  43  44
HETATM   44  C2  UNL     1      -0.028  18.592  22.969  1.00  0.00     0.175 C 
HETATM   45  C1  UNL     1       0.412  17.455  23.876  1.00  0.00     0.034 C 
ENDBRANCH  43  44
ENDBRANCH  41  43
ENDBRANCH   1  41
BRANCH   2  46
HETATM   46  C6  UNL     1      -3.245  16.483  20.530  1.00  0.00     0.273 C 
HETATM   47  O3  UNL     1      -3.980  17.312  19.997  1.00  0.00    -0.301 OA
ENDBRANCH   2  46
BRANCH  25  48
HETATM   48  C29 UNL     1       2.894  16.162  21.476  1.00  0.00     0.208 C 
BRANCH  48  49
HETATM   49  O7  UNL     1       4.172  16.063  20.865  1.00  0.00    -0.396 OA
HETATM   50  H28 UNL     1       4.578  15.250  21.214  1.00  0.00     0.209 HD
ENDBRANCH  48  49
ENDBRANCH  25  48
BRANCH  19  51
HETATM   51  C23 UNL     1       1.410  13.578  15.700  1.00  0.00     0.170 C 
BRANCH  51  52
HETATM   52  O5  UNL     1       1.568  13.073  14.380  1.00  0.00    -0.400 OA
HETATM   53  H23 UNL     1       1.798  12.127  14.451  1.00  0.00     0.209 HD
ENDBRANCH  51  52
ENDBRANCH  19  51
BRANCH  35  54
HETATM   54  O10 UNL     1       5.232  10.835  20.819  1.00  0.00    -0.387 OA
HETATM   55  H38 UNL     1       6.027  10.335  21.055  1.00  0.00     0.210 HD
ENDBRANCH  35  54
TORSDOF 9
ENDMDL
