MODEL 1
REMARK minimizedAffinity -6.784585
REMARK CNNscore 0.754193366
REMARK CNNaffinity 6.43834686
REMARK  13 active torsions:
REMARK  status: ('A' for Active; 'I' for Inactive)
REMARK    1  A    between atoms: C2_2  and  C3_3 
REMARK    2  A    between atoms: C2_2  and  C14_14 
REMARK    3  A    between atoms: C4_4  and  C5_5 
REMARK    4  A    between atoms: C6_6  and  C8_8 
REMARK    5  A    between atoms: C8_8  and  C9_9 
REMARK    6  A    between atoms: C9_9  and  C10_10 
REMARK    7  A    between atoms: C18_18  and  C19_19 
REMARK    8  A    between atoms: C19_19  and  C20_20 
REMARK    9  A    between atoms: C20_20  and  C21_21 
REMARK   10  A    between atoms: C21_21  and  O1_22 
REMARK   11  A    between atoms: C23_24  and  C25_26 
REMARK   12  A    between atoms: C28_30  and  O3_32 
REMARK   13  A    between atoms: C30_33  and  O4_34 
ROOT
HETATM    1  C14 UNL     1     -10.036  45.525 -27.495  1.00  0.00     0.047 C 
HETATM    2  C15 UNL     1     -10.328  45.044 -28.925  1.00  0.00     0.013 C 
HETATM    3  C16 UNL     1     -11.784  45.411 -29.151  1.00  0.00     0.017 C 
HETATM    4  C17 UNL     1     -12.511  45.197 -27.779  1.00  0.00     0.024 C 
HETATM    5  C18 UNL     1     -13.433  46.482 -27.524  1.00  0.00     0.029 C 
HETATM    6  C22 UNL     1     -14.691  46.145 -26.705  1.00  0.00    -0.066 C 
HETATM    7  C23 UNL     1     -15.018  46.421 -25.421  1.00  0.00    -0.021 C 
HETATM    8  C24 UNL     1     -16.379  46.227 -24.804  1.00  0.00     0.052 C 
HETATM    9  C26 UNL     1     -15.629  45.283 -27.552  1.00  0.00     0.038 C 
HETATM   10  C27 UNL     1     -14.854  44.258 -28.407  1.00  0.00     0.042 C 
HETATM   11  C28 UNL     1     -13.463  43.903 -27.826  1.00  0.00     0.065 C 
HETATM   12  C29 UNL     1     -12.901  42.700 -28.608  1.00  0.00     0.047 C 
HETATM   13  C30 UNL     1     -11.318  45.051 -26.756  1.00  0.00     0.138 C 
ENDROOT
BRANCH   5  14
HETATM   14  C19 UNL     1     -12.831  47.922 -27.467  1.00  0.00     0.012 C 
BRANCH  14  15
HETATM   15  C20 UNL     1     -11.375  48.221 -27.805  1.00  0.00     0.027 C 
BRANCH  15  16
HETATM   16  C21 UNL     1     -10.595  48.733 -26.593  1.00  0.00     0.164 C 
BRANCH  16  17
HETATM   17  O1  UNL     1      -9.433  49.441 -26.998  1.00  0.00    -0.401 OA
HETATM   18  H32 UNL     1      -9.726  50.241 -27.471  1.00  0.00     0.209 HD
ENDBRANCH  16  17
ENDBRANCH  15  16
ENDBRANCH  14  15
ENDBRANCH   5  14
BRANCH  11  19
HETATM   19  O3  UNL     1     -13.670  43.434 -26.474  1.00  0.00    -0.389 OA
HETATM   20  H44 UNL     1     -14.300  42.689 -26.512  1.00  0.00     0.210 HD
ENDBRANCH  11  19
BRANCH  13  21
HETATM   21  O4  UNL     1     -11.127  43.703 -26.324  1.00  0.00    -0.394 OA
HETATM   22  H46 UNL     1     -11.992  43.415 -25.965  1.00  0.00     0.210 HD
ENDBRANCH  13  21
BRANCH   1  23
HETATM   23  C2  UNL     1      -8.680  45.083 -26.923  1.00  0.00    -0.061 C 
HETATM   24  C1  UNL     1      -8.091  43.921 -27.262  1.00  0.00     0.019 C 
BRANCH  23  25
HETATM   25  C3  UNL     1      -7.936  45.937 -25.993  1.00  0.00     0.007 C 
HETATM   26  C4  UNL     1      -7.239  47.052 -26.258  1.00  0.00     0.001 C 
BRANCH  26  27
HETATM   27  C5  UNL     1      -6.520  47.774 -25.226  1.00  0.00     0.002 C 
HETATM   28  C6  UNL     1      -5.291  48.324 -25.311  1.00  0.00    -0.084 C 
HETATM   29  C7  UNL     1      -4.408  48.336 -26.526  1.00  0.00     0.043 C 
BRANCH  28  30
HETATM   30  C8  UNL     1      -4.702  49.013 -24.091  1.00  0.00     0.037 C 
BRANCH  30  31
HETATM   31  C9  UNL     1      -3.223  48.657 -23.895  1.00  0.00     0.031 C 
BRANCH  31  32
HETATM   32  C10 UNL     1      -2.366  49.892 -23.802  1.00  0.00    -0.024 C 
HETATM   33  C11 UNL     1      -1.502  50.229 -22.826  1.00  0.00    -0.091 C 
HETATM   34  C12 UNL     1      -0.735  51.526 -22.896  1.00  0.00     0.042 C 
HETATM   35  C13 UNL     1      -1.203  49.400 -21.605  1.00  0.00     0.042 C 
ENDBRANCH  31  32
ENDBRANCH  30  31
ENDBRANCH  28  30
ENDBRANCH  26  27
ENDBRANCH  23  25
ENDBRANCH   1  23
BRANCH   7  36
HETATM   36  C25 UNL     1     -14.013  46.870 -24.423  1.00  0.00     0.265 C 
HETATM   37  O2  UNL     1     -12.891  47.260 -24.726  1.00  0.00    -0.302 OA
ENDBRANCH   7  36
TORSDOF 13
ENDMDL
MODEL 2
REMARK minimizedAffinity -6.84707069
REMARK CNNscore 0.621176064
REMARK CNNaffinity 6.73162127
REMARK  13 active torsions:
REMARK  status: ('A' for Active; 'I' for Inactive)
REMARK    1  A    between atoms: C2_2  and  C3_3 
REMARK    2  A    between atoms: C2_2  and  C14_14 
REMARK    3  A    between atoms: C4_4  and  C5_5 
REMARK    4  A    between atoms: C6_6  and  C8_8 
REMARK    5  A    between atoms: C8_8  and  C9_9 
REMARK    6  A    between atoms: C9_9  and  C10_10 
REMARK    7  A    between atoms: C18_18  and  C19_19 
REMARK    8  A    between atoms: C19_19  and  C20_20 
REMARK    9  A    between atoms: C20_20  and  C21_21 
REMARK   10  A    between atoms: C21_21  and  O1_22 
REMARK   11  A    between atoms: C23_24  and  C25_26 
REMARK   12  A    between atoms: C28_30  and  O3_32 
REMARK   13  A    between atoms: C30_33  and  O4_34 
ROOT
HETATM    1  C14 UNL     1      -0.668  52.607 -11.068  1.00  0.00     0.047 C 
HETATM    2  C15 UNL     1      -1.229  51.354 -10.377  1.00  0.00     0.013 C 
HETATM    3  C16 UNL     1      -0.841  50.214 -11.301  1.00  0.00     0.017 C 
HETATM    4  C17 UNL     1      -0.951  50.771 -12.761  1.00  0.00     0.024 C 
HETATM    5  C18 UNL     1       0.370  50.315 -13.544  1.00  0.00     0.029 C 
HETATM    6  C22 UNL     1       0.118  50.111 -15.048  1.00  0.00    -0.066 C 
HETATM    7  C23 UNL     1       0.482  50.852 -16.120  1.00  0.00    -0.021 C 
HETATM    8  C24 UNL     1       0.362  50.424 -17.561  1.00  0.00     0.052 C 
HETATM    9  C26 UNL     1      -0.773  48.883 -15.248  1.00  0.00     0.038 C 
HETATM   10  C27 UNL     1      -1.868  48.783 -14.166  1.00  0.00     0.042 C 
HETATM   11  C28 UNL     1      -2.221  50.148 -13.524  1.00  0.00     0.065 C 
HETATM   12  C29 UNL     1      -3.484  49.968 -12.661  1.00  0.00     0.047 C 
HETATM   13  C30 UNL     1      -1.061  52.330 -12.546  1.00  0.00     0.138 C 
ENDROOT
BRANCH   5  14
HETATM   14  C19 UNL     1       1.796  50.711 -13.042  1.00  0.00     0.012 C 
BRANCH  14  15
HETATM   15  C20 UNL     1       2.858  49.680 -12.680  1.00  0.00     0.027 C 
BRANCH  15  16
HETATM   16  C21 UNL     1       4.022  49.678 -13.672  1.00  0.00     0.164 C 
BRANCH  16  17
HETATM   17  O1  UNL     1       5.269  49.672 -12.993  1.00  0.00    -0.401 OA
HETATM   18  H32 UNL     1       5.339  48.827 -12.514  1.00  0.00     0.209 HD
ENDBRANCH  16  17
ENDBRANCH  15  16
ENDBRANCH  14  15
ENDBRANCH   5  14
BRANCH  11  19
HETATM   19  O3  UNL     1      -2.598  51.042 -14.596  1.00  0.00    -0.389 OA
HETATM   20  H44 UNL     1      -3.328  50.621 -15.089  1.00  0.00     0.210 HD
ENDBRANCH  11  19
BRANCH  13  21
HETATM   21  O4  UNL     1      -2.384  52.823 -12.767  1.00  0.00    -0.394 OA
HETATM   22  H46 UNL     1      -2.627  52.531 -13.671  1.00  0.00     0.210 HD
ENDBRANCH  13  21
BRANCH   1  23
HETATM   23  C2  UNL     1      -1.106  53.943 -10.452  1.00  0.00    -0.061 C 
HETATM   24  C1  UNL     1      -2.393  54.336 -10.406  1.00  0.00     0.019 C 
BRANCH  23  25
HETATM   25  C3  UNL     1      -0.132  54.853  -9.844  1.00  0.00     0.007 C 
HETATM   26  C4  UNL     1       1.208  54.767  -9.845  1.00  0.00     0.001 C 
BRANCH  26  27
HETATM   27  C5  UNL     1       2.042  55.736  -9.163  1.00  0.00     0.002 C 
HETATM   28  C6  UNL     1       3.183  56.299  -9.613  1.00  0.00    -0.084 C 
HETATM   29  C7  UNL     1       3.819  56.064 -10.954  1.00  0.00     0.043 C 
BRANCH  28  30
HETATM   30  C8  UNL     1       3.929  57.275  -8.718  1.00  0.00     0.037 C 
BRANCH  30  31
HETATM   31  C9  UNL     1       4.074  56.739  -7.287  1.00  0.00     0.031 C 
BRANCH  31  32
HETATM   32  C10 UNL     1       5.521  56.603  -6.893  1.00  0.00    -0.024 C 
HETATM   33  C11 UNL     1       6.166  57.218  -5.884  1.00  0.00    -0.091 C 
HETATM   34  C12 UNL     1       7.634  56.968  -5.647  1.00  0.00     0.042 C 
HETATM   35  C13 UNL     1       5.539  58.180  -4.910  1.00  0.00     0.042 C 
ENDBRANCH  31  32
ENDBRANCH  30  31
ENDBRANCH  28  30
ENDBRANCH  26  27
ENDBRANCH  23  25
ENDBRANCH   1  23
BRANCH   7  36
HETATM   36  C25 UNL     1       0.967  52.250 -15.994  1.00  0.00     0.265 C 
HETATM   37  O2  UNL     1       2.136  52.575 -16.167  1.00  0.00    -0.302 OA
ENDBRANCH   7  36
TORSDOF 13
ENDMDL
MODEL 3
REMARK minimizedAffinity -6.75128746
REMARK CNNscore 0.559091747
REMARK CNNaffinity 6.29956961
REMARK  13 active torsions:
REMARK  status: ('A' for Active; 'I' for Inactive)
REMARK    1  A    between atoms: C2_2  and  C3_3 
REMARK    2  A    between atoms: C2_2  and  C14_14 
REMARK    3  A    between atoms: C4_4  and  C5_5 
REMARK    4  A    between atoms: C6_6  and  C8_8 
REMARK    5  A    between atoms: C8_8  and  C9_9 
REMARK    6  A    between atoms: C9_9  and  C10_10 
REMARK    7  A    between atoms: C18_18  and  C19_19 
REMARK    8  A    between atoms: C19_19  and  C20_20 
REMARK    9  A    between atoms: C20_20  and  C21_21 
REMARK   10  A    between atoms: C21_21  and  O1_22 
REMARK   11  A    between atoms: C23_24  and  C25_26 
REMARK   12  A    between atoms: C28_30  and  O3_32 
REMARK   13  A    between atoms: C30_33  and  O4_34 
ROOT
HETATM    1  C14 UNL     1      -8.558  46.858 -27.143  1.00  0.00     0.047 C 
HETATM    2  C15 UNL     1      -7.907  45.654 -27.841  1.00  0.00     0.013 C 
HETATM    3  C16 UNL     1      -9.034  45.037 -28.649  1.00  0.00     0.017 C 
HETATM    4  C17 UNL     1     -10.334  45.203 -27.790  1.00  0.00     0.024 C 
HETATM    5  C18 UNL     1     -11.484  45.739 -28.768  1.00  0.00     0.029 C 
HETATM    6  C22 UNL     1     -12.884  45.266 -28.340  1.00  0.00    -0.066 C 
HETATM    7  C23 UNL     1     -13.913  45.934 -27.768  1.00  0.00    -0.021 C 
HETATM    8  C24 UNL     1     -15.315  45.404 -27.602  1.00  0.00     0.052 C 
HETATM    9  C26 UNL     1     -12.997  43.757 -28.564  1.00  0.00     0.038 C 
HETATM   10  C27 UNL     1     -11.689  43.021 -28.206  1.00  0.00     0.042 C 
HETATM   11  C28 UNL     1     -10.812  43.792 -27.188  1.00  0.00     0.065 C 
HETATM   12  C29 UNL     1      -9.680  42.859 -26.717  1.00  0.00     0.047 C 
HETATM   13  C30 UNL     1      -9.905  46.237 -26.679  1.00  0.00     0.138 C 
ENDROOT
BRANCH   5  14
HETATM   14  C19 UNL     1     -11.325  47.075 -29.563  1.00  0.00     0.012 C 
BRANCH  14  15
HETATM   15  C20 UNL     1     -10.861  47.121 -31.014  1.00  0.00     0.027 C 
BRANCH  15  16
HETATM   16  C21 UNL     1     -10.970  45.757 -31.696  1.00  0.00     0.164 C 
BRANCH  16  17
HETATM   17  O1  UNL     1      -9.731  45.377 -32.275  1.00  0.00    -0.401 OA
HETATM   18  H32 UNL     1      -9.093  45.250 -31.549  1.00  0.00     0.209 HD
ENDBRANCH  16  17
ENDBRANCH  15  16
ENDBRANCH  14  15
ENDBRANCH   5  14
BRANCH  11  19
HETATM   19  O3  UNL     1     -11.630  44.042 -26.021  1.00  0.00    -0.389 OA
HETATM   20  H44 UNL     1     -11.965  43.182 -25.704  1.00  0.00     0.210 HD
ENDBRANCH  11  19
BRANCH  13  21
HETATM   21  O4  UNL     1      -9.712  45.624 -25.403  1.00  0.00    -0.394 OA
HETATM   22  H46 UNL     1     -10.550  45.157 -25.205  1.00  0.00     0.210 HD
ENDBRANCH  13  21
BRANCH   1  23
HETATM   23  C2  UNL     1      -7.687  47.545 -26.080  1.00  0.00    -0.061 C 
HETATM   24  C1  UNL     1      -8.179  47.975 -24.903  1.00  0.00     0.019 C 
BRANCH  23  25
HETATM   25  C3  UNL     1      -6.250  47.737 -26.288  1.00  0.00     0.007 C 
HETATM   26  C4  UNL     1      -5.367  48.369 -25.499  1.00  0.00     0.001 C 
BRANCH  26  27
HETATM   27  C5  UNL     1      -3.971  48.506 -25.861  1.00  0.00     0.002 C 
HETATM   28  C6  UNL     1      -3.076  49.388 -25.368  1.00  0.00    -0.084 C 
HETATM   29  C7  UNL     1      -3.335  50.408 -24.295  1.00  0.00     0.043 C 
BRANCH  28  30
HETATM   30  C8  UNL     1      -1.658  49.387 -25.914  1.00  0.00     0.037 C 
BRANCH  30  31
HETATM   31  C9  UNL     1      -1.301  50.724 -26.576  1.00  0.00     0.031 C 
BRANCH  31  32
HETATM   32  C10 UNL     1       0.175  50.820 -26.864  1.00  0.00    -0.024 C 
HETATM   33  C11 UNL     1       1.110  51.506 -26.180  1.00  0.00    -0.091 C 
HETATM   34  C12 UNL     1       2.549  51.497 -26.630  1.00  0.00     0.042 C 
HETATM   35  C13 UNL     1       0.855  52.325 -24.943  1.00  0.00     0.042 C 
ENDBRANCH  31  32
ENDBRANCH  30  31
ENDBRANCH  28  30
ENDBRANCH  26  27
ENDBRANCH  23  25
ENDBRANCH   1  23
BRANCH   7  36
HETATM   36  C25 UNL     1     -13.744  47.268 -27.138  1.00  0.00     0.265 C 
HETATM   37  O2  UNL     1     -13.584  47.428 -25.933  1.00  0.00    -0.302 OA
ENDBRANCH   7  36
TORSDOF 13
ENDMDL
MODEL 4
REMARK minimizedAffinity -7.9113059
REMARK CNNscore 0.508683205
REMARK CNNaffinity 6.15132904
REMARK  13 active torsions:
REMARK  status: ('A' for Active; 'I' for Inactive)
REMARK    1  A    between atoms: C2_2  and  C3_3 
REMARK    2  A    between atoms: C2_2  and  C14_14 
REMARK    3  A    between atoms: C4_4  and  C5_5 
REMARK    4  A    between atoms: C6_6  and  C8_8 
REMARK    5  A    between atoms: C8_8  and  C9_9 
REMARK    6  A    between atoms: C9_9  and  C10_10 
REMARK    7  A    between atoms: C18_18  and  C19_19 
REMARK    8  A    between atoms: C19_19  and  C20_20 
REMARK    9  A    between atoms: C20_20  and  C21_21 
REMARK   10  A    between atoms: C21_21  and  O1_22 
REMARK   11  A    between atoms: C23_24  and  C25_26 
REMARK   12  A    between atoms: C28_30  and  O3_32 
REMARK   13  A    between atoms: C30_33  and  O4_34 
ROOT
HETATM    1  C14 UNL     1      -7.111  47.373 -28.852  1.00  0.00     0.047 C 
HETATM    2  C15 UNL     1      -8.289  47.904 -29.685  1.00  0.00     0.013 C 
HETATM    3  C16 UNL     1      -9.509  47.243 -29.070  1.00  0.00     0.017 C 
HETATM    4  C17 UNL     1      -9.062  45.803 -28.643  1.00  0.00     0.024 C 
HETATM    5  C18 UNL     1      -9.619  45.553 -27.162  1.00  0.00     0.029 C 
HETATM    6  C22 UNL     1      -9.930  44.069 -26.897  1.00  0.00    -0.066 C 
HETATM    7  C23 UNL     1      -9.286  43.144 -26.148  1.00  0.00    -0.021 C 
HETATM    8  C24 UNL     1      -9.820  41.780 -25.793  1.00  0.00     0.052 C 
HETATM    9  C26 UNL     1     -11.141  43.651 -27.733  1.00  0.00     0.038 C 
HETATM   10  C27 UNL     1     -11.123  44.293 -29.136  1.00  0.00     0.042 C 
HETATM   11  C28 UNL     1      -9.702  44.689 -29.609  1.00  0.00     0.065 C 
HETATM   12  C29 UNL     1      -9.774  45.074 -31.099  1.00  0.00     0.047 C 
HETATM   13  C30 UNL     1      -7.488  45.870 -28.732  1.00  0.00     0.138 C 
ENDROOT
BRANCH   5  14
HETATM   14  C19 UNL     1      -9.231  46.489 -25.973  1.00  0.00     0.012 C 
BRANCH  14  15
HETATM   15  C20 UNL     1     -10.007  47.756 -25.634  1.00  0.00     0.027 C 
BRANCH  15  16
HETATM   16  C21 UNL     1      -9.290  49.017 -26.118  1.00  0.00     0.164 C 
BRANCH  16  17
HETATM   17  O1  UNL     1     -10.064  50.177 -25.850  1.00  0.00    -0.401 OA
HETATM   18  H32 UNL     1     -10.125  50.272 -24.882  1.00  0.00     0.209 HD
ENDBRANCH  16  17
ENDBRANCH  15  16
ENDBRANCH  14  15
ENDBRANCH   5  14
BRANCH  11  19
HETATM   19  O3  UNL     1      -8.882  43.500 -29.547  1.00  0.00    -0.389 OA
HETATM   20  H44 UNL     1      -9.316  42.812 -30.087  1.00  0.00     0.210 HD
ENDBRANCH  11  19
BRANCH  13  21
HETATM   21  O4  UNL     1      -6.973  45.177 -29.870  1.00  0.00    -0.394 OA
HETATM   22  H46 UNL     1      -7.326  44.265 -29.807  1.00  0.00     0.210 HD
ENDBRANCH  13  21
BRANCH   1  23
HETATM   23  C2  UNL     1      -5.718  47.717 -29.398  1.00  0.00    -0.061 C 
HETATM   24  C1  UNL     1      -5.332  47.413 -30.651  1.00  0.00     0.019 C 
BRANCH  23  25
HETATM   25  C3  UNL     1      -4.739  48.436 -28.579  1.00  0.00     0.007 C 
HETATM   26  C4  UNL     1      -4.180  48.058 -27.419  1.00  0.00     0.001 C 
BRANCH  26  27
HETATM   27  C5  UNL     1      -3.245  48.903 -26.703  1.00  0.00     0.002 C 
HETATM   28  C6  UNL     1      -3.196  49.136 -25.375  1.00  0.00    -0.084 C 
HETATM   29  C7  UNL     1      -4.095  48.527 -24.336  1.00  0.00     0.043 C 
BRANCH  28  30
HETATM   30  C8  UNL     1      -2.149  50.091 -24.828  1.00  0.00     0.037 C 
BRANCH  30  31
HETATM   31  C9  UNL     1      -1.532  50.955 -25.936  1.00  0.00     0.031 C 
BRANCH  31  32
HETATM   32  C10 UNL     1      -0.035  51.042 -25.798  1.00  0.00    -0.024 C 
HETATM   33  C11 UNL     1       0.870  51.330 -26.753  1.00  0.00    -0.091 C 
HETATM   34  C12 UNL     1       2.342  51.358 -26.430  1.00  0.00     0.042 C 
HETATM   35  C13 UNL     1       0.546  51.649 -28.188  1.00  0.00     0.042 C 
ENDBRANCH  31  32
ENDBRANCH  30  31
ENDBRANCH  28  30
ENDBRANCH  26  27
ENDBRANCH  23  25
ENDBRANCH   1  23
BRANCH   7  36
HETATM   36  C25 UNL     1      -7.898  43.344 -25.657  1.00  0.00     0.265 C 
HETATM   37  O2  UNL     1      -7.347  42.582 -24.871  1.00  0.00    -0.302 OA
ENDBRANCH   7  36
TORSDOF 13
ENDMDL
MODEL 5
REMARK minimizedAffinity -6.70867443
REMARK CNNscore 0.496715844
REMARK CNNaffinity 6.15048218
REMARK  13 active torsions:
REMARK  status: ('A' for Active; 'I' for Inactive)
REMARK    1  A    between atoms: C2_2  and  C3_3 
REMARK    2  A    between atoms: C2_2  and  C14_14 
REMARK    3  A    between atoms: C4_4  and  C5_5 
REMARK    4  A    between atoms: C6_6  and  C8_8 
REMARK    5  A    between atoms: C8_8  and  C9_9 
REMARK    6  A    between atoms: C9_9  and  C10_10 
REMARK    7  A    between atoms: C18_18  and  C19_19 
REMARK    8  A    between atoms: C19_19  and  C20_20 
REMARK    9  A    between atoms: C20_20  and  C21_21 
REMARK   10  A    between atoms: C21_21  and  O1_22 
REMARK   11  A    between atoms: C23_24  and  C25_26 
REMARK   12  A    between atoms: C28_30  and  O3_32 
REMARK   13  A    between atoms: C30_33  and  O4_34 
ROOT
HETATM    1  C14 UNL     1     -11.437  46.096 -28.300  1.00  0.00     0.047 C 
HETATM    2  C15 UNL     1     -11.121  45.989 -29.800  1.00  0.00     0.013 C 
HETATM    3  C16 UNL     1      -9.605  45.974 -29.862  1.00  0.00     0.017 C 
HETATM    4  C17 UNL     1      -9.107  46.935 -28.729  1.00  0.00     0.024 C 
HETATM    5  C18 UNL     1      -7.925  46.182 -27.952  1.00  0.00     0.029 C 
HETATM    6  C22 UNL     1      -6.888  47.161 -27.376  1.00  0.00    -0.066 C 
HETATM    7  C23 UNL     1      -6.643  47.553 -26.104  1.00  0.00    -0.021 C 
HETATM    8  C24 UNL     1      -5.448  48.351 -25.649  1.00  0.00     0.052 C 
HETATM    9  C26 UNL     1      -6.111  47.807 -28.525  1.00  0.00     0.038 C 
HETATM   10  C27 UNL     1      -7.020  48.122 -29.731  1.00  0.00     0.042 C 
HETATM   11  C28 UNL     1      -8.511  48.294 -29.345  1.00  0.00     0.065 C 
HETATM   12  C29 UNL     1      -9.268  48.853 -30.564  1.00  0.00     0.047 C 
HETATM   13  C30 UNL     1     -10.401  47.166 -27.856  1.00  0.00     0.138 C 
ENDROOT
BRANCH   5  14
HETATM   14  C19 UNL     1      -8.149  44.796 -27.267  1.00  0.00     0.012 C 
BRANCH  14  15
HETATM   15  C20 UNL     1      -9.073  44.609 -26.069  1.00  0.00     0.027 C 
BRANCH  15  16
HETATM   16  C21 UNL     1      -9.656  43.197 -26.008  1.00  0.00     0.164 C 
BRANCH  16  17
HETATM   17  O1  UNL     1     -11.023  43.194 -26.394  1.00  0.00    -0.401 OA
HETATM   18  H32 UNL     1     -11.063  43.447 -27.335  1.00  0.00     0.209 HD
ENDBRANCH  16  17
ENDBRANCH  15  16
ENDBRANCH  14  15
ENDBRANCH   5  14
BRANCH  11  19
HETATM   19  O3  UNL     1      -8.575  49.326 -28.333  1.00  0.00    -0.389 OA
HETATM   20  H44 UNL     1      -8.152  50.126 -28.698  1.00  0.00     0.210 HD
ENDBRANCH  11  19
BRANCH  13  21
HETATM   21  O4  UNL     1     -10.970  48.462 -28.050  1.00  0.00    -0.394 OA
HETATM   22  H46 UNL     1     -10.249  49.099 -27.863  1.00  0.00     0.210 HD
ENDBRANCH  13  21
BRANCH   1  23
HETATM   23  C2  UNL     1     -12.913  46.349 -27.960  1.00  0.00    -0.061 C 
HETATM   24  C1  UNL     1     -13.909  46.132 -28.839  1.00  0.00     0.019 C 
BRANCH  23  25
HETATM   25  C3  UNL     1     -13.315  46.812 -26.629  1.00  0.00     0.007 C 
HETATM   26  C4  UNL     1     -13.251  46.155 -25.461  1.00  0.00     0.001 C 
BRANCH  26  27
HETATM   27  C5  UNL     1     -13.725  46.740 -24.222  1.00  0.00     0.002 C 
HETATM   28  C6  UNL     1     -14.966  46.663 -23.698  1.00  0.00    -0.084 C 
HETATM   29  C7  UNL     1     -16.129  45.910 -24.280  1.00  0.00     0.043 C 
BRANCH  28  30
HETATM   30  C8  UNL     1     -15.265  47.384 -22.394  1.00  0.00     0.037 C 
BRANCH  30  31
HETATM   31  C9  UNL     1     -14.075  47.329 -21.426  1.00  0.00     0.031 C 
BRANCH  31  32
HETATM   32  C10 UNL     1     -14.296  48.217 -20.230  1.00  0.00    -0.024 C 
HETATM   33  C11 UNL     1     -15.083  47.987 -19.162  1.00  0.00    -0.091 C 
HETATM   34  C12 UNL     1     -15.192  49.007 -18.057  1.00  0.00     0.042 C 
HETATM   35  C13 UNL     1     -15.909  46.748 -18.942  1.00  0.00     0.042 C 
ENDBRANCH  31  32
ENDBRANCH  30  31
ENDBRANCH  28  30
ENDBRANCH  26  27
ENDBRANCH  23  25
ENDBRANCH   1  23
BRANCH   7  36
HETATM   36  C25 UNL     1      -7.605  47.310 -24.998  1.00  0.00     0.265 C 
HETATM   37  O2  UNL     1      -8.643  47.946 -24.858  1.00  0.00    -0.302 OA
ENDBRANCH   7  36
TORSDOF 13
ENDMDL
MODEL 6
REMARK minimizedAffinity -6.94673109
REMARK CNNscore 0.465223134
REMARK CNNaffinity 6.65643454
REMARK  13 active torsions:
REMARK  status: ('A' for Active; 'I' for Inactive)
REMARK    1  A    between atoms: C2_2  and  C3_3 
REMARK    2  A    between atoms: C2_2  and  C14_14 
REMARK    3  A    between atoms: C4_4  and  C5_5 
REMARK    4  A    between atoms: C6_6  and  C8_8 
REMARK    5  A    between atoms: C8_8  and  C9_9 
REMARK    6  A    between atoms: C9_9  and  C10_10 
REMARK    7  A    between atoms: C18_18  and  C19_19 
REMARK    8  A    between atoms: C19_19  and  C20_20 
REMARK    9  A    between atoms: C20_20  and  C21_21 
REMARK   10  A    between atoms: C21_21  and  O1_22 
REMARK   11  A    between atoms: C23_24  and  C25_26 
REMARK   12  A    between atoms: C28_30  and  O3_32 
REMARK   13  A    between atoms: C30_33  and  O4_34 
ROOT
HETATM    1  C14 UNL     1       1.058  51.498 -12.783  1.00  0.00     0.047 C 
HETATM    2  C15 UNL     1       0.439  50.530 -11.761  1.00  0.00     0.013 C 
HETATM    3  C16 UNL     1       0.348  51.345 -10.484  1.00  0.00     0.017 C 
HETATM    4  C17 UNL     1       1.616  52.265 -10.456  1.00  0.00     0.024 C 
HETATM    5  C18 UNL     1       1.126  53.737 -10.054  1.00  0.00     0.029 C 
HETATM    6  C22 UNL     1       2.203  54.523  -9.286  1.00  0.00    -0.066 C 
HETATM    7  C23 UNL     1       2.991  55.556  -9.664  1.00  0.00    -0.021 C 
HETATM    8  C24 UNL     1       3.851  56.382  -8.743  1.00  0.00     0.052 C 
HETATM    9  C26 UNL     1       2.393  53.897  -7.903  1.00  0.00     0.038 C 
HETATM   10  C27 UNL     1       2.317  52.356  -7.952  1.00  0.00     0.042 C 
HETATM   11  C28 UNL     1       2.664  51.770  -9.343  1.00  0.00     0.065 C 
HETATM   12  C29 UNL     1       2.806  50.242  -9.206  1.00  0.00     0.047 C 
HETATM   13  C30 UNL     1       2.176  52.156 -11.927  1.00  0.00     0.138 C 
ENDROOT
BRANCH   5  14
HETATM   14  C19 UNL     1       0.061  54.504 -10.903  1.00  0.00     0.012 C 
BRANCH  14  15
HETATM   15  C20 UNL     1      -1.160  55.173 -10.283  1.00  0.00     0.027 C 
BRANCH  15  16
HETATM   16  C21 UNL     1      -2.407  54.294 -10.376  1.00  0.00     0.164 C 
BRANCH  16  17
HETATM   17  O1  UNL     1      -2.422  53.321  -9.342  1.00  0.00    -0.401 OA
HETATM   18  H32 UNL     1      -2.505  53.795  -8.494  1.00  0.00     0.209 HD
ENDBRANCH  16  17
ENDBRANCH  15  16
ENDBRANCH  14  15
ENDBRANCH   5  14
BRANCH  11  19
HETATM   19  O3  UNL     1       3.978  52.259  -9.698  1.00  0.00    -0.389 OA
HETATM   20  H44 UNL     1       4.592  52.006  -8.983  1.00  0.00     0.210 HD
ENDBRANCH  11  19
BRANCH  13  21
HETATM   21  O4  UNL     1       3.351  51.347 -12.008  1.00  0.00    -0.394 OA
HETATM   22  H46 UNL     1       3.986  51.737 -11.372  1.00  0.00     0.210 HD
ENDBRANCH  13  21
BRANCH   1  23
HETATM   23  C2  UNL     1       1.465  50.863 -14.120  1.00  0.00    -0.061 C 
HETATM   24  C1  UNL     1       1.724  49.548 -14.252  1.00  0.00     0.019 C 
BRANCH  23  25
HETATM   25  C3  UNL     1       1.558  51.665 -15.343  1.00  0.00     0.007 C 
HETATM   26  C4  UNL     1       0.816  51.580 -16.457  1.00  0.00     0.001 C 
BRANCH  26  27
HETATM   27  C5  UNL     1       1.054  52.430 -17.608  1.00  0.00     0.002 C 
HETATM   28  C6  UNL     1       0.254  52.607 -18.679  1.00  0.00    -0.084 C 
HETATM   29  C7  UNL     1      -1.095  51.979 -18.891  1.00  0.00     0.043 C 
BRANCH  28  30
HETATM   30  C8  UNL     1       0.711  53.524 -19.801  1.00  0.00     0.037 C 
BRANCH  30  31
HETATM   31  C9  UNL     1       1.366  52.739 -20.946  1.00  0.00     0.031 C 
BRANCH  31  32
HETATM   32  C10 UNL     1       0.716  53.049 -22.269  1.00  0.00    -0.024 C 
HETATM   33  C11 UNL     1      -0.216  52.329 -22.922  1.00  0.00    -0.091 C 
HETATM   34  C12 UNL     1      -0.746  52.792 -24.256  1.00  0.00     0.042 C 
HETATM   35  C13 UNL     1      -0.822  51.042 -22.430  1.00  0.00     0.042 C 
ENDBRANCH  31  32
ENDBRANCH  30  31
ENDBRANCH  28  30
ENDBRANCH  26  27
ENDBRANCH  23  25
ENDBRANCH   1  23
BRANCH   7  36
HETATM   36  C25 UNL     1       3.172  55.939 -11.088  1.00  0.00     0.265 C 
HETATM   37  O2  UNL     1       3.456  57.076 -11.448  1.00  0.00    -0.302 OA
ENDBRANCH   7  36
TORSDOF 13
ENDMDL
MODEL 7
REMARK minimizedAffinity -8.22859287
REMARK CNNscore 0.436161876
REMARK CNNaffinity 6.71508265
REMARK  13 active torsions:
REMARK  status: ('A' for Active; 'I' for Inactive)
REMARK    1  A    between atoms: C2_2  and  C3_3 
REMARK    2  A    between atoms: C2_2  and  C14_14 
REMARK    3  A    between atoms: C4_4  and  C5_5 
REMARK    4  A    between atoms: C6_6  and  C8_8 
REMARK    5  A    between atoms: C8_8  and  C9_9 
REMARK    6  A    between atoms: C9_9  and  C10_10 
REMARK    7  A    between atoms: C18_18  and  C19_19 
REMARK    8  A    between atoms: C19_19  and  C20_20 
REMARK    9  A    between atoms: C20_20  and  C21_21 
REMARK   10  A    between atoms: C21_21  and  O1_22 
REMARK   11  A    between atoms: C23_24  and  C25_26 
REMARK   12  A    between atoms: C28_30  and  O3_32 
REMARK   13  A    between atoms: C30_33  and  O4_34 
ROOT
HETATM    1  C14 UNL     1      -1.122  51.268 -22.230  1.00  0.00     0.047 C 
HETATM    2  C15 UNL     1      -2.111  51.544 -21.087  1.00  0.00     0.013 C 
HETATM    3  C16 UNL     1      -3.271  50.605 -21.363  1.00  0.00     0.017 C 
HETATM    4  C17 UNL     1      -3.426  50.540 -22.921  1.00  0.00     0.024 C 
HETATM    5  C18 UNL     1      -3.596  48.998 -23.318  1.00  0.00     0.029 C 
HETATM    6  C22 UNL     1      -4.457  48.810 -24.580  1.00  0.00    -0.066 C 
HETATM    7  C23 UNL     1      -4.121  48.461 -25.843  1.00  0.00    -0.021 C 
HETATM    8  C24 UNL     1      -5.092  48.094 -26.937  1.00  0.00     0.052 C 
HETATM    9  C26 UNL     1      -5.906  49.186 -24.262  1.00  0.00     0.038 C 
HETATM   10  C27 UNL     1      -5.992  50.414 -23.331  1.00  0.00     0.042 C 
HETATM   11  C28 UNL     1      -4.742  51.326 -23.404  1.00  0.00     0.065 C 
HETATM   12  C29 UNL     1      -5.046  52.631 -22.644  1.00  0.00     0.047 C 
HETATM   13  C30 UNL     1      -2.088  51.192 -23.445  1.00  0.00     0.138 C 
ENDROOT
BRANCH   5  14
HETATM   14  C19 UNL     1      -2.511  47.934 -22.953  1.00  0.00     0.012 C 
BRANCH  14  15
HETATM   15  C20 UNL     1      -2.208  47.526 -21.516  1.00  0.00     0.027 C 
BRANCH  15  16
HETATM   16  C21 UNL     1      -3.083  46.360 -21.053  1.00  0.00     0.164 C 
BRANCH  16  17
HETATM   17  O1  UNL     1      -4.452  46.609 -21.334  1.00  0.00    -0.401 OA
HETATM   18  H32 UNL     1      -4.553  46.637 -22.303  1.00  0.00     0.209 HD
ENDBRANCH  16  17
ENDBRANCH  15  16
ENDBRANCH  14  15
ENDBRANCH   5  14
BRANCH  11  19
HETATM   19  O3  UNL     1      -4.569  51.707 -24.789  1.00  0.00    -0.389 OA
HETATM   20  H44 UNL     1      -5.399  52.125 -25.087  1.00  0.00     0.210 HD
ENDBRANCH  11  19
BRANCH  13  21
HETATM   21  O4  UNL     1      -2.284  52.512 -23.957  1.00  0.00    -0.394 OA
HETATM   22  H46 UNL     1      -2.978  52.429 -24.644  1.00  0.00     0.210 HD
ENDBRANCH  13  21
BRANCH   1  23
HETATM   23  C2  UNL     1       0.060  52.244 -22.320  1.00  0.00    -0.061 C 
HETATM   24  C1  UNL     1       0.390  52.886 -23.456  1.00  0.00     0.019 C 
BRANCH  23  25
HETATM   25  C3  UNL     1       0.877  52.554 -21.143  1.00  0.00     0.007 C 
HETATM   26  C4  UNL     1       0.496  52.642 -19.860  1.00  0.00     0.001 C 
BRANCH  26  27
HETATM   27  C5  UNL     1       1.423  52.995 -18.803  1.00  0.00     0.002 C 
HETATM   28  C6  UNL     1       1.512  52.452 -17.571  1.00  0.00    -0.084 C 
HETATM   29  C7  UNL     1       0.677  51.321 -17.039  1.00  0.00     0.043 C 
BRANCH  28  30
HETATM   30  C8  UNL     1       2.540  52.997 -16.595  1.00  0.00     0.037 C 
BRANCH  30  31
HETATM   31  C9  UNL     1       3.321  51.871 -15.902  1.00  0.00     0.031 C 
BRANCH  31  32
HETATM   32  C10 UNL     1       2.988  51.791 -14.436  1.00  0.00    -0.024 C 
HETATM   33  C11 UNL     1       3.418  50.885 -13.537  1.00  0.00    -0.091 C 
HETATM   34  C12 UNL     1       2.963  50.955 -12.101  1.00  0.00     0.042 C 
HETATM   35  C13 UNL     1       4.362  49.750 -13.831  1.00  0.00     0.042 C 
ENDBRANCH  31  32
ENDBRANCH  30  31
ENDBRANCH  28  30
ENDBRANCH  26  27
ENDBRANCH  23  25
ENDBRANCH   1  23
BRANCH   7  36
HETATM   36  C25 UNL     1      -2.719  48.494 -26.331  1.00  0.00     0.265 C 
HETATM   37  O2  UNL     1      -2.058  49.523 -26.412  1.00  0.00    -0.302 OA
ENDBRANCH   7  36
TORSDOF 13
ENDMDL
MODEL 8
REMARK minimizedAffinity -6.56992722
REMARK CNNscore 0.361401588
REMARK CNNaffinity 6.43606424
REMARK  13 active torsions:
REMARK  status: ('A' for Active; 'I' for Inactive)
REMARK    1  A    between atoms: C2_2  and  C3_3 
REMARK    2  A    between atoms: C2_2  and  C14_14 
REMARK    3  A    between atoms: C4_4  and  C5_5 
REMARK    4  A    between atoms: C6_6  and  C8_8 
REMARK    5  A    between atoms: C8_8  and  C9_9 
REMARK    6  A    between atoms: C9_9  and  C10_10 
REMARK    7  A    between atoms: C18_18  and  C19_19 
REMARK    8  A    between atoms: C19_19  and  C20_20 
REMARK    9  A    between atoms: C20_20  and  C21_21 
REMARK   10  A    between atoms: C21_21  and  O1_22 
REMARK   11  A    between atoms: C23_24  and  C25_26 
REMARK   12  A    between atoms: C28_30  and  O3_32 
REMARK   13  A    between atoms: C30_33  and  O4_34 
ROOT
HETATM    1  C14 UNL     1       0.560  52.855 -12.409  1.00  0.00     0.047 C 
HETATM    2  C15 UNL     1       1.928  52.244 -12.066  1.00  0.00     0.013 C 
HETATM    3  C16 UNL     1       2.218  51.307 -13.224  1.00  0.00     0.017 C 
HETATM    4  C17 UNL     1       0.842  50.685 -13.644  1.00  0.00     0.024 C 
HETATM    5  C18 UNL     1       0.755  50.759 -15.242  1.00  0.00     0.029 C 
HETATM    6  C22 UNL     1      -0.079  49.611 -15.837  1.00  0.00    -0.066 C 
HETATM    7  C23 UNL     1      -1.316  49.600 -16.385  1.00  0.00    -0.021 C 
HETATM    8  C24 UNL     1      -1.931  48.445 -17.134  1.00  0.00     0.052 C 
HETATM    9  C26 UNL     1       0.674  48.292 -15.651  1.00  0.00     0.038 C 
HETATM   10  C27 UNL     1       1.390  48.224 -14.286  1.00  0.00     0.042 C 
HETATM   11  C28 UNL     1       0.750  49.140 -13.213  1.00  0.00     0.065 C 
HETATM   12  C29 UNL     1       1.375  48.800 -11.846  1.00  0.00     0.047 C 
HETATM   13  C30 UNL     1      -0.210  51.599 -12.903  1.00  0.00     0.138 C 
ENDROOT
BRANCH   5  14
HETATM   14  C19 UNL     1       0.859  52.119 -16.005  1.00  0.00     0.012 C 
BRANCH  14  15
HETATM   15  C20 UNL     1       1.406  52.229 -17.423  1.00  0.00     0.027 C 
BRANCH  15  16
HETATM   16  C21 UNL     1       0.300  52.475 -18.449  1.00  0.00     0.164 C 
BRANCH  16  17
HETATM   17  O1  UNL     1       0.480  53.723 -19.102  1.00  0.00    -0.401 OA
HETATM   18  H32 UNL     1       1.303  53.667 -19.621  1.00  0.00     0.209 HD
ENDBRANCH  16  17
ENDBRANCH  15  16
ENDBRANCH  14  15
ENDBRANCH   5  14
BRANCH  11  19
HETATM   19  O3  UNL     1      -0.645  48.772 -13.112  1.00  0.00    -0.389 OA
HETATM   20  H44 UNL     1      -0.686  47.817 -12.913  1.00  0.00     0.210 HD
ENDBRANCH  11  19
BRANCH  13  21
HETATM   21  O4  UNL     1      -0.801  50.952 -11.775  1.00  0.00    -0.394 OA
HETATM   22  H46 UNL     1      -1.178  50.115 -12.118  1.00  0.00     0.210 HD
ENDBRANCH  13  21
BRANCH   1  23
HETATM   23  C2  UNL     1      -0.081  53.689 -11.290  1.00  0.00    -0.061 C 
HETATM   24  C1  UNL     1      -1.354  53.513 -10.889  1.00  0.00     0.019 C 
BRANCH  23  25
HETATM   25  C3  UNL     1       0.688  54.707 -10.569  1.00  0.00     0.007 C 
HETATM   26  C4  UNL     1       1.518  54.547  -9.527  1.00  0.00     0.001 C 
BRANCH  26  27
HETATM   27  C5  UNL     1       2.185  55.667  -8.894  1.00  0.00     0.002 C 
HETATM   28  C6  UNL     1       3.193  56.413  -9.393  1.00  0.00    -0.084 C 
HETATM   29  C7  UNL     1       3.822  56.259 -10.749  1.00  0.00     0.043 C 
BRANCH  28  30
HETATM   30  C8  UNL     1       3.779  57.529  -8.545  1.00  0.00     0.037 C 
BRANCH  30  31
HETATM   31  C9  UNL     1       4.044  57.071  -7.105  1.00  0.00     0.031 C 
BRANCH  31  32
HETATM   32  C10 UNL     1       5.513  56.846  -6.860  1.00  0.00    -0.024 C 
HETATM   33  C11 UNL     1       6.223  55.719  -7.059  1.00  0.00    -0.091 C 
HETATM   34  C12 UNL     1       7.696  55.675  -6.741  1.00  0.00     0.042 C 
HETATM   35  C13 UNL     1       5.669  54.428  -7.601  1.00  0.00     0.042 C 
ENDBRANCH  31  32
ENDBRANCH  30  31
ENDBRANCH  28  30
ENDBRANCH  26  27
ENDBRANCH  23  25
ENDBRANCH   1  23
BRANCH   7  36
HETATM   36  C25 UNL     1      -2.269  50.728 -16.221  1.00  0.00     0.265 C 
HETATM   37  O2  UNL     1      -2.870  50.954 -15.177  1.00  0.00    -0.302 OA
ENDBRANCH   7  36
TORSDOF 13
ENDMDL
MODEL 9
REMARK minimizedAffinity -8.81115913
REMARK CNNscore 0.328540593
REMARK CNNaffinity 6.01649666
REMARK  13 active torsions:
REMARK  status: ('A' for Active; 'I' for Inactive)
REMARK    1  A    between atoms: C2_2  and  C3_3 
REMARK    2  A    between atoms: C2_2  and  C14_14 
REMARK    3  A    between atoms: C4_4  and  C5_5 
REMARK    4  A    between atoms: C6_6  and  C8_8 
REMARK    5  A    between atoms: C8_8  and  C9_9 
REMARK    6  A    between atoms: C9_9  and  C10_10 
REMARK    7  A    between atoms: C18_18  and  C19_19 
REMARK    8  A    between atoms: C19_19  and  C20_20 
REMARK    9  A    between atoms: C20_20  and  C21_21 
REMARK   10  A    between atoms: C21_21  and  O1_22 
REMARK   11  A    between atoms: C23_24  and  C25_26 
REMARK   12  A    between atoms: C28_30  and  O3_32 
REMARK   13  A    between atoms: C30_33  and  O4_34 
ROOT
HETATM    1  C14 UNL     1      -7.066  46.702 -28.318  1.00  0.00     0.047 C 
HETATM    2  C15 UNL     1      -8.445  46.027 -28.397  1.00  0.00     0.013 C 
HETATM    3  C16 UNL     1      -8.578  45.621 -29.854  1.00  0.00     0.017 C 
HETATM    4  C17 UNL     1      -7.890  46.752 -30.692  1.00  0.00     0.024 C 
HETATM    5  C18 UNL     1      -6.961  46.036 -31.783  1.00  0.00     0.029 C 
HETATM    6  C22 UNL     1      -6.826  46.865 -33.072  1.00  0.00    -0.066 C 
HETATM    7  C23 UNL     1      -5.792  47.586 -33.564  1.00  0.00    -0.021 C 
HETATM    8  C24 UNL     1      -5.715  48.172 -34.951  1.00  0.00     0.052 C 
HETATM    9  C26 UNL     1      -8.170  46.880 -33.804  1.00  0.00     0.038 C 
HETATM   10  C27 UNL     1      -9.359  46.988 -32.826  1.00  0.00     0.042 C 
HETATM   11  C28 UNL     1      -8.980  47.638 -31.472  1.00  0.00     0.065 C 
HETATM   12  C29 UNL     1     -10.276  47.926 -30.691  1.00  0.00     0.047 C 
HETATM   13  C30 UNL     1      -7.089  47.571 -29.606  1.00  0.00     0.138 C 
ENDROOT
BRANCH   5  14
HETATM   14  C19 UNL     1      -5.816  45.057 -31.367  1.00  0.00     0.012 C 
BRANCH  14  15
HETATM   15  C20 UNL     1      -5.696  43.644 -31.926  1.00  0.00     0.027 C 
BRANCH  15  16
HETATM   16  C21 UNL     1      -4.407  43.450 -32.726  1.00  0.00     0.164 C 
BRANCH  16  17
HETATM   17  O1  UNL     1      -3.778  42.224 -32.386  1.00  0.00    -0.401 OA
HETATM   18  H32 UNL     1      -4.367  41.502 -32.669  1.00  0.00     0.209 HD
ENDBRANCH  16  17
ENDBRANCH  15  16
ENDBRANCH  14  15
ENDBRANCH   5  14
BRANCH  11  19
HETATM   19  O3  UNL     1      -8.400  48.930 -31.764  1.00  0.00    -0.389 OA
HETATM   20  H44 UNL     1      -9.048  49.433 -32.293  1.00  0.00     0.210 HD
ENDBRANCH  11  19
BRANCH  13  21
HETATM   21  O4  UNL     1      -7.701  48.825 -29.302  1.00  0.00    -0.394 OA
HETATM   22  H46 UNL     1      -7.791  49.290 -30.160  1.00  0.00     0.210 HD
ENDBRANCH  13  21
BRANCH   1  23
HETATM   23  C2  UNL     1      -6.761  47.407 -26.988  1.00  0.00    -0.061 C 
HETATM   24  C1  UNL     1      -7.604  47.380 -25.940  1.00  0.00     0.019 C 
BRANCH  23  25
HETATM   25  C3  UNL     1      -5.499  48.123 -26.784  1.00  0.00     0.007 C 
HETATM   26  C4  UNL     1      -4.415  48.152 -27.574  1.00  0.00     0.001 C 
BRANCH  26  27
HETATM   27  C5  UNL     1      -3.219  48.887 -27.215  1.00  0.00     0.002 C 
HETATM   28  C6  UNL     1      -2.737  49.119 -25.977  1.00  0.00    -0.084 C 
HETATM   29  C7  UNL     1      -3.330  48.624 -24.688  1.00  0.00     0.043 C 
BRANCH  28  30
HETATM   30  C8  UNL     1      -1.475  49.950 -25.817  1.00  0.00     0.037 C 
BRANCH  30  31
HETATM   31  C9  UNL     1      -1.313  50.966 -26.955  1.00  0.00     0.031 C 
BRANCH  31  32
HETATM   32  C10 UNL     1       0.127  51.095 -27.379  1.00  0.00    -0.024 C 
HETATM   33  C11 UNL     1       1.137  51.684 -26.712  1.00  0.00    -0.091 C 
HETATM   34  C12 UNL     1       2.523  51.730 -27.304  1.00  0.00     0.042 C 
HETATM   35  C13 UNL     1       1.021  52.336 -25.360  1.00  0.00     0.042 C 
ENDBRANCH  31  32
ENDBRANCH  30  31
ENDBRANCH  28  30
ENDBRANCH  26  27
ENDBRANCH  23  25
ENDBRANCH   1  23
BRANCH   7  36
HETATM   36  C25 UNL     1      -4.623  47.969 -32.732  1.00  0.00     0.265 C 
HETATM   37  O2  UNL     1      -3.530  47.421 -32.814  1.00  0.00    -0.302 OA
ENDBRANCH   7  36
TORSDOF 13
ENDMDL
