MODEL 1
REMARK minimizedAffinity -8.27061749
REMARK CNNscore 0.467278332
REMARK CNNaffinity 6.9511447
REMARK  6 active torsions:
REMARK  status: ('A' for Active; 'I' for Inactive)
REMARK    1  A    between atoms: C5_6  and  O2_7 
REMARK    2  A    between atoms: C6_8  and  O3_10 
REMARK    3  A    between atoms: C15_19  and  C16_20 
REMARK    4  A    between atoms: C43_49  and  O7_50 
REMARK    5  A    between atoms: C44_51  and  C45_52 
REMARK    6  A    between atoms: C45_52  and  O8_53 
ROOT
HETATM    1  C1  UNL     1       8.530  57.938  -2.356  1.00  0.00     0.013 C 
HETATM    2  C2  UNL     1       7.689  57.833  -3.638  1.00  0.00     0.023 C 
HETATM    3  C3  UNL     1       6.395  57.048  -3.356  1.00  0.00     0.167 C 
HETATM    4  O1  UNL     1       6.553  55.717  -3.905  1.00  0.00    -0.373 OA
HETATM    5  C4  UNL     1       7.881  55.592  -4.452  1.00  0.00     0.160 C 
HETATM    6  C5  UNL     1       7.981  54.476  -5.533  1.00  0.00     0.181 C 
HETATM    7  C6  UNL     1       7.038  54.435  -6.809  1.00  0.00     0.087 C 
HETATM    8  C7  UNL     1       7.438  55.594  -7.725  1.00  0.00     0.049 C 
HETATM    9  C8  UNL     1       5.489  54.322  -6.522  1.00  0.00     0.034 C 
HETATM   10  C9  UNL     1       5.114  53.022  -5.787  1.00  0.00     0.012 C 
HETATM   11  C10 UNL     1       3.600  53.043  -5.688  1.00  0.00     0.044 C 
HETATM   12  C11 UNL     1       3.118  53.398  -7.097  1.00  0.00     0.094 C 
HETATM   13  O4  UNL     1       3.131  52.244  -7.963  1.00  0.00    -0.363 OA
HETATM   14  C12 UNL     1       2.382  51.082  -7.646  1.00  0.00     0.263 C 
HETATM   15  C13 UNL     1       1.427  50.788  -8.723  1.00  0.00    -0.080 C 
HETATM   16  C14 UNL     1       0.644  50.562  -9.605  1.00  0.00    -0.093 C 
HETATM   17  C15 UNL     1      -0.318  50.307 -10.713  1.00  0.00     0.121 C 
HETATM   18  C22 UNL     1      -1.548  51.249 -10.639  1.00  0.00     0.190 C 
HETATM   19  O5  UNL     1      -1.154  52.607 -10.809  1.00  0.00    -0.384 OA
HETATM   20  C23 UNL     1      -2.093  53.605 -10.406  1.00  0.00     0.122 C 
HETATM   21  C24 UNL     1      -1.496  54.921 -10.914  1.00  0.00     0.033 C 
HETATM   22  C25 UNL     1      -0.115  55.218 -10.276  1.00  0.00     0.013 C 
HETATM   23  C26 UNL     1      -0.131  55.196  -8.729  1.00  0.00    -0.025 C 
HETATM   24  C27 UNL     1      -0.927  56.442  -8.251  1.00  0.00     0.016 C 
HETATM   25  C28 UNL     1      -0.842  53.902  -8.277  1.00  0.00     0.071 C 
HETATM   26  C29 UNL     1      -2.224  53.691  -8.878  1.00  0.00     0.045 C 
HETATM   27  C30 UNL     1      -0.738  53.748  -6.773  1.00  0.00     0.154 C 
HETATM   28  O6  UNL     1      -1.686  53.737  -6.000  1.00  0.00    -0.293 OA
HETATM   29  C31 UNL     1       0.650  53.509  -6.302  1.00  0.00     0.057 C 
HETATM   30  C32 UNL     1       1.627  54.009  -7.086  1.00  0.00    -0.036 C 
HETATM   31  C33 UNL     1       1.276  55.250  -8.041  1.00  0.00     0.031 C 
HETATM   32  C34 UNL     1       2.567  55.413  -8.808  1.00  0.00     0.000 C 
HETATM   33  C35 UNL     1       3.093  55.866 -10.142  1.00  0.00     0.006 C 
HETATM   34  C36 UNL     1       4.480  55.143 -10.283  1.00  0.00     0.001 C 
HETATM   35  C37 UNL     1       4.842  54.080  -9.159  1.00  0.00     0.014 C 
HETATM   36  C38 UNL     1       4.377  54.409  -7.664  1.00  0.00     0.006 C 
HETATM   37  C39 UNL     1       3.636  55.746  -7.703  1.00  0.00     0.014 C 
HETATM   38  C40 UNL     1       4.369  57.103  -7.833  1.00  0.00     0.100 C 
HETATM   39  C41 UNL     1       4.758  57.582  -6.489  1.00  0.00    -0.103 C 
HETATM   40  C42 UNL     1       4.973  57.767  -5.321  1.00  0.00    -0.072 C 
HETATM   41  C43 UNL     1       5.098  57.734  -3.856  1.00  0.00     0.226 C 
HETATM   42  C44 UNL     1       8.337  57.020  -4.764  1.00  0.00     0.047 C 
ENDROOT
BRANCH  17  43
HETATM   43  C16 UNL     1       0.375  50.325 -12.073  1.00  0.00    -0.040 A 
HETATM   44  C17 UNL     1      -0.064  49.503 -13.127  1.00  0.00     0.008 A 
HETATM   45  C18 UNL     1       0.587  49.502 -14.360  1.00  0.00     0.001 A 
HETATM   46  C19 UNL     1       1.686  50.331 -14.563  1.00  0.00     0.000 A 
HETATM   47  C20 UNL     1       2.135  51.152 -13.529  1.00  0.00     0.001 A 
HETATM   48  C21 UNL     1       1.485  51.152 -12.292  1.00  0.00     0.008 A 
ENDBRANCH  17  43
BRANCH   7  49
HETATM   49  O3  UNL     1       7.427  53.228  -7.518  1.00  0.00    -0.387 OA
HETATM   50  H12 UNL     1       7.723  52.609  -6.821  1.00  0.00     0.210 HD
ENDBRANCH   7  49
BRANCH   6  51
HETATM   51  O2  UNL     1       7.890  53.191  -4.874  1.00  0.00    -0.390 OA
HETATM   52  H8  UNL     1       7.360  53.318  -4.065  1.00  0.00     0.210 HD
ENDBRANCH   6  51
BRANCH  42  53
HETATM   53  C45 UNL     1       9.848  57.178  -4.895  1.00  0.00     0.172 C 
BRANCH  53  54
HETATM   54  O8  UNL     1      10.188  58.498  -5.271  1.00  0.00    -0.400 OA
HETATM   55  H56 UNL     1      10.106  59.065  -4.485  1.00  0.00     0.209 HD
ENDBRANCH  53  54
ENDBRANCH  42  53
BRANCH  41  56
HETATM   56  O7  UNL     1       5.003  59.065  -3.363  1.00  0.00    -0.381 OA
HETATM   57  H52 UNL     1       4.662  59.004  -2.460  1.00  0.00     0.211 HD
ENDBRANCH  41  56
TORSDOF 6
ENDMDL
MODEL 2
REMARK minimizedAffinity -8.40445709
REMARK CNNscore 0.41430214
REMARK CNNaffinity 7.2351222
REMARK  6 active torsions:
REMARK  status: ('A' for Active; 'I' for Inactive)
REMARK    1  A    between atoms: C5_6  and  O2_7 
REMARK    2  A    between atoms: C6_8  and  O3_10 
REMARK    3  A    between atoms: C15_19  and  C16_20 
REMARK    4  A    between atoms: C43_49  and  O7_50 
REMARK    5  A    between atoms: C44_51  and  C45_52 
REMARK    6  A    between atoms: C45_52  and  O8_53 
ROOT
HETATM    1  C1  UNL     1      -1.269  46.838 -14.440  1.00  0.00     0.013 C 
HETATM    2  C2  UNL     1      -1.075  48.276 -13.937  1.00  0.00     0.023 C 
HETATM    3  C3  UNL     1       0.210  48.370 -13.095  1.00  0.00     0.167 C 
HETATM    4  O1  UNL     1      -0.175  48.428 -11.699  1.00  0.00    -0.373 OA
HETATM    5  C4  UNL     1      -1.609  48.310 -11.607  1.00  0.00     0.160 C 
HETATM    6  C5  UNL     1      -2.175  48.911 -10.287  1.00  0.00     0.181 C 
HETATM    7  C6  UNL     1      -1.887  50.405  -9.834  1.00  0.00     0.087 C 
HETATM    8  C7  UNL     1      -2.643  51.337 -10.783  1.00  0.00     0.049 C 
HETATM    9  C8  UNL     1      -0.368  50.778  -9.610  1.00  0.00     0.034 C 
HETATM   10  C9  UNL     1       0.287  49.957  -8.486  1.00  0.00     0.012 C 
HETATM   11  C10 UNL     1       1.692  50.514  -8.352  1.00  0.00     0.044 C 
HETATM   12  C11 UNL     1       1.510  52.033  -8.304  1.00  0.00     0.094 C 
HETATM   13  O4  UNL     1       1.116  52.474  -6.989  1.00  0.00    -0.363 OA
HETATM   14  C12 UNL     1       1.925  52.208  -5.854  1.00  0.00     0.263 C 
HETATM   15  C13 UNL     1       2.311  53.468  -5.204  1.00  0.00    -0.080 C 
HETATM   16  C14 UNL     1       2.629  54.504  -4.684  1.00  0.00    -0.093 C 
HETATM   17  C15 UNL     1       3.008  55.803  -4.063  1.00  0.00     0.121 C 
HETATM   18  C22 UNL     1       4.148  56.506  -4.845  1.00  0.00     0.190 C 
HETATM   19  O5  UNL     1       3.724  56.846  -6.161  1.00  0.00    -0.384 OA
HETATM   20  C23 UNL     1       4.747  57.155  -7.107  1.00  0.00     0.122 C 
HETATM   21  C24 UNL     1       3.992  57.692  -8.328  1.00  0.00     0.033 C 
HETATM   22  C25 UNL     1       3.030  56.634  -8.927  1.00  0.00     0.013 C 
HETATM   23  C26 UNL     1       3.721  55.293  -9.270  1.00  0.00    -0.025 C 
HETATM   24  C27 UNL     1       4.649  55.543 -10.491  1.00  0.00     0.016 C 
HETATM   25  C28 UNL     1       4.555  54.860  -8.044  1.00  0.00     0.071 C 
HETATM   26  C29 UNL     1       5.534  55.908  -7.536  1.00  0.00     0.045 C 
HETATM   27  C30 UNL     1       5.119  53.470  -8.264  1.00  0.00     0.154 C 
HETATM   28  O6  UNL     1       6.310  53.196  -8.324  1.00  0.00    -0.293 OA
HETATM   29  C31 UNL     1       4.077  52.413  -8.308  1.00  0.00     0.057 C 
HETATM   30  C32 UNL     1       2.857  52.814  -8.720  1.00  0.00    -0.036 C 
HETATM   31  C33 UNL     1       2.758  54.118  -9.650  1.00  0.00     0.031 C 
HETATM   32  C34 UNL     1       1.262  54.282  -9.778  1.00  0.00     0.000 C 
HETATM   33  C35 UNL     1       0.206  55.337  -9.962  1.00  0.00     0.006 C 
HETATM   34  C36 UNL     1      -1.105  54.684  -9.395  1.00  0.00     0.001 C 
HETATM   35  C37 UNL     1      -0.941  53.276  -8.678  1.00  0.00     0.014 C 
HETATM   36  C38 UNL     1       0.132  52.261  -9.293  1.00  0.00     0.006 C 
HETATM   37  C39 UNL     1       0.785  52.961 -10.487  1.00  0.00     0.014 C 
HETATM   38  C40 UNL     1       0.072  53.123 -11.851  1.00  0.00     0.100 C 
HETATM   39  C41 UNL     1       0.312  51.919 -12.677  1.00  0.00    -0.103 C 
HETATM   40  C42 UNL     1       0.630  50.863 -13.156  1.00  0.00    -0.072 C 
HETATM   41  C43 UNL     1       1.160  49.532 -13.485  1.00  0.00     0.226 C 
HETATM   42  C44 UNL     1      -2.152  48.766 -12.964  1.00  0.00     0.047 C 
ENDROOT
BRANCH  17  43
HETATM   43  C16 UNL     1       1.790  56.695  -3.842  1.00  0.00    -0.040 A 
HETATM   44  C17 UNL     1       1.904  57.937  -3.190  1.00  0.00     0.008 A 
HETATM   45  C18 UNL     1       0.785  58.738  -2.964  1.00  0.00     0.001 A 
HETATM   46  C19 UNL     1      -0.468  58.314  -3.395  1.00  0.00     0.000 A 
HETATM   47  C20 UNL     1      -0.599  57.086  -4.043  1.00  0.00     0.001 A 
HETATM   48  C21 UNL     1       0.521  56.281  -4.268  1.00  0.00     0.008 A 
ENDBRANCH  17  43
BRANCH   7  49
HETATM   49  O3  UNL     1      -2.550  50.537  -8.549  1.00  0.00    -0.387 OA
HETATM   50  H12 UNL     1      -2.513  49.645  -8.151  1.00  0.00     0.210 HD
ENDBRANCH   7  49
BRANCH   6  51
HETATM   51  O2  UNL     1      -1.808  48.039  -9.192  1.00  0.00    -0.390 OA
HETATM   52  H8  UNL     1      -0.977  47.594  -9.443  1.00  0.00     0.210 HD
ENDBRANCH   6  51
BRANCH  42  53
HETATM   53  C45 UNL     1      -3.568  48.284 -13.263  1.00  0.00     0.172 C 
BRANCH  53  54
HETATM   54  O8  UNL     1      -4.501  48.874 -12.380  1.00  0.00    -0.400 OA
HETATM   55  H56 UNL     1      -4.654  49.789 -12.671  1.00  0.00     0.209 HD
ENDBRANCH  53  54
ENDBRANCH  42  53
BRANCH  41  56
HETATM   56  O7  UNL     1       1.464  49.496 -14.874  1.00  0.00    -0.381 OA
HETATM   57  H52 UNL     1       2.166  48.839 -14.988  1.00  0.00     0.211 HD
ENDBRANCH  41  56
TORSDOF 6
ENDMDL
MODEL 3
REMARK minimizedAffinity -8.25174522
REMARK CNNscore 0.270728558
REMARK CNNaffinity 6.7597127
REMARK  6 active torsions:
REMARK  status: ('A' for Active; 'I' for Inactive)
REMARK    1  A    between atoms: C5_6  and  O2_7 
REMARK    2  A    between atoms: C6_8  and  O3_10 
REMARK    3  A    between atoms: C15_19  and  C16_20 
REMARK    4  A    between atoms: C43_49  and  O7_50 
REMARK    5  A    between atoms: C44_51  and  C45_52 
REMARK    6  A    between atoms: C45_52  and  O8_53 
ROOT
HETATM    1  C1  UNL     1      -0.841  49.610 -19.624  1.00  0.00     0.013 C 
HETATM    2  C2  UNL     1      -2.258  49.035 -19.473  1.00  0.00     0.023 C 
HETATM    3  C3  UNL     1      -2.521  47.988 -20.571  1.00  0.00     0.167 C 
HETATM    4  O1  UNL     1      -3.376  48.596 -21.570  1.00  0.00    -0.373 OA
HETATM    5  C4  UNL     1      -3.612  49.972 -21.207  1.00  0.00     0.160 C 
HETATM    6  C5  UNL     1      -4.913  50.544 -21.843  1.00  0.00     0.181 C 
HETATM    7  C6  UNL     1      -6.330  49.853 -21.657  1.00  0.00     0.087 C 
HETATM    8  C7  UNL     1      -6.756  50.040 -20.200  1.00  0.00     0.049 C 
HETATM    9  C8  UNL     1      -6.455  48.374 -22.199  1.00  0.00     0.034 C 
HETATM   10  C9  UNL     1      -6.232  48.276 -23.719  1.00  0.00     0.012 C 
HETATM   11  C10 UNL     1      -6.485  46.821 -24.066  1.00  0.00     0.044 C 
HETATM   12  C11 UNL     1      -7.805  46.475 -23.372  1.00  0.00     0.094 C 
HETATM   13  O4  UNL     1      -8.937  46.943 -24.133  1.00  0.00    -0.363 OA
HETATM   14  C12 UNL     1      -9.149  46.514 -25.469  1.00  0.00     0.263 C 
HETATM   15  C13 UNL     1     -10.456  45.854 -25.585  1.00  0.00    -0.080 C 
HETATM   16  C14 UNL     1     -11.523  45.307 -25.667  1.00  0.00    -0.093 C 
HETATM   17  C15 UNL     1     -12.849  44.634 -25.738  1.00  0.00     0.121 C 
HETATM   18  C22 UNL     1     -12.796  43.191 -25.172  1.00  0.00     0.190 C 
HETATM   19  O5  UNL     1     -12.473  43.205 -23.784  1.00  0.00    -0.384 OA
HETATM   20  C23 UNL     1     -12.031  41.973 -23.214  1.00  0.00     0.122 C 
HETATM   21  C24 UNL     1     -11.988  42.243 -21.706  1.00  0.00     0.033 C 
HETATM   22  C25 UNL     1     -10.989  43.372 -21.346  1.00  0.00     0.013 C 
HETATM   23  C26 UNL     1      -9.561  43.132 -21.891  1.00  0.00    -0.025 C 
HETATM   24  C27 UNL     1      -8.945  41.954 -21.086  1.00  0.00     0.016 C 
HETATM   25  C28 UNL     1      -9.677  42.757 -23.384  1.00  0.00     0.071 C 
HETATM   26  C29 UNL     1     -10.617  41.597 -23.679  1.00  0.00     0.045 C 
HETATM   27  C30 UNL     1      -8.298  42.674 -24.009  1.00  0.00     0.154 C 
HETATM   28  O6  UNL     1      -7.803  41.663 -24.488  1.00  0.00    -0.293 OA
HETATM   29  C31 UNL     1      -7.607  43.986 -24.082  1.00  0.00     0.057 C 
HETATM   30  C32 UNL     1      -7.966  44.887 -23.145  1.00  0.00    -0.036 C 
HETATM   31  C33 UNL     1      -8.580  44.347 -21.764  1.00  0.00     0.031 C 
HETATM   32  C34 UNL     1      -8.946  45.639 -21.072  1.00  0.00     0.000 C 
HETATM   33  C35 UNL     1      -9.934  46.208 -20.092  1.00  0.00     0.006 C 
HETATM   34  C36 UNL     1      -9.950  47.748 -20.401  1.00  0.00     0.001 C 
HETATM   35  C37 UNL     1      -9.126  48.224 -21.673  1.00  0.00     0.014 C 
HETATM   36  C38 UNL     1      -7.750  47.467 -21.979  1.00  0.00     0.006 C 
HETATM   37  C39 UNL     1      -7.575  46.392 -20.904  1.00  0.00     0.014 C 
HETATM   38  C40 UNL     1      -7.137  46.723 -19.458  1.00  0.00     0.100 C 
HETATM   39  C41 UNL     1      -5.660  46.755 -19.386  1.00  0.00    -0.103 C 
HETATM   40  C42 UNL     1      -4.471  46.732 -19.563  1.00  0.00    -0.072 C 
HETATM   41  C43 UNL     1      -3.090  46.640 -20.060  1.00  0.00     0.226 C 
HETATM   42  C44 UNL     1      -3.387  50.047 -19.695  1.00  0.00     0.047 C 
ENDROOT
BRANCH  17  43
HETATM   43  C16 UNL     1     -13.947  45.488 -25.111  1.00  0.00    -0.040 A 
HETATM   44  C17 UNL     1     -13.666  46.381 -24.061  1.00  0.00     0.008 A 
HETATM   45  C18 UNL     1     -14.676  47.141 -23.471  1.00  0.00     0.001 A 
HETATM   46  C19 UNL     1     -15.985  47.026 -23.928  1.00  0.00     0.000 A 
HETATM   47  C20 UNL     1     -16.281  46.145 -24.968  1.00  0.00     0.001 A 
HETATM   48  C21 UNL     1     -15.271  45.382 -25.559  1.00  0.00     0.008 A 
ENDBRANCH  17  43
BRANCH   7  49
HETATM   49  O3  UNL     1      -7.244  50.669 -22.438  1.00  0.00    -0.387 OA
HETATM   50  H12 UNL     1      -6.705  51.020 -23.174  1.00  0.00     0.210 HD
ENDBRANCH   7  49
BRANCH   6  51
HETATM   51  O2  UNL     1      -4.689  50.722 -23.261  1.00  0.00    -0.390 OA
HETATM   52  H8  UNL     1      -4.024  50.063 -23.534  1.00  0.00     0.210 HD
ENDBRANCH   6  51
BRANCH  42  53
HETATM   53  C45 UNL     1      -3.112  51.453 -19.174  1.00  0.00     0.172 C 
BRANCH  53  54
HETATM   54  O8  UNL     1      -3.030  51.463 -17.762  1.00  0.00    -0.400 OA
HETATM   55  H56 UNL     1      -2.163  51.103 -17.509  1.00  0.00     0.209 HD
ENDBRANCH  53  54
ENDBRANCH  42  53
BRANCH  41  56
HETATM   56  O7  UNL     1      -2.273  46.100 -19.028  1.00  0.00    -0.381 OA
HETATM   57  H52 UNL     1      -1.530  45.659 -19.464  1.00  0.00     0.211 HD
ENDBRANCH  41  56
TORSDOF 6
ENDMDL
MODEL 4
REMARK minimizedAffinity -7.94978285
REMARK CNNscore 0.265880793
REMARK CNNaffinity 6.61178923
REMARK  6 active torsions:
REMARK  status: ('A' for Active; 'I' for Inactive)
REMARK    1  A    between atoms: C5_6  and  O2_7 
REMARK    2  A    between atoms: C6_8  and  O3_10 
REMARK    3  A    between atoms: C15_19  and  C16_20 
REMARK    4  A    between atoms: C43_49  and  O7_50 
REMARK    5  A    between atoms: C44_51  and  C45_52 
REMARK    6  A    between atoms: C45_52  and  O8_53 
ROOT
HETATM    1  C1  UNL     1      10.513  44.938  -6.684  1.00  0.00     0.013 C 
HETATM    2  C2  UNL     1       9.672  45.920  -7.512  1.00  0.00     0.023 C 
HETATM    3  C3  UNL     1       9.455  47.224  -6.723  1.00  0.00     0.167 C 
HETATM    4  O1  UNL     1       8.100  47.217  -6.213  1.00  0.00    -0.373 OA
HETATM    5  C4  UNL     1       7.474  45.968  -6.572  1.00  0.00     0.160 C 
HETATM    6  C5  UNL     1       5.920  46.062  -6.593  1.00  0.00     0.181 C 
HETATM    7  C6  UNL     1       5.140  47.140  -7.458  1.00  0.00     0.087 C 
HETATM    8  C7  UNL     1       5.308  46.769  -8.933  1.00  0.00     0.049 C 
HETATM    9  C8  UNL     1       5.445  48.652  -7.117  1.00  0.00     0.034 C 
HETATM   10  C9  UNL     1       5.049  49.029  -5.678  1.00  0.00     0.012 C 
HETATM   11  C10 UNL     1       5.320  50.518  -5.567  1.00  0.00     0.044 C 
HETATM   12  C11 UNL     1       4.679  51.129  -6.817  1.00  0.00     0.094 C 
HETATM   13  O4  UNL     1       3.255  51.287  -6.654  1.00  0.00    -0.363 OA
HETATM   14  C12 UNL     1       2.722  52.071  -5.599  1.00  0.00     0.263 C 
HETATM   15  C13 UNL     1       1.896  53.157  -6.146  1.00  0.00    -0.080 C 
HETATM   16  C14 UNL     1       1.230  54.046  -6.603  1.00  0.00    -0.093 C 
HETATM   17  C15 UNL     1       0.413  55.139  -7.199  1.00  0.00     0.121 C 
HETATM   18  C22 UNL     1       1.297  56.288  -7.748  1.00  0.00     0.190 C 
HETATM   19  O5  UNL     1       2.116  55.827  -8.819  1.00  0.00    -0.384 OA
HETATM   20  C23 UNL     1       3.228  56.648  -9.178  1.00  0.00     0.122 C 
HETATM   21  C24 UNL     1       3.762  56.026 -10.472  1.00  0.00     0.033 C 
HETATM   22  C25 UNL     1       4.239  54.566 -10.261  1.00  0.00     0.013 C 
HETATM   23  C26 UNL     1       5.275  54.412  -9.122  1.00  0.00    -0.025 C 
HETATM   24  C27 UNL     1       6.600  55.066  -9.603  1.00  0.00     0.016 C 
HETATM   25  C28 UNL     1       4.733  55.153  -7.880  1.00  0.00     0.071 C 
HETATM   26  C29 UNL     1       4.343  56.604  -8.123  1.00  0.00     0.045 C 
HETATM   27  C30 UNL     1       5.630  54.893  -6.686  1.00  0.00     0.154 C 
HETATM   28  O6  UNL     1       6.264  55.749  -6.084  1.00  0.00    -0.293 OA
HETATM   29  C31 UNL     1       5.605  53.480  -6.229  1.00  0.00     0.057 C 
HETATM   30  C32 UNL     1       5.314  52.566  -7.176  1.00  0.00    -0.036 C 
HETATM   31  C33 UNL     1       5.607  52.937  -8.710  1.00  0.00     0.031 C 
HETATM   32  C34 UNL     1       5.045  51.731  -9.423  1.00  0.00     0.000 C 
HETATM   33  C35 UNL     1       4.402  51.327 -10.721  1.00  0.00     0.006 C 
HETATM   34  C36 UNL     1       3.611  50.015 -10.376  1.00  0.00     0.001 C 
HETATM   35  C37 UNL     1       3.560  49.601  -8.843  1.00  0.00     0.014 C 
HETATM   36  C38 UNL     1       4.870  49.876  -7.967  1.00  0.00     0.006 C 
HETATM   37  C39 UNL     1       5.904  50.527  -8.888  1.00  0.00     0.014 C 
HETATM   38  C40 UNL     1       6.707  49.725  -9.940  1.00  0.00     0.100 C 
HETATM   39  C41 UNL     1       7.918  49.159  -9.307  1.00  0.00    -0.103 C 
HETATM   40  C42 UNL     1       8.818  48.804  -8.593  1.00  0.00    -0.072 C 
HETATM   41  C43 UNL     1       9.773  48.521  -7.511  1.00  0.00     0.226 C 
HETATM   42  C44 UNL     1       8.239  45.456  -7.795  1.00  0.00     0.047 C 
ENDROOT
BRANCH  17  43
HETATM   43  C16 UNL     1      -0.583  54.601  -8.223  1.00  0.00    -0.040 A 
HETATM   44  C17 UNL     1      -0.902  55.331  -9.382  1.00  0.00     0.008 A 
HETATM   45  C18 UNL     1      -1.833  54.849 -10.303  1.00  0.00     0.001 A 
HETATM   46  C19 UNL     1      -2.454  53.624 -10.083  1.00  0.00     0.000 A 
HETATM   47  C20 UNL     1      -2.149  52.888  -8.939  1.00  0.00     0.001 A 
HETATM   48  C21 UNL     1      -1.218  53.370  -8.014  1.00  0.00     0.008 A 
ENDBRANCH  17  43
BRANCH   7  49
HETATM   49  O3  UNL     1       3.737  46.913  -7.158  1.00  0.00    -0.387 OA
HETATM   50  H12 UNL     1       3.725  46.583  -6.237  1.00  0.00     0.210 HD
ENDBRANCH   7  49
BRANCH   6  51
HETATM   51  O2  UNL     1       5.448  46.164  -5.229  1.00  0.00    -0.390 OA
HETATM   52  H8  UNL     1       6.155  46.592  -4.710  1.00  0.00     0.210 HD
ENDBRANCH   6  51
BRANCH  42  53
HETATM   53  C45 UNL     1       8.077  43.962  -8.051  1.00  0.00     0.172 C 
BRANCH  53  54
HETATM   54  O8  UNL     1       8.462  43.630  -9.371  1.00  0.00    -0.400 OA
HETATM   55  H56 UNL     1       9.434  43.623  -9.409  1.00  0.00     0.209 HD
ENDBRANCH  53  54
ENDBRANCH  42  53
BRANCH  41  56
HETATM   56  O7  UNL     1      11.083  48.473  -8.065  1.00  0.00    -0.381 OA
HETATM   57  H52 UNL     1      11.694  48.715  -7.355  1.00  0.00     0.211 HD
ENDBRANCH  41  56
TORSDOF 6
ENDMDL
MODEL 5
REMARK minimizedAffinity -7.42227793
REMARK CNNscore 0.25488928
REMARK CNNaffinity 6.51243401
REMARK  6 active torsions:
REMARK  status: ('A' for Active; 'I' for Inactive)
REMARK    1  A    between atoms: C5_6  and  O2_7 
REMARK    2  A    between atoms: C6_8  and  O3_10 
REMARK    3  A    between atoms: C15_19  and  C16_20 
REMARK    4  A    between atoms: C43_49  and  O7_50 
REMARK    5  A    between atoms: C44_51  and  C45_52 
REMARK    6  A    between atoms: C45_52  and  O8_53 
ROOT
HETATM    1  C1  UNL     1      -1.683  47.775 -19.948  1.00  0.00     0.013 C 
HETATM    2  C2  UNL     1      -3.149  47.329 -19.847  1.00  0.00     0.023 C 
HETATM    3  C3  UNL     1      -3.508  46.424 -21.039  1.00  0.00     0.167 C 
HETATM    4  O1  UNL     1      -4.295  47.205 -21.970  1.00  0.00    -0.373 OA
HETATM    5  C4  UNL     1      -4.397  48.556 -21.476  1.00  0.00     0.160 C 
HETATM    6  C5  UNL     1      -5.634  49.311 -22.047  1.00  0.00     0.181 C 
HETATM    7  C6  UNL     1      -7.112  48.747 -21.922  1.00  0.00     0.087 C 
HETATM    8  C7  UNL     1      -7.525  48.834 -20.451  1.00  0.00     0.049 C 
HETATM    9  C8  UNL     1      -7.378  47.347 -22.603  1.00  0.00     0.034 C 
HETATM   10  C9  UNL     1      -7.159  47.374 -24.126  1.00  0.00     0.012 C 
HETATM   11  C10 UNL     1      -7.551  45.991 -24.610  1.00  0.00     0.044 C 
HETATM   12  C11 UNL     1      -8.902  45.710 -23.947  1.00  0.00     0.094 C 
HETATM   13  O4  UNL     1      -9.980  46.358 -24.654  1.00  0.00    -0.363 OA
HETATM   14  C12 UNL     1     -10.227  46.083 -26.023  1.00  0.00     0.263 C 
HETATM   15  C13 UNL     1     -11.592  45.567 -26.196  1.00  0.00    -0.080 C 
HETATM   16  C14 UNL     1     -12.707  45.138 -26.325  1.00  0.00    -0.093 C 
HETATM   17  C15 UNL     1     -14.092  44.607 -26.454  1.00  0.00     0.121 C 
HETATM   18  C22 UNL     1     -14.182  43.118 -26.029  1.00  0.00     0.190 C 
HETATM   19  O5  UNL     1     -13.866  42.967 -24.649  1.00  0.00    -0.384 OA
HETATM   20  C23 UNL     1     -13.548  41.649 -24.202  1.00  0.00     0.122 C 
HETATM   21  C24 UNL     1     -13.486  41.766 -22.675  1.00  0.00     0.033 C 
HETATM   22  C25 UNL     1     -12.383  42.752 -22.213  1.00  0.00     0.013 C 
HETATM   23  C26 UNL     1     -10.983  42.428 -22.786  1.00  0.00    -0.025 C 
HETATM   24  C27 UNL     1     -10.488  41.123 -22.101  1.00  0.00     0.016 C 
HETATM   25  C28 UNL     1     -11.128  42.211 -24.308  1.00  0.00     0.071 C 
HETATM   26  C29 UNL     1     -12.176  41.182 -24.708  1.00  0.00     0.045 C 
HETATM   27  C30 UNL     1      -9.762  42.055 -24.944  1.00  0.00     0.154 C 
HETATM   28  O6  UNL     1      -9.365  41.052 -25.521  1.00  0.00    -0.293 OA
HETATM   29  C31 UNL     1      -8.945  43.294 -24.893  1.00  0.00     0.057 C 
HETATM   30  C32 UNL     1      -9.218  44.131 -23.872  1.00  0.00    -0.036 C 
HETATM   31  C33 UNL     1      -9.888  43.523 -22.547  1.00  0.00     0.031 C 
HETATM   32  C34 UNL     1     -10.130  44.772 -21.732  1.00  0.00     0.000 C 
HETATM   33  C35 UNL     1     -11.062  45.338 -20.697  1.00  0.00     0.006 C 
HETATM   34  C36 UNL     1     -10.926  46.895 -20.856  1.00  0.00     0.001 C 
HETATM   35  C37 UNL     1     -10.054  47.408 -22.080  1.00  0.00     0.014 C 
HETATM   36  C38 UNL     1      -8.757  46.553 -22.465  1.00  0.00     0.006 C 
HETATM   37  C39 UNL     1      -8.693  45.368 -21.499  1.00  0.00     0.014 C 
HETATM   38  C40 UNL     1      -8.231  45.513 -20.030  1.00  0.00     0.100 C 
HETATM   39  C41 UNL     1      -6.758  45.394 -19.963  1.00  0.00    -0.103 C 
HETATM   40  C42 UNL     1      -5.576  45.272 -20.147  1.00  0.00    -0.072 C 
HETATM   41  C43 UNL     1      -4.209  45.094 -20.657  1.00  0.00     0.226 C 
HETATM   42  C44 UNL     1      -4.173  48.463 -19.964  1.00  0.00     0.047 C 
ENDROOT
BRANCH  17  43
HETATM   43  C16 UNL     1     -15.103  45.500 -25.742  1.00  0.00    -0.040 A 
HETATM   44  C17 UNL     1     -14.687  46.546 -24.899  1.00  0.00     0.008 A 
HETATM   45  C18 UNL     1     -15.614  47.344 -24.227  1.00  0.00     0.001 A 
HETATM   46  C19 UNL     1     -16.976  47.113 -24.396  1.00  0.00     0.000 A 
HETATM   47  C20 UNL     1     -17.406  46.080 -25.228  1.00  0.00     0.001 A 
HETATM   48  C21 UNL     1     -16.478  45.279 -25.899  1.00  0.00     0.008 A 
ENDBRANCH  17  43
BRANCH   7  49
HETATM   49  O3  UNL     1      -7.939  49.719 -22.615  1.00  0.00    -0.387 OA
HETATM   50  H12 UNL     1      -7.365  50.086 -23.317  1.00  0.00     0.210 HD
ENDBRANCH   7  49
BRANCH   6  51
HETATM   51  O2  UNL     1      -5.388  49.602 -23.442  1.00  0.00    -0.390 OA
HETATM   52  H8  UNL     1      -4.789  48.911 -23.781  1.00  0.00     0.210 HD
ENDBRANCH   6  51
BRANCH  42  53
HETATM   53  C45 UNL     1      -3.765  49.779 -19.311  1.00  0.00     0.172 C 
BRANCH  53  54
HETATM   54  O8  UNL     1      -3.341  50.715 -20.282  1.00  0.00    -0.400 OA
HETATM   55  H56 UNL     1      -4.133  51.074 -20.720  1.00  0.00     0.209 HD
ENDBRANCH  53  54
ENDBRANCH  42  53
BRANCH  41  56
HETATM   56  O7  UNL     1      -3.453  44.380 -19.686  1.00  0.00    -0.381 OA
HETATM   57  H52 UNL     1      -2.754  43.913 -20.166  1.00  0.00     0.211 HD
ENDBRANCH  41  56
TORSDOF 6
ENDMDL
MODEL 6
REMARK minimizedAffinity -7.48450327
REMARK CNNscore 0.246395752
REMARK CNNaffinity 6.49000216
REMARK  6 active torsions:
REMARK  status: ('A' for Active; 'I' for Inactive)
REMARK    1  A    between atoms: C5_6  and  O2_7 
REMARK    2  A    between atoms: C6_8  and  O3_10 
REMARK    3  A    between atoms: C15_19  and  C16_20 
REMARK    4  A    between atoms: C43_49  and  O7_50 
REMARK    5  A    between atoms: C44_51  and  C45_52 
REMARK    6  A    between atoms: C45_52  and  O8_53 
ROOT
HETATM    1  C1  UNL     1      -0.805  49.258 -19.443  1.00  0.00     0.013 C 
HETATM    2  C2  UNL     1      -2.259  48.913 -19.085  1.00  0.00     0.023 C 
HETATM    3  C3  UNL     1      -2.650  47.565 -19.716  1.00  0.00     0.167 C 
HETATM    4  O1  UNL     1      -3.486  47.837 -20.867  1.00  0.00    -0.373 OA
HETATM    5  C4  UNL     1      -3.591  49.265 -21.040  1.00  0.00     0.160 C 
HETATM    6  C5  UNL     1      -4.861  49.680 -21.839  1.00  0.00     0.181 C 
HETATM    7  C6  UNL     1      -6.324  49.240 -21.406  1.00  0.00     0.087 C 
HETATM    8  C7  UNL     1      -6.679  49.991 -20.121  1.00  0.00     0.049 C 
HETATM    9  C8  UNL     1      -6.594  47.685 -21.361  1.00  0.00     0.034 C 
HETATM   10  C9  UNL     1      -6.437  47.012 -22.736  1.00  0.00     0.012 C 
HETATM   11  C10 UNL     1      -6.825  45.562 -22.518  1.00  0.00     0.044 C 
HETATM   12  C11 UNL     1      -8.143  45.620 -21.742  1.00  0.00     0.094 C 
HETATM   13  O4  UNL     1      -9.258  45.877 -22.619  1.00  0.00    -0.363 OA
HETATM   14  C12 UNL     1      -9.555  45.007 -23.700  1.00  0.00     0.263 C 
HETATM   15  C13 UNL     1     -10.917  44.474 -23.559  1.00  0.00    -0.080 C 
HETATM   16  C14 UNL     1     -12.029  44.037 -23.430  1.00  0.00    -0.093 C 
HETATM   17  C15 UNL     1     -13.409  43.511 -23.243  1.00  0.00     0.121 C 
HETATM   18  C22 UNL     1     -13.458  42.381 -22.182  1.00  0.00     0.190 C 
HETATM   19  O5  UNL     1     -13.085  42.876 -20.899  1.00  0.00    -0.384 OA
HETATM   20  C23 UNL     1     -12.728  41.907 -19.914  1.00  0.00     0.122 C 
HETATM   21  C24 UNL     1     -12.606  42.709 -18.614  1.00  0.00     0.033 C 
HETATM   22  C25 UNL     1     -11.502  43.793 -18.701  1.00  0.00     0.013 C 
HETATM   23  C26 UNL     1     -10.121  43.238 -19.122  1.00  0.00    -0.025 C 
HETATM   24  C27 UNL     1      -9.578  42.389 -17.939  1.00  0.00     0.016 C 
HETATM   25  C28 UNL     1     -10.323  42.351 -20.369  1.00  0.00     0.071 C 
HETATM   26  C29 UNL     1     -11.369  41.256 -20.210  1.00  0.00     0.045 C 
HETATM   27  C30 UNL     1      -8.981  41.916 -20.922  1.00  0.00     0.154 C 
HETATM   28  O6  UNL     1      -8.591  40.758 -20.994  1.00  0.00    -0.293 OA
HETATM   29  C31 UNL     1      -8.183  43.039 -21.478  1.00  0.00     0.057 C 
HETATM   30  C32 UNL     1      -8.430  44.251 -20.941  1.00  0.00    -0.036 C 
HETATM   31  C33 UNL     1      -9.036  44.318 -19.457  1.00  0.00     0.031 C 
HETATM   32  C34 UNL     1      -9.265  45.801 -19.293  1.00  0.00     0.000 C 
HETATM   33  C35 UNL     1     -10.165  46.781 -18.591  1.00  0.00     0.006 C 
HETATM   34  C36 UNL     1     -10.062  48.093 -19.450  1.00  0.00     0.001 C 
HETATM   35  C37 UNL     1      -9.247  47.987 -20.809  1.00  0.00     0.014 C 
HETATM   36  C38 UNL     1      -7.953  47.047 -20.816  1.00  0.00     0.006 C 
HETATM   37  C39 UNL     1      -7.831  46.433 -19.420  1.00  0.00     0.014 C 
HETATM   38  C40 UNL     1      -7.313  47.232 -18.200  1.00  0.00     0.100 C 
HETATM   39  C41 UNL     1      -5.837  47.152 -18.150  1.00  0.00    -0.103 C 
HETATM   40  C42 UNL     1      -4.661  46.955 -18.309  1.00  0.00    -0.072 C 
HETATM   41  C43 UNL     1      -3.312  46.559 -18.740  1.00  0.00     0.226 C 
HETATM   42  C44 UNL     1      -3.305  49.872 -19.663  1.00  0.00     0.047 C 
ENDROOT
BRANCH  17  43
HETATM   43  C16 UNL     1     -14.407  44.634 -22.974  1.00  0.00    -0.040 A 
HETATM   44  C17 UNL     1     -13.983  45.968 -22.832  1.00  0.00     0.008 A 
HETATM   45  C18 UNL     1     -14.893  46.989 -22.559  1.00  0.00     0.001 A 
HETATM   46  C19 UNL     1     -16.247  46.693 -22.432  1.00  0.00     0.000 A 
HETATM   47  C20 UNL     1     -16.684  45.377 -22.571  1.00  0.00     0.001 A 
HETATM   48  C21 UNL     1     -15.773  44.352 -22.842  1.00  0.00     0.008 A 
ENDBRANCH  17  43
BRANCH   7  49
HETATM   49  O3  UNL     1      -7.194  49.791 -22.431  1.00  0.00    -0.387 OA
HETATM   50  H12 UNL     1      -6.655  49.795 -23.247  1.00  0.00     0.210 HD
ENDBRANCH   7  49
BRANCH   6  51
HETATM   51  O2  UNL     1      -4.676  49.300 -23.222  1.00  0.00    -0.390 OA
HETATM   52  H8  UNL     1      -4.080  48.528 -23.234  1.00  0.00     0.210 HD
ENDBRANCH   6  51
BRANCH  42  53
HETATM   53  C45 UNL     1      -2.893  51.339 -19.702  1.00  0.00     0.172 C 
BRANCH  53  54
HETATM   54  O8  UNL     1      -2.695  51.844 -18.396  1.00  0.00    -0.400 OA
HETATM   55  H56 UNL     1      -1.837  51.518 -18.075  1.00  0.00     0.209 HD
ENDBRANCH  53  54
ENDBRANCH  42  53
BRANCH  41  56
HETATM   56  O7  UNL     1      -2.507  46.365 -17.584  1.00  0.00    -0.381 OA
HETATM   57  H52 UNL     1      -1.820  45.728 -17.827  1.00  0.00     0.211 HD
ENDBRANCH  41  56
TORSDOF 6
ENDMDL
MODEL 7
REMARK minimizedAffinity -8.48720074
REMARK CNNscore 0.239168778
REMARK CNNaffinity 6.84351921
REMARK  6 active torsions:
REMARK  status: ('A' for Active; 'I' for Inactive)
REMARK    1  A    between atoms: C5_6  and  O2_7 
REMARK    2  A    between atoms: C6_8  and  O3_10 
REMARK    3  A    between atoms: C15_19  and  C16_20 
REMARK    4  A    between atoms: C43_49  and  O7_50 
REMARK    5  A    between atoms: C44_51  and  C45_52 
REMARK    6  A    between atoms: C45_52  and  O8_53 
ROOT
HETATM    1  C1  UNL     1      -2.671  51.094 -22.324  1.00  0.00     0.013 C 
HETATM    2  C2  UNL     1      -3.713  49.967 -22.380  1.00  0.00     0.023 C 
HETATM    3  C3  UNL     1      -5.068  50.477 -21.856  1.00  0.00     0.167 C 
HETATM    4  O1  UNL     1      -5.255  49.953 -20.519  1.00  0.00    -0.373 OA
HETATM    5  C4  UNL     1      -4.080  49.205 -20.143  1.00  0.00     0.160 C 
HETATM    6  C5  UNL     1      -4.369  48.158 -19.027  1.00  0.00     0.181 C 
HETATM    7  C6  UNL     1      -5.497  47.050 -19.165  1.00  0.00     0.087 C 
HETATM    8  C7  UNL     1      -5.042  46.046 -20.227  1.00  0.00     0.049 C 
HETATM    9  C8  UNL     1      -6.972  47.585 -19.349  1.00  0.00     0.034 C 
HETATM   10  C9  UNL     1      -7.460  48.411 -18.145  1.00  0.00     0.012 C 
HETATM   11  C10 UNL     1      -8.907  48.750 -18.454  1.00  0.00     0.044 C 
HETATM   12  C11 UNL     1      -9.537  47.426 -18.893  1.00  0.00     0.094 C 
HETATM   13  O4  UNL     1      -9.881  46.606 -17.757  1.00  0.00    -0.363 OA
HETATM   14  C12 UNL     1     -10.773  47.075 -16.759  1.00  0.00     0.263 C 
HETATM   15  C13 UNL     1     -11.928  46.174 -16.651  1.00  0.00    -0.080 C 
HETATM   16  C14 UNL     1     -12.873  45.436 -16.577  1.00  0.00    -0.093 C 
HETATM   17  C15 UNL     1     -14.033  44.505 -16.509  1.00  0.00     0.121 C 
HETATM   18  C22 UNL     1     -15.036  44.744 -17.667  1.00  0.00     0.190 C 
HETATM   19  O5  UNL     1     -14.428  44.471 -18.926  1.00  0.00    -0.384 OA
HETATM   20  C23 UNL     1     -15.084  44.987 -20.084  1.00  0.00     0.122 C 
HETATM   21  C24 UNL     1     -14.342  44.348 -21.262  1.00  0.00     0.033 C 
HETATM   22  C25 UNL     1     -12.845  44.748 -21.291  1.00  0.00     0.013 C 
HETATM   23  C26 UNL     1     -12.612  46.277 -21.274  1.00  0.00    -0.025 C 
HETATM   24  C27 UNL     1     -13.072  46.836 -22.650  1.00  0.00     0.016 C 
HETATM   25  C28 UNL     1     -13.470  46.877 -20.139  1.00  0.00     0.071 C 
HETATM   26  C29 UNL     1     -14.946  46.512 -20.195  1.00  0.00     0.045 C 
HETATM   27  C30 UNL     1     -13.153  48.350 -19.970  1.00  0.00     0.154 C 
HETATM   28  O6  UNL     1     -13.947  49.264 -20.140  1.00  0.00    -0.293 OA
HETATM   29  C31 UNL     1     -11.776  48.601 -19.472  1.00  0.00     0.057 C 
HETATM   30  C32 UNL     1     -10.864  47.655 -19.776  1.00  0.00    -0.036 C 
HETATM   31  C33 UNL     1     -11.127  46.729 -21.060  1.00  0.00     0.031 C 
HETATM   32  C34 UNL     1      -9.971  45.761 -20.974  1.00  0.00     0.000 C 
HETATM   33  C35 UNL     1      -9.594  44.347 -21.318  1.00  0.00     0.006 C 
HETATM   34  C36 UNL     1      -8.409  44.009 -20.344  1.00  0.00     0.001 C 
HETATM   35  C37 UNL     1      -8.074  45.094 -19.233  1.00  0.00     0.014 C 
HETATM   36  C38 UNL     1      -8.219  46.633 -19.645  1.00  0.00     0.006 C 
HETATM   37  C39 UNL     1      -8.693  46.670 -21.099  1.00  0.00     0.014 C 
HETATM   38  C40 UNL     1      -7.749  46.382 -22.291  1.00  0.00     0.100 C 
HETATM   39  C41 UNL     1      -7.064  47.631 -22.689  1.00  0.00    -0.103 C 
HETATM   40  C42 UNL     1      -6.630  48.743 -22.830  1.00  0.00    -0.072 C 
HETATM   41  C43 UNL     1      -6.277  50.169 -22.776  1.00  0.00     0.226 C 
HETATM   42  C44 UNL     1      -3.422  48.778 -21.458  1.00  0.00     0.047 C 
ENDROOT
BRANCH  17  43
HETATM   43  C16 UNL     1     -13.580  43.052 -16.394  1.00  0.00    -0.040 A 
HETATM   44  C17 UNL     1     -12.414  42.598 -17.036  1.00  0.00     0.008 A 
HETATM   45  C18 UNL     1     -12.017  41.264 -16.952  1.00  0.00     0.001 A 
HETATM   46  C19 UNL     1     -12.777  40.361 -16.215  1.00  0.00     0.000 A 
HETATM   47  C20 UNL     1     -13.936  40.794 -15.572  1.00  0.00     0.001 A 
HETATM   48  C21 UNL     1     -14.336  42.130 -15.657  1.00  0.00     0.008 A 
ENDBRANCH  17  43
BRANCH   7  49
HETATM   49  O3  UNL     1      -5.462  46.327 -17.906  1.00  0.00    -0.387 OA
HETATM   50  H12 UNL     1      -5.178  46.987 -17.242  1.00  0.00     0.210 HD
ENDBRANCH   7  49
BRANCH   6  51
HETATM   51  O2  UNL     1      -4.591  48.863 -17.784  1.00  0.00    -0.390 OA
HETATM   52  H8  UNL     1      -4.949  49.742 -18.010  1.00  0.00     0.210 HD
ENDBRANCH   6  51
BRANCH  42  53
HETATM   53  C45 UNL     1      -1.949  48.403 -21.325  1.00  0.00     0.172 C 
BRANCH  53  54
HETATM   54  O8  UNL     1      -1.732  47.063 -21.720  1.00  0.00    -0.400 OA
HETATM   55  H56 UNL     1      -1.745  47.029 -22.692  1.00  0.00     0.209 HD
ENDBRANCH  53  54
ENDBRANCH  42  53
BRANCH  41  56
HETATM   56  O7  UNL     1      -6.040  50.628 -24.101  1.00  0.00    -0.381 OA
HETATM   57  H52 UNL     1      -6.234  51.576 -24.106  1.00  0.00     0.211 HD
ENDBRANCH  41  56
TORSDOF 6
ENDMDL
MODEL 8
REMARK minimizedAffinity -7.4596386
REMARK CNNscore 0.23101078
REMARK CNNaffinity 6.43509674
REMARK  6 active torsions:
REMARK  status: ('A' for Active; 'I' for Inactive)
REMARK    1  A    between atoms: C5_6  and  O2_7 
REMARK    2  A    between atoms: C6_8  and  O3_10 
REMARK    3  A    between atoms: C15_19  and  C16_20 
REMARK    4  A    between atoms: C43_49  and  O7_50 
REMARK    5  A    between atoms: C44_51  and  C45_52 
REMARK    6  A    between atoms: C45_52  and  O8_53 
ROOT
HETATM    1  C1  UNL     1      -0.022  50.052 -11.467  1.00  0.00     0.013 C 
HETATM    2  C2  UNL     1       0.733  51.327 -11.062  1.00  0.00     0.023 C 
HETATM    3  C3  UNL     1       1.587  51.058  -9.809  1.00  0.00     0.167 C 
HETATM    4  O1  UNL     1       0.913  51.654  -8.674  1.00  0.00    -0.373 OA
HETATM    5  C4  UNL     1      -0.337  52.220  -9.119  1.00  0.00     0.160 C 
HETATM    6  C5  UNL     1      -0.858  53.340  -8.171  1.00  0.00     0.181 C 
HETATM    7  C6  UNL     1       0.017  54.607  -7.783  1.00  0.00     0.087 C 
HETATM    8  C7  UNL     1       0.148  55.486  -9.028  1.00  0.00     0.049 C 
HETATM    9  C8  UNL     1       1.377  54.306  -7.038  1.00  0.00     0.034 C 
HETATM   10  C9  UNL     1       1.171  53.613  -5.679  1.00  0.00     0.012 C 
HETATM   11  C10 UNL     1       2.559  53.496  -5.077  1.00  0.00     0.044 C 
HETATM   12  C11 UNL     1       3.178  54.887  -5.241  1.00  0.00     0.094 C 
HETATM   13  O4  UNL     1       2.715  55.792  -4.218  1.00  0.00    -0.363 OA
HETATM   14  C12 UNL     1       2.917  55.508  -2.844  1.00  0.00     0.263 C 
HETATM   15  C13 UNL     1       3.694  56.584  -2.214  1.00  0.00    -0.080 C 
HETATM   16  C14 UNL     1       4.338  57.465  -1.711  1.00  0.00    -0.093 C 
HETATM   17  C15 UNL     1       5.138  58.570  -1.115  1.00  0.00     0.121 C 
HETATM   18  C22 UNL     1       6.643  58.450  -1.470  1.00  0.00     0.190 C 
HETATM   19  O5  UNL     1       6.843  58.577  -2.874  1.00  0.00    -0.384 OA
HETATM   20  C23 UNL     1       8.098  58.129  -3.389  1.00  0.00     0.122 C 
HETATM   21  C24 UNL     1       8.103  58.597  -4.848  1.00  0.00     0.033 C 
HETATM   22  C25 UNL     1       6.948  57.964  -5.666  1.00  0.00     0.013 C 
HETATM   23  C26 UNL     1       6.916  56.419  -5.597  1.00  0.00    -0.025 C 
HETATM   24  C27 UNL     1       8.140  55.890  -6.396  1.00  0.00     0.016 C 
HETATM   25  C28 UNL     1       7.025  56.005  -4.114  1.00  0.00     0.071 C 
HETATM   26  C29 UNL     1       8.215  56.598  -3.372  1.00  0.00     0.045 C 
HETATM   27  C30 UNL     1       6.831  54.508  -3.975  1.00  0.00     0.154 C 
HETATM   28  O6  UNL     1       7.673  53.726  -3.557  1.00  0.00    -0.293 OA
HETATM   29  C31 UNL     1       5.455  54.061  -4.312  1.00  0.00     0.057 C 
HETATM   30  C32 UNL     1       4.787  54.838  -5.189  1.00  0.00    -0.036 C 
HETATM   31  C33 UNL     1       5.638  55.746  -6.203  1.00  0.00     0.031 C 
HETATM   32  C34 UNL     1       4.545  56.520  -6.901  1.00  0.00     0.000 C 
HETATM   33  C35 UNL     1       4.282  57.843  -7.565  1.00  0.00     0.006 C 
HETATM   34  C36 UNL     1       2.724  58.025  -7.477  1.00  0.00     0.001 C 
HETATM   35  C37 UNL     1       1.933  56.943  -6.625  1.00  0.00     0.014 C 
HETATM   36  C38 UNL     1       2.455  55.432  -6.694  1.00  0.00     0.006 C 
HETATM   37  C39 UNL     1       3.678  55.417  -7.612  1.00  0.00     0.014 C 
HETATM   38  C40 UNL     1       3.566  55.507  -9.152  1.00  0.00     0.100 C 
HETATM   39  C41 UNL     1       3.374  54.152  -9.712  1.00  0.00    -0.103 C 
HETATM   40  C42 UNL     1       3.225  52.980  -9.937  1.00  0.00    -0.072 C 
HETATM   41  C43 UNL     1       3.063  51.519  -9.918  1.00  0.00     0.226 C 
HETATM   42  C44 UNL     1      -0.163  52.488 -10.616  1.00  0.00     0.047 C 
ENDROOT
BRANCH  17  43
HETATM   43  C16 UNL     1       4.547  59.936  -1.452  1.00  0.00    -0.040 A 
HETATM   44  C17 UNL     1       4.185  60.269  -2.770  1.00  0.00     0.008 A 
HETATM   45  C18 UNL     1       3.670  61.528  -3.080  1.00  0.00     0.001 A 
HETATM   46  C19 UNL     1       3.500  62.473  -2.073  1.00  0.00     0.000 A 
HETATM   47  C20 UNL     1       3.854  62.159  -0.761  1.00  0.00     0.001 A 
HETATM   48  C21 UNL     1       4.372  60.899  -0.450  1.00  0.00     0.008 A 
ENDBRANCH  17  43
BRANCH   7  49
HETATM   49  O3  UNL     1      -0.814  55.361  -6.860  1.00  0.00    -0.387 OA
HETATM   50  H12 UNL     1      -1.354  54.690  -6.397  1.00  0.00     0.210 HD
ENDBRANCH   7  49
BRANCH   6  51
HETATM   51  O2  UNL     1      -1.315  52.725  -6.944  1.00  0.00    -0.390 OA
HETATM   52  H8  UNL     1      -0.800  51.906  -6.821  1.00  0.00     0.210 HD
ENDBRANCH   6  51
BRANCH  42  53
HETATM   53  C45 UNL     1      -1.474  52.629 -11.382  1.00  0.00     0.172 C 
BRANCH  53  54
HETATM   54  O8  UNL     1      -1.985  53.943 -11.271  1.00  0.00    -0.400 OA
HETATM   55  H56 UNL     1      -1.472  54.517 -11.866  1.00  0.00     0.209 HD
ENDBRANCH  53  54
ENDBRANCH  42  53
BRANCH  41  56
HETATM   56  O7  UNL     1       3.681  50.980 -11.080  1.00  0.00    -0.381 OA
HETATM   57  H52 UNL     1       3.945  50.075 -10.860  1.00  0.00     0.211 HD
ENDBRANCH  41  56
TORSDOF 6
ENDMDL
MODEL 9
REMARK minimizedAffinity -8.96413231
REMARK CNNscore 0.224476874
REMARK CNNaffinity 6.99489737
REMARK  6 active torsions:
REMARK  status: ('A' for Active; 'I' for Inactive)
REMARK    1  A    between atoms: C5_6  and  O2_7 
REMARK    2  A    between atoms: C6_8  and  O3_10 
REMARK    3  A    between atoms: C15_19  and  C16_20 
REMARK    4  A    between atoms: C43_49  and  O7_50 
REMARK    5  A    between atoms: C44_51  and  C45_52 
REMARK    6  A    between atoms: C45_52  and  O8_53 
ROOT
HETATM    1  C1  UNL     1      -0.009  52.940 -23.733  1.00  0.00     0.013 C 
HETATM    2  C2  UNL     1      -0.506  51.557 -23.285  1.00  0.00     0.023 C 
HETATM    3  C3  UNL     1      -2.044  51.510 -23.332  1.00  0.00     0.167 C 
HETATM    4  O1  UNL     1      -2.534  51.613 -21.972  1.00  0.00    -0.373 OA
HETATM    5  C4  UNL     1      -1.412  51.788 -21.084  1.00  0.00     0.160 C 
HETATM    6  C5  UNL     1      -1.730  51.351 -19.624  1.00  0.00     0.181 C 
HETATM    7  C6  UNL     1      -2.277  49.904 -19.265  1.00  0.00     0.087 C 
HETATM    8  C7  UNL     1      -1.144  48.903 -19.500  1.00  0.00     0.049 C 
HETATM    9  C8  UNL     1      -3.659  49.506 -19.919  1.00  0.00     0.034 C 
HETATM   10  C9  UNL     1      -4.814  50.420 -19.472  1.00  0.00     0.012 C 
HETATM   11  C10 UNL     1      -6.058  49.833 -20.113  1.00  0.00     0.044 C 
HETATM   12  C11 UNL     1      -5.988  48.334 -19.808  1.00  0.00     0.094 C 
HETATM   13  O4  UNL     1      -6.438  48.049 -18.468  1.00  0.00    -0.363 OA
HETATM   14  C12 UNL     1      -7.743  48.406 -18.042  1.00  0.00     0.263 C 
HETATM   15  C13 UNL     1      -8.476  47.211 -17.604  1.00  0.00    -0.080 C 
HETATM   16  C14 UNL     1      -9.070  46.226 -17.256  1.00  0.00    -0.093 C 
HETATM   17  C15 UNL     1      -9.781  44.988 -16.833  1.00  0.00     0.121 C 
HETATM   18  C22 UNL     1     -10.287  44.168 -18.049  1.00  0.00     0.190 C 
HETATM   19  O5  UNL     1      -9.194  43.705 -18.836  1.00  0.00    -0.384 OA
HETATM   20  C23 UNL     1      -9.495  43.263 -20.159  1.00  0.00     0.122 C 
HETATM   21  C24 UNL     1      -8.194  42.625 -20.656  1.00  0.00     0.033 C 
HETATM   22  C25 UNL     1      -7.027  43.645 -20.701  1.00  0.00     0.013 C 
HETATM   23  C26 UNL     1      -7.349  44.918 -21.519  1.00  0.00    -0.025 C 
HETATM   24  C27 UNL     1      -7.413  44.509 -23.016  1.00  0.00     0.016 C 
HETATM   25  C28 UNL     1      -8.721  45.451 -21.051  1.00  0.00     0.071 C 
HETATM   26  C29 UNL     1      -9.849  44.430 -21.092  1.00  0.00     0.045 C 
HETATM   27  C30 UNL     1      -9.008  46.790 -21.701  1.00  0.00     0.154 C 
HETATM   28  O6  UNL     1      -9.937  47.016 -22.465  1.00  0.00    -0.293 OA
HETATM   29  C31 UNL     1      -8.096  47.870 -21.249  1.00  0.00     0.057 C 
HETATM   30  C32 UNL     1      -6.875  47.469 -20.838  1.00  0.00    -0.036 C 
HETATM   31  C33 UNL     1      -6.303  46.078 -21.397  1.00  0.00     0.031 C 
HETATM   32  C34 UNL     1      -5.013  45.952 -20.622  1.00  0.00     0.000 C 
HETATM   33  C35 UNL     1      -4.081  44.919 -20.051  1.00  0.00     0.006 C 
HETATM   34  C36 UNL     1      -3.314  45.672 -18.906  1.00  0.00     0.001 C 
HETATM   35  C37 UNL     1      -3.812  47.142 -18.568  1.00  0.00     0.014 C 
HETATM   36  C38 UNL     1      -4.301  48.049 -19.792  1.00  0.00     0.006 C 
HETATM   37  C39 UNL     1      -4.170  47.205 -21.062  1.00  0.00     0.014 C 
HETATM   38  C40 UNL     1      -2.809  46.924 -21.740  1.00  0.00     0.100 C 
HETATM   39  C41 UNL     1      -2.488  48.024 -22.675  1.00  0.00    -0.103 C 
HETATM   40  C42 UNL     1      -2.436  49.012 -23.359  1.00  0.00    -0.072 C 
HETATM   41  C43 UNL     1      -2.634  50.283 -24.072  1.00  0.00     0.226 C 
HETATM   42  C44 UNL     1      -0.203  51.210 -21.823  1.00  0.00     0.047 C 
ENDROOT
BRANCH  17  43
HETATM   43  C16 UNL     1      -8.944  44.165 -15.858  1.00  0.00    -0.040 A 
HETATM   44  C17 UNL     1      -8.093  43.141 -16.310  1.00  0.00     0.008 A 
HETATM   45  C18 UNL     1      -7.350  42.372 -15.414  1.00  0.00     0.001 A 
HETATM   46  C19 UNL     1      -7.440  42.622 -14.048  1.00  0.00     0.000 A 
HETATM   47  C20 UNL     1      -8.278  43.634 -13.582  1.00  0.00     0.001 A 
HETATM   48  C21 UNL     1      -9.025  44.403 -14.479  1.00  0.00     0.008 A 
ENDBRANCH  17  43
BRANCH   7  49
HETATM   49  O3  UNL     1      -2.480  49.931 -17.827  1.00  0.00    -0.387 OA
HETATM   50  H12 UNL     1      -2.709  50.860 -17.621  1.00  0.00     0.210 HD
ENDBRANCH   7  49
BRANCH   6  51
HETATM   51  O2  UNL     1      -2.631  52.321 -19.041  1.00  0.00    -0.390 OA
HETATM   52  H8  UNL     1      -3.150  52.709 -19.770  1.00  0.00     0.210 HD
ENDBRANCH   6  51
BRANCH  42  53
HETATM   53  C45 UNL     1       1.142  51.705 -21.302  1.00  0.00     0.172 C 
BRANCH  53  54
HETATM   54  O8  UNL     1       0.988  52.890 -20.547  1.00  0.00    -0.400 OA
HETATM   55  H56 UNL     1       0.637  52.647 -19.673  1.00  0.00     0.209 HD
ENDBRANCH  53  54
ENDBRANCH  42  53
BRANCH  41  56
HETATM   56  O7  UNL     1      -2.082  50.161 -25.377  1.00  0.00    -0.381 OA
HETATM   57  H52 UNL     1      -2.567  50.777 -25.943  1.00  0.00     0.211 HD
ENDBRANCH  41  56
TORSDOF 6
ENDMDL
