MODEL 1
REMARK minimizedAffinity -8.10835361
REMARK CNNscore 0.51299125
REMARK CNNaffinity 6.50908089
REMARK  13 active torsions:
REMARK  status: ('A' for Active; 'I' for Inactive)
REMARK    1  A    between atoms: C3_3  and  O1_4 
REMARK    2  A    between atoms: N1_14  and  O2_16 
REMARK    3  A    between atoms: O2_16  and  C13_17 
REMARK    4  A    between atoms: C13_17  and  C14_18 
REMARK       I    between atoms: C14_18  and  N2_20 
REMARK    5  A    between atoms: N2_20  and  C15_21 
REMARK    6  A    between atoms: C15_21  and  C16_22 
REMARK    7  A    between atoms: C15_21  and  C21_33 
REMARK       I    between atoms: C16_22  and  N3_24 
REMARK    8  A    between atoms: N3_24  and  C17_25 
REMARK    9  A    between atoms: C17_25  and  C18_26 
REMARK   10  A    between atoms: C17_25  and  C20_30 
REMARK   11  A    between atoms: C18_26  and  C19_27 
REMARK   12  A    between atoms: C19_27  and  O6_29 
REMARK   13  A    between atoms: C20_30  and  O8_32 
ROOT
HETATM    1  C1  UNL     1      -0.042  51.194 -26.212  1.00  0.00     0.015 C 
HETATM    2  C2  UNL     1      -1.196  51.291 -25.883  1.00  0.00    -0.078 C 
HETATM    3  C3  UNL     1      -2.629  51.408 -25.536  1.00  0.00     0.128 C 
HETATM    4  C4  UNL     1      -3.399  50.188 -26.060  1.00  0.00     0.052 C 
HETATM    5  C5  UNL     1      -3.322  49.141 -24.939  1.00  0.00     0.010 C 
HETATM    6  C6  UNL     1      -2.739  49.854 -23.697  1.00  0.00     0.002 C 
HETATM    7  C7  UNL     1      -3.236  49.394 -22.302  1.00  0.00    -0.004 C 
HETATM    8  C8  UNL     1      -3.357  47.860 -22.201  1.00  0.00     0.010 C 
HETATM    9  C9  UNL     1      -4.787  47.345 -22.263  1.00  0.00     0.035 C 
HETATM   10  C10 UNL     1      -5.706  47.992 -21.260  1.00  0.00    -0.069 C 
HETATM   11  C11 UNL     1      -6.836  47.351 -20.910  1.00  0.00     0.030 C 
HETATM   12  C12 UNL     1      -7.822  47.936 -19.960  1.00  0.00     0.032 C 
HETATM   13  N1  UNL     1      -8.865  47.216 -19.657  1.00  0.00    -0.271 N 
ATOM     14  H1  UNL     1      -9.034  46.274 -20.009  1.00  0.00     0.194 HD
HETATM   15  C24 UNL     1      -7.542  49.320 -19.398  1.00  0.00     0.060 C 
HETATM   16  C25 UNL     1      -6.632  50.113 -20.332  1.00  0.00     0.020 C 
HETATM   17  C26 UNL     1      -5.323  49.362 -20.713  1.00  0.00    -0.016 C 
HETATM   18  C27 UNL     1      -4.487  49.174 -19.416  1.00  0.00     0.020 C 
HETATM   19  C28 UNL     1      -4.467  50.185 -21.751  1.00  0.00     0.002 C 
HETATM   20  C29 UNL     1      -5.250  50.818 -22.909  1.00  0.00     0.007 C 
HETATM   21  C30 UNL     1      -4.395  51.818 -23.698  1.00  0.00     0.014 C 
HETATM   22  C31 UNL     1      -2.932  51.359 -24.003  1.00  0.00     0.003 C 
HETATM   23  C32 UNL     1      -1.967  52.240 -23.181  1.00  0.00     0.020 C 
ENDROOT
BRANCH   3  24
HETATM   24  O1  UNL     1      -3.125  52.602 -26.131  1.00  0.00    -0.377 OA
HETATM   25  H2  UNL     1      -2.927  52.550 -27.083  1.00  0.00     0.211 HD
ENDBRANCH   3  24
BRANCH  13  26
HETATM   26  O2  UNL     1      -9.725  47.897 -18.786  1.00  0.00    -0.271 OA
BRANCH  26  27
HETATM   27  C13 UNL     1     -10.910  48.279 -19.491  1.00  0.00     0.303 C 
BRANCH  27  28
HETATM   28  C14 UNL     1     -11.854  47.089 -19.552  1.00  0.00     0.244 C 
HETATM   29  O3  UNL     1     -11.478  45.937 -19.348  1.00  0.00    -0.271 OA
HETATM   30  N2  UNL     1     -13.162  47.435 -19.820  1.00  0.00    -0.346 N 
HETATM   31  H16 UNL     1     -13.336  48.413 -20.023  1.00  0.00     0.163 HD
BRANCH  30  32
HETATM   32  C15 UNL     1     -14.198  46.434 -20.107  1.00  0.00     0.180 C 
BRANCH  32  33
HETATM   33  C16 UNL     1     -14.877  46.735 -21.469  1.00  0.00     0.241 C 
HETATM   34  O4  UNL     1     -14.822  47.840 -22.002  1.00  0.00    -0.271 OA
HETATM   35  N3  UNL     1     -15.421  45.628 -22.098  1.00  0.00    -0.344 N 
HETATM   36  H18 UNL     1     -15.771  44.932 -21.447  1.00  0.00     0.163 HD
BRANCH  35  37
HETATM   37  C17 UNL     1     -16.202  45.779 -23.334  1.00  0.00     0.192 C 
BRANCH  37  38
HETATM   38  C18 UNL     1     -17.316  46.808 -23.145  1.00  0.00     0.146 C 
BRANCH  38  39
HETATM   39  C19 UNL     1     -18.399  46.617 -24.167  1.00  0.00     0.141 C 
HETATM   40  O5  UNL     1     -18.941  47.475 -24.842  1.00  0.00    -0.650 OA
BRANCH  39  41
HETATM   41  O6  UNL     1     -18.715  45.316 -24.340  1.00  0.00    -0.776 OA
HETATM   42  H22 UNL     1     -19.447  45.333 -24.989  1.00  0.00     0.167 HD
ENDBRANCH  39  41
ENDBRANCH  38  39
ENDBRANCH  37  38
BRANCH  37  43
HETATM   43  C20 UNL     1     -15.295  46.240 -24.478  1.00  0.00     0.164 C 
HETATM   44  O7  UNL     1     -14.643  45.519 -25.216  1.00  0.00    -0.648 OA
BRANCH  43  45
HETATM   45  O8  UNL     1     -15.326  47.576 -24.693  1.00  0.00    -0.775 OA
HETATM   46  H23 UNL     1     -14.665  47.721 -25.402  1.00  0.00     0.167 HD
ENDBRANCH  43  45
ENDBRANCH  37  43
ENDBRANCH  35  37
ENDBRANCH  32  33
BRANCH  32  47
HETATM   47  C21 UNL     1     -15.215  46.365 -18.944  1.00  0.00     0.009 C 
HETATM   48  C22 UNL     1     -14.677  45.675 -17.684  1.00  0.00     0.012 C 
HETATM   49  C23 UNL     1     -15.749  47.753 -18.582  1.00  0.00     0.012 C 
ENDBRANCH  32  47
ENDBRANCH  30  32
ENDBRANCH  27  28
ENDBRANCH  26  27
ENDBRANCH  13  26
TORSDOF 13
ENDMDL
MODEL 2
REMARK minimizedAffinity -9.14733982
REMARK CNNscore 0.493903697
REMARK CNNaffinity 7.45389605
REMARK  13 active torsions:
REMARK  status: ('A' for Active; 'I' for Inactive)
REMARK    1  A    between atoms: C3_3  and  O1_4 
REMARK    2  A    between atoms: N1_14  and  O2_16 
REMARK    3  A    between atoms: O2_16  and  C13_17 
REMARK    4  A    between atoms: C13_17  and  C14_18 
REMARK       I    between atoms: C14_18  and  N2_20 
REMARK    5  A    between atoms: N2_20  and  C15_21 
REMARK    6  A    between atoms: C15_21  and  C16_22 
REMARK    7  A    between atoms: C15_21  and  C21_33 
REMARK       I    between atoms: C16_22  and  N3_24 
REMARK    8  A    between atoms: N3_24  and  C17_25 
REMARK    9  A    between atoms: C17_25  and  C18_26 
REMARK   10  A    between atoms: C17_25  and  C20_30 
REMARK   11  A    between atoms: C18_26  and  C19_27 
REMARK   12  A    between atoms: C19_27  and  O6_29 
REMARK   13  A    between atoms: C20_30  and  O8_32 
ROOT
HETATM    1  C1  UNL     1      -1.711  50.578  -8.688  1.00  0.00     0.015 C 
HETATM    2  C2  UNL     1      -2.065  51.064  -9.732  1.00  0.00    -0.078 C 
HETATM    3  C3  UNL     1      -2.510  51.712 -10.985  1.00  0.00     0.128 C 
HETATM    4  C4  UNL     1      -1.618  52.921 -11.297  1.00  0.00     0.052 C 
HETATM    5  C5  UNL     1      -0.449  52.366 -12.124  1.00  0.00     0.010 C 
HETATM    6  C6  UNL     1      -0.811  50.909 -12.493  1.00  0.00     0.002 C 
HETATM    7  C7  UNL     1      -0.317  50.368 -13.861  1.00  0.00    -0.004 C 
HETATM    8  C8  UNL     1       1.130  50.802 -14.173  1.00  0.00     0.010 C 
HETATM    9  C9  UNL     1       1.235  51.914 -15.205  1.00  0.00     0.035 C 
HETATM   10  C10 UNL     1       0.507  51.616 -16.489  1.00  0.00    -0.069 C 
HETATM   11  C11 UNL     1       0.867  52.277 -17.606  1.00  0.00     0.030 C 
HETATM   12  C12 UNL     1       0.174  52.078 -18.907  1.00  0.00     0.032 C 
HETATM   13  N1  UNL     1       0.625  52.738 -19.937  1.00  0.00    -0.271 N 
ATOM     14  H1  UNL     1       1.434  53.359 -19.910  1.00  0.00     0.194 HD
HETATM   15  C24 UNL     1      -0.999  51.113 -18.955  1.00  0.00     0.060 C 
HETATM   16  C25 UNL     1      -1.641  50.967 -17.579  1.00  0.00     0.020 C 
HETATM   17  C26 UNL     1      -0.627  50.600 -16.455  1.00  0.00    -0.016 C 
HETATM   18  C27 UNL     1      -0.055  49.189 -16.773  1.00  0.00     0.020 C 
HETATM   19  C28 UNL     1      -1.325  50.554 -15.041  1.00  0.00     0.002 C 
HETATM   20  C29 UNL     1      -2.291  51.706 -14.736  1.00  0.00     0.007 C 
HETATM   21  C30 UNL     1      -3.125  51.435 -13.477  1.00  0.00     0.014 C 
HETATM   22  C31 UNL     1      -2.340  50.833 -12.267  1.00  0.00     0.003 C 
HETATM   23  C32 UNL     1      -2.817  49.380 -12.055  1.00  0.00     0.020 C 
ENDROOT
BRANCH   3  24
HETATM   24  O1  UNL     1      -3.861  52.123 -10.807  1.00  0.00    -0.377 OA
HETATM   25  H2  UNL     1      -3.886  52.685 -10.012  1.00  0.00     0.211 HD
ENDBRANCH   3  24
BRANCH  13  26
HETATM   26  O2  UNL     1      -0.137  52.486 -21.085  1.00  0.00    -0.271 OA
BRANCH  26  27
HETATM   27  C13 UNL     1       0.728  52.419 -22.223  1.00  0.00     0.303 C 
BRANCH  27  28
HETATM   28  C14 UNL     1      -0.107  52.131 -23.461  1.00  0.00     0.244 C 
HETATM   29  O3  UNL     1      -1.121  51.438 -23.426  1.00  0.00    -0.271 OA
HETATM   30  N2  UNL     1       0.366  52.746 -24.601  1.00  0.00    -0.346 N 
HETATM   31  H16 UNL     1       1.243  53.247 -24.511  1.00  0.00     0.163 HD
BRANCH  30  32
HETATM   32  C15 UNL     1      -0.174  52.454 -25.935  1.00  0.00     0.180 C 
BRANCH  32  33
HETATM   33  C16 UNL     1      -1.619  51.902 -25.822  1.00  0.00     0.241 C 
HETATM   34  O4  UNL     1      -2.599  52.635 -25.720  1.00  0.00    -0.271 OA
HETATM   35  N3  UNL     1      -1.726  50.531 -25.992  1.00  0.00    -0.344 N 
HETATM   36  H18 UNL     1      -0.912  50.024 -25.658  1.00  0.00     0.163 HD
BRANCH  35  37
HETATM   37  C17 UNL     1      -3.014  49.851 -25.790  1.00  0.00     0.192 C 
BRANCH  37  38
HETATM   38  C18 UNL     1      -3.949  50.711 -24.941  1.00  0.00     0.146 C 
BRANCH  38  39
HETATM   39  C19 UNL     1      -5.004  49.866 -24.287  1.00  0.00     0.141 C 
HETATM   40  O5  UNL     1      -4.878  48.742 -23.832  1.00  0.00    -0.650 OA
BRANCH  39  41
HETATM   41  O6  UNL     1      -6.183  50.513 -24.179  1.00  0.00    -0.776 OA
HETATM   42  H22 UNL     1      -6.784  49.850 -23.781  1.00  0.00     0.167 HD
ENDBRANCH  39  41
ENDBRANCH  38  39
ENDBRANCH  37  38
BRANCH  37  43
HETATM   43  C20 UNL     1      -3.683  49.581 -27.140  1.00  0.00     0.164 C 
HETATM   44  O7  UNL     1      -3.315  50.003 -28.224  1.00  0.00    -0.648 OA
BRANCH  43  45
HETATM   45  O8  UNL     1      -4.725  48.719 -27.068  1.00  0.00    -0.775 OA
HETATM   46  H23 UNL     1      -5.078  48.692 -27.982  1.00  0.00     0.167 HD
ENDBRANCH  43  45
ENDBRANCH  37  43
ENDBRANCH  35  37
ENDBRANCH  32  33
BRANCH  32  47
HETATM   47  C21 UNL     1       0.767  51.491 -26.697  1.00  0.00     0.009 C 
HETATM   48  C22 UNL     1       0.792  51.712 -28.214  1.00  0.00     0.012 C 
HETATM   49  C23 UNL     1       2.194  51.548 -26.146  1.00  0.00     0.012 C 
ENDBRANCH  32  47
ENDBRANCH  30  32
ENDBRANCH  27  28
ENDBRANCH  26  27
ENDBRANCH  13  26
TORSDOF 13
ENDMDL
MODEL 3
REMARK minimizedAffinity -8.56552029
REMARK CNNscore 0.414053142
REMARK CNNaffinity 6.21211195
REMARK  13 active torsions:
REMARK  status: ('A' for Active; 'I' for Inactive)
REMARK    1  A    between atoms: C3_3  and  O1_4 
REMARK    2  A    between atoms: N1_14  and  O2_16 
REMARK    3  A    between atoms: O2_16  and  C13_17 
REMARK    4  A    between atoms: C13_17  and  C14_18 
REMARK       I    between atoms: C14_18  and  N2_20 
REMARK    5  A    between atoms: N2_20  and  C15_21 
REMARK    6  A    between atoms: C15_21  and  C16_22 
REMARK    7  A    between atoms: C15_21  and  C21_33 
REMARK       I    between atoms: C16_22  and  N3_24 
REMARK    8  A    between atoms: N3_24  and  C17_25 
REMARK    9  A    between atoms: C17_25  and  C18_26 
REMARK   10  A    between atoms: C17_25  and  C20_30 
REMARK   11  A    between atoms: C18_26  and  C19_27 
REMARK   12  A    between atoms: C19_27  and  O6_29 
REMARK   13  A    between atoms: C20_30  and  O8_32 
ROOT
HETATM    1  C1  UNL     1       1.150  51.864 -28.555  1.00  0.00     0.015 C 
HETATM    2  C2  UNL     1       0.232  52.165 -27.837  1.00  0.00    -0.078 C 
HETATM    3  C3  UNL     1      -0.915  52.574 -26.996  1.00  0.00     0.128 C 
HETATM    4  C4  UNL     1      -2.231  52.329 -27.746  1.00  0.00     0.052 C 
HETATM    5  C5  UNL     1      -2.635  50.887 -27.408  1.00  0.00     0.010 C 
HETATM    6  C6  UNL     1      -1.695  50.411 -26.277  1.00  0.00     0.002 C 
HETATM    7  C7  UNL     1      -2.273  49.426 -25.226  1.00  0.00    -0.004 C 
HETATM    8  C8  UNL     1      -3.157  48.339 -25.869  1.00  0.00     0.010 C 
HETATM    9  C9  UNL     1      -4.650  48.554 -25.668  1.00  0.00     0.035 C 
HETATM   10  C10 UNL     1      -5.043  48.741 -24.226  1.00  0.00    -0.069 C 
HETATM   11  C11 UNL     1      -6.319  48.505 -23.867  1.00  0.00     0.030 C 
HETATM   12  C12 UNL     1      -6.806  48.706 -22.476  1.00  0.00     0.032 C 
HETATM   13  N1  UNL     1      -8.050  48.410 -22.224  1.00  0.00    -0.271 N 
ATOM     14  H1  UNL     1      -8.700  48.030 -22.913  1.00  0.00     0.194 HD
HETATM   15  C24 UNL     1      -5.822  49.226 -21.440  1.00  0.00     0.060 C 
HETATM   16  C25 UNL     1      -4.693  50.006 -22.105  1.00  0.00     0.020 C 
HETATM   17  C26 UNL     1      -3.981  49.221 -23.246  1.00  0.00    -0.016 C 
HETATM   18  C27 UNL     1      -3.282  47.986 -22.609  1.00  0.00     0.020 C 
HETATM   19  C28 UNL     1      -2.888  50.106 -23.960  1.00  0.00     0.002 C 
HETATM   20  C29 UNL     1      -3.302  51.548 -24.282  1.00  0.00     0.007 C 
HETATM   21  C30 UNL     1      -2.105  52.406 -24.712  1.00  0.00     0.014 C 
HETATM   22  C31 UNL     1      -1.107  51.720 -25.700  1.00  0.00     0.003 C 
HETATM   23  C32 UNL     1       0.221  51.473 -24.953  1.00  0.00     0.020 C 
ENDROOT
BRANCH   3  24
HETATM   24  O1  UNL     1      -0.762  53.956 -26.696  1.00  0.00    -0.377 OA
HETATM   25  H2  UNL     1      -0.676  54.426 -27.545  1.00  0.00     0.211 HD
ENDBRANCH   3  24
BRANCH  13  26
HETATM   26  O2  UNL     1      -8.385  48.679 -20.891  1.00  0.00    -0.271 OA
BRANCH  26  27
HETATM   27  C13 UNL     1      -8.812  47.470 -20.256  1.00  0.00     0.303 C 
BRANCH  27  28
HETATM   28  C14 UNL     1     -10.224  47.664 -19.724  1.00  0.00     0.244 C 
HETATM   29  O3  UNL     1     -10.566  48.675 -19.114  1.00  0.00    -0.271 OA
HETATM   30  N2  UNL     1     -11.075  46.621 -20.023  1.00  0.00    -0.346 N 
HETATM   31  H16 UNL     1     -10.659  45.819 -20.485  1.00  0.00     0.163 HD
BRANCH  30  32
HETATM   32  C15 UNL     1     -12.422  46.515 -19.448  1.00  0.00     0.180 C 
BRANCH  32  33
HETATM   33  C16 UNL     1     -13.463  47.172 -20.392  1.00  0.00     0.241 C 
HETATM   34  O4  UNL     1     -13.380  48.342 -20.752  1.00  0.00    -0.271 OA
HETATM   35  N3  UNL     1     -14.406  46.296 -20.907  1.00  0.00    -0.344 N 
HETATM   36  H18 UNL     1     -14.635  45.539 -20.271  1.00  0.00     0.163 HD
BRANCH  35  37
HETATM   37  C17 UNL     1     -15.526  46.796 -21.717  1.00  0.00     0.192 C 
BRANCH  37  38
HETATM   38  C18 UNL     1     -15.630  46.020 -23.029  1.00  0.00     0.146 C 
BRANCH  38  39
HETATM   39  C19 UNL     1     -15.905  46.948 -24.177  1.00  0.00     0.141 C 
HETATM   40  O5  UNL     1     -15.090  47.505 -24.893  1.00  0.00    -0.650 OA
BRANCH  39  41
HETATM   41  O6  UNL     1     -17.226  47.089 -24.416  1.00  0.00    -0.776 OA
HETATM   42  H22 UNL     1     -17.268  47.738 -25.148  1.00  0.00     0.167 HD
ENDBRANCH  39  41
ENDBRANCH  38  39
ENDBRANCH  37  38
BRANCH  37  43
HETATM   43  C20 UNL     1     -16.841  46.643 -20.948  1.00  0.00     0.164 C 
HETATM   44  O7  UNL     1     -17.085  47.096 -19.841  1.00  0.00    -0.648 OA
BRANCH  43  45
HETATM   45  O8  UNL     1     -17.811  46.010 -21.649  1.00  0.00    -0.775 OA
HETATM   46  H23 UNL     1     -18.556  45.938 -21.016  1.00  0.00     0.167 HD
ENDBRANCH  43  45
ENDBRANCH  37  43
ENDBRANCH  35  37
ENDBRANCH  32  33
BRANCH  32  47
HETATM   47  C21 UNL     1     -12.449  47.123 -18.026  1.00  0.00     0.009 C 
HETATM   48  C22 UNL     1     -13.827  47.634 -17.591  1.00  0.00     0.012 C 
HETATM   49  C23 UNL     1     -11.913  46.138 -16.984  1.00  0.00     0.012 C 
ENDBRANCH  32  47
ENDBRANCH  30  32
ENDBRANCH  27  28
ENDBRANCH  26  27
ENDBRANCH  13  26
TORSDOF 13
ENDMDL
MODEL 4
REMARK minimizedAffinity -8.45989704
REMARK CNNscore 0.401613712
REMARK CNNaffinity 7.06671143
REMARK  13 active torsions:
REMARK  status: ('A' for Active; 'I' for Inactive)
REMARK    1  A    between atoms: C3_3  and  O1_4 
REMARK    2  A    between atoms: N1_14  and  O2_16 
REMARK    3  A    between atoms: O2_16  and  C13_17 
REMARK    4  A    between atoms: C13_17  and  C14_18 
REMARK       I    between atoms: C14_18  and  N2_20 
REMARK    5  A    between atoms: N2_20  and  C15_21 
REMARK    6  A    between atoms: C15_21  and  C16_22 
REMARK    7  A    between atoms: C15_21  and  C21_33 
REMARK       I    between atoms: C16_22  and  N3_24 
REMARK    8  A    between atoms: N3_24  and  C17_25 
REMARK    9  A    between atoms: C17_25  and  C18_26 
REMARK   10  A    between atoms: C17_25  and  C20_30 
REMARK   11  A    between atoms: C18_26  and  C19_27 
REMARK   12  A    between atoms: C19_27  and  O6_29 
REMARK   13  A    between atoms: C20_30  and  O8_32 
ROOT
HETATM    1  C1  UNL     1      -3.005  48.526 -26.659  1.00  0.00     0.015 C 
HETATM    2  C2  UNL     1      -3.512  48.981 -25.667  1.00  0.00    -0.078 C 
HETATM    3  C3  UNL     1      -4.189  49.520 -24.466  1.00  0.00     0.128 C 
HETATM    4  C4  UNL     1      -4.900  48.389 -23.711  1.00  0.00     0.052 C 
HETATM    5  C5  UNL     1      -3.855  47.825 -22.738  1.00  0.00     0.010 C 
HETATM    6  C6  UNL     1      -2.650  48.794 -22.761  1.00  0.00     0.002 C 
HETATM    7  C7  UNL     1      -1.853  48.984 -21.443  1.00  0.00    -0.004 C 
HETATM    8  C8  UNL     1      -1.632  47.653 -20.697  1.00  0.00     0.010 C 
HETATM    9  C9  UNL     1      -2.522  47.471 -19.477  1.00  0.00     0.035 C 
HETATM   10  C10 UNL     1      -2.452  48.617 -18.502  1.00  0.00    -0.069 C 
HETATM   11  C11 UNL     1      -2.821  48.404 -17.225  1.00  0.00     0.030 C 
HETATM   12  C12 UNL     1      -2.826  49.488 -16.206  1.00  0.00     0.032 C 
HETATM   13  N1  UNL     1      -3.163  49.168 -14.988  1.00  0.00    -0.271 N 
ATOM     14  H1  UNL     1      -3.400  48.222 -14.688  1.00  0.00     0.194 HD
HETATM   15  C24 UNL     1      -2.425  50.887 -16.645  1.00  0.00     0.060 C 
HETATM   16  C25 UNL     1      -2.658  51.076 -18.141  1.00  0.00     0.020 C 
HETATM   17  C26 UNL     1      -1.994  49.975 -19.019  1.00  0.00    -0.016 C 
HETATM   18  C27 UNL     1      -0.454  50.091 -18.844  1.00  0.00     0.020 C 
HETATM   19  C28 UNL     1      -2.344  50.165 -20.545  1.00  0.00     0.002 C 
HETATM   20  C29 UNL     1      -3.811  50.493 -20.857  1.00  0.00     0.007 C 
HETATM   21  C30 UNL     1      -4.001  50.933 -22.315  1.00  0.00     0.014 C 
HETATM   22  C31 UNL     1      -3.223  50.092 -23.378  1.00  0.00     0.003 C 
HETATM   23  C32 UNL     1      -2.113  50.980 -23.980  1.00  0.00     0.020 C 
ENDROOT
BRANCH   3  24
HETATM   24  O1  UNL     1      -5.129  50.497 -24.899  1.00  0.00    -0.377 OA
HETATM   25  H2  UNL     1      -5.710  50.066 -25.551  1.00  0.00     0.211 HD
ENDBRANCH   3  24
BRANCH  13  26
HETATM   26  O2  UNL     1      -3.159  50.285 -14.142  1.00  0.00    -0.271 OA
BRANCH  26  27
HETATM   27  C13 UNL     1      -2.116  50.142 -13.173  1.00  0.00     0.303 C 
BRANCH  27  28
HETATM   28  C14 UNL     1      -1.390  51.470 -13.031  1.00  0.00     0.244 C 
HETATM   29  O3  UNL     1      -0.673  51.929 -13.917  1.00  0.00    -0.271 OA
HETATM   30  N2  UNL     1      -1.642  52.113 -11.836  1.00  0.00    -0.346 N 
HETATM   31  H16 UNL     1      -2.209  51.606 -11.164  1.00  0.00     0.163 HD
BRANCH  30  32
HETATM   32  C15 UNL     1      -0.903  53.309 -11.414  1.00  0.00     0.180 C 
BRANCH  32  33
HETATM   33  C16 UNL     1       0.531  52.926 -10.966  1.00  0.00     0.241 C 
HETATM   34  O4  UNL     1       0.772  52.456  -9.857  1.00  0.00    -0.271 OA
HETATM   35  N3  UNL     1       1.490  53.021 -11.961  1.00  0.00    -0.344 N 
HETATM   36  H18 UNL     1       1.298  53.761 -12.629  1.00  0.00     0.163 HD
BRANCH  35  37
HETATM   37  C17 UNL     1       2.912  52.808 -11.653  1.00  0.00     0.192 C 
BRANCH  37  38
HETATM   38  C18 UNL     1       3.283  53.486 -10.334  1.00  0.00     0.146 C 
BRANCH  38  39
HETATM   39  C19 UNL     1       3.502  54.958 -10.534  1.00  0.00     0.141 C 
HETATM   40  O5  UNL     1       2.675  55.793 -10.858  1.00  0.00    -0.650 OA
BRANCH  39  41
HETATM   41  O6  UNL     1       4.768  55.330 -10.251  1.00  0.00    -0.776 OA
HETATM   42  H22 UNL     1       4.787  56.287 -10.457  1.00  0.00     0.167 HD
ENDBRANCH  39  41
ENDBRANCH  38  39
ENDBRANCH  37  38
BRANCH  37  43
HETATM   43  C20 UNL     1       3.207  51.311 -11.538  1.00  0.00     0.164 C 
HETATM   44  O7  UNL     1       3.692  50.603 -12.406  1.00  0.00    -0.648 OA
BRANCH  43  45
HETATM   45  O8  UNL     1       2.965  50.801 -10.307  1.00  0.00    -0.775 OA
HETATM   46  H23 UNL     1       3.143  49.842 -10.405  1.00  0.00     0.167 HD
ENDBRANCH  43  45
ENDBRANCH  37  43
ENDBRANCH  35  37
ENDBRANCH  32  33
BRANCH  32  47
HETATM   47  C21 UNL     1      -1.684  54.062 -10.312  1.00  0.00     0.009 C 
HETATM   48  C22 UNL     1      -1.282  55.533 -10.155  1.00  0.00     0.012 C 
HETATM   49  C23 UNL     1      -3.197  53.963 -10.528  1.00  0.00     0.012 C 
ENDBRANCH  32  47
ENDBRANCH  30  32
ENDBRANCH  27  28
ENDBRANCH  26  27
ENDBRANCH  13  26
TORSDOF 13
ENDMDL
MODEL 5
REMARK minimizedAffinity -9.29157734
REMARK CNNscore 0.382748336
REMARK CNNaffinity 6.24492073
REMARK  13 active torsions:
REMARK  status: ('A' for Active; 'I' for Inactive)
REMARK    1  A    between atoms: C3_3  and  O1_4 
REMARK    2  A    between atoms: N1_14  and  O2_16 
REMARK    3  A    between atoms: O2_16  and  C13_17 
REMARK    4  A    between atoms: C13_17  and  C14_18 
REMARK       I    between atoms: C14_18  and  N2_20 
REMARK    5  A    between atoms: N2_20  and  C15_21 
REMARK    6  A    between atoms: C15_21  and  C16_22 
REMARK    7  A    between atoms: C15_21  and  C21_33 
REMARK       I    between atoms: C16_22  and  N3_24 
REMARK    8  A    between atoms: N3_24  and  C17_25 
REMARK    9  A    between atoms: C17_25  and  C18_26 
REMARK   10  A    between atoms: C17_25  and  C20_30 
REMARK   11  A    between atoms: C18_26  and  C19_27 
REMARK   12  A    between atoms: C19_27  and  O6_29 
REMARK   13  A    between atoms: C20_30  and  O8_32 
ROOT
HETATM    1  C1  UNL     1       1.850  51.997 -25.944  1.00  0.00     0.015 C 
HETATM    2  C2  UNL     1       0.672  52.226 -25.844  1.00  0.00    -0.078 C 
HETATM    3  C3  UNL     1      -0.771  52.547 -25.767  1.00  0.00     0.128 C 
HETATM    4  C4  UNL     1      -1.454  52.224 -27.102  1.00  0.00     0.052 C 
HETATM    5  C5  UNL     1      -1.884  50.754 -26.998  1.00  0.00     0.010 C 
HETATM    6  C6  UNL     1      -1.677  50.328 -25.526  1.00  0.00     0.002 C 
HETATM    7  C7  UNL     1      -2.668  49.295 -24.928  1.00  0.00    -0.004 C 
HETATM    8  C8  UNL     1      -2.994  48.158 -25.917  1.00  0.00     0.010 C 
HETATM    9  C9  UNL     1      -4.368  48.270 -26.559  1.00  0.00     0.035 C 
HETATM   10  C10 UNL     1      -5.490  48.413 -25.564  1.00  0.00    -0.069 C 
HETATM   11  C11 UNL     1      -6.739  48.087 -25.945  1.00  0.00     0.030 C 
HETATM   12  C12 UNL     1      -7.912  48.238 -25.042  1.00  0.00     0.032 C 
HETATM   13  N1  UNL     1      -9.073  47.857 -25.495  1.00  0.00    -0.271 N 
ATOM     14  H1  UNL     1      -9.222  47.442 -26.415  1.00  0.00     0.194 HD
HETATM   15  C24 UNL     1      -7.679  48.811 -23.654  1.00  0.00     0.060 C 
HETATM   16  C25 UNL     1      -6.421  49.673 -23.624  1.00  0.00     0.020 C 
HETATM   17  C26 UNL     1      -5.158  48.952 -24.178  1.00  0.00    -0.016 C 
HETATM   18  C27 UNL     1      -4.838  47.759 -23.233  1.00  0.00     0.020 C 
HETATM   19  C28 UNL     1      -3.911  49.917 -24.213  1.00  0.00     0.002 C 
HETATM   20  C29 UNL     1      -4.175  51.331 -24.746  1.00  0.00     0.007 C 
HETATM   21  C30 UNL     1      -2.993  52.273 -24.483  1.00  0.00     0.014 C 
HETATM   22  C31 UNL     1      -1.578  51.668 -24.757  1.00  0.00     0.003 C 
HETATM   23  C32 UNL     1      -0.852  51.501 -23.405  1.00  0.00     0.020 C 
ENDROOT
BRANCH   3  24
HETATM   24  O1  UNL     1      -0.892  53.933 -25.468  1.00  0.00    -0.377 OA
HETATM   25  H2  UNL     1      -0.390  54.417 -26.148  1.00  0.00     0.211 HD
ENDBRANCH   3  24
BRANCH  13  26
HETATM   26  O2  UNL     1     -10.092  48.087 -24.561  1.00  0.00    -0.271 OA
BRANCH  26  27
HETATM   27  C13 UNL     1     -10.979  46.964 -24.540  1.00  0.00     0.303 C 
BRANCH  27  28
HETATM   28  C14 UNL     1     -12.117  47.216 -25.517  1.00  0.00     0.244 C 
HETATM   29  O3  UNL     1     -12.062  48.085 -26.384  1.00  0.00    -0.271 OA
HETATM   30  N2  UNL     1     -13.185  46.360 -25.352  1.00  0.00    -0.346 N 
HETATM   31  H16 UNL     1     -13.133  45.721 -24.567  1.00  0.00     0.163 HD
BRANCH  30  32
HETATM   32  C15 UNL     1     -14.460  46.546 -26.059  1.00  0.00     0.180 C 
BRANCH  32  33
HETATM   33  C16 UNL     1     -15.627  46.660 -25.044  1.00  0.00     0.241 C 
HETATM   34  O4  UNL     1     -15.731  47.601 -24.262  1.00  0.00    -0.271 OA
HETATM   35  N3  UNL     1     -16.613  45.698 -25.191  1.00  0.00    -0.344 N 
HETATM   36  H18 UNL     1     -16.254  44.809 -25.525  1.00  0.00     0.163 HD
BRANCH  35  37
HETATM   37  C17 UNL     1     -17.717  45.606 -24.225  1.00  0.00     0.192 C 
BRANCH  37  38
HETATM   38  C18 UNL     1     -17.304  46.197 -22.877  1.00  0.00     0.146 C 
BRANCH  38  39
HETATM   39  C19 UNL     1     -18.310  45.859 -21.816  1.00  0.00     0.141 C 
HETATM   40  O5  UNL     1     -18.797  44.768 -21.575  1.00  0.00    -0.650 OA
BRANCH  39  41
HETATM   41  O6  UNL     1     -18.621  46.925 -21.048  1.00  0.00    -0.776 OA
HETATM   42  H22 UNL     1     -19.303  46.586 -20.434  1.00  0.00     0.167 HD
ENDBRANCH  39  41
ENDBRANCH  38  39
ENDBRANCH  37  38
BRANCH  37  43
HETATM   43  C20 UNL     1     -18.937  46.371 -24.745  1.00  0.00     0.164 C 
HETATM   44  O7  UNL     1     -20.032  45.895 -24.996  1.00  0.00    -0.648 OA
BRANCH  43  45
HETATM   45  O8  UNL     1     -18.744  47.708 -24.833  1.00  0.00    -0.775 OA
HETATM   46  H23 UNL     1     -19.575  48.046 -25.228  1.00  0.00     0.167 HD
ENDBRANCH  43  45
ENDBRANCH  37  43
ENDBRANCH  35  37
ENDBRANCH  32  33
BRANCH  32  47
HETATM   47  C21 UNL     1     -14.677  45.407 -27.083  1.00  0.00     0.009 C 
HETATM   48  C22 UNL     1     -14.494  45.836 -28.543  1.00  0.00     0.012 C 
HETATM   49  C23 UNL     1     -13.779  44.204 -26.784  1.00  0.00     0.012 C 
ENDBRANCH  32  47
ENDBRANCH  30  32
ENDBRANCH  27  28
ENDBRANCH  26  27
ENDBRANCH  13  26
TORSDOF 13
ENDMDL
MODEL 6
REMARK minimizedAffinity -7.61142397
REMARK CNNscore 0.313683152
REMARK CNNaffinity 6.26301241
REMARK  13 active torsions:
REMARK  status: ('A' for Active; 'I' for Inactive)
REMARK    1  A    between atoms: C3_3  and  O1_4 
REMARK    2  A    between atoms: N1_14  and  O2_16 
REMARK    3  A    between atoms: O2_16  and  C13_17 
REMARK    4  A    between atoms: C13_17  and  C14_18 
REMARK       I    between atoms: C14_18  and  N2_20 
REMARK    5  A    between atoms: N2_20  and  C15_21 
REMARK    6  A    between atoms: C15_21  and  C16_22 
REMARK    7  A    between atoms: C15_21  and  C21_33 
REMARK       I    between atoms: C16_22  and  N3_24 
REMARK    8  A    between atoms: N3_24  and  C17_25 
REMARK    9  A    between atoms: C17_25  and  C18_26 
REMARK   10  A    between atoms: C17_25  and  C20_30 
REMARK   11  A    between atoms: C18_26  and  C19_27 
REMARK   12  A    between atoms: C19_27  and  O6_29 
REMARK   13  A    between atoms: C20_30  and  O8_32 
ROOT
HETATM    1  C1  UNL     1       1.487  52.449 -26.314  1.00  0.00     0.015 C 
HETATM    2  C2  UNL     1       0.292  52.304 -26.353  1.00  0.00    -0.078 C 
HETATM    3  C3  UNL     1      -1.171  52.114 -26.459  1.00  0.00     0.128 C 
HETATM    4  C4  UNL     1      -1.483  50.708 -26.987  1.00  0.00     0.052 C 
HETATM    5  C5  UNL     1      -1.565  49.811 -25.743  1.00  0.00     0.010 C 
HETATM    6  C6  UNL     1      -1.555  50.748 -24.513  1.00  0.00     0.002 C 
HETATM    7  C7  UNL     1      -2.371  50.310 -23.268  1.00  0.00    -0.004 C 
HETATM    8  C8  UNL     1      -2.218  48.804 -22.969  1.00  0.00     0.010 C 
HETATM    9  C9  UNL     1      -3.426  47.968 -23.362  1.00  0.00     0.035 C 
HETATM   10  C10 UNL     1      -4.723  48.471 -22.783  1.00  0.00    -0.069 C 
HETATM   11  C11 UNL     1      -5.759  47.618 -22.679  1.00  0.00     0.030 C 
HETATM   12  C12 UNL     1      -7.089  48.039 -22.161  1.00  0.00     0.032 C 
HETATM   13  N1  UNL     1      -8.014  47.127 -22.064  1.00  0.00    -0.271 N 
ATOM     14  H1  UNL     1      -7.877  46.144 -22.299  1.00  0.00     0.194 HD
HETATM   15  C24 UNL     1      -7.275  49.495 -21.765  1.00  0.00     0.060 C 
HETATM   16  C25 UNL     1      -6.288  50.392 -22.505  1.00  0.00     0.020 C 
HETATM   17  C26 UNL     1      -4.807  49.934 -22.368  1.00  0.00    -0.016 C 
HETATM   18  C27 UNL     1      -4.405  50.062 -20.872  1.00  0.00     0.020 C 
HETATM   19  C28 UNL     1      -3.841  50.838 -23.228  1.00  0.00     0.002 C 
HETATM   20  C29 UNL     1      -4.323  51.168 -24.647  1.00  0.00     0.007 C 
HETATM   21  C30 UNL     1      -3.473  52.265 -25.301  1.00  0.00     0.014 C 
HETATM   22  C31 UNL     1      -1.930  52.133 -25.092  1.00  0.00     0.003 C 
HETATM   23  C32 UNL     1      -1.465  53.283 -24.173  1.00  0.00     0.020 C 
ENDROOT
BRANCH   3  24
HETATM   24  O1  UNL     1      -1.674  53.103 -27.351  1.00  0.00    -0.377 OA
HETATM   25  H2  UNL     1      -1.178  53.015 -28.184  1.00  0.00     0.211 HD
ENDBRANCH   3  24
BRANCH  13  26
HETATM   26  O2  UNL     1      -9.221  47.664 -21.598  1.00  0.00    -0.271 OA
BRANCH  26  27
HETATM   27  C13 UNL     1     -10.200  46.625 -21.511  1.00  0.00     0.303 C 
BRANCH  27  28
HETATM   28  C14 UNL     1     -10.269  46.129 -20.074  1.00  0.00     0.244 C 
HETATM   29  O3  UNL     1      -9.903  45.003 -19.747  1.00  0.00    -0.271 OA
HETATM   30  N2  UNL     1     -10.743  47.073 -19.187  1.00  0.00    -0.346 N 
HETATM   31  H16 UNL     1     -11.063  47.948 -19.589  1.00  0.00     0.163 HD
BRANCH  30  32
HETATM   32  C15 UNL     1     -11.066  46.749 -17.792  1.00  0.00     0.180 C 
BRANCH  32  33
HETATM   33  C16 UNL     1     -12.588  46.904 -17.540  1.00  0.00     0.241 C 
HETATM   34  O4  UNL     1     -13.042  47.325 -16.480  1.00  0.00    -0.271 OA
HETATM   35  N3  UNL     1     -13.381  46.669 -18.652  1.00  0.00    -0.344 N 
HETATM   36  H18 UNL     1     -12.992  45.972 -19.278  1.00  0.00     0.163 HD
BRANCH  35  37
HETATM   37  C17 UNL     1     -14.847  46.659 -18.535  1.00  0.00     0.192 C 
BRANCH  37  38
HETATM   38  C18 UNL     1     -15.461  47.788 -19.363  1.00  0.00     0.146 C 
BRANCH  38  39
HETATM   39  C19 UNL     1     -14.501  48.258 -20.418  1.00  0.00     0.141 C 
HETATM   40  O5  UNL     1     -14.369  47.822 -21.549  1.00  0.00    -0.650 OA
BRANCH  39  41
HETATM   41  O6  UNL     1     -13.776  49.322 -20.012  1.00  0.00    -0.776 OA
HETATM   42  H22 UNL     1     -13.173  49.500 -20.762  1.00  0.00     0.167 HD
ENDBRANCH  39  41
ENDBRANCH  38  39
ENDBRANCH  37  38
BRANCH  37  43
HETATM   43  C20 UNL     1     -15.405  45.324 -19.032  1.00  0.00     0.164 C 
HETATM   44  O7  UNL     1     -15.451  44.948 -20.192  1.00  0.00    -0.648 OA
BRANCH  43  45
HETATM   45  O8  UNL     1     -15.791  44.491 -18.036  1.00  0.00    -0.775 OA
HETATM   46  H23 UNL     1     -16.172  43.718 -18.503  1.00  0.00     0.167 HD
ENDBRANCH  43  45
ENDBRANCH  37  43
ENDBRANCH  35  37
ENDBRANCH  32  33
BRANCH  32  47
HETATM   47  C21 UNL     1     -10.218  47.613 -16.830  1.00  0.00     0.009 C 
HETATM   48  C22 UNL     1      -9.412  46.804 -15.807  1.00  0.00     0.012 C 
HETATM   49  C23 UNL     1      -9.281  48.552 -17.595  1.00  0.00     0.012 C 
ENDBRANCH  32  47
ENDBRANCH  30  32
ENDBRANCH  27  28
ENDBRANCH  26  27
ENDBRANCH  13  26
TORSDOF 13
ENDMDL
MODEL 7
REMARK minimizedAffinity -8.63600826
REMARK CNNscore 0.294314116
REMARK CNNaffinity 6.41723585
REMARK  13 active torsions:
REMARK  status: ('A' for Active; 'I' for Inactive)
REMARK    1  A    between atoms: C3_3  and  O1_4 
REMARK    2  A    between atoms: N1_14  and  O2_16 
REMARK    3  A    between atoms: O2_16  and  C13_17 
REMARK    4  A    between atoms: C13_17  and  C14_18 
REMARK       I    between atoms: C14_18  and  N2_20 
REMARK    5  A    between atoms: N2_20  and  C15_21 
REMARK    6  A    between atoms: C15_21  and  C16_22 
REMARK    7  A    between atoms: C15_21  and  C21_33 
REMARK       I    between atoms: C16_22  and  N3_24 
REMARK    8  A    between atoms: N3_24  and  C17_25 
REMARK    9  A    between atoms: C17_25  and  C18_26 
REMARK   10  A    between atoms: C17_25  and  C20_30 
REMARK   11  A    between atoms: C18_26  and  C19_27 
REMARK   12  A    between atoms: C19_27  and  O6_29 
REMARK   13  A    between atoms: C20_30  and  O8_32 
ROOT
HETATM    1  C1  UNL     1       1.341  52.110 -28.104  1.00  0.00     0.015 C 
HETATM    2  C2  UNL     1       0.371  52.351 -27.433  1.00  0.00    -0.078 C 
HETATM    3  C3  UNL     1      -0.839  52.686 -26.649  1.00  0.00     0.128 C 
HETATM    4  C4  UNL     1      -2.098  52.418 -27.484  1.00  0.00     0.052 C 
HETATM    5  C5  UNL     1      -2.462  50.950 -27.218  1.00  0.00     0.010 C 
HETATM    6  C6  UNL     1      -1.572  50.471 -26.049  1.00  0.00     0.002 C 
HETATM    7  C7  UNL     1      -2.171  49.430 -25.066  1.00  0.00    -0.004 C 
HETATM    8  C8  UNL     1      -2.971  48.332 -25.796  1.00  0.00     0.010 C 
HETATM    9  C9  UNL     1      -4.480  48.483 -25.677  1.00  0.00     0.035 C 
HETATM   10  C10 UNL     1      -4.965  48.605 -24.256  1.00  0.00    -0.069 C 
HETATM   11  C11 UNL     1      -6.249  48.308 -23.983  1.00  0.00     0.030 C 
HETATM   12  C12 UNL     1      -6.824  48.442 -22.617  1.00  0.00     0.032 C 
HETATM   13  N1  UNL     1      -8.069  48.091 -22.450  1.00  0.00    -0.271 N 
ATOM     14  H1  UNL     1      -8.661  47.711 -23.188  1.00  0.00     0.194 HD
HETATM   15  C24 UNL     1      -5.925  48.963 -21.508  1.00  0.00     0.060 C 
HETATM   16  C25 UNL     1      -4.791  49.809 -22.079  1.00  0.00     0.020 C 
HETATM   17  C26 UNL     1      -3.982  49.092 -23.199  1.00  0.00    -0.016 C 
HETATM   18  C27 UNL     1      -3.273  47.863 -22.563  1.00  0.00     0.020 C 
HETATM   19  C28 UNL     1      -2.885  50.042 -23.818  1.00  0.00     0.002 C 
HETATM   20  C29 UNL     1      -3.338  51.477 -24.118  1.00  0.00     0.007 C 
HETATM   21  C30 UNL     1      -2.153  52.394 -24.447  1.00  0.00     0.014 C 
HETATM   22  C31 UNL     1      -1.072  51.782 -25.395  1.00  0.00     0.003 C 
HETATM   23  C32 UNL     1       0.219  51.560 -24.578  1.00  0.00     0.020 C 
ENDROOT
BRANCH   3  24
HETATM   24  O1  UNL     1      -0.760  54.062 -26.296  1.00  0.00    -0.377 OA
HETATM   25  H2  UNL     1      -0.643  54.564 -27.123  1.00  0.00     0.211 HD
ENDBRANCH   3  24
BRANCH  13  26
HETATM   26  O2  UNL     1      -8.491  48.301 -21.131  1.00  0.00    -0.271 OA
BRANCH  26  27
HETATM   27  C13 UNL     1      -9.033  47.085 -20.608  1.00  0.00     0.303 C 
BRANCH  27  28
HETATM   28  C14 UNL     1      -9.993  47.418 -19.476  1.00  0.00     0.244 C 
HETATM   29  O3  UNL     1     -10.483  48.536 -19.335  1.00  0.00    -0.271 OA
HETATM   30  N2  UNL     1     -10.278  46.344 -18.659  1.00  0.00    -0.346 N 
HETATM   31  H16 UNL     1      -9.768  45.488 -18.848  1.00  0.00     0.163 HD
BRANCH  30  32
HETATM   32  C15 UNL     1     -11.028  46.487 -17.405  1.00  0.00     0.180 C 
BRANCH  32  33
HETATM   33  C16 UNL     1     -12.444  47.052 -17.685  1.00  0.00     0.241 C 
HETATM   34  O4  UNL     1     -13.122  47.593 -16.816  1.00  0.00    -0.271 OA
HETATM   35  N3  UNL     1     -12.821  47.026 -19.018  1.00  0.00    -0.344 N 
HETATM   36  H18 UNL     1     -12.427  46.241 -19.527  1.00  0.00     0.163 HD
BRANCH  35  37
HETATM   37  C17 UNL     1     -14.181  47.414 -19.418  1.00  0.00     0.192 C 
BRANCH  37  38
HETATM   38  C18 UNL     1     -15.220  46.729 -18.531  1.00  0.00     0.146 C 
BRANCH  38  39
HETATM   39  C19 UNL     1     -16.529  46.590 -19.252  1.00  0.00     0.141 C 
HETATM   40  O5  UNL     1     -16.825  45.768 -20.102  1.00  0.00    -0.650 OA
BRANCH  39  41
HETATM   41  O6  UNL     1     -17.449  47.477 -18.815  1.00  0.00    -0.776 OA
HETATM   42  H22 UNL     1     -18.229  47.311 -19.383  1.00  0.00     0.167 HD
ENDBRANCH  39  41
ENDBRANCH  38  39
ENDBRANCH  37  38
BRANCH  37  43
HETATM   43  C20 UNL     1     -14.353  48.930 -19.297  1.00  0.00     0.164 C 
HETATM   44  O7  UNL     1     -15.020  49.515 -18.459  1.00  0.00    -0.648 OA
BRANCH  43  45
HETATM   45  O8  UNL     1     -13.603  49.635 -20.177  1.00  0.00    -0.775 OA
HETATM   46  H23 UNL     1     -13.860  50.568 -20.019  1.00  0.00     0.167 HD
ENDBRANCH  43  45
ENDBRANCH  37  43
ENDBRANCH  35  37
ENDBRANCH  32  33
BRANCH  32  47
HETATM   47  C21 UNL     1     -10.234  47.356 -16.401  1.00  0.00     0.009 C 
HETATM   48  C22 UNL     1      -9.919  46.651 -15.077  1.00  0.00     0.012 C 
HETATM   49  C23 UNL     1      -8.940  47.890 -17.020  1.00  0.00     0.012 C 
ENDBRANCH  32  47
ENDBRANCH  30  32
ENDBRANCH  27  28
ENDBRANCH  26  27
ENDBRANCH  13  26
TORSDOF 13
ENDMDL
MODEL 8
REMARK minimizedAffinity -8.52436733
REMARK CNNscore 0.293136388
REMARK CNNaffinity 6.42647362
REMARK  13 active torsions:
REMARK  status: ('A' for Active; 'I' for Inactive)
REMARK    1  A    between atoms: C3_3  and  O1_4 
REMARK    2  A    between atoms: N1_14  and  O2_16 
REMARK    3  A    between atoms: O2_16  and  C13_17 
REMARK    4  A    between atoms: C13_17  and  C14_18 
REMARK       I    between atoms: C14_18  and  N2_20 
REMARK    5  A    between atoms: N2_20  and  C15_21 
REMARK    6  A    between atoms: C15_21  and  C16_22 
REMARK    7  A    between atoms: C15_21  and  C21_33 
REMARK       I    between atoms: C16_22  and  N3_24 
REMARK    8  A    between atoms: N3_24  and  C17_25 
REMARK    9  A    between atoms: C17_25  and  C18_26 
REMARK   10  A    between atoms: C17_25  and  C20_30 
REMARK   11  A    between atoms: C18_26  and  C19_27 
REMARK   12  A    between atoms: C19_27  and  O6_29 
REMARK   13  A    between atoms: C20_30  and  O8_32 
ROOT
HETATM    1  C1  UNL     1       1.242  51.854 -28.526  1.00  0.00     0.015 C 
HETATM    2  C2  UNL     1       0.417  52.263 -27.750  1.00  0.00    -0.078 C 
HETATM    3  C3  UNL     1      -0.618  52.801 -26.839  1.00  0.00     0.128 C 
HETATM    4  C4  UNL     1      -2.015  52.530 -27.412  1.00  0.00     0.052 C 
HETATM    5  C5  UNL     1      -2.416  51.147 -26.879  1.00  0.00     0.010 C 
HETATM    6  C6  UNL     1      -1.369  50.756 -25.811  1.00  0.00     0.002 C 
HETATM    7  C7  UNL     1      -1.852  49.909 -24.604  1.00  0.00    -0.004 C 
HETATM    8  C8  UNL     1      -2.831  48.795 -25.026  1.00  0.00     0.010 C 
HETATM    9  C9  UNL     1      -4.285  49.086 -24.689  1.00  0.00     0.035 C 
HETATM   10  C10 UNL     1      -4.511  49.438 -23.242  1.00  0.00    -0.069 C 
HETATM   11  C11 UNL     1      -5.745  49.289 -22.725  1.00  0.00     0.030 C 
HETATM   12  C12 UNL     1      -6.068  49.652 -21.319  1.00  0.00     0.032 C 
HETATM   13  N1  UNL     1      -7.284  49.432 -20.904  1.00  0.00    -0.271 N 
ATOM     14  H1  UNL     1      -8.016  49.007 -21.473  1.00  0.00     0.194 HD
HETATM   15  C24 UNL     1      -4.962  50.240 -20.458  1.00  0.00     0.060 C 
HETATM   16  C25 UNL     1      -3.894  50.903 -21.321  1.00  0.00     0.020 C 
HETATM   17  C26 UNL     1      -3.334  49.977 -22.440  1.00  0.00    -0.016 C 
HETATM   18  C27 UNL     1      -2.601  48.790 -21.753  1.00  0.00     0.020 C 
HETATM   19  C28 UNL     1      -2.304  50.740 -23.360  1.00  0.00     0.002 C 
HETATM   20  C29 UNL     1      -2.714  52.155 -23.789  1.00  0.00     0.007 C 
HETATM   21  C30 UNL     1      -1.550  52.918 -24.435  1.00  0.00     0.014 C 
HETATM   22  C31 UNL     1      -0.686  52.095 -25.446  1.00  0.00     0.003 C 
HETATM   23  C32 UNL     1       0.710  51.877 -24.824  1.00  0.00     0.020 C 
ENDROOT
BRANCH   3  24
HETATM   24  O1  UNL     1      -0.397  54.200 -26.708  1.00  0.00    -0.377 OA
HETATM   25  H2  UNL     1      -0.393  54.575 -27.607  1.00  0.00     0.211 HD
ENDBRANCH   3  24
BRANCH  13  26
HETATM   26  O2  UNL     1      -7.461  49.851 -19.579  1.00  0.00    -0.271 OA
BRANCH  26  27
HETATM   27  C13 UNL     1      -7.505  48.707 -18.722  1.00  0.00     0.303 C 
BRANCH  27  28
HETATM   28  C14 UNL     1      -8.776  47.923 -19.009  1.00  0.00     0.244 C 
HETATM   29  O3  UNL     1      -9.573  48.256 -19.883  1.00  0.00    -0.271 OA
HETATM   30  N2  UNL     1      -8.921  46.799 -18.223  1.00  0.00    -0.346 N 
HETATM   31  H16 UNL     1      -8.222  46.661 -17.501  1.00  0.00     0.163 HD
BRANCH  30  32
HETATM   32  C15 UNL     1     -10.157  46.006 -18.203  1.00  0.00     0.180 C 
BRANCH  32  33
HETATM   33  C16 UNL     1     -11.231  46.705 -17.330  1.00  0.00     0.241 C 
HETATM   34  O4  UNL     1     -10.990  47.132 -16.204  1.00  0.00    -0.271 OA
HETATM   35  N3  UNL     1     -12.435  46.937 -17.975  1.00  0.00    -0.344 N 
HETATM   36  H18 UNL     1     -12.659  46.228 -18.666  1.00  0.00     0.163 HD
BRANCH  35  37
HETATM   37  C17 UNL     1     -13.586  47.480 -17.238  1.00  0.00     0.192 C 
BRANCH  37  38
HETATM   38  C18 UNL     1     -14.539  48.206 -18.187  1.00  0.00     0.146 C 
BRANCH  38  39
HETATM   39  C19 UNL     1     -14.227  47.871 -19.617  1.00  0.00     0.141 C 
HETATM   40  O5  UNL     1     -14.350  46.791 -20.169  1.00  0.00    -0.650 OA
BRANCH  39  41
HETATM   41  O6  UNL     1     -13.822  48.950 -20.319  1.00  0.00    -0.776 OA
HETATM   42  H22 UNL     1     -13.616  48.593 -21.206  1.00  0.00     0.167 HD
ENDBRANCH  39  41
ENDBRANCH  38  39
ENDBRANCH  37  38
BRANCH  37  43
HETATM   43  C20 UNL     1     -14.348  46.348 -16.544  1.00  0.00     0.164 C 
HETATM   44  O7  UNL     1     -14.891  45.403 -17.093  1.00  0.00    -0.648 OA
BRANCH  43  45
HETATM   45  O8  UNL     1     -14.307  46.413 -15.193  1.00  0.00    -0.775 OA
HETATM   46  H23 UNL     1     -14.876  45.671 -14.899  1.00  0.00     0.167 HD
ENDBRANCH  43  45
ENDBRANCH  37  43
ENDBRANCH  35  37
ENDBRANCH  32  33
BRANCH  32  47
HETATM   47  C21 UNL     1      -9.862  44.563 -17.732  1.00  0.00     0.009 C 
HETATM   48  C22 UNL     1     -10.908  43.534 -18.177  1.00  0.00     0.012 C 
HETATM   49  C23 UNL     1      -8.469  44.102 -18.170  1.00  0.00     0.012 C 
ENDBRANCH  32  47
ENDBRANCH  30  32
ENDBRANCH  27  28
ENDBRANCH  26  27
ENDBRANCH  13  26
TORSDOF 13
ENDMDL
MODEL 9
REMARK minimizedAffinity -8.73984146
REMARK CNNscore 0.291814625
REMARK CNNaffinity 6.72805548
REMARK  13 active torsions:
REMARK  status: ('A' for Active; 'I' for Inactive)
REMARK    1  A    between atoms: C3_3  and  O1_4 
REMARK    2  A    between atoms: N1_14  and  O2_16 
REMARK    3  A    between atoms: O2_16  and  C13_17 
REMARK    4  A    between atoms: C13_17  and  C14_18 
REMARK       I    between atoms: C14_18  and  N2_20 
REMARK    5  A    between atoms: N2_20  and  C15_21 
REMARK    6  A    between atoms: C15_21  and  C16_22 
REMARK    7  A    between atoms: C15_21  and  C21_33 
REMARK       I    between atoms: C16_22  and  N3_24 
REMARK    8  A    between atoms: N3_24  and  C17_25 
REMARK    9  A    between atoms: C17_25  and  C18_26 
REMARK   10  A    between atoms: C17_25  and  C20_30 
REMARK   11  A    between atoms: C18_26  and  C19_27 
REMARK   12  A    between atoms: C19_27  and  O6_29 
REMARK   13  A    between atoms: C20_30  and  O8_32 
ROOT
HETATM    1  C1  UNL     1      -3.097  50.678 -28.336  1.00  0.00     0.015 C 
HETATM    2  C2  UNL     1      -2.800  51.255 -27.322  1.00  0.00    -0.078 C 
HETATM    3  C3  UNL     1      -2.470  52.010 -26.093  1.00  0.00     0.128 C 
HETATM    4  C4  UNL     1      -3.751  52.314 -25.303  1.00  0.00     0.052 C 
HETATM    5  C5  UNL     1      -3.960  51.107 -24.378  1.00  0.00     0.010 C 
HETATM    6  C6  UNL     1      -2.674  50.251 -24.459  1.00  0.00     0.002 C 
HETATM    7  C7  UNL     1      -2.233  49.492 -23.180  1.00  0.00    -0.004 C 
HETATM    8  C8  UNL     1      -3.424  48.848 -22.442  1.00  0.00     0.010 C 
HETATM    9  C9  UNL     1      -3.846  49.588 -21.182  1.00  0.00     0.035 C 
HETATM   10  C10 UNL     1      -2.717  49.824 -20.213  1.00  0.00    -0.069 C 
HETATM   11  C11 UNL     1      -3.011  50.056 -18.920  1.00  0.00     0.030 C 
HETATM   12  C12 UNL     1      -1.963  50.342 -17.904  1.00  0.00     0.032 C 
HETATM   13  N1  UNL     1      -2.350  50.514 -16.671  1.00  0.00    -0.271 N 
ATOM     14  H1  UNL     1      -3.319  50.442 -16.359  1.00  0.00     0.194 HD
HETATM   15  C24 UNL     1      -0.515  50.399 -18.363  1.00  0.00     0.060 C 
HETATM   16  C25 UNL     1      -0.428  50.744 -19.847  1.00  0.00     0.020 C 
HETATM   17  C26 UNL     1      -1.292  49.818 -20.753  1.00  0.00    -0.016 C 
HETATM   18  C27 UNL     1      -0.716  48.378 -20.650  1.00  0.00     0.020 C 
HETATM   19  C28 UNL     1      -1.240  50.276 -22.262  1.00  0.00     0.002 C 
HETATM   20  C29 UNL     1      -1.373  51.785 -22.507  1.00  0.00     0.007 C 
HETATM   21  C30 UNL     1      -1.033  52.162 -23.955  1.00  0.00     0.014 C 
HETATM   22  C31 UNL     1      -1.618  51.214 -25.051  1.00  0.00     0.003 C 
HETATM   23  C32 UNL     1      -0.447  50.450 -25.705  1.00  0.00     0.020 C 
ENDROOT
BRANCH   3  24
HETATM   24  O1  UNL     1      -1.828  53.218 -26.484  1.00  0.00    -0.377 OA
HETATM   25  H2  UNL     1      -2.424  53.670 -27.107  1.00  0.00     0.211 HD
ENDBRANCH   3  24
BRANCH  13  26
HETATM   26  O2  UNL     1      -1.271  50.810 -15.828  1.00  0.00    -0.271 OA
BRANCH  26  27
HETATM   27  C13 UNL     1      -1.535  50.292 -14.521  1.00  0.00     0.303 C 
BRANCH  27  28
HETATM   28  C14 UNL     1      -2.157  51.390 -13.671  1.00  0.00     0.244 C 
HETATM   29  O3  UNL     1      -3.126  52.045 -14.046  1.00  0.00    -0.271 OA
HETATM   30  N2  UNL     1      -1.550  51.548 -12.443  1.00  0.00    -0.346 N 
HETATM   31  H16 UNL     1      -0.725  50.983 -12.272  1.00  0.00     0.163 HD
BRANCH  30  32
HETATM   32  C15 UNL     1      -1.866  52.667 -11.546  1.00  0.00     0.180 C 
BRANCH  32  33
HETATM   33  C16 UNL     1      -0.688  52.927 -10.573  1.00  0.00     0.241 C 
HETATM   34  O4  UNL     1       0.090  52.042 -10.226  1.00  0.00    -0.271 OA
HETATM   35  N3  UNL     1      -0.498  54.260 -10.243  1.00  0.00    -0.344 N 
HETATM   36  H18 UNL     1      -1.362  54.791 -10.220  1.00  0.00     0.163 HD
BRANCH  35  37
HETATM   37  C17 UNL     1       0.502  54.645  -9.235  1.00  0.00     0.192 C 
BRANCH  37  38
HETATM   38  C18 UNL     1       1.516  55.621  -9.829  1.00  0.00     0.146 C 
BRANCH  38  39
HETATM   39  C19 UNL     1       2.742  55.708  -8.967  1.00  0.00     0.141 C 
HETATM   40  O5  UNL     1       3.273  56.716  -8.532  1.00  0.00    -0.650 OA
BRANCH  39  41
HETATM   41  O6  UNL     1       3.219  54.491  -8.633  1.00  0.00    -0.776 OA
HETATM   42  H22 UNL     1       4.026  54.686  -8.114  1.00  0.00     0.167 HD
ENDBRANCH  39  41
ENDBRANCH  38  39
ENDBRANCH  37  38
BRANCH  37  43
HETATM   43  C20 UNL     1      -0.185  55.313  -8.041  1.00  0.00     0.164 C 
HETATM   44  O7  UNL     1      -0.442  56.501  -7.930  1.00  0.00    -0.648 OA
BRANCH  43  45
HETATM   45  O8  UNL     1      -0.596  54.440  -7.092  1.00  0.00    -0.775 OA
HETATM   46  H23 UNL     1      -0.956  55.010  -6.380  1.00  0.00     0.167 HD
ENDBRANCH  43  45
ENDBRANCH  37  43
ENDBRANCH  35  37
ENDBRANCH  32  33
BRANCH  32  47
HETATM   47  C21 UNL     1      -3.197  52.401 -10.804  1.00  0.00     0.009 C 
HETATM   48  C22 UNL     1      -3.029  51.692  -9.456  1.00  0.00     0.012 C 
HETATM   49  C23 UNL     1      -4.000  53.690 -10.611  1.00  0.00     0.012 C 
ENDBRANCH  32  47
ENDBRANCH  30  32
ENDBRANCH  27  28
ENDBRANCH  26  27
ENDBRANCH  13  26
TORSDOF 13
ENDMDL
