MODEL 1
REMARK minimizedAffinity -8.09623241
REMARK  8 active torsions:
REMARK  status: ('A' for Active; 'I' for Inactive)
REMARK    1  A    between atoms: C2_2  and  O2_4 
REMARK    2  A    between atoms: O2_4  and  C3_5 
REMARK    3  A    between atoms: C12_15  and  C13_16 
REMARK    4  A    between atoms: C13_16  and  O5_18 
REMARK    5  A    between atoms: O5_18  and  C14_19 
REMARK    6  A    between atoms: C14_19  and  C15_20 
REMARK    7  A    between atoms: C15_20  and  N1_21 
REMARK    8  A    between atoms: C25_31  and  O6_32 
ROOT
HETATM    1  C3  UNL     1       8.381  63.003 -35.158  1.00  0.00     0.097 C 
HETATM    2  C4  UNL     1       9.312  62.422 -36.251  1.00  0.00     0.050 C 
HETATM    3  C5  UNL     1       7.367  63.988 -35.850  1.00  0.00     0.038 C 
HETATM    4  C6  UNL     1       8.035  65.284 -36.360  1.00  0.00     0.087 C 
HETATM    5  C7  UNL     1       7.013  66.143 -37.080  1.00  0.00     0.132 C 
HETATM    6  O3  UNL     1       7.159  66.459 -38.257  1.00  0.00    -0.298 OA
HETATM    7  C8  UNL     1       5.826  66.545 -36.223  1.00  0.00     0.068 C 
HETATM    8  C9  UNL     1       4.837  67.619 -36.756  1.00  0.00     0.022 C 
HETATM    9  C10 UNL     1       5.513  68.760 -37.527  1.00  0.00     0.015 C 
HETATM   10  C11 UNL     1       3.581  66.993 -37.366  1.00  0.00    -0.070 C 
HETATM   11  C12 UNL     1       3.184  67.248 -38.632  1.00  0.00     0.085 C 
HETATM   12  C18 UNL     1       2.847  66.072 -36.400  1.00  0.00     0.035 C 
HETATM   13  C19 UNL     1       3.744  65.517 -35.276  1.00  0.00     0.010 C 
HETATM   14  C20 UNL     1       5.134  65.207 -35.848  1.00  0.00     0.006 C 
HETATM   15  C21 UNL     1       6.072  64.270 -34.995  1.00  0.00    -0.033 C 
HETATM   16  C22 UNL     1       6.393  64.939 -33.638  1.00  0.00     0.016 C 
HETATM   17  C23 UNL     1       5.345  62.913 -34.725  1.00  0.00     0.012 C 
HETATM   18  C24 UNL     1       6.202  61.663 -34.960  1.00  0.00     0.035 C 
HETATM   19  C25 UNL     1       7.630  61.819 -34.450  1.00  0.00     0.153 C 
ENDROOT
BRANCH  11  20
HETATM   20  C13 UNL     1       2.001  66.791 -39.400  1.00  0.00     0.283 C 
HETATM   21  O4  UNL     1       0.970  66.445 -38.838  1.00  0.00    -0.260 OA
BRANCH  20  22
HETATM   22  O5  UNL     1       2.201  66.796 -40.735  1.00  0.00    -0.316 OA
BRANCH  22  23
HETATM   23  C14 UNL     1       2.103  68.092 -41.348  1.00  0.00     0.209 C 
BRANCH  23  24
HETATM   24  C15 UNL     1       0.951  68.854 -40.672  1.00  0.00     0.298 C 
BRANCH  24  25
HETATM   25  N1  UNL     1      -0.351  68.879 -41.355  1.00  0.00     0.082 N 
HETATM   26  C16 UNL     1      -0.648  67.622 -42.038  1.00  0.00     0.309 C 
HETATM   27  C17 UNL     1      -1.445  69.254 -40.460  1.00  0.00     0.309 C 
ENDBRANCH  24  25
ENDBRANCH  23  24
ENDBRANCH  22  23
ENDBRANCH  20  22
ENDBRANCH  11  20
BRANCH   1  28
HETATM   28  O2  UNL     1       9.198  63.810 -34.262  1.00  0.00    -0.308 OA
BRANCH  28  29
HETATM   29  C2  UNL     1      10.197  63.250 -33.534  1.00  0.00     0.255 C 
HETATM   30  C1  UNL     1      11.459  63.215 -34.339  1.00  0.00     0.126 C 
HETATM   31  O1  UNL     1      10.100  62.853 -32.381  1.00  0.00    -0.266 OA
ENDBRANCH  28  29
ENDBRANCH   1  28
BRANCH  19  32
HETATM   32  O6  UNL     1       7.560  61.956 -33.030  1.00  0.00    -0.393 OA
HETATM   33  H39 UNL     1       8.427  61.649 -32.694  1.00  0.00     0.210 HD
ENDBRANCH  19  32
TORSDOF 8
ENDMDL
MODEL 2
REMARK minimizedAffinity -8.00432205
REMARK  8 active torsions:
REMARK  status: ('A' for Active; 'I' for Inactive)
REMARK    1  A    between atoms: C2_2  and  O2_4 
REMARK    2  A    between atoms: O2_4  and  C3_5 
REMARK    3  A    between atoms: C12_15  and  C13_16 
REMARK    4  A    between atoms: C13_16  and  O5_18 
REMARK    5  A    between atoms: O5_18  and  C14_19 
REMARK    6  A    between atoms: C14_19  and  C15_20 
REMARK    7  A    between atoms: C15_20  and  N1_21 
REMARK    8  A    between atoms: C25_31  and  O6_32 
ROOT
HETATM    1  C3  UNL     1      -0.128  51.903 -25.462  1.00  0.00     0.097 C 
HETATM    2  C4  UNL     1       0.889  51.046 -26.256  1.00  0.00     0.050 C 
HETATM    3  C5  UNL     1      -1.219  50.941 -24.863  1.00  0.00     0.038 C 
HETATM    4  C6  UNL     1      -2.149  50.337 -25.939  1.00  0.00     0.087 C 
HETATM    5  C7  UNL     1      -3.120  49.365 -25.296  1.00  0.00     0.132 C 
HETATM    6  O3  UNL     1      -3.158  48.185 -25.630  1.00  0.00    -0.298 OA
HETATM    7  C8  UNL     1      -3.999  49.983 -24.223  1.00  0.00     0.068 C 
HETATM    8  C9  UNL     1      -5.196  49.166 -23.663  1.00  0.00     0.022 C 
HETATM    9  C10 UNL     1      -5.930  48.332 -24.720  1.00  0.00     0.015 C 
HETATM   10  C11 UNL     1      -4.860  48.493 -22.330  1.00  0.00    -0.070 C 
HETATM   11  C12 UNL     1      -4.981  47.161 -22.139  1.00  0.00     0.085 C 
HETATM   12  C18 UNL     1      -4.385  49.477 -21.270  1.00  0.00     0.035 C 
HETATM   13  C19 UNL     1      -3.811  50.783 -21.855  1.00  0.00     0.010 C 
HETATM   14  C20 UNL     1      -3.011  50.457 -23.124  1.00  0.00     0.006 C 
HETATM   15  C21 UNL     1      -2.016  51.560 -23.651  1.00  0.00    -0.033 C 
HETATM   16  C22 UNL     1      -2.801  52.833 -24.049  1.00  0.00     0.016 C 
HETATM   17  C23 UNL     1      -1.002  51.929 -22.521  1.00  0.00     0.012 C 
HETATM   18  C24 UNL     1       0.463  52.002 -22.967  1.00  0.00     0.035 C 
HETATM   19  C25 UNL     1       0.637  52.672 -24.326  1.00  0.00     0.153 C 
ENDROOT
BRANCH  11  20
HETATM   20  C13 UNL     1      -4.754  46.317 -20.941  1.00  0.00     0.283 C 
HETATM   21  O4  UNL     1      -4.907  45.103 -20.977  1.00  0.00    -0.260 OA
BRANCH  20  22
HETATM   22  O5  UNL     1      -4.387  47.029 -19.854  1.00  0.00    -0.316 OA
BRANCH  22  23
HETATM   23  C14 UNL     1      -3.135  46.627 -19.274  1.00  0.00     0.209 C 
BRANCH  23  24
HETATM   24  C15 UNL     1      -2.385  47.894 -18.831  1.00  0.00     0.298 C 
BRANCH  24  25
HETATM   25  N1  UNL     1      -1.175  48.273 -19.577  1.00  0.00     0.082 N 
HETATM   26  C16 UNL     1      -1.199  47.800 -20.958  1.00  0.00     0.309 C 
HETATM   27  C17 UNL     1      -0.913  49.710 -19.525  1.00  0.00     0.309 C 
ENDBRANCH  24  25
ENDBRANCH  23  24
ENDBRANCH  22  23
ENDBRANCH  20  22
ENDBRANCH  11  20
BRANCH   1  28
HETATM   28  O2  UNL     1      -0.814  52.771 -26.410  1.00  0.00    -0.308 OA
BRANCH  28  29
HETATM   29  C2  UNL     1      -0.120  53.635 -27.193  1.00  0.00     0.255 C 
HETATM   30  C1  UNL     1       0.183  52.999 -28.514  1.00  0.00     0.126 C 
HETATM   31  O1  UNL     1       0.194  54.777 -26.886  1.00  0.00    -0.266 OA
ENDBRANCH  28  29
ENDBRANCH   1  28
BRANCH  19  32
HETATM   32  O6  UNL     1       0.227  54.033 -24.182  1.00  0.00    -0.393 OA
HETATM   33  H39 UNL     1       0.705  54.526 -24.881  1.00  0.00     0.210 HD
ENDBRANCH  19  32
TORSDOF 8
ENDMDL
MODEL 3
REMARK minimizedAffinity -7.85837698
REMARK  8 active torsions:
REMARK  status: ('A' for Active; 'I' for Inactive)
REMARK    1  A    between atoms: C2_2  and  O2_4 
REMARK    2  A    between atoms: O2_4  and  C3_5 
REMARK    3  A    between atoms: C12_15  and  C13_16 
REMARK    4  A    between atoms: C13_16  and  O5_18 
REMARK    5  A    between atoms: O5_18  and  C14_19 
REMARK    6  A    between atoms: C14_19  and  C15_20 
REMARK    7  A    between atoms: C15_20  and  N1_21 
REMARK    8  A    between atoms: C25_31  and  O6_32 
ROOT
HETATM    1  C3  UNL     1      -2.389  50.612 -25.594  1.00  0.00     0.097 C 
HETATM    2  C4  UNL     1      -1.168  49.932 -26.258  1.00  0.00     0.050 C 
HETATM    3  C5  UNL     1      -2.472  50.122 -24.101  1.00  0.00     0.038 C 
HETATM    4  C6  UNL     1      -2.881  48.638 -23.972  1.00  0.00     0.087 C 
HETATM    5  C7  UNL     1      -2.863  48.221 -22.514  1.00  0.00     0.132 C 
HETATM    6  O3  UNL     1      -2.142  47.311 -22.118  1.00  0.00    -0.298 OA
HETATM    7  C8  UNL     1      -3.791  49.031 -21.625  1.00  0.00     0.068 C 
HETATM    8  C9  UNL     1      -4.053  48.553 -20.171  1.00  0.00     0.022 C 
HETATM    9  C10 UNL     1      -4.161  47.030 -20.026  1.00  0.00     0.015 C 
HETATM   10  C11 UNL     1      -3.194  49.306 -19.153  1.00  0.00    -0.070 C 
HETATM   11  C12 UNL     1      -2.368  48.674 -18.290  1.00  0.00     0.085 C 
HETATM   12  C18 UNL     1      -3.375  50.817 -19.224  1.00  0.00     0.035 C 
HETATM   13  C19 UNL     1      -3.900  51.311 -20.587  1.00  0.00     0.010 C 
HETATM   14  C20 UNL     1      -3.250  50.485 -21.706  1.00  0.00     0.006 C 
HETATM   15  C21 UNL     1      -3.324  51.068 -23.168  1.00  0.00    -0.033 C 
HETATM   16  C22 UNL     1      -4.799  51.173 -23.621  1.00  0.00     0.016 C 
HETATM   17  C23 UNL     1      -2.690  52.496 -23.191  1.00  0.00     0.012 C 
HETATM   18  C24 UNL     1      -1.719  52.754 -24.349  1.00  0.00     0.035 C 
HETATM   19  C25 UNL     1      -2.206  52.170 -25.672  1.00  0.00     0.153 C 
ENDROOT
BRANCH  11  20
HETATM   20  C13 UNL     1      -1.491  49.193 -17.213  1.00  0.00     0.283 C 
HETATM   21  O4  UNL     1      -1.116  48.477 -16.295  1.00  0.00    -0.260 OA
BRANCH  20  22
HETATM   22  O5  UNL     1      -1.184  50.500 -17.363  1.00  0.00    -0.316 OA
BRANCH  22  23
HETATM   23  C14 UNL     1       0.102  50.746 -17.955  1.00  0.00     0.209 C 
BRANCH  23  24
HETATM   24  C15 UNL     1       0.166  52.227 -18.363  1.00  0.00     0.298 C 
BRANCH  24  25
HETATM   25  N1  UNL     1      -0.137  52.568 -19.761  1.00  0.00     0.082 N 
HETATM   26  C16 UNL     1       0.586  53.753 -20.217  1.00  0.00     0.309 C 
HETATM   27  C17 UNL     1       0.082  51.445 -20.671  1.00  0.00     0.309 C 
ENDBRANCH  24  25
ENDBRANCH  23  24
ENDBRANCH  22  23
ENDBRANCH  20  22
ENDBRANCH  11  20
BRANCH   1  28
HETATM   28  O2  UNL     1      -3.588  50.120 -26.259  1.00  0.00    -0.308 OA
BRANCH  28  29
HETATM   29  C2  UNL     1      -3.547  49.696 -27.548  1.00  0.00     0.255 C 
HETATM   30  C1  UNL     1      -3.962  48.260 -27.627  1.00  0.00     0.126 C 
HETATM   31  O1  UNL     1      -3.242  50.383 -28.513  1.00  0.00    -0.266 OA
ENDBRANCH  28  29
ENDBRANCH   1  28
BRANCH  19  32
HETATM   32  O6  UNL     1      -3.399  52.869 -26.028  1.00  0.00    -0.393 OA
HETATM   33  H39 UNL     1      -3.464  52.796 -27.003  1.00  0.00     0.210 HD
ENDBRANCH  19  32
TORSDOF 8
ENDMDL
MODEL 4
REMARK minimizedAffinity -7.80111313
REMARK  8 active torsions:
REMARK  status: ('A' for Active; 'I' for Inactive)
REMARK    1  A    between atoms: C2_2  and  O2_4 
REMARK    2  A    between atoms: O2_4  and  C3_5 
REMARK    3  A    between atoms: C12_15  and  C13_16 
REMARK    4  A    between atoms: C13_16  and  O5_18 
REMARK    5  A    between atoms: O5_18  and  C14_19 
REMARK    6  A    between atoms: C14_19  and  C15_20 
REMARK    7  A    between atoms: C15_20  and  N1_21 
REMARK    8  A    between atoms: C25_31  and  O6_32 
ROOT
HETATM    1  C3  UNL     1      -0.051  51.973 -25.413  1.00  0.00     0.097 C 
HETATM    2  C4  UNL     1       0.930  51.133 -26.266  1.00  0.00     0.050 C 
HETATM    3  C5  UNL     1      -1.090  50.994 -24.751  1.00  0.00     0.038 C 
HETATM    4  C6  UNL     1      -2.072  50.376 -25.771  1.00  0.00     0.087 C 
HETATM    5  C7  UNL     1      -2.989  49.388 -25.073  1.00  0.00     0.132 C 
HETATM    6  O3  UNL     1      -3.027  48.208 -25.405  1.00  0.00    -0.298 OA
HETATM    7  C8  UNL     1      -3.813  49.993 -23.950  1.00  0.00     0.068 C 
HETATM    8  C9  UNL     1      -4.961  49.157 -23.321  1.00  0.00     0.022 C 
HETATM    9  C10 UNL     1      -5.743  48.311 -24.334  1.00  0.00     0.015 C 
HETATM   10  C11 UNL     1      -4.537  48.489 -22.011  1.00  0.00    -0.070 C 
HETATM   11  C12 UNL     1      -4.626  47.156 -21.814  1.00  0.00     0.085 C 
HETATM   12  C18 UNL     1      -4.016  49.482 -20.979  1.00  0.00     0.035 C 
HETATM   13  C19 UNL     1      -3.498  50.796 -21.596  1.00  0.00     0.010 C 
HETATM   14  C20 UNL     1      -2.769  50.483 -22.910  1.00  0.00     0.006 C 
HETATM   15  C21 UNL     1      -1.824  51.601 -23.494  1.00  0.00    -0.033 C 
HETATM   16  C22 UNL     1      -2.651  52.861 -23.844  1.00  0.00     0.016 C 
HETATM   17  C23 UNL     1      -0.751  51.986 -22.425  1.00  0.00     0.012 C 
HETATM   18  C24 UNL     1       0.684  52.082 -22.956  1.00  0.00     0.035 C 
HETATM   19  C25 UNL     1       0.767  52.755 -24.323  1.00  0.00     0.153 C 
ENDROOT
BRANCH  11  20
HETATM   20  C13 UNL     1      -4.316  46.316 -20.632  1.00  0.00     0.283 C 
HETATM   21  O4  UNL     1      -3.745  45.239 -20.745  1.00  0.00    -0.260 OA
BRANCH  20  22
HETATM   22  O5  UNL     1      -4.736  46.861 -19.470  1.00  0.00    -0.316 OA
BRANCH  22  23
HETATM   23  C14 UNL     1      -6.159  46.828 -19.277  1.00  0.00     0.209 C 
BRANCH  23  24
HETATM   24  C15 UNL     1      -6.566  48.092 -18.501  1.00  0.00     0.298 C 
BRANCH  24  25
HETATM   25  N1  UNL     1      -7.539  49.000 -19.127  1.00  0.00     0.082 N 
HETATM   26  C16 UNL     1      -7.943  48.554 -20.458  1.00  0.00     0.309 C 
HETATM   27  C17 UNL     1      -8.707  49.237 -18.282  1.00  0.00     0.309 C 
ENDBRANCH  24  25
ENDBRANCH  23  24
ENDBRANCH  22  23
ENDBRANCH  20  22
ENDBRANCH  11  20
BRANCH   1  28
HETATM   28  O2  UNL     1      -0.805  52.830 -26.318  1.00  0.00    -0.308 OA
BRANCH  28  29
HETATM   29  C2  UNL     1      -0.172  53.705 -27.140  1.00  0.00     0.255 C 
HETATM   30  C1  UNL     1       0.024  53.088 -28.490  1.00  0.00     0.126 C 
HETATM   31  O1  UNL     1       0.169  54.841 -26.841  1.00  0.00    -0.266 OA
ENDBRANCH  28  29
ENDBRANCH   1  28
BRANCH  19  32
HETATM   32  O6  UNL     1       0.345  54.108 -24.154  1.00  0.00    -0.393 OA
HETATM   33  H39 UNL     1       0.773  54.609 -24.879  1.00  0.00     0.210 HD
ENDBRANCH  19  32
TORSDOF 8
ENDMDL
MODEL 5
REMARK minimizedAffinity -7.5176549
REMARK  8 active torsions:
REMARK  status: ('A' for Active; 'I' for Inactive)
REMARK    1  A    between atoms: C2_2  and  O2_4 
REMARK    2  A    between atoms: O2_4  and  C3_5 
REMARK    3  A    between atoms: C12_15  and  C13_16 
REMARK    4  A    between atoms: C13_16  and  O5_18 
REMARK    5  A    between atoms: O5_18  and  C14_19 
REMARK    6  A    between atoms: C14_19  and  C15_20 
REMARK    7  A    between atoms: C15_20  and  N1_21 
REMARK    8  A    between atoms: C25_31  and  O6_32 
ROOT
HETATM    1  C3  UNL     1      -2.312  50.619 -25.620  1.00  0.00     0.097 C 
HETATM    2  C4  UNL     1      -1.132  49.923 -26.342  1.00  0.00     0.050 C 
HETATM    3  C5  UNL     1      -2.342  50.115 -24.130  1.00  0.00     0.038 C 
HETATM    4  C6  UNL     1      -2.774  48.637 -24.000  1.00  0.00     0.087 C 
HETATM    5  C7  UNL     1      -2.705  48.203 -22.548  1.00  0.00     0.132 C 
HETATM    6  O3  UNL     1      -1.986  47.275 -22.192  1.00  0.00    -0.298 OA
HETATM    7  C8  UNL     1      -3.579  49.021 -21.613  1.00  0.00     0.068 C 
HETATM    8  C9  UNL     1      -3.790  48.531 -20.154  1.00  0.00     0.022 C 
HETATM    9  C10 UNL     1      -3.922  47.009 -20.021  1.00  0.00     0.015 C 
HETATM   10  C11 UNL     1      -2.875  49.257 -19.165  1.00  0.00    -0.070 C 
HETATM   11  C12 UNL     1      -2.026  48.599 -18.345  1.00  0.00     0.085 C 
HETATM   12  C18 UNL     1      -3.030  50.772 -19.213  1.00  0.00     0.035 C 
HETATM   13  C19 UNL     1      -3.601  51.290 -20.548  1.00  0.00     0.010 C 
HETATM   14  C20 UNL     1      -3.014  50.464 -21.701  1.00  0.00     0.006 C 
HETATM   15  C21 UNL     1      -3.136  51.065 -23.153  1.00  0.00    -0.033 C 
HETATM   16  C22 UNL     1      -4.627  51.204 -23.543  1.00  0.00     0.016 C 
HETATM   17  C23 UNL     1      -2.476  52.482 -23.187  1.00  0.00     0.012 C 
HETATM   18  C24 UNL     1      -1.549  52.734 -24.382  1.00  0.00     0.035 C 
HETATM   19  C25 UNL     1      -2.102  52.174 -25.689  1.00  0.00     0.153 C 
ENDROOT
BRANCH  11  20
HETATM   20  C13 UNL     1      -1.096  49.089 -17.299  1.00  0.00     0.283 C 
HETATM   21  O4  UNL     1      -0.098  49.738 -17.585  1.00  0.00    -0.260 OA
BRANCH  20  22
HETATM   22  O5  UNL     1      -1.467  48.734 -16.051  1.00  0.00    -0.316 OA
BRANCH  22  23
HETATM   23  C14 UNL     1      -0.957  49.586 -15.012  1.00  0.00     0.209 C 
BRANCH  23  24
HETATM   24  C15 UNL     1      -1.953  50.739 -14.808  1.00  0.00     0.298 C 
BRANCH  24  25
HETATM   25  N1  UNL     1      -1.962  51.416 -13.502  1.00  0.00     0.082 N 
HETATM   26  C16 UNL     1      -0.745  52.189 -13.264  1.00  0.00     0.309 C 
HETATM   27  C17 UNL     1      -3.150  52.247 -13.311  1.00  0.00     0.309 C 
ENDBRANCH  24  25
ENDBRANCH  23  24
ENDBRANCH  22  23
ENDBRANCH  20  22
ENDBRANCH  11  20
BRANCH   1  28
HETATM   28  O2  UNL     1      -3.547  50.158 -26.240  1.00  0.00    -0.308 OA
BRANCH  28  29
HETATM   29  C2  UNL     1      -3.558  49.703 -27.519  1.00  0.00     0.255 C 
HETATM   30  C1  UNL     1      -3.961  48.262 -27.545  1.00  0.00     0.126 C 
HETATM   31  O1  UNL     1      -3.303  50.369 -28.512  1.00  0.00    -0.266 OA
ENDBRANCH  28  29
ENDBRANCH   1  28
BRANCH  19  32
HETATM   32  O6  UNL     1      -3.295  52.899 -25.989  1.00  0.00    -0.393 OA
HETATM   33  H39 UNL     1      -3.401  52.839 -26.960  1.00  0.00     0.210 HD
ENDBRANCH  19  32
TORSDOF 8
ENDMDL
MODEL 6
REMARK minimizedAffinity -7.44277954
REMARK  8 active torsions:
REMARK  status: ('A' for Active; 'I' for Inactive)
REMARK    1  A    between atoms: C2_2  and  O2_4 
REMARK    2  A    between atoms: O2_4  and  C3_5 
REMARK    3  A    between atoms: C12_15  and  C13_16 
REMARK    4  A    between atoms: C13_16  and  O5_18 
REMARK    5  A    between atoms: O5_18  and  C14_19 
REMARK    6  A    between atoms: C14_19  and  C15_20 
REMARK    7  A    between atoms: C15_20  and  N1_21 
REMARK    8  A    between atoms: C25_31  and  O6_32 
ROOT
HETATM    1  C3  UNL     1      -0.123  53.286 -26.104  1.00  0.00     0.097 C 
HETATM    2  C4  UNL     1      -0.158  54.762 -25.638  1.00  0.00     0.050 C 
HETATM    3  C5  UNL     1      -0.901  52.419 -25.045  1.00  0.00     0.038 C 
HETATM    4  C6  UNL     1      -0.157  52.300 -23.697  1.00  0.00     0.087 C 
HETATM    5  C7  UNL     1      -1.002  51.518 -22.708  1.00  0.00     0.132 C 
HETATM    6  O3  UNL     1      -1.363  52.013 -21.645  1.00  0.00    -0.298 OA
HETATM    7  C8  UNL     1      -1.352  50.113 -23.165  1.00  0.00     0.068 C 
HETATM    8  C9  UNL     1      -1.998  49.127 -22.153  1.00  0.00     0.022 C 
HETATM    9  C10 UNL     1      -1.436  49.239 -20.730  1.00  0.00     0.015 C 
HETATM   10  C11 UNL     1      -3.517  49.048 -22.314  1.00  0.00    -0.070 C 
HETATM   11  C12 UNL     1      -4.370  49.294 -21.295  1.00  0.00     0.085 C 
HETATM   12  C18 UNL     1      -3.946  48.669 -23.726  1.00  0.00     0.035 C 
HETATM   13  C19 UNL     1      -2.883  48.983 -24.798  1.00  0.00     0.010 C 
HETATM   14  C20 UNL     1      -2.198  50.312 -24.452  1.00  0.00     0.006 C 
HETATM   15  C21 UNL     1      -1.381  51.022 -25.598  1.00  0.00    -0.033 C 
HETATM   16  C22 UNL     1      -0.201  50.123 -26.040  1.00  0.00     0.016 C 
HETATM   17  C23 UNL     1      -2.314  51.264 -26.828  1.00  0.00     0.012 C 
HETATM   18  C24 UNL     1      -2.223  52.666 -27.443  1.00  0.00     0.035 C 
HETATM   19  C25 UNL     1      -0.791  53.186 -27.522  1.00  0.00     0.153 C 
ENDROOT
BRANCH  11  20
HETATM   20  C13 UNL     1      -5.850  49.236 -21.219  1.00  0.00     0.283 C 
HETATM   21  O4  UNL     1      -6.519  50.244 -21.039  1.00  0.00    -0.260 OA
BRANCH  20  22
HETATM   22  O5  UNL     1      -6.339  47.985 -21.355  1.00  0.00    -0.316 OA
BRANCH  22  23
HETATM   23  C14 UNL     1      -7.470  47.880 -22.235  1.00  0.00     0.209 C 
BRANCH  23  24
HETATM   24  C15 UNL     1      -7.135  46.845 -23.322  1.00  0.00     0.298 C 
BRANCH  24  25
HETATM   25  N1  UNL     1      -7.908  46.887 -24.572  1.00  0.00     0.082 N 
HETATM   26  C16 UNL     1      -7.271  47.710 -25.597  1.00  0.00     0.309 C 
HETATM   27  C17 UNL     1      -8.208  45.553 -25.090  1.00  0.00     0.309 C 
ENDBRANCH  24  25
ENDBRANCH  23  24
ENDBRANCH  22  23
ENDBRANCH  20  22
ENDBRANCH  11  20
BRANCH   1  28
HETATM   28  O2  UNL     1       1.263  52.840 -26.066  1.00  0.00    -0.308 OA
BRANCH  28  29
HETATM   29  C2  UNL     1       1.802  52.148 -27.103  1.00  0.00     0.255 C 
HETATM   30  C1  UNL     1       2.467  50.906 -26.598  1.00  0.00     0.126 C 
HETATM   31  O1  UNL     1       1.737  52.469 -28.281  1.00  0.00    -0.266 OA
ENDBRANCH  28  29
ENDBRANCH   1  28
BRANCH  19  32
HETATM   32  O6  UNL     1      -0.083  52.339 -28.428  1.00  0.00    -0.393 OA
HETATM   33  H39 UNL     1       0.651  52.885 -28.777  1.00  0.00     0.210 HD
ENDBRANCH  19  32
TORSDOF 8
ENDMDL
MODEL 7
REMARK minimizedAffinity -7.42215157
REMARK  8 active torsions:
REMARK  status: ('A' for Active; 'I' for Inactive)
REMARK    1  A    between atoms: C2_2  and  O2_4 
REMARK    2  A    between atoms: O2_4  and  C3_5 
REMARK    3  A    between atoms: C12_15  and  C13_16 
REMARK    4  A    between atoms: C13_16  and  O5_18 
REMARK    5  A    between atoms: O5_18  and  C14_19 
REMARK    6  A    between atoms: C14_19  and  C15_20 
REMARK    7  A    between atoms: C15_20  and  N1_21 
REMARK    8  A    between atoms: C25_31  and  O6_32 
ROOT
HETATM    1  C3  UNL     1      -0.117  51.942 -25.419  1.00  0.00     0.097 C 
HETATM    2  C4  UNL     1       0.881  51.108 -26.260  1.00  0.00     0.050 C 
HETATM    3  C5  UNL     1      -1.191  50.962 -24.818  1.00  0.00     0.038 C 
HETATM    4  C6  UNL     1      -2.147  50.385 -25.885  1.00  0.00     0.087 C 
HETATM    5  C7  UNL     1      -3.101  49.394 -25.244  1.00  0.00     0.132 C 
HETATM    6  O3  UNL     1      -3.145  48.223 -25.607  1.00  0.00    -0.298 OA
HETATM    7  C8  UNL     1      -3.954  49.983 -24.134  1.00  0.00     0.068 C 
HETATM    8  C9  UNL     1      -5.135  49.149 -23.565  1.00  0.00     0.022 C 
HETATM    9  C10 UNL     1      -5.894  48.341 -24.625  1.00  0.00     0.015 C 
HETATM   10  C11 UNL     1      -4.765  48.442 -22.260  1.00  0.00    -0.070 C 
HETATM   11  C12 UNL     1      -4.880  47.106 -22.100  1.00  0.00     0.085 C 
HETATM   12  C18 UNL     1      -4.265  49.400 -21.186  1.00  0.00     0.035 C 
HETATM   13  C19 UNL     1      -3.707  50.722 -21.751  1.00  0.00     0.010 C 
HETATM   14  C20 UNL     1      -2.939  50.430 -23.047  1.00  0.00     0.006 C 
HETATM   15  C21 UNL     1      -1.959  51.549 -23.571  1.00  0.00    -0.033 C 
HETATM   16  C22 UNL     1      -2.756  52.830 -23.916  1.00  0.00     0.016 C 
HETATM   17  C23 UNL     1      -0.917  51.891 -22.457  1.00  0.00     0.012 C 
HETATM   18  C24 UNL     1       0.536  51.978 -22.937  1.00  0.00     0.035 C 
HETATM   19  C25 UNL     1       0.675  52.683 -24.282  1.00  0.00     0.153 C 
ENDROOT
BRANCH  11  20
HETATM   20  C13 UNL     1      -4.622  46.232 -20.930  1.00  0.00     0.283 C 
HETATM   21  O4  UNL     1      -3.486  46.030 -20.522  1.00  0.00    -0.260 OA
BRANCH  20  22
HETATM   22  O5  UNL     1      -5.748  45.702 -20.406  1.00  0.00    -0.316 OA
BRANCH  22  23
HETATM   23  C14 UNL     1      -5.773  44.266 -20.376  1.00  0.00     0.209 C 
BRANCH  23  24
HETATM   24  C15 UNL     1      -6.421  43.771 -21.680  1.00  0.00     0.298 C 
BRANCH  24  25
HETATM   25  N1  UNL     1      -7.501  42.778 -21.576  1.00  0.00     0.082 N 
HETATM   26  C16 UNL     1      -7.091  41.456 -22.043  1.00  0.00     0.309 C 
HETATM   27  C17 UNL     1      -8.064  42.701 -20.230  1.00  0.00     0.309 C 
ENDBRANCH  24  25
ENDBRANCH  23  24
ENDBRANCH  22  23
ENDBRANCH  20  22
ENDBRANCH  11  20
BRANCH   1  28
HETATM   28  O2  UNL     1      -0.827  52.832 -26.327  1.00  0.00    -0.308 OA
BRANCH  28  29
HETATM   29  C2  UNL     1      -0.154  53.714 -27.109  1.00  0.00     0.255 C 
HETATM   30  C1  UNL     1       0.077  53.122 -28.464  1.00  0.00     0.126 C 
HETATM   31  O1  UNL     1       0.194  54.838 -26.775  1.00  0.00    -0.266 OA
ENDBRANCH  28  29
ENDBRANCH   1  28
BRANCH  19  32
HETATM   32  O6  UNL     1       0.267  54.039 -24.093  1.00  0.00    -0.393 OA
HETATM   33  H39 UNL     1       0.726  54.551 -24.791  1.00  0.00     0.210 HD
ENDBRANCH  19  32
TORSDOF 8
ENDMDL
MODEL 8
REMARK minimizedAffinity -7.35260487
REMARK  8 active torsions:
REMARK  status: ('A' for Active; 'I' for Inactive)
REMARK    1  A    between atoms: C2_2  and  O2_4 
REMARK    2  A    between atoms: O2_4  and  C3_5 
REMARK    3  A    between atoms: C12_15  and  C13_16 
REMARK    4  A    between atoms: C13_16  and  O5_18 
REMARK    5  A    between atoms: O5_18  and  C14_19 
REMARK    6  A    between atoms: C14_19  and  C15_20 
REMARK    7  A    between atoms: C15_20  and  N1_21 
REMARK    8  A    between atoms: C25_31  and  O6_32 
ROOT
HETATM    1  C3  UNL     1      -2.300  50.971 -22.897  1.00  0.00     0.097 C 
HETATM    2  C4  UNL     1      -2.767  52.397 -23.279  1.00  0.00     0.050 C 
HETATM    3  C5  UNL     1      -2.026  50.943 -21.347  1.00  0.00     0.038 C 
HETATM    4  C6  UNL     1      -0.780  51.759 -20.938  1.00  0.00     0.087 C 
HETATM    5  C7  UNL     1      -0.627  51.748 -19.429  1.00  0.00     0.132 C 
HETATM    6  O3  UNL     1      -0.633  52.788 -18.778  1.00  0.00    -0.298 OA
HETATM    7  C8  UNL     1      -0.483  50.360 -18.830  1.00  0.00     0.068 C 
HETATM    8  C9  UNL     1      -0.076  50.219 -17.337  1.00  0.00     0.022 C 
HETATM    9  C10 UNL     1       0.962  51.249 -16.875  1.00  0.00     0.015 C 
HETATM   10  C11 UNL     1      -1.284  49.969 -16.431  1.00  0.00    -0.070 C 
HETATM   11  C12 UNL     1      -1.578  50.762 -15.378  1.00  0.00     0.085 C 
HETATM   12  C18 UNL     1      -2.095  48.748 -16.847  1.00  0.00     0.035 C 
HETATM   13  C19 UNL     1      -1.912  48.361 -18.328  1.00  0.00     0.010 C 
HETATM   14  C20 UNL     1      -1.815  49.639 -19.173  1.00  0.00     0.006 C 
HETATM   15  C21 UNL     1      -2.030  49.492 -20.727  1.00  0.00    -0.033 C 
HETATM   16  C22 UNL     1      -0.928  48.588 -21.330  1.00  0.00     0.016 C 
HETATM   17  C23 UNL     1      -3.422  48.835 -21.001  1.00  0.00     0.012 C 
HETATM   18  C24 UNL     1      -4.256  49.519 -22.090  1.00  0.00     0.035 C 
HETATM   19  C25 UNL     1      -3.423  49.947 -23.294  1.00  0.00     0.153 C 
ENDROOT
BRANCH  11  20
HETATM   20  C13 UNL     1      -2.655  50.683 -14.362  1.00  0.00     0.283 C 
HETATM   21  O4  UNL     1      -3.007  49.612 -13.886  1.00  0.00    -0.260 OA
BRANCH  20  22
HETATM   22  O5  UNL     1      -3.180  51.888 -14.052  1.00  0.00    -0.316 OA
BRANCH  22  23
HETATM   23  C14 UNL     1      -2.720  52.436 -12.806  1.00  0.00     0.209 C 
BRANCH  23  24
HETATM   24  C15 UNL     1      -3.928  53.044 -12.075  1.00  0.00     0.298 C 
BRANCH  24  25
HETATM   25  N1  UNL     1      -4.164  52.638 -10.682  1.00  0.00     0.082 N 
HETATM   26  C16 UNL     1      -4.488  51.219 -10.560  1.00  0.00     0.309 C 
HETATM   27  C17 UNL     1      -3.055  52.995  -9.799  1.00  0.00     0.309 C 
ENDBRANCH  24  25
ENDBRANCH  23  24
ENDBRANCH  22  23
ENDBRANCH  20  22
ENDBRANCH  11  20
BRANCH   1  28
HETATM   28  O2  UNL     1      -1.020  50.733 -23.549  1.00  0.00    -0.308 OA
BRANCH  28  29
HETATM   29  C2  UNL     1      -0.802  51.135 -24.827  1.00  0.00     0.255 C 
HETATM   30  C1  UNL     1       0.303  52.143 -24.866  1.00  0.00     0.126 C 
HETATM   31  O1  UNL     1      -1.398  50.723 -25.813  1.00  0.00    -0.266 OA
ENDBRANCH  28  29
ENDBRANCH   1  28
BRANCH  19  32
HETATM   32  O6  UNL     1      -2.921  48.758 -23.905  1.00  0.00    -0.393 OA
HETATM   33  H39 UNL     1      -2.759  48.993 -24.842  1.00  0.00     0.210 HD
ENDBRANCH  19  32
TORSDOF 8
ENDMDL
MODEL 9
REMARK minimizedAffinity -7.1401763
REMARK  8 active torsions:
REMARK  status: ('A' for Active; 'I' for Inactive)
REMARK    1  A    between atoms: C2_2  and  O2_4 
REMARK    2  A    between atoms: O2_4  and  C3_5 
REMARK    3  A    between atoms: C12_15  and  C13_16 
REMARK    4  A    between atoms: C13_16  and  O5_18 
REMARK    5  A    between atoms: O5_18  and  C14_19 
REMARK    6  A    between atoms: C14_19  and  C15_20 
REMARK    7  A    between atoms: C15_20  and  N1_21 
REMARK    8  A    between atoms: C25_31  and  O6_32 
ROOT
HETATM    1  C3  UNL     1      -5.842  48.838 -21.118  1.00  0.00     0.097 C 
HETATM    2  C4  UNL     1      -7.049  49.771 -20.854  1.00  0.00     0.050 C 
HETATM    3  C5  UNL     1      -4.580  49.734 -21.402  1.00  0.00     0.038 C 
HETATM    4  C6  UNL     1      -4.657  50.474 -22.756  1.00  0.00     0.087 C 
HETATM    5  C7  UNL     1      -3.447  51.374 -22.923  1.00  0.00     0.132 C 
HETATM    6  O3  UNL     1      -3.567  52.586 -23.071  1.00  0.00    -0.298 OA
HETATM    7  C8  UNL     1      -2.117  50.642 -22.874  1.00  0.00     0.068 C 
HETATM    8  C9  UNL     1      -0.821  51.400 -23.274  1.00  0.00     0.022 C 
HETATM    9  C10 UNL     1      -1.003  52.364 -24.453  1.00  0.00     0.015 C 
HETATM   10  C11 UNL     1      -0.049  51.904 -22.053  1.00  0.00    -0.070 C 
HETATM   11  C12 UNL     1       0.276  53.205 -21.886  1.00  0.00     0.085 C 
HETATM   12  C18 UNL     1       0.303  50.793 -21.072  1.00  0.00     0.035 C 
HETATM   13  C19 UNL     1      -0.616  49.560 -21.182  1.00  0.00     0.010 C 
HETATM   14  C20 UNL     1      -2.054  50.027 -21.450  1.00  0.00     0.006 C 
HETATM   15  C21 UNL     1      -3.208  48.983 -21.199  1.00  0.00    -0.033 C 
HETATM   16  C22 UNL     1      -3.046  47.777 -22.155  1.00  0.00     0.016 C 
HETATM   17  C23 UNL     1      -3.133  48.468 -19.725  1.00  0.00     0.012 C 
HETATM   18  C24 UNL     1      -4.474  48.432 -18.985  1.00  0.00     0.035 C 
HETATM   19  C25 UNL     1      -5.620  47.928 -19.857  1.00  0.00     0.153 C 
ENDROOT
BRANCH  11  20
HETATM   20  C13 UNL     1       1.042  53.896 -20.821  1.00  0.00     0.283 C 
HETATM   21  O4  UNL     1       2.244  54.096 -20.926  1.00  0.00    -0.260 OA
BRANCH  20  22
HETATM   22  O5  UNL     1       0.278  54.247 -19.763  1.00  0.00    -0.316 OA
BRANCH  22  23
HETATM   23  C14 UNL     1      -0.073  53.158 -18.894  1.00  0.00     0.209 C 
BRANCH  23  24
HETATM   24  C15 UNL     1       1.158  52.813 -18.039  1.00  0.00     0.298 C 
BRANCH  24  25
HETATM   25  N1  UNL     1       1.033  51.716 -17.067  1.00  0.00     0.082 N 
HETATM   26  C16 UNL     1       1.225  52.165 -15.690  1.00  0.00     0.309 C 
HETATM   27  C17 UNL     1      -0.225  50.987 -17.205  1.00  0.00     0.309 C 
ENDBRANCH  24  25
ENDBRANCH  23  24
ENDBRANCH  22  23
ENDBRANCH  20  22
ENDBRANCH  11  20
BRANCH   1  28
HETATM   28  O2  UNL     1      -6.111  48.099 -22.344  1.00  0.00    -0.308 OA
BRANCH  28  29
HETATM   29  C2  UNL     1      -7.133  47.208 -22.412  1.00  0.00     0.255 C 
HETATM   30  C1  UNL     1      -8.413  47.920 -22.720  1.00  0.00     0.126 C 
HETATM   31  O1  UNL     1      -7.031  45.997 -22.270  1.00  0.00    -0.266 OA
ENDBRANCH  28  29
ENDBRANCH   1  28
BRANCH  19  32
HETATM   32  O6  UNL     1      -5.339  46.565 -20.178  1.00  0.00    -0.393 OA
HETATM   33  H39 UNL     1      -6.208  46.154 -20.361  1.00  0.00     0.210 HD
ENDBRANCH  19  32
TORSDOF 8
ENDMDL
