MODEL 1
REMARK minimizedAffinity -9.90895367
REMARK  12 active torsions:
REMARK  status: ('A' for Active; 'I' for Inactive)
REMARK    1  A    between atoms: C2_2  and  C3_3 
REMARK    2  A    between atoms: C2_2  and  C9_11 
REMARK    3  A    between atoms: C4_4  and  C5_5 
REMARK    4  A    between atoms: C5_5  and  C6_6 
REMARK    5  A    between atoms: C6_6  and  O1_8 
REMARK    6  A    between atoms: C6_6  and  C8_9 
REMARK    7  A    between atoms: C8_9  and  O2_10 
REMARK    8  A    between atoms: C10_12  and  O3_13 
REMARK    9  A    between atoms: C11_14  and  O4_15 
REMARK   10  A    between atoms: C22_26  and  O5_27 
REMARK   11  A    between atoms: C25_30  and  O6_31 
REMARK   12  A    between atoms: C27_33  and  O7_34 
ROOT
HETATM    1  C9  UNL     1      -3.921  50.533 -24.829  1.00  0.00     0.033 C 
HETATM    2  C10 UNL     1      -5.397  50.339 -24.344  1.00  0.00     0.152 C 
HETATM    3  C11 UNL     1      -5.336  50.131 -22.808  1.00  0.00     0.155 C 
HETATM    4  C12 UNL     1      -3.892  50.466 -22.452  1.00  0.00     0.060 C 
HETATM    5  C13 UNL     1      -3.082  49.904 -23.663  1.00  0.00    -0.028 C 
HETATM    6  C14 UNL     1      -3.061  48.361 -23.796  1.00  0.00     0.016 C 
HETATM    7  C15 UNL     1      -1.639  50.424 -23.519  1.00  0.00     0.011 C 
HETATM    8  C16 UNL     1      -1.023  50.079 -22.151  1.00  0.00     0.009 C 
HETATM    9  C17 UNL     1      -1.879  50.586 -20.965  1.00  0.00     0.029 C 
HETATM   10  C18 UNL     1      -1.191  50.407 -19.555  1.00  0.00    -0.031 C 
HETATM   11  C19 UNL     1      -0.777  48.934 -19.310  1.00  0.00     0.016 C 
HETATM   12  C20 UNL     1       0.127  51.262 -19.503  1.00  0.00     0.012 C 
HETATM   13  C21 UNL     1       0.324  52.096 -18.229  1.00  0.00     0.032 C 
HETATM   14  C22 UNL     1      -0.134  51.393 -16.956  1.00  0.00     0.118 C 
HETATM   15  C23 UNL     1      -1.569  50.859 -17.045  1.00  0.00     0.039 C 
HETATM   16  C24 UNL     1      -2.164  50.959 -18.463  1.00  0.00     0.025 C 
HETATM   17  C25 UNL     1      -3.597  50.401 -18.538  1.00  0.00     0.126 C 
HETATM   18  C26 UNL     1      -4.206  50.659 -19.920  1.00  0.00     0.071 C 
HETATM   19  C27 UNL     1      -3.354  50.061 -21.058  1.00  0.00     0.071 C 
ENDROOT
BRANCH   1  20
HETATM   20  C2  UNL     1      -3.666  50.090 -26.296  1.00  0.00     0.011 C 
HETATM   21  C1  UNL     1      -3.225  48.627 -26.427  1.00  0.00     0.015 C 
BRANCH  20  22
HETATM   22  C3  UNL     1      -2.670  51.031 -26.962  1.00  0.00    -0.026 C 
HETATM   23  C4  UNL     1      -1.337  50.878 -27.035  1.00  0.00    -0.027 C 
BRANCH  23  24
HETATM   24  C5  UNL     1      -0.415  51.859 -27.717  1.00  0.00     0.066 C 
BRANCH  24  25
HETATM   25  C6  UNL     1       0.954  52.045 -27.016  1.00  0.00     0.078 C 
HETATM   26  C7  UNL     1       1.189  51.025 -25.899  1.00  0.00     0.048 C 
BRANCH  25  27
HETATM   27  O1  UNL     1       1.025  53.373 -26.457  1.00  0.00    -0.388 OA
HETATM   28  H12 UNL     1       0.394  53.405 -25.716  1.00  0.00     0.210 HD
ENDBRANCH  25  27
BRANCH  25  29
HETATM   29  C8  UNL     1       2.097  51.949 -28.048  1.00  0.00     0.201 C 
BRANCH  29  30
HETATM   30  O2  UNL     1       3.303  51.521 -27.415  1.00  0.00    -0.398 OA
HETATM   31  H15 UNL     1       3.029  50.774 -26.845  1.00  0.00     0.209 HD
ENDBRANCH  29  30
ENDBRANCH  25  29
ENDBRANCH  24  25
ENDBRANCH  23  24
ENDBRANCH  20  22
ENDBRANCH   1  20
BRANCH   2  32
HETATM   32  O3  UNL     1      -6.024  49.212 -24.955  1.00  0.00    -0.393 OA
HETATM   33  H18 UNL     1      -6.913  49.124 -24.572  1.00  0.00     0.210 HD
ENDBRANCH   2  32
BRANCH   3  34
HETATM   34  O4  UNL     1      -6.240  51.022 -22.157  1.00  0.00    -0.392 OA
HETATM   35  H20 UNL     1      -7.141  50.717 -22.358  1.00  0.00     0.210 HD
ENDBRANCH   3  34
BRANCH  19  36
HETATM   36  O7  UNL     1      -3.411  48.640 -20.956  1.00  0.00    -0.389 OA
HETATM   37  H46 UNL     1      -3.535  48.416 -20.009  1.00  0.00     0.210 HD
ENDBRANCH  19  36
BRANCH  17  38
HETATM   38  O6  UNL     1      -3.653  49.001 -18.279  1.00  0.00    -0.395 OA
HETATM   39  H43 UNL     1      -3.364  48.854 -17.359  1.00  0.00     0.210 HD
ENDBRANCH  17  38
BRANCH  14  40
HETATM   40  O5  UNL     1       0.743  50.311 -16.657  1.00  0.00    -0.396 OA
HETATM   41  H38 UNL     1       1.650  50.661 -16.624  1.00  0.00     0.210 HD
ENDBRANCH  14  40
TORSDOF 12
ENDMDL
MODEL 2
REMARK minimizedAffinity -9.66502571
REMARK  12 active torsions:
REMARK  status: ('A' for Active; 'I' for Inactive)
REMARK    1  A    between atoms: C2_2  and  C3_3 
REMARK    2  A    between atoms: C2_2  and  C9_11 
REMARK    3  A    between atoms: C4_4  and  C5_5 
REMARK    4  A    between atoms: C5_5  and  C6_6 
REMARK    5  A    between atoms: C6_6  and  O1_8 
REMARK    6  A    between atoms: C6_6  and  C8_9 
REMARK    7  A    between atoms: C8_9  and  O2_10 
REMARK    8  A    between atoms: C10_12  and  O3_13 
REMARK    9  A    between atoms: C11_14  and  O4_15 
REMARK   10  A    between atoms: C22_26  and  O5_27 
REMARK   11  A    between atoms: C25_30  and  O6_31 
REMARK   12  A    between atoms: C27_33  and  O7_34 
ROOT
HETATM    1  C9  UNL     1      -2.069  49.011 -19.155  1.00  0.00     0.033 C 
HETATM    2  C10 UNL     1      -3.134  47.888 -19.388  1.00  0.00     0.152 C 
HETATM    3  C11 UNL     1      -3.586  48.006 -20.867  1.00  0.00     0.155 C 
HETATM    4  C12 UNL     1      -2.598  48.996 -21.473  1.00  0.00     0.060 C 
HETATM    5  C13 UNL     1      -2.361  50.020 -20.318  1.00  0.00    -0.028 C 
HETATM    6  C14 UNL     1      -3.573  50.913 -19.956  1.00  0.00     0.016 C 
HETATM    7  C15 UNL     1      -1.179  50.912 -20.744  1.00  0.00     0.011 C 
HETATM    8  C16 UNL     1      -1.405  51.571 -22.117  1.00  0.00     0.009 C 
HETATM    9  C17 UNL     1      -1.707  50.540 -23.232  1.00  0.00     0.029 C 
HETATM   10  C18 UNL     1      -1.766  51.163 -24.682  1.00  0.00    -0.031 C 
HETATM   11  C19 UNL     1      -2.785  52.328 -24.756  1.00  0.00     0.016 C 
HETATM   12  C20 UNL     1      -0.362  51.766 -25.051  1.00  0.00     0.012 C 
HETATM   13  C21 UNL     1       0.158  51.417 -26.453  1.00  0.00     0.032 C 
HETATM   14  C22 UNL     1      -0.925  51.395 -27.525  1.00  0.00     0.118 C 
HETATM   15  C23 UNL     1      -2.125  50.515 -27.152  1.00  0.00     0.039 C 
HETATM   16  C24 UNL     1      -2.077  50.014 -25.695  1.00  0.00     0.025 C 
HETATM   17  C25 UNL     1      -3.299  49.150 -25.332  1.00  0.00     0.126 C 
HETATM   18  C26 UNL     1      -3.136  48.546 -23.933  1.00  0.00     0.071 C 
HETATM   19  C27 UNL     1      -2.921  49.623 -22.850  1.00  0.00     0.071 C 
ENDROOT
BRANCH   1  20
HETATM   20  C2  UNL     1      -1.985  49.518 -17.688  1.00  0.00     0.011 C 
HETATM   21  C1  UNL     1      -2.969  50.652 -17.375  1.00  0.00     0.015 C 
BRANCH  20  22
HETATM   22  C3  UNL     1      -0.554  49.918 -17.353  1.00  0.00    -0.026 C 
HETATM   23  C4  UNL     1      -0.070  50.249 -16.144  1.00  0.00    -0.027 C 
BRANCH  23  24
HETATM   24  C5  UNL     1       1.368  50.633 -15.892  1.00  0.00     0.066 C 
BRANCH  24  25
HETATM   25  C6  UNL     1       1.690  52.124 -16.167  1.00  0.00     0.078 C 
HETATM   26  C7  UNL     1       3.195  52.400 -16.233  1.00  0.00     0.048 C 
BRANCH  25  27
HETATM   27  O1  UNL     1       1.113  52.936 -15.124  1.00  0.00    -0.388 OA
HETATM   28  H12 UNL     1       1.612  52.751 -14.308  1.00  0.00     0.210 HD
ENDBRANCH  25  27
BRANCH  25  29
HETATM   29  C8  UNL     1       1.027  52.576 -17.485  1.00  0.00     0.201 C 
BRANCH  29  30
HETATM   30  O2  UNL     1       1.977  53.240 -18.317  1.00  0.00    -0.398 OA
HETATM   31  H15 UNL     1       2.774  52.672 -18.283  1.00  0.00     0.209 HD
ENDBRANCH  29  30
ENDBRANCH  25  29
ENDBRANCH  24  25
ENDBRANCH  23  24
ENDBRANCH  20  22
ENDBRANCH   1  20
BRANCH   2  32
HETATM   32  O3  UNL     1      -4.265  48.026 -18.529  1.00  0.00    -0.393 OA
HETATM   33  H18 UNL     1      -4.902  47.331 -18.763  1.00  0.00     0.210 HD
ENDBRANCH   2  32
BRANCH   3  34
HETATM   34  O4  UNL     1      -3.493  46.736 -21.511  1.00  0.00    -0.392 OA
HETATM   35  H20 UNL     1      -4.192  46.172 -21.139  1.00  0.00     0.210 HD
ENDBRANCH   3  34
BRANCH  19  36
HETATM   36  O7  UNL     1      -4.125  50.376 -22.725  1.00  0.00    -0.389 OA
HETATM   37  H46 UNL     1      -4.570  50.369 -23.599  1.00  0.00     0.210 HD
ENDBRANCH  19  36
BRANCH  17  38
HETATM   38  O6  UNL     1      -4.518  49.886 -25.363  1.00  0.00    -0.395 OA
HETATM   39  H43 UNL     1      -4.669  50.177 -26.282  1.00  0.00     0.210 HD
ENDBRANCH  17  38
BRANCH  14  40
HETATM   40  O5  UNL     1      -1.385  52.720 -27.777  1.00  0.00    -0.396 OA
HETATM   41  H38 UNL     1      -0.611  53.268 -27.992  1.00  0.00     0.210 HD
ENDBRANCH  14  40
TORSDOF 12
ENDMDL
MODEL 3
REMARK minimizedAffinity -9.59161854
REMARK  12 active torsions:
REMARK  status: ('A' for Active; 'I' for Inactive)
REMARK    1  A    between atoms: C2_2  and  C3_3 
REMARK    2  A    between atoms: C2_2  and  C9_11 
REMARK    3  A    between atoms: C4_4  and  C5_5 
REMARK    4  A    between atoms: C5_5  and  C6_6 
REMARK    5  A    between atoms: C6_6  and  O1_8 
REMARK    6  A    between atoms: C6_6  and  C8_9 
REMARK    7  A    between atoms: C8_9  and  O2_10 
REMARK    8  A    between atoms: C10_12  and  O3_13 
REMARK    9  A    between atoms: C11_14  and  O4_15 
REMARK   10  A    between atoms: C22_26  and  O5_27 
REMARK   11  A    between atoms: C25_30  and  O6_31 
REMARK   12  A    between atoms: C27_33  and  O7_34 
ROOT
HETATM    1  C9  UNL     1      -0.864  49.561 -18.712  1.00  0.00     0.033 C 
HETATM    2  C10 UNL     1      -2.047  48.540 -18.621  1.00  0.00     0.152 C 
HETATM    3  C11 UNL     1      -2.776  48.583 -19.989  1.00  0.00     0.155 C 
HETATM    4  C12 UNL     1      -1.849  49.412 -20.871  1.00  0.00     0.060 C 
HETATM    5  C13 UNL     1      -1.297  50.496 -19.893  1.00  0.00    -0.028 C 
HETATM    6  C14 UNL     1      -2.330  51.538 -19.396  1.00  0.00     0.016 C 
HETATM    7  C15 UNL     1      -0.153  51.222 -20.627  1.00  0.00     0.011 C 
HETATM    8  C16 UNL     1      -0.594  51.787 -21.990  1.00  0.00     0.009 C 
HETATM    9  C17 UNL     1      -1.202  50.705 -22.916  1.00  0.00     0.029 C 
HETATM   10  C18 UNL     1      -1.499  51.210 -24.383  1.00  0.00    -0.031 C 
HETATM   11  C19 UNL     1      -2.407  52.465 -24.376  1.00  0.00     0.016 C 
HETATM   12  C20 UNL     1      -0.151  51.631 -25.075  1.00  0.00     0.012 C 
HETATM   13  C21 UNL     1       0.043  51.116 -26.508  1.00  0.00     0.032 C 
HETATM   14  C22 UNL     1      -1.231  51.119 -27.343  1.00  0.00     0.118 C 
HETATM   15  C23 UNL     1      -2.403  50.403 -26.658  1.00  0.00     0.039 C 
HETATM   16  C24 UNL     1      -2.105  50.021 -25.195  1.00  0.00     0.025 C 
HETATM   17  C25 UNL     1      -3.298  49.321 -24.519  1.00  0.00     0.126 C 
HETATM   18  C26 UNL     1      -2.910  48.820 -23.123  1.00  0.00     0.071 C 
HETATM   19  C27 UNL     1      -2.388  49.954 -22.216  1.00  0.00     0.071 C 
ENDROOT
BRANCH   1  20
HETATM   20  C2  UNL     1      -0.444  50.175 -17.348  1.00  0.00     0.011 C 
HETATM   21  C1  UNL     1       0.355  49.212 -16.462  1.00  0.00     0.015 C 
BRANCH  20  22
HETATM   22  C3  UNL     1      -1.666  50.717 -16.618  1.00  0.00    -0.026 C 
HETATM   23  C4  UNL     1      -1.830  50.829 -15.289  1.00  0.00    -0.027 C 
BRANCH  23  24
HETATM   24  C5  UNL     1      -3.076  51.380 -14.640  1.00  0.00     0.066 C 
BRANCH  24  25
HETATM   25  C6  UNL     1      -2.926  51.698 -13.131  1.00  0.00     0.078 C 
HETATM   26  C7  UNL     1      -1.496  52.088 -12.750  1.00  0.00     0.048 C 
BRANCH  25  27
HETATM   27  O1  UNL     1      -3.315  50.543 -12.361  1.00  0.00    -0.388 OA
HETATM   28  H12 UNL     1      -2.639  49.859 -12.508  1.00  0.00     0.210 HD
ENDBRANCH  25  27
BRANCH  25  29
HETATM   29  C8  UNL     1      -3.892  52.833 -12.729  1.00  0.00     0.201 C 
BRANCH  29  30
HETATM   30  O2  UNL     1      -4.277  53.587 -13.877  1.00  0.00    -0.398 OA
HETATM   31  H15 UNL     1      -4.492  52.913 -14.554  1.00  0.00     0.209 HD
ENDBRANCH  29  30
ENDBRANCH  25  29
ENDBRANCH  24  25
ENDBRANCH  23  24
ENDBRANCH  20  22
ENDBRANCH   1  20
BRANCH   2  32
HETATM   32  O3  UNL     1      -2.965  48.865 -17.578  1.00  0.00    -0.393 OA
HETATM   33  H18 UNL     1      -3.694  48.223 -17.614  1.00  0.00     0.210 HD
ENDBRANCH   2  32
BRANCH   3  34
HETATM   34  O4  UNL     1      -2.924  47.262 -20.508  1.00  0.00    -0.392 OA
HETATM   35  H20 UNL     1      -3.580  46.806 -19.953  1.00  0.00     0.210 HD
ENDBRANCH   3  34
BRANCH  19  36
HETATM   36  O7  UNL     1      -3.474  50.836 -21.938  1.00  0.00    -0.389 OA
HETATM   37  H46 UNL     1      -4.085  50.804 -22.705  1.00  0.00     0.210 HD
ENDBRANCH  19  36
BRANCH  17  38
HETATM   38  O6  UNL     1      -4.431  50.176 -24.388  1.00  0.00    -0.395 OA
HETATM   39  H43 UNL     1      -4.738  50.404 -25.284  1.00  0.00     0.210 HD
ENDBRANCH  17  38
BRANCH  14  40
HETATM   40  O5  UNL     1      -1.617  52.460 -27.634  1.00  0.00    -0.396 OA
HETATM   41  H38 UNL     1      -0.858  52.905 -28.049  1.00  0.00     0.210 HD
ENDBRANCH  14  40
TORSDOF 12
ENDMDL
MODEL 4
REMARK minimizedAffinity -9.54273987
REMARK  12 active torsions:
REMARK  status: ('A' for Active; 'I' for Inactive)
REMARK    1  A    between atoms: C2_2  and  C3_3 
REMARK    2  A    between atoms: C2_2  and  C9_11 
REMARK    3  A    between atoms: C4_4  and  C5_5 
REMARK    4  A    between atoms: C5_5  and  C6_6 
REMARK    5  A    between atoms: C6_6  and  O1_8 
REMARK    6  A    between atoms: C6_6  and  C8_9 
REMARK    7  A    between atoms: C8_9  and  O2_10 
REMARK    8  A    between atoms: C10_12  and  O3_13 
REMARK    9  A    between atoms: C11_14  and  O4_15 
REMARK   10  A    between atoms: C22_26  and  O5_27 
REMARK   11  A    between atoms: C25_30  and  O6_31 
REMARK   12  A    between atoms: C27_33  and  O7_34 
ROOT
HETATM    1  C9  UNL     1      -2.978  48.734 -25.579  1.00  0.00     0.033 C 
HETATM    2  C10 UNL     1      -2.128  49.826 -26.310  1.00  0.00     0.152 C 
HETATM    3  C11 UNL     1      -1.525  50.732 -25.206  1.00  0.00     0.155 C 
HETATM    4  C12 UNL     1      -1.833  49.985 -23.912  1.00  0.00     0.060 C 
HETATM    5  C13 UNL     1      -3.248  49.379 -24.176  1.00  0.00    -0.028 C 
HETATM    6  C14 UNL     1      -4.407  50.402 -24.274  1.00  0.00     0.016 C 
HETATM    7  C15 UNL     1      -3.533  48.392 -23.027  1.00  0.00     0.011 C 
HETATM    8  C16 UNL     1      -3.390  49.045 -21.641  1.00  0.00     0.009 C 
HETATM    9  C17 UNL     1      -2.002  49.700 -21.430  1.00  0.00     0.029 C 
HETATM   10  C18 UNL     1      -1.756  50.221 -19.959  1.00  0.00    -0.031 C 
HETATM   11  C19 UNL     1      -2.871  51.199 -19.512  1.00  0.00     0.016 C 
HETATM   12  C20 UNL     1      -1.792  49.007 -18.961  1.00  0.00     0.012 C 
HETATM   13  C21 UNL     1      -0.660  48.972 -17.924  1.00  0.00     0.032 C 
HETATM   14  C22 UNL     1      -0.276  50.344 -17.383  1.00  0.00     0.118 C 
HETATM   15  C23 UNL     1       0.024  51.365 -18.488  1.00  0.00     0.039 C 
HETATM   16  C24 UNL     1      -0.328  50.852 -19.897  1.00  0.00     0.025 C 
HETATM   17  C25 UNL     1      -0.039  51.897 -20.991  1.00  0.00     0.126 C 
HETATM   18  C26 UNL     1      -0.254  51.295 -22.383  1.00  0.00     0.071 C 
HETATM   19  C27 UNL     1      -1.678  50.732 -22.566  1.00  0.00     0.071 C 
ENDROOT
BRANCH   1  20
HETATM   20  C2  UNL     1      -4.162  48.176 -26.417  1.00  0.00     0.011 C 
HETATM   21  C1  UNL     1      -4.213  48.726 -27.847  1.00  0.00     0.015 C 
BRANCH  20  22
HETATM   22  C3  UNL     1      -5.478  48.410 -25.686  1.00  0.00    -0.026 C 
HETATM   23  C4  UNL     1      -6.679  47.895 -26.000  1.00  0.00    -0.027 C 
BRANCH  23  24
HETATM   24  C5  UNL     1      -7.942  48.175 -25.221  1.00  0.00     0.066 C 
BRANCH  24  25
HETATM   25  C6  UNL     1      -9.159  48.571 -26.094  1.00  0.00     0.078 C 
HETATM   26  C7  UNL     1      -8.896  48.384 -27.591  1.00  0.00     0.048 C 
BRANCH  25  27
HETATM   27  O1  UNL     1      -9.492  49.952 -25.848  1.00  0.00    -0.388 OA
HETATM   28  H12 UNL     1      -8.772  50.491 -26.220  1.00  0.00     0.210 HD
ENDBRANCH  25  27
BRANCH  25  29
HETATM   29  C8  UNL     1     -10.397  47.746 -25.684  1.00  0.00     0.201 C 
BRANCH  29  30
HETATM   30  O2  UNL     1     -11.584  48.334 -26.217  1.00  0.00    -0.398 OA
HETATM   31  H15 UNL     1     -11.359  48.540 -27.147  1.00  0.00     0.209 HD
ENDBRANCH  29  30
ENDBRANCH  25  29
ENDBRANCH  24  25
ENDBRANCH  23  24
ENDBRANCH  20  22
ENDBRANCH   1  20
BRANCH   2  32
HETATM   32  O3  UNL     1      -2.914  50.617 -27.202  1.00  0.00    -0.393 OA
HETATM   33  H18 UNL     1      -2.335  51.301 -27.579  1.00  0.00     0.210 HD
ENDBRANCH   2  32
BRANCH   3  34
HETATM   34  O4  UNL     1      -0.117  50.862 -25.394  1.00  0.00    -0.392 OA
HETATM   35  H20 UNL     1       0.019  51.407 -26.188  1.00  0.00     0.210 HD
ENDBRANCH   3  34
BRANCH  19  36
HETATM   36  O7  UNL     1      -2.594  51.825 -22.556  1.00  0.00    -0.389 OA
HETATM   37  H46 UNL     1      -2.207  52.529 -21.993  1.00  0.00     0.210 HD
ENDBRANCH  19  36
BRANCH  17  38
HETATM   38  O6  UNL     1      -0.860  53.055 -20.871  1.00  0.00    -0.395 OA
HETATM   39  H43 UNL     1      -0.640  53.493 -20.029  1.00  0.00     0.210 HD
ENDBRANCH  17  38
BRANCH  14  40
HETATM   40  O5  UNL     1      -1.322  50.850 -16.559  1.00  0.00    -0.396 OA
HETATM   41  H38 UNL     1      -1.514  50.184 -15.877  1.00  0.00     0.210 HD
ENDBRANCH  14  40
TORSDOF 12
ENDMDL
MODEL 5
REMARK minimizedAffinity -9.46187401
REMARK  12 active torsions:
REMARK  status: ('A' for Active; 'I' for Inactive)
REMARK    1  A    between atoms: C2_2  and  C3_3 
REMARK    2  A    between atoms: C2_2  and  C9_11 
REMARK    3  A    between atoms: C4_4  and  C5_5 
REMARK    4  A    between atoms: C5_5  and  C6_6 
REMARK    5  A    between atoms: C6_6  and  O1_8 
REMARK    6  A    between atoms: C6_6  and  C8_9 
REMARK    7  A    between atoms: C8_9  and  O2_10 
REMARK    8  A    between atoms: C10_12  and  O3_13 
REMARK    9  A    between atoms: C11_14  and  O4_15 
REMARK   10  A    between atoms: C22_26  and  O5_27 
REMARK   11  A    between atoms: C25_30  and  O6_31 
REMARK   12  A    between atoms: C27_33  and  O7_34 
ROOT
HETATM    1  C9  UNL     1      -0.446  50.402 -18.911  1.00  0.00     0.033 C 
HETATM    2  C10 UNL     1      -1.265  49.123 -18.530  1.00  0.00     0.152 C 
HETATM    3  C11 UNL     1      -2.124  48.761 -19.768  1.00  0.00     0.155 C 
HETATM    4  C12 UNL     1      -1.583  49.669 -20.867  1.00  0.00     0.060 C 
HETATM    5  C13 UNL     1      -1.262  50.997 -20.110  1.00  0.00    -0.028 C 
HETATM    6  C14 UNL     1      -2.490  51.780 -19.583  1.00  0.00     0.016 C 
HETATM    7  C15 UNL     1      -0.468  51.888 -21.085  1.00  0.00     0.011 C 
HETATM    8  C16 UNL     1      -1.204  52.100 -22.421  1.00  0.00     0.009 C 
HETATM    9  C17 UNL     1      -1.573  50.768 -23.118  1.00  0.00     0.029 C 
HETATM   10  C18 UNL     1      -2.167  50.947 -24.570  1.00  0.00    -0.031 C 
HETATM   11  C19 UNL     1      -3.394  51.894 -24.567  1.00  0.00     0.016 C 
HETATM   12  C20 UNL     1      -1.086  51.610 -25.500  1.00  0.00     0.012 C 
HETATM   13  C21 UNL     1      -0.914  50.958 -26.880  1.00  0.00     0.032 C 
HETATM   14  C22 UNL     1      -2.220  50.489 -27.508  1.00  0.00     0.118 C 
HETATM   15  C23 UNL     1      -3.049  49.593 -26.579  1.00  0.00     0.039 C 
HETATM   16  C24 UNL     1      -2.490  49.530 -25.144  1.00  0.00     0.025 C 
HETATM   17  C25 UNL     1      -3.345  48.642 -24.221  1.00  0.00     0.126 C 
HETATM   18  C26 UNL     1      -2.673  48.480 -22.853  1.00  0.00     0.071 C 
HETATM   19  C27 UNL     1      -2.404  49.836 -22.168  1.00  0.00     0.071 C 
ENDROOT
BRANCH   1  20
HETATM   20  C2  UNL     1      -0.071  51.306 -17.704  1.00  0.00     0.011 C 
HETATM   21  C1  UNL     1       0.817  52.497 -18.082  1.00  0.00     0.015 C 
BRANCH  20  22
HETATM   22  C3  UNL     1       0.565  50.468 -16.601  1.00  0.00    -0.026 C 
HETATM   23  C4  UNL     1       1.021  50.906 -15.415  1.00  0.00    -0.027 C 
BRANCH  23  24
HETATM   24  C5  UNL     1       1.639  50.009 -14.370  1.00  0.00     0.066 C 
BRANCH  24  25
HETATM   25  C6  UNL     1       2.896  50.598 -13.683  1.00  0.00     0.078 C 
HETATM   26  C7  UNL     1       2.550  51.622 -12.598  1.00  0.00     0.048 C 
BRANCH  25  27
HETATM   27  O1  UNL     1       3.727  51.234 -14.674  1.00  0.00    -0.388 OA
HETATM   28  H12 UNL     1       3.253  52.027 -14.980  1.00  0.00     0.210 HD
ENDBRANCH  25  27
BRANCH  25  29
HETATM   29  C8  UNL     1       3.745  49.465 -13.067  1.00  0.00     0.201 C 
BRANCH  29  30
HETATM   30  O2  UNL     1       5.126  49.658 -13.372  1.00  0.00    -0.398 OA
HETATM   31  H15 UNL     1       5.286  50.608 -13.195  1.00  0.00     0.209 HD
ENDBRANCH  29  30
ENDBRANCH  25  29
ENDBRANCH  24  25
ENDBRANCH  23  24
ENDBRANCH  20  22
ENDBRANCH   1  20
BRANCH   2  32
HETATM   32  O3  UNL     1      -2.114  49.340 -17.404  1.00  0.00    -0.393 OA
HETATM   33  H18 UNL     1      -2.625  48.526 -17.257  1.00  0.00     0.210 HD
ENDBRANCH   2  32
BRANCH   3  34
HETATM   34  O4  UNL     1      -1.941  47.387 -20.108  1.00  0.00    -0.392 OA
HETATM   35  H20 UNL     1      -2.369  46.859 -19.413  1.00  0.00     0.210 HD
ENDBRANCH   3  34
BRANCH  19  36
HETATM   36  O7  UNL     1      -3.660  50.421 -21.829  1.00  0.00    -0.389 OA
HETATM   37  H46 UNL     1      -4.318  50.109 -22.487  1.00  0.00     0.210 HD
ENDBRANCH  19  36
BRANCH  17  38
HETATM   38  O6  UNL     1      -4.654  49.165 -24.018  1.00  0.00    -0.395 OA
HETATM   39  H43 UNL     1      -5.114  49.164 -24.878  1.00  0.00     0.210 HD
ENDBRANCH  17  38
BRANCH  14  40
HETATM   40  O5  UNL     1      -3.008  51.615 -27.886  1.00  0.00    -0.396 OA
HETATM   41  H38 UNL     1      -2.463  52.183 -28.457  1.00  0.00     0.210 HD
ENDBRANCH  14  40
TORSDOF 12
ENDMDL
MODEL 6
REMARK minimizedAffinity -9.30333805
REMARK  12 active torsions:
REMARK  status: ('A' for Active; 'I' for Inactive)
REMARK    1  A    between atoms: C2_2  and  C3_3 
REMARK    2  A    between atoms: C2_2  and  C9_11 
REMARK    3  A    between atoms: C4_4  and  C5_5 
REMARK    4  A    between atoms: C5_5  and  C6_6 
REMARK    5  A    between atoms: C6_6  and  O1_8 
REMARK    6  A    between atoms: C6_6  and  C8_9 
REMARK    7  A    between atoms: C8_9  and  O2_10 
REMARK    8  A    between atoms: C10_12  and  O3_13 
REMARK    9  A    between atoms: C11_14  and  O4_15 
REMARK   10  A    between atoms: C22_26  and  O5_27 
REMARK   11  A    between atoms: C25_30  and  O6_31 
REMARK   12  A    between atoms: C27_33  and  O7_34 
ROOT
HETATM    1  C9  UNL     1      -1.935  50.046 -25.503  1.00  0.00     0.033 C 
HETATM    2  C10 UNL     1      -1.097  51.342 -25.241  1.00  0.00     0.152 C 
HETATM    3  C11 UNL     1      -1.226  51.656 -23.728  1.00  0.00     0.155 C 
HETATM    4  C12 UNL     1      -1.900  50.415 -23.154  1.00  0.00     0.060 C 
HETATM    5  C13 UNL     1      -2.907  50.002 -24.274  1.00  0.00    -0.028 C 
HETATM    6  C14 UNL     1      -4.094  50.972 -24.498  1.00  0.00     0.016 C 
HETATM    7  C15 UNL     1      -3.450  48.610 -23.898  1.00  0.00     0.011 C 
HETATM    8  C16 UNL     1      -4.053  48.576 -22.482  1.00  0.00     0.009 C 
HETATM    9  C17 UNL     1      -3.058  49.056 -21.397  1.00  0.00     0.029 C 
HETATM   10  C18 UNL     1      -3.580  48.865 -19.919  1.00  0.00    -0.031 C 
HETATM   11  C19 UNL     1      -4.953  49.552 -19.711  1.00  0.00     0.016 C 
HETATM   12  C20 UNL     1      -3.793  47.334 -19.632  1.00  0.00     0.012 C 
HETATM   13  C21 UNL     1      -3.235  46.831 -18.292  1.00  0.00     0.032 C 
HETATM   14  C22 UNL     1      -3.411  47.815 -17.142  1.00  0.00     0.118 C 
HETATM   15  C23 UNL     1      -2.881  49.218 -17.463  1.00  0.00     0.039 C 
HETATM   16  C24 UNL     1      -2.480  49.389 -18.941  1.00  0.00     0.025 C 
HETATM   17  C25 UNL     1      -1.969  50.809 -19.249  1.00  0.00     0.126 C 
HETATM   18  C26 UNL     1      -1.437  50.892 -20.683  1.00  0.00     0.071 C 
HETATM   19  C27 UNL     1      -2.496  50.482 -21.728  1.00  0.00     0.071 C 
ENDROOT
BRANCH   1  20
HETATM   20  C2  UNL     1      -2.502  49.931 -26.945  1.00  0.00     0.011 C 
HETATM   21  C1  UNL     1      -2.942  51.274 -27.540  1.00  0.00     0.015 C 
BRANCH  20  22
HETATM   22  C3  UNL     1      -3.632  48.910 -26.985  1.00  0.00    -0.026 C 
HETATM   23  C4  UNL     1      -4.484  48.686 -28.000  1.00  0.00    -0.027 C 
BRANCH  23  24
HETATM   24  C5  UNL     1      -5.581  47.650 -27.962  1.00  0.00     0.066 C 
BRANCH  24  25
HETATM   25  C6  UNL     1      -6.599  47.752 -29.125  1.00  0.00     0.078 C 
HETATM   26  C7  UNL     1      -6.613  46.502 -30.008  1.00  0.00     0.048 C 
BRANCH  25  27
HETATM   27  O1  UNL     1      -6.275  48.896 -29.942  1.00  0.00    -0.388 OA
HETATM   28  H12 UNL     1      -5.440  48.694 -30.399  1.00  0.00     0.210 HD
ENDBRANCH  25  27
BRANCH  25  29
HETATM   29  C8  UNL     1      -8.017  48.004 -28.570  1.00  0.00     0.201 C 
BRANCH  29  30
HETATM   30  O2  UNL     1      -8.469  49.308 -28.935  1.00  0.00    -0.398 OA
HETATM   31  H15 UNL     1      -8.240  49.391 -29.883  1.00  0.00     0.209 HD
ENDBRANCH  29  30
ENDBRANCH  25  29
ENDBRANCH  24  25
ENDBRANCH  23  24
ENDBRANCH  20  22
ENDBRANCH   1  20
BRANCH   2  32
HETATM   32  O3  UNL     1      -1.566  52.454 -26.003  1.00  0.00    -0.393 OA
HETATM   33  H18 UNL     1      -1.036  53.230 -25.753  1.00  0.00     0.210 HD
ENDBRANCH   2  32
BRANCH   3  34
HETATM   34  O4  UNL     1       0.067  51.843 -23.154  1.00  0.00    -0.392 OA
HETATM   35  H20 UNL     1       0.415  52.684 -23.498  1.00  0.00     0.210 HD
ENDBRANCH   3  34
BRANCH  19  36
HETATM   36  O7  UNL     1      -3.529  51.465 -21.723  1.00  0.00    -0.389 OA
HETATM   37  H46 UNL     1      -3.575  51.842 -20.818  1.00  0.00     0.210 HD
ENDBRANCH  19  36
BRANCH  17  38
HETATM   38  O6  UNL     1      -2.980  51.800 -19.088  1.00  0.00    -0.395 OA
HETATM   39  H43 UNL     1      -3.238  51.815 -18.148  1.00  0.00     0.210 HD
ENDBRANCH  17  38
BRANCH  14  40
HETATM   40  O5  UNL     1      -4.789  47.911 -16.793  1.00  0.00    -0.396 OA
HETATM   41  H38 UNL     1      -5.114  47.012 -16.612  1.00  0.00     0.210 HD
ENDBRANCH  14  40
TORSDOF 12
ENDMDL
MODEL 7
REMARK minimizedAffinity -9.21002007
REMARK  12 active torsions:
REMARK  status: ('A' for Active; 'I' for Inactive)
REMARK    1  A    between atoms: C2_2  and  C3_3 
REMARK    2  A    between atoms: C2_2  and  C9_11 
REMARK    3  A    between atoms: C4_4  and  C5_5 
REMARK    4  A    between atoms: C5_5  and  C6_6 
REMARK    5  A    between atoms: C6_6  and  O1_8 
REMARK    6  A    between atoms: C6_6  and  C8_9 
REMARK    7  A    between atoms: C8_9  and  O2_10 
REMARK    8  A    between atoms: C10_12  and  O3_13 
REMARK    9  A    between atoms: C11_14  and  O4_15 
REMARK   10  A    between atoms: C22_26  and  O5_27 
REMARK   11  A    between atoms: C25_30  and  O6_31 
REMARK   12  A    between atoms: C27_33  and  O7_34 
ROOT
HETATM    1  C9  UNL     1      -0.588  50.943 -21.583  1.00  0.00     0.033 C 
HETATM    2  C10 UNL     1      -0.784  51.532 -20.145  1.00  0.00     0.152 C 
HETATM    3  C11 UNL     1      -2.273  51.312 -19.775  1.00  0.00     0.155 C 
HETATM    4  C12 UNL     1      -2.793  50.397 -20.878  1.00  0.00     0.060 C 
HETATM    5  C13 UNL     1      -2.048  50.911 -22.151  1.00  0.00    -0.028 C 
HETATM    6  C14 UNL     1      -2.459  52.321 -22.643  1.00  0.00     0.016 C 
HETATM    7  C15 UNL     1      -2.310  49.884 -23.269  1.00  0.00     0.011 C 
HETATM    8  C16 UNL     1      -3.812  49.628 -23.493  1.00  0.00     0.009 C 
HETATM    9  C17 UNL     1      -4.542  49.187 -22.201  1.00  0.00     0.029 C 
HETATM   10  C18 UNL     1      -6.040  48.744 -22.430  1.00  0.00    -0.031 C 
HETATM   11  C19 UNL     1      -6.856  49.854 -23.140  1.00  0.00     0.016 C 
HETATM   12  C20 UNL     1      -6.076  47.485 -23.371  1.00  0.00     0.012 C 
HETATM   13  C21 UNL     1      -7.000  46.346 -22.915  1.00  0.00     0.032 C 
HETATM   14  C22 UNL     1      -8.307  46.825 -22.295  1.00  0.00     0.118 C 
HETATM   15  C23 UNL     1      -8.103  47.848 -21.170  1.00  0.00     0.039 C 
HETATM   16  C24 UNL     1      -6.643  48.329 -21.050  1.00  0.00     0.025 C 
HETATM   17  C25 UNL     1      -6.461  49.370 -19.930  1.00  0.00     0.126 C 
HETATM   18  C26 UNL     1      -4.977  49.705 -19.741  1.00  0.00     0.071 C 
HETATM   19  C27 UNL     1      -4.321  50.217 -21.039  1.00  0.00     0.071 C 
ENDROOT
BRANCH   1  20
HETATM   20  C2  UNL     1       0.550  51.615 -22.400  1.00  0.00     0.011 C 
HETATM   21  C1  UNL     1       1.406  52.585 -21.577  1.00  0.00     0.015 C 
BRANCH  20  22
HETATM   22  C3  UNL     1      -0.025  52.295 -23.637  1.00  0.00    -0.026 C 
HETATM   23  C4  UNL     1       0.613  52.541 -24.794  1.00  0.00    -0.027 C 
BRANCH  23  24
HETATM   24  C5  UNL     1      -0.030  53.221 -25.978  1.00  0.00     0.066 C 
BRANCH  24  25
HETATM   25  C6  UNL     1      -0.069  52.361 -27.266  1.00  0.00     0.078 C 
HETATM   26  C7  UNL     1       1.300  51.781 -27.631  1.00  0.00     0.048 C 
BRANCH  25  27
HETATM   27  O1  UNL     1      -0.541  53.169 -28.364  1.00  0.00    -0.388 OA
HETATM   28  H12 UNL     1       0.155  53.822 -28.558  1.00  0.00     0.210 HD
ENDBRANCH  25  27
BRANCH  25  29
HETATM   29  C8  UNL     1      -1.087  51.211 -27.107  1.00  0.00     0.201 C 
BRANCH  29  30
HETATM   30  O2  UNL     1      -2.055  51.256 -28.154  1.00  0.00    -0.398 OA
HETATM   31  H15 UNL     1      -1.531  51.401 -28.968  1.00  0.00     0.209 HD
ENDBRANCH  29  30
ENDBRANCH  25  29
ENDBRANCH  24  25
ENDBRANCH  23  24
ENDBRANCH  20  22
ENDBRANCH   1  20
BRANCH   2  32
HETATM   32  O3  UNL     1      -0.475  52.924 -20.084  1.00  0.00    -0.393 OA
HETATM   33  H18 UNL     1      -0.667  53.231 -19.181  1.00  0.00     0.210 HD
ENDBRANCH   2  32
BRANCH   3  34
HETATM   34  O4  UNL     1      -2.372  50.678 -18.500  1.00  0.00    -0.392 OA
HETATM   35  H20 UNL     1      -2.100  51.330 -17.832  1.00  0.00     0.210 HD
ENDBRANCH   3  34
BRANCH  19  36
HETATM   36  O7  UNL     1      -4.888  51.488 -21.353  1.00  0.00    -0.389 OA
HETATM   37  H46 UNL     1      -5.805  51.496 -21.003  1.00  0.00     0.210 HD
ENDBRANCH  19  36
BRANCH  17  38
HETATM   38  O6  UNL     1      -7.164  50.582 -20.188  1.00  0.00    -0.395 OA
HETATM   39  H43 UNL     1      -8.117  50.378 -20.201  1.00  0.00     0.210 HD
ENDBRANCH  17  38
BRANCH  14  40
HETATM   40  O5  UNL     1      -9.137  47.403 -23.298  1.00  0.00    -0.396 OA
HETATM   41  H38 UNL     1      -9.241  46.750 -24.012  1.00  0.00     0.210 HD
ENDBRANCH  14  40
TORSDOF 12
ENDMDL
MODEL 8
REMARK minimizedAffinity -9.1181345
REMARK  12 active torsions:
REMARK  status: ('A' for Active; 'I' for Inactive)
REMARK    1  A    between atoms: C2_2  and  C3_3 
REMARK    2  A    between atoms: C2_2  and  C9_11 
REMARK    3  A    between atoms: C4_4  and  C5_5 
REMARK    4  A    between atoms: C5_5  and  C6_6 
REMARK    5  A    between atoms: C6_6  and  O1_8 
REMARK    6  A    between atoms: C6_6  and  C8_9 
REMARK    7  A    between atoms: C8_9  and  O2_10 
REMARK    8  A    between atoms: C10_12  and  O3_13 
REMARK    9  A    between atoms: C11_14  and  O4_15 
REMARK   10  A    between atoms: C22_26  and  O5_27 
REMARK   11  A    between atoms: C25_30  and  O6_31 
REMARK   12  A    between atoms: C27_33  and  O7_34 
ROOT
HETATM    1  C9  UNL     1      -2.334  51.556 -22.641  1.00  0.00     0.033 C 
HETATM    2  C10 UNL     1      -2.964  51.688 -24.068  1.00  0.00     0.152 C 
HETATM    3  C11 UNL     1      -4.283  50.873 -24.048  1.00  0.00     0.155 C 
HETATM    4  C12 UNL     1      -4.480  50.533 -22.574  1.00  0.00     0.060 C 
HETATM    5  C13 UNL     1      -3.025  50.271 -22.069  1.00  0.00    -0.028 C 
HETATM    6  C14 UNL     1      -2.340  49.002 -22.632  1.00  0.00     0.016 C 
HETATM    7  C15 UNL     1      -3.095  50.175 -20.533  1.00  0.00     0.011 C 
HETATM    8  C16 UNL     1      -4.114  49.125 -20.054  1.00  0.00     0.009 C 
HETATM    9  C17 UNL     1      -5.533  49.366 -20.625  1.00  0.00     0.029 C 
HETATM   10  C18 UNL     1      -6.639  48.417 -20.016  1.00  0.00    -0.031 C 
HETATM   11  C19 UNL     1      -6.256  46.924 -20.178  1.00  0.00     0.016 C 
HETATM   12  C20 UNL     1      -6.767  48.685 -18.472  1.00  0.00     0.012 C 
HETATM   13  C21 UNL     1      -8.202  48.817 -17.942  1.00  0.00     0.032 C 
HETATM   14  C22 UNL     1      -9.191  47.860 -18.595  1.00  0.00     0.118 C 
HETATM   15  C23 UNL     1      -9.166  47.919 -20.128  1.00  0.00     0.039 C 
HETATM   16  C24 UNL     1      -8.008  48.773 -20.680  1.00  0.00     0.025 C 
HETATM   17  C25 UNL     1      -7.986  48.805 -22.220  1.00  0.00     0.126 C 
HETATM   18  C26 UNL     1      -6.922  49.785 -22.724  1.00  0.00     0.071 C 
HETATM   19  C27 UNL     1      -5.514  49.448 -22.191  1.00  0.00     0.071 C 
ENDROOT
BRANCH   1  20
HETATM   20  C2  UNL     1      -0.786  51.683 -22.611  1.00  0.00     0.011 C 
HETATM   21  C1  UNL     1      -0.250  52.362 -21.345  1.00  0.00     0.015 C 
BRANCH  20  22
HETATM   22  C3  UNL     1      -0.293  52.389 -23.869  1.00  0.00    -0.026 C 
HETATM   23  C4  UNL     1       0.757  52.042 -24.632  1.00  0.00    -0.027 C 
BRANCH  23  24
HETATM   24  C5  UNL     1       1.181  52.795 -25.869  1.00  0.00     0.066 C 
BRANCH  24  25
HETATM   25  C6  UNL     1       0.858  52.072 -27.201  1.00  0.00     0.078 C 
HETATM   26  C7  UNL     1      -0.154  52.838 -28.057  1.00  0.00     0.048 C 
BRANCH  25  27
HETATM   27  O1  UNL     1       0.331  50.761 -26.915  1.00  0.00    -0.388 OA
HETATM   28  H12 UNL     1      -0.548  50.887 -26.516  1.00  0.00     0.210 HD
ENDBRANCH  25  27
BRANCH  25  29
HETATM   29  C8  UNL     1       2.153  51.851 -28.012  1.00  0.00     0.201 C 
BRANCH  29  30
HETATM   30  O2  UNL     1       3.213  51.436 -27.152  1.00  0.00    -0.398 OA
HETATM   31  H15 UNL     1       2.812  50.749 -26.581  1.00  0.00     0.209 HD
ENDBRANCH  29  30
ENDBRANCH  25  29
ENDBRANCH  24  25
ENDBRANCH  23  24
ENDBRANCH  20  22
ENDBRANCH   1  20
BRANCH   2  32
HETATM   32  O3  UNL     1      -2.104  51.182 -25.089  1.00  0.00    -0.393 OA
HETATM   33  H18 UNL     1      -2.578  51.249 -25.935  1.00  0.00     0.210 HD
ENDBRANCH   2  32
BRANCH   3  34
HETATM   34  O4  UNL     1      -5.360  51.672 -24.533  1.00  0.00    -0.392 OA
HETATM   35  H20 UNL     1      -5.222  51.794 -25.488  1.00  0.00     0.210 HD
ENDBRANCH   3  34
BRANCH  19  36
HETATM   36  O7  UNL     1      -5.100  48.214 -22.774  1.00  0.00    -0.389 OA
HETATM   37  H46 UNL     1      -5.908  47.684 -22.948  1.00  0.00     0.210 HD
ENDBRANCH  19  36
BRANCH  17  38
HETATM   38  O6  UNL     1      -7.724  47.526 -22.790  1.00  0.00    -0.395 OA
HETATM   39  H43 UNL     1      -8.462  46.935 -22.553  1.00  0.00     0.210 HD
ENDBRANCH  17  38
BRANCH  14  40
HETATM   40  O5  UNL     1      -8.918  46.524 -18.181  1.00  0.00    -0.396 OA
HETATM   41  H38 UNL     1      -8.918  46.507 -17.209  1.00  0.00     0.210 HD
ENDBRANCH  14  40
TORSDOF 12
ENDMDL
MODEL 9
REMARK minimizedAffinity -9.0686655
REMARK  12 active torsions:
REMARK  status: ('A' for Active; 'I' for Inactive)
REMARK    1  A    between atoms: C2_2  and  C3_3 
REMARK    2  A    between atoms: C2_2  and  C9_11 
REMARK    3  A    between atoms: C4_4  and  C5_5 
REMARK    4  A    between atoms: C5_5  and  C6_6 
REMARK    5  A    between atoms: C6_6  and  O1_8 
REMARK    6  A    between atoms: C6_6  and  C8_9 
REMARK    7  A    between atoms: C8_9  and  O2_10 
REMARK    8  A    between atoms: C10_12  and  O3_13 
REMARK    9  A    between atoms: C11_14  and  O4_15 
REMARK   10  A    between atoms: C22_26  and  O5_27 
REMARK   11  A    between atoms: C25_30  and  O6_31 
REMARK   12  A    between atoms: C27_33  and  O7_34 
ROOT
HETATM    1  C9  UNL     1      -0.728  50.482 -21.882  1.00  0.00     0.033 C 
HETATM    2  C10 UNL     1      -0.437  49.569 -20.644  1.00  0.00     0.152 C 
HETATM    3  C11 UNL     1      -1.716  48.727 -20.403  1.00  0.00     0.155 C 
HETATM    4  C12 UNL     1      -2.569  48.996 -21.637  1.00  0.00     0.060 C 
HETATM    5  C13 UNL     1      -2.294  50.503 -21.941  1.00  0.00    -0.028 C 
HETATM    6  C14 UNL     1      -2.853  51.508 -20.904  1.00  0.00     0.016 C 
HETATM    7  C15 UNL     1      -2.909  50.801 -23.323  1.00  0.00     0.011 C 
HETATM    8  C16 UNL     1      -4.397  50.416 -23.400  1.00  0.00     0.009 C 
HETATM    9  C17 UNL     1      -4.652  48.935 -23.027  1.00  0.00     0.029 C 
HETATM   10  C18 UNL     1      -6.138  48.460 -23.268  1.00  0.00    -0.031 C 
HETATM   11  C19 UNL     1      -7.150  49.369 -22.525  1.00  0.00     0.016 C 
HETATM   12  C20 UNL     1      -6.479  48.561 -24.799  1.00  0.00     0.012 C 
HETATM   13  C21 UNL     1      -7.192  47.339 -25.398  1.00  0.00     0.032 C 
HETATM   14  C22 UNL     1      -8.220  46.708 -24.467  1.00  0.00     0.118 C 
HETATM   15  C23 UNL     1      -7.658  46.386 -23.077  1.00  0.00     0.039 C 
HETATM   16  C24 UNL     1      -6.245  46.958 -22.849  1.00  0.00     0.025 C 
HETATM   17  C25 UNL     1      -5.705  46.643 -21.442  1.00  0.00     0.126 C 
HETATM   18  C26 UNL     1      -4.245  47.091 -21.311  1.00  0.00     0.071 C 
HETATM   19  C27 UNL     1      -4.062  48.592 -21.614  1.00  0.00     0.071 C 
ENDROOT
BRANCH   1  20
HETATM   20  C2  UNL     1       0.068  51.816 -21.894  1.00  0.00     0.011 C 
HETATM   21  C1  UNL     1      -0.076  52.628 -20.601  1.00  0.00     0.015 C 
BRANCH  20  22
HETATM   22  C3  UNL     1      -0.316  52.644 -23.114  1.00  0.00    -0.026 C 
HETATM   23  C4  UNL     1       0.399  52.802 -24.241  1.00  0.00    -0.027 C 
BRANCH  23  24
HETATM   24  C5  UNL     1      -0.053  53.642 -25.411  1.00  0.00     0.066 C 
BRANCH  24  25
HETATM   25  C6  UNL     1       0.025  52.924 -26.782  1.00  0.00     0.078 C 
HETATM   26  C7  UNL     1      -0.811  51.642 -26.825  1.00  0.00     0.048 C 
BRANCH  25  27
HETATM   27  O1  UNL     1       1.399  52.594 -27.069  1.00  0.00    -0.388 OA
HETATM   28  H12 UNL     1       1.663  51.898 -26.442  1.00  0.00     0.210 HD
ENDBRANCH  25  27
BRANCH  25  29
HETATM   29  C8  UNL     1      -0.436  53.876 -27.907  1.00  0.00     0.201 C 
BRANCH  29  30
HETATM   30  O2  UNL     1      -1.834  53.719 -28.147  1.00  0.00    -0.398 OA
HETATM   31  H15 UNL     1      -2.237  53.706 -27.255  1.00  0.00     0.209 HD
ENDBRANCH  29  30
ENDBRANCH  25  29
ENDBRANCH  24  25
ENDBRANCH  23  24
ENDBRANCH  20  22
ENDBRANCH   1  20
BRANCH   2  32
HETATM   32  O3  UNL     1      -0.133  50.325 -19.472  1.00  0.00    -0.393 OA
HETATM   33  H18 UNL     1      -0.015  49.699 -18.738  1.00  0.00     0.210 HD
ENDBRANCH   2  32
BRANCH   3  34
HETATM   34  O4  UNL     1      -1.381  47.343 -20.309  1.00  0.00    -0.392 OA
HETATM   35  H20 UNL     1      -0.905  47.218 -19.470  1.00  0.00     0.210 HD
ENDBRANCH   3  34
BRANCH  19  36
HETATM   36  O7  UNL     1      -4.708  49.336 -20.583  1.00  0.00    -0.389 OA
HETATM   37  H46 UNL     1      -5.457  48.794 -20.252  1.00  0.00     0.210 HD
ENDBRANCH  19  36
BRANCH  17  38
HETATM   38  O6  UNL     1      -6.461  47.273 -20.412  1.00  0.00    -0.395 OA
HETATM   39  H43 UNL     1      -7.362  46.903 -20.433  1.00  0.00     0.210 HD
ENDBRANCH  17  38
BRANCH  14  40
HETATM   40  O5  UNL     1      -9.341  47.576 -24.322  1.00  0.00    -0.396 OA
HETATM   41  H38 UNL     1      -9.673  47.786 -25.211  1.00  0.00     0.210 HD
ENDBRANCH  14  40
TORSDOF 12
ENDMDL
