MODEL 1
REMARK minimizedAffinity -9.20041752
REMARK CNNscore 0.507039785
REMARK CNNaffinity 7.0232811
REMARK  11 active torsions:
REMARK  status: ('A' for Active; 'I' for Inactive)
REMARK    1  A    between atoms: C19_20  and  O2_21 
REMARK    2  A    between atoms: C19_20  and  C20_22 
REMARK    3  A    between atoms: C20_22  and  C21_24 
REMARK    4  A    between atoms: C21_24  and  O4_25 
REMARK    5  A    between atoms: O4_25  and  C22_26 
REMARK    6  A    between atoms: C22_26  and  C23_28 
REMARK    7  A    between atoms: C23_28  and  C24_29 
REMARK    8  A    between atoms: C24_29  and  C25_30 
REMARK       I    between atoms: C25_30  and  N1_32 
REMARK    9  A    between atoms: N1_32  and  C26_33 
REMARK   10  A    between atoms: C26_33  and  C27_34 
REMARK   11  A    between atoms: C27_34  and  C28_35 
ROOT
HETATM    1  C1  UNL     1      -4.278  47.909 -22.607  1.00  0.00     0.020 C 
HETATM    2  C2  UNL     1      -4.771  49.177 -23.362  1.00  0.00    -0.016 C 
HETATM    3  C3  UNL     1      -5.842  49.867 -22.470  1.00  0.00     0.022 C 
HETATM    4  C4  UNL     1      -7.074  48.997 -22.232  1.00  0.00     0.084 C 
HETATM    5  C5  UNL     1      -7.635  48.476 -23.535  1.00  0.00     0.149 C 
HETATM    6  O1  UNL     1      -8.784  48.050 -23.622  1.00  0.00    -0.293 OA
HETATM    7  C6  UNL     1      -6.756  48.443 -24.730  1.00  0.00     0.053 C 
HETATM    8  C7  UNL     1      -5.450  48.765 -24.665  1.00  0.00    -0.068 C 
HETATM    9  C8  UNL     1      -4.609  48.735 -25.915  1.00  0.00     0.035 C 
HETATM   10  C9  UNL     1      -3.145  48.455 -25.612  1.00  0.00     0.010 C 
HETATM   11  C10 UNL     1      -2.521  49.515 -24.678  1.00  0.00    -0.004 C 
HETATM   12  C11 UNL     1      -3.529  50.110 -23.622  1.00  0.00     0.002 C 
HETATM   13  C12 UNL     1      -3.878  51.582 -23.955  1.00  0.00     0.007 C 
HETATM   14  C13 UNL     1      -2.654  52.513 -24.047  1.00  0.00     0.013 C 
HETATM   15  C14 UNL     1      -1.408  51.850 -24.672  1.00  0.00    -0.002 C 
HETATM   16  C15 UNL     1      -0.433  51.453 -23.530  1.00  0.00     0.019 C 
HETATM   17  C16 UNL     1      -1.861  50.635 -25.510  1.00  0.00     0.002 C 
HETATM   18  C17 UNL     1      -0.612  50.263 -26.311  1.00  0.00     0.009 C 
HETATM   19  C18 UNL     1       0.109  51.602 -26.573  1.00  0.00     0.047 C 
HETATM   20  C19 UNL     1      -0.659  52.676 -25.767  1.00  0.00     0.128 C 
ENDROOT
BRANCH  20  21
HETATM   21  O2  UNL     1      -1.591  53.254 -26.693  1.00  0.00    -0.381 OA
HETATM   22  H27 UNL     1      -1.987  54.034 -26.257  1.00  0.00     0.211 HD
ENDBRANCH  20  21
BRANCH  20  23
HETATM   23  C20 UNL     1       0.157  53.852 -25.193  1.00  0.00     0.185 C 
HETATM   24  O3  UNL     1       0.100  54.956 -25.749  1.00  0.00    -0.292 OA
BRANCH  23  25
HETATM   25  C21 UNL     1       1.004  53.614 -23.946  1.00  0.00     0.260 C 
BRANCH  25  26
HETATM   26  O4  UNL     1       0.826  54.572 -22.906  1.00  0.00    -0.314 OA
BRANCH  26  27
HETATM   27  C22 UNL     1       1.306  54.206 -21.681  1.00  0.00     0.259 C 
HETATM   28  O5  UNL     1       2.432  54.440 -21.270  1.00  0.00    -0.265 OA
BRANCH  27  29
HETATM   29  C23 UNL     1       0.250  53.402 -20.958  1.00  0.00     0.120 C 
BRANCH  29  30
HETATM   30  C24 UNL     1       0.186  53.757 -19.478  1.00  0.00     0.112 C 
BRANCH  30  31
HETATM   31  C25 UNL     1       0.685  52.621 -18.612  1.00  0.00     0.218 C 
HETATM   32  O6  UNL     1       0.418  51.446 -18.821  1.00  0.00    -0.274 OA
HETATM   33  N1  UNL     1       1.486  53.044 -17.575  1.00  0.00    -0.361 N 
HETATM   34  H34 UNL     1       1.423  54.021 -17.306  1.00  0.00     0.162 HD
BRANCH  33  35
HETATM   35  C26 UNL     1       1.899  52.121 -16.531  1.00  0.00     0.128 C 
BRANCH  35  36
HETATM   36  C27 UNL     1       0.731  51.615 -15.671  1.00  0.00     0.078 C 
BRANCH  36  37
HETATM   37  C28 UNL     1       0.750  50.136 -15.489  1.00  0.00     0.027 A 
HETATM   38  C29 UNL     1       0.234  49.099 -16.235  1.00  0.00     0.114 A 
HETATM   39  N2  UNL     1       0.517  47.890 -15.653  1.00  0.00    -0.360 N 
HETATM   40  C30 UNL     1       1.182  48.177 -14.555  1.00  0.00     0.180 A 
ATOM     41  H2  UNL     1       0.266  46.964 -15.999  1.00  0.00     0.166 HD
HETATM   42  N3  UNL     1       1.369  49.524 -14.422  1.00  0.00    -0.355 N 
HETATM   43  H41 UNL     1       1.903  49.973 -13.683  1.00  0.00     0.166 HD
ENDBRANCH  36  37
ENDBRANCH  35  36
ENDBRANCH  33  35
ENDBRANCH  30  31
ENDBRANCH  29  30
ENDBRANCH  27  29
ENDBRANCH  26  27
ENDBRANCH  25  26
ENDBRANCH  23  25
ENDBRANCH  20  23
TORSDOF 11
ENDMDL
MODEL 2
REMARK minimizedAffinity -8.47855759
REMARK CNNscore 0.467235446
REMARK CNNaffinity 7.62033987
REMARK  11 active torsions:
REMARK  status: ('A' for Active; 'I' for Inactive)
REMARK    1  A    between atoms: C19_20  and  O2_21 
REMARK    2  A    between atoms: C19_20  and  C20_22 
REMARK    3  A    between atoms: C20_22  and  C21_24 
REMARK    4  A    between atoms: C21_24  and  O4_25 
REMARK    5  A    between atoms: O4_25  and  C22_26 
REMARK    6  A    between atoms: C22_26  and  C23_28 
REMARK    7  A    between atoms: C23_28  and  C24_29 
REMARK    8  A    between atoms: C24_29  and  C25_30 
REMARK       I    between atoms: C25_30  and  N1_32 
REMARK    9  A    between atoms: N1_32  and  C26_33 
REMARK   10  A    between atoms: C26_33  and  C27_34 
REMARK   11  A    between atoms: C27_34  and  C28_35 
ROOT
HETATM    1  C1  UNL     1       0.176  50.007 -20.707  1.00  0.00     0.020 C 
HETATM    2  C2  UNL     1      -0.934  51.077 -20.913  1.00  0.00    -0.016 C 
HETATM    3  C3  UNL     1      -0.557  51.910 -22.171  1.00  0.00     0.022 C 
HETATM    4  C4  UNL     1       0.757  52.673 -22.012  1.00  0.00     0.084 C 
HETATM    5  C5  UNL     1       0.765  53.487 -20.739  1.00  0.00     0.149 C 
HETATM    6  O1  UNL     1       1.548  54.418 -20.569  1.00  0.00    -0.293 OA
HETATM    7  C6  UNL     1      -0.174  53.121 -19.649  1.00  0.00     0.053 C 
HETATM    8  C7  UNL     1      -0.957  52.028 -19.719  1.00  0.00    -0.068 C 
HETATM    9  C8  UNL     1      -1.908  51.716 -18.593  1.00  0.00     0.035 C 
HETATM   10  C9  UNL     1      -2.189  50.225 -18.479  1.00  0.00     0.010 C 
HETATM   11  C10 UNL     1      -2.812  49.640 -19.765  1.00  0.00    -0.004 C 
HETATM   12  C11 UNL     1      -2.311  50.332 -21.091  1.00  0.00     0.002 C 
HETATM   13  C12 UNL     1      -3.434  51.182 -21.734  1.00  0.00     0.007 C 
HETATM   14  C13 UNL     1      -4.720  50.392 -22.046  1.00  0.00     0.013 C 
HETATM   15  C14 UNL     1      -5.066  49.317 -20.994  1.00  0.00    -0.002 C 
HETATM   16  C15 UNL     1      -4.637  47.929 -21.546  1.00  0.00     0.019 C 
HETATM   17  C16 UNL     1      -4.353  49.669 -19.671  1.00  0.00     0.002 C 
HETATM   18  C17 UNL     1      -5.006  48.737 -18.649  1.00  0.00     0.009 C 
HETATM   19  C18 UNL     1      -6.462  48.572 -19.131  1.00  0.00     0.047 C 
HETATM   20  C19 UNL     1      -6.549  49.275 -20.506  1.00  0.00     0.128 C 
ENDROOT
BRANCH  20  21
HETATM   21  O2  UNL     1      -7.028  50.600 -20.227  1.00  0.00    -0.381 OA
HETATM   22  H27 UNL     1      -7.234  51.020 -21.085  1.00  0.00     0.211 HD
ENDBRANCH  20  21
BRANCH  20  23
HETATM   23  C20 UNL     1      -7.519  48.682 -21.547  1.00  0.00     0.185 C 
HETATM   24  O3  UNL     1      -8.173  47.671 -21.258  1.00  0.00    -0.292 OA
BRANCH  23  25
HETATM   25  C21 UNL     1      -7.646  49.370 -22.903  1.00  0.00     0.260 C 
BRANCH  25  26
HETATM   26  O4  UNL     1      -8.121  48.539 -23.959  1.00  0.00    -0.314 OA
BRANCH  26  27
HETATM   27  C22 UNL     1      -7.174  48.117 -24.847  1.00  0.00     0.259 C 
HETATM   28  O5  UNL     1      -7.252  47.109 -25.531  1.00  0.00    -0.265 OA
BRANCH  27  29
HETATM   29  C23 UNL     1      -5.987  49.053 -24.782  1.00  0.00     0.120 C 
BRANCH  29  30
HETATM   30  C24 UNL     1      -4.758  48.450 -25.449  1.00  0.00     0.112 C 
BRANCH  30  31
HETATM   31  C25 UNL     1      -3.688  49.494 -25.690  1.00  0.00     0.218 C 
HETATM   32  O6  UNL     1      -2.824  49.774 -24.870  1.00  0.00    -0.274 OA
HETATM   33  N1  UNL     1      -3.775  50.081 -26.931  1.00  0.00    -0.361 N 
HETATM   34  H34 UNL     1      -4.661  50.007 -27.421  1.00  0.00     0.162 HD
BRANCH  33  35
HETATM   35  C26 UNL     1      -2.956  51.235 -27.267  1.00  0.00     0.128 C 
BRANCH  35  36
HETATM   36  C27 UNL     1      -1.458  50.909 -27.357  1.00  0.00     0.078 C 
BRANCH  36  37
HETATM   37  C28 UNL     1      -0.606  51.939 -26.699  1.00  0.00     0.027 A 
HETATM   38  C29 UNL     1       0.749  52.188 -26.735  1.00  0.00     0.114 A 
HETATM   39  N2  UNL     1       1.069  53.268 -25.954  1.00  0.00    -0.360 N 
HETATM   40  C30 UNL     1      -0.068  53.669 -25.428  1.00  0.00     0.180 A 
ATOM     41  H2  UNL     1       1.993  53.675 -25.810  1.00  0.00     0.166 HD
HETATM   42  N3  UNL     1      -1.116  52.910 -25.867  1.00  0.00    -0.355 N 
HETATM   43  H41 UNL     1      -2.093  53.070 -25.640  1.00  0.00     0.166 HD
ENDBRANCH  36  37
ENDBRANCH  35  36
ENDBRANCH  33  35
ENDBRANCH  30  31
ENDBRANCH  29  30
ENDBRANCH  27  29
ENDBRANCH  26  27
ENDBRANCH  25  26
ENDBRANCH  23  25
ENDBRANCH  20  23
TORSDOF 11
ENDMDL
MODEL 3
REMARK minimizedAffinity -8.08488655
REMARK CNNscore 0.42846176
REMARK CNNaffinity 6.47438192
REMARK  11 active torsions:
REMARK  status: ('A' for Active; 'I' for Inactive)
REMARK    1  A    between atoms: C19_20  and  O2_21 
REMARK    2  A    between atoms: C19_20  and  C20_22 
REMARK    3  A    between atoms: C20_22  and  C21_24 
REMARK    4  A    between atoms: C21_24  and  O4_25 
REMARK    5  A    between atoms: O4_25  and  C22_26 
REMARK    6  A    between atoms: C22_26  and  C23_28 
REMARK    7  A    between atoms: C23_28  and  C24_29 
REMARK    8  A    between atoms: C24_29  and  C25_30 
REMARK       I    between atoms: C25_30  and  N1_32 
REMARK    9  A    between atoms: N1_32  and  C26_33 
REMARK   10  A    between atoms: C26_33  and  C27_34 
REMARK   11  A    between atoms: C27_34  and  C28_35 
ROOT
HETATM    1  C1  UNL     1       0.321  50.068 -20.988  1.00  0.00     0.020 C 
HETATM    2  C2  UNL     1      -0.788  51.144 -21.172  1.00  0.00    -0.016 C 
HETATM    3  C3  UNL     1      -0.439  51.965 -22.446  1.00  0.00     0.022 C 
HETATM    4  C4  UNL     1       0.883  52.720 -22.328  1.00  0.00     0.084 C 
HETATM    5  C5  UNL     1       0.931  53.543 -21.061  1.00  0.00     0.149 C 
HETATM    6  O1  UNL     1       1.724  54.471 -20.920  1.00  0.00    -0.293 OA
HETATM    7  C6  UNL     1       0.019  53.192 -19.945  1.00  0.00     0.053 C 
HETATM    8  C7  UNL     1      -0.772  52.103 -19.985  1.00  0.00    -0.068 C 
HETATM    9  C8  UNL     1      -1.695  51.805 -18.832  1.00  0.00     0.035 C 
HETATM   10  C9  UNL     1      -1.983  50.318 -18.699  1.00  0.00     0.010 C 
HETATM   11  C10 UNL     1      -2.644  49.727 -19.964  1.00  0.00    -0.004 C 
HETATM   12  C11 UNL     1      -2.173  50.406 -21.307  1.00  0.00     0.002 C 
HETATM   13  C12 UNL     1      -3.308  51.259 -21.926  1.00  0.00     0.007 C 
HETATM   14  C13 UNL     1      -4.607  50.475 -22.198  1.00  0.00     0.013 C 
HETATM   15  C14 UNL     1      -4.931  49.410 -21.130  1.00  0.00    -0.002 C 
HETATM   16  C15 UNL     1      -4.527  48.015 -21.682  1.00  0.00     0.019 C 
HETATM   17  C16 UNL     1      -4.181  49.767 -19.828  1.00  0.00     0.002 C 
HETATM   18  C17 UNL     1      -4.812  48.847 -18.783  1.00  0.00     0.009 C 
HETATM   19  C18 UNL     1      -6.281  48.687 -19.224  1.00  0.00     0.047 C 
HETATM   20  C19 UNL     1      -6.401  49.382 -20.601  1.00  0.00     0.128 C 
ENDROOT
BRANCH  20  21
HETATM   21  O2  UNL     1      -6.864  50.712 -20.320  1.00  0.00    -0.381 OA
HETATM   22  H27 UNL     1      -7.091  51.127 -21.174  1.00  0.00     0.211 HD
ENDBRANCH  20  21
BRANCH  20  23
HETATM   23  C20 UNL     1      -7.402  48.787 -21.612  1.00  0.00     0.185 C 
HETATM   24  O3  UNL     1      -8.043  47.773 -21.304  1.00  0.00    -0.292 OA
BRANCH  23  25
HETATM   25  C21 UNL     1      -7.576  49.477 -22.961  1.00  0.00     0.260 C 
BRANCH  25  26
HETATM   26  O4  UNL     1      -8.148  48.667 -23.984  1.00  0.00    -0.314 OA
BRANCH  26  27
HETATM   27  C22 UNL     1      -7.268  48.168 -24.901  1.00  0.00     0.259 C 
HETATM   28  O5  UNL     1      -6.079  47.975 -24.700  1.00  0.00    -0.265 OA
BRANCH  27  29
HETATM   29  C23 UNL     1      -7.985  47.974 -26.218  1.00  0.00     0.120 C 
BRANCH  29  30
HETATM   30  C24 UNL     1      -7.541  46.697 -26.919  1.00  0.00     0.112 C 
BRANCH  30  31
HETATM   31  C25 UNL     1      -6.655  46.995 -28.109  1.00  0.00     0.218 C 
HETATM   32  O6  UNL     1      -5.809  47.878 -28.115  1.00  0.00    -0.274 OA
HETATM   33  N1  UNL     1      -6.886  46.159 -29.178  1.00  0.00    -0.361 N 
HETATM   34  H34 UNL     1      -7.772  45.663 -29.199  1.00  0.00     0.162 HD
BRANCH  33  35
HETATM   35  C26 UNL     1      -6.269  46.415 -30.469  1.00  0.00     0.128 C 
BRANCH  35  36
HETATM   36  C27 UNL     1      -7.236  47.030 -31.492  1.00  0.00     0.078 C 
BRANCH  36  37
HETATM   37  C28 UNL     1      -6.560  47.416 -32.762  1.00  0.00     0.027 A 
HETATM   38  C29 UNL     1      -7.026  47.600 -34.046  1.00  0.00     0.114 A 
HETATM   39  N2  UNL     1      -6.006  47.964 -34.889  1.00  0.00    -0.360 N 
HETATM   40  C30 UNL     1      -4.925  47.986 -34.140  1.00  0.00     0.180 A 
ATOM     41  H2  UNL     1      -6.073  48.174 -35.884  1.00  0.00     0.166 HD
HETATM   42  N3  UNL     1      -5.211  47.683 -32.839  1.00  0.00    -0.355 N 
HETATM   43  H41 UNL     1      -4.545  47.695 -32.072  1.00  0.00     0.166 HD
ENDBRANCH  36  37
ENDBRANCH  35  36
ENDBRANCH  33  35
ENDBRANCH  30  31
ENDBRANCH  29  30
ENDBRANCH  27  29
ENDBRANCH  26  27
ENDBRANCH  25  26
ENDBRANCH  23  25
ENDBRANCH  20  23
TORSDOF 11
ENDMDL
MODEL 4
REMARK minimizedAffinity -8.01386738
REMARK CNNscore 0.258048981
REMARK CNNaffinity 6.73105621
REMARK  11 active torsions:
REMARK  status: ('A' for Active; 'I' for Inactive)
REMARK    1  A    between atoms: C19_20  and  O2_21 
REMARK    2  A    between atoms: C19_20  and  C20_22 
REMARK    3  A    between atoms: C20_22  and  C21_24 
REMARK    4  A    between atoms: C21_24  and  O4_25 
REMARK    5  A    between atoms: O4_25  and  C22_26 
REMARK    6  A    between atoms: C22_26  and  C23_28 
REMARK    7  A    between atoms: C23_28  and  C24_29 
REMARK    8  A    between atoms: C24_29  and  C25_30 
REMARK       I    between atoms: C25_30  and  N1_32 
REMARK    9  A    between atoms: N1_32  and  C26_33 
REMARK   10  A    between atoms: C26_33  and  C27_34 
REMARK   11  A    between atoms: C27_34  and  C28_35 
ROOT
HETATM    1  C1  UNL     1      -3.062  52.526 -25.626  1.00  0.00     0.020 C 
HETATM    2  C2  UNL     1      -1.745  51.849 -25.147  1.00  0.00    -0.016 C 
HETATM    3  C3  UNL     1      -0.645  52.947 -25.095  1.00  0.00     0.022 C 
HETATM    4  C4  UNL     1      -0.346  53.561 -26.461  1.00  0.00     0.084 C 
HETATM    5  C5  UNL     1      -0.066  52.491 -27.491  1.00  0.00     0.149 C 
HETATM    6  O1  UNL     1       0.515  52.741 -28.544  1.00  0.00    -0.293 OA
HETATM    7  C6  UNL     1      -0.544  51.110 -27.236  1.00  0.00     0.053 C 
HETATM    8  C7  UNL     1      -1.306  50.803 -26.169  1.00  0.00    -0.068 C 
HETATM    9  C8  UNL     1      -1.746  49.380 -25.947  1.00  0.00     0.035 C 
HETATM   10  C9  UNL     1      -3.058  49.299 -25.181  1.00  0.00     0.010 C 
HETATM   11  C10 UNL     1      -2.972  49.962 -23.789  1.00  0.00    -0.004 C 
HETATM   12  C11 UNL     1      -2.007  51.208 -23.732  1.00  0.00     0.002 C 
HETATM   13  C12 UNL     1      -0.730  50.885 -22.917  1.00  0.00     0.007 C 
HETATM   14  C13 UNL     1      -1.007  50.410 -21.478  1.00  0.00     0.013 C 
HETATM   15  C14 UNL     1      -2.260  49.519 -21.342  1.00  0.00    -0.002 C 
HETATM   16  C15 UNL     1      -3.423  50.384 -20.781  1.00  0.00     0.019 C 
HETATM   17  C16 UNL     1      -2.591  48.913 -22.723  1.00  0.00     0.002 C 
HETATM   18  C17 UNL     1      -3.627  47.834 -22.405  1.00  0.00     0.009 C 
HETATM   19  C18 UNL     1      -3.238  47.304 -21.010  1.00  0.00     0.047 C 
HETATM   20  C19 UNL     1      -2.096  48.213 -20.500  1.00  0.00     0.128 C 
ENDROOT
BRANCH  20  21
HETATM   21  O2  UNL     1      -0.880  47.534 -20.851  1.00  0.00    -0.381 OA
HETATM   22  H27 UNL     1      -0.146  48.008 -20.414  1.00  0.00     0.211 HD
ENDBRANCH  20  21
BRANCH  20  23
HETATM   23  C20 UNL     1      -2.017  48.472 -18.982  1.00  0.00     0.185 C 
HETATM   24  O3  UNL     1      -2.904  48.021 -18.245  1.00  0.00    -0.292 OA
BRANCH  23  25
HETATM   25  C21 UNL     1      -0.836  49.269 -18.436  1.00  0.00     0.260 C 
BRANCH  25  26
HETATM   26  O4  UNL     1      -1.155  50.581 -17.979  1.00  0.00    -0.314 OA
BRANCH  26  27
HETATM   27  C22 UNL     1      -0.100  51.441 -17.877  1.00  0.00     0.259 C 
HETATM   28  O5  UNL     1       0.098  52.400 -18.607  1.00  0.00    -0.265 OA
BRANCH  27  29
HETATM   29  C23 UNL     1       0.818  50.966 -16.773  1.00  0.00     0.120 C 
BRANCH  29  30
HETATM   30  C24 UNL     1       1.330  52.124 -15.928  1.00  0.00     0.112 C 
BRANCH  30  31
HETATM   31  C25 UNL     1       1.615  51.692 -14.506  1.00  0.00     0.218 C 
HETATM   32  O6  UNL     1       2.153  50.631 -14.219  1.00  0.00    -0.274 OA
HETATM   33  N1  UNL     1       1.225  52.622 -13.570  1.00  0.00    -0.361 N 
HETATM   34  H34 UNL     1       0.546  53.319 -13.860  1.00  0.00     0.162 HD
BRANCH  33  35
HETATM   35  C26 UNL     1       1.242  52.302 -12.152  1.00  0.00     0.128 C 
BRANCH  35  36
HETATM   36  C27 UNL     1       2.523  52.764 -11.441  1.00  0.00     0.078 C 
BRANCH  36  37
HETATM   37  C28 UNL     1       2.259  53.774 -10.379  1.00  0.00     0.027 A 
HETATM   38  C29 UNL     1       1.758  55.058 -10.419  1.00  0.00     0.114 A 
HETATM   39  N2  UNL     1       1.694  55.597  -9.160  1.00  0.00    -0.360 N 
HETATM   40  C30 UNL     1       2.166  54.668  -8.357  1.00  0.00     0.180 A 
ATOM     41  H2  UNL     1       1.354  56.523  -8.901  1.00  0.00     0.166 HD
HETATM   42  N3  UNL     1       2.500  53.536  -9.044  1.00  0.00    -0.355 N 
HETATM   43  H41 UNL     1       2.830  52.670  -8.627  1.00  0.00     0.166 HD
ENDBRANCH  36  37
ENDBRANCH  35  36
ENDBRANCH  33  35
ENDBRANCH  30  31
ENDBRANCH  29  30
ENDBRANCH  27  29
ENDBRANCH  26  27
ENDBRANCH  25  26
ENDBRANCH  23  25
ENDBRANCH  20  23
TORSDOF 11
ENDMDL
MODEL 5
REMARK minimizedAffinity -7.51293039
REMARK CNNscore 0.253358364
REMARK CNNaffinity 6.33535624
REMARK  11 active torsions:
REMARK  status: ('A' for Active; 'I' for Inactive)
REMARK    1  A    between atoms: C19_20  and  O2_21 
REMARK    2  A    between atoms: C19_20  and  C20_22 
REMARK    3  A    between atoms: C20_22  and  C21_24 
REMARK    4  A    between atoms: C21_24  and  O4_25 
REMARK    5  A    between atoms: O4_25  and  C22_26 
REMARK    6  A    between atoms: C22_26  and  C23_28 
REMARK    7  A    between atoms: C23_28  and  C24_29 
REMARK    8  A    between atoms: C24_29  and  C25_30 
REMARK       I    between atoms: C25_30  and  N1_32 
REMARK    9  A    between atoms: N1_32  and  C26_33 
REMARK   10  A    between atoms: C26_33  and  C27_34 
REMARK   11  A    between atoms: C27_34  and  C28_35 
ROOT
HETATM    1  C1  UNL     1       0.516  51.022 -21.030  1.00  0.00     0.020 C 
HETATM    2  C2  UNL     1      -0.717  51.150 -20.090  1.00  0.00    -0.016 C 
HETATM    3  C3  UNL     1      -0.782  52.623 -19.597  1.00  0.00     0.022 C 
HETATM    4  C4  UNL     1       0.436  53.031 -18.771  1.00  0.00     0.084 C 
HETATM    5  C5  UNL     1       0.697  52.044 -17.657  1.00  0.00     0.149 C 
HETATM    6  O1  UNL     1       1.392  52.331 -16.685  1.00  0.00    -0.293 OA
HETATM    7  C6  UNL     1       0.129  50.678 -17.764  1.00  0.00     0.053 C 
HETATM    8  C7  UNL     1      -0.522  50.259 -18.866  1.00  0.00    -0.068 C 
HETATM    9  C8  UNL     1      -1.098  48.868 -18.912  1.00  0.00     0.035 C 
HETATM   10  C9  UNL     1      -1.176  48.328 -20.332  1.00  0.00     0.010 C 
HETATM   11  C10 UNL     1      -2.054  49.206 -21.251  1.00  0.00    -0.004 C 
HETATM   12  C11 UNL     1      -2.002  50.744 -20.906  1.00  0.00     0.002 C 
HETATM   13  C12 UNL     1      -3.341  51.221 -20.293  1.00  0.00     0.007 C 
HETATM   14  C13 UNL     1      -4.571  50.957 -21.183  1.00  0.00     0.013 C 
HETATM   15  C14 UNL     1      -4.505  49.626 -21.963  1.00  0.00    -0.002 C 
HETATM   16  C15 UNL     1      -4.093  49.932 -23.429  1.00  0.00     0.019 C 
HETATM   17  C16 UNL     1      -3.507  48.685 -21.255  1.00  0.00     0.002 C 
HETATM   18  C17 UNL     1      -3.758  47.329 -21.916  1.00  0.00     0.009 C 
HETATM   19  C18 UNL     1      -5.264  47.321 -22.254  1.00  0.00     0.047 C 
HETATM   20  C19 UNL     1      -5.791  48.739 -21.931  1.00  0.00     0.128 C 
ENDROOT
BRANCH  20  21
HETATM   21  O2  UNL     1      -6.318  48.657 -20.598  1.00  0.00    -0.381 OA
HETATM   22  H27 UNL     1      -6.790  49.494 -20.421  1.00  0.00     0.211 HD
ENDBRANCH  20  21
BRANCH  20  23
HETATM   23  C20 UNL     1      -6.934  49.288 -22.809  1.00  0.00     0.185 C 
HETATM   24  O3  UNL     1      -7.564  50.283 -22.427  1.00  0.00    -0.292 OA
BRANCH  23  25
HETATM   25  C21 UNL     1      -7.242  48.589 -24.129  1.00  0.00     0.260 C 
BRANCH  25  26
HETATM   26  O4  UNL     1      -8.505  48.916 -24.703  1.00  0.00    -0.314 OA
BRANCH  26  27
HETATM   27  C22 UNL     1      -9.240  47.856 -25.150  1.00  0.00     0.259 C 
HETATM   28  O5  UNL     1      -9.163  46.716 -24.719  1.00  0.00    -0.265 OA
BRANCH  27  29
HETATM   29  C23 UNL     1     -10.098  48.306 -26.311  1.00  0.00     0.120 C 
BRANCH  29  30
HETATM   30  C24 UNL     1     -10.490  47.139 -27.208  1.00  0.00     0.112 C 
BRANCH  30  31
HETATM   31  C25 UNL     1     -10.654  47.576 -28.648  1.00  0.00     0.218 C 
HETATM   32  O6  UNL     1     -11.592  47.232 -29.354  1.00  0.00    -0.274 OA
HETATM   33  N1  UNL     1      -9.651  48.415 -29.076  1.00  0.00    -0.361 N 
HETATM   34  H34 UNL     1      -8.787  48.418 -28.544  1.00  0.00     0.162 HD
BRANCH  33  35
HETATM   35  C26 UNL     1      -9.536  48.781 -30.479  1.00  0.00     0.128 C 
BRANCH  35  36
HETATM   36  C27 UNL     1      -8.848  47.706 -31.332  1.00  0.00     0.078 C 
BRANCH  36  37
HETATM   37  C28 UNL     1      -7.363  47.830 -31.324  1.00  0.00     0.027 A 
HETATM   38  C29 UNL     1      -6.361  47.055 -31.867  1.00  0.00     0.114 A 
HETATM   39  N2  UNL     1      -5.128  47.587 -31.593  1.00  0.00    -0.360 N 
HETATM   40  C30 UNL     1      -5.363  48.663 -30.875  1.00  0.00     0.180 A 
ATOM     41  H2  UNL     1      -4.220  47.224 -31.883  1.00  0.00     0.166 HD
HETATM   42  N3  UNL     1      -6.703  48.867 -30.704  1.00  0.00    -0.355 N 
HETATM   43  H41 UNL     1      -7.122  49.665 -30.234  1.00  0.00     0.166 HD
ENDBRANCH  36  37
ENDBRANCH  35  36
ENDBRANCH  33  35
ENDBRANCH  30  31
ENDBRANCH  29  30
ENDBRANCH  27  29
ENDBRANCH  26  27
ENDBRANCH  25  26
ENDBRANCH  23  25
ENDBRANCH  20  23
TORSDOF 11
ENDMDL
MODEL 6
REMARK minimizedAffinity -8.30181408
REMARK CNNscore 0.24253495
REMARK CNNaffinity 6.50767469
REMARK  11 active torsions:
REMARK  status: ('A' for Active; 'I' for Inactive)
REMARK    1  A    between atoms: C19_20  and  O2_21 
REMARK    2  A    between atoms: C19_20  and  C20_22 
REMARK    3  A    between atoms: C20_22  and  C21_24 
REMARK    4  A    between atoms: C21_24  and  O4_25 
REMARK    5  A    between atoms: O4_25  and  C22_26 
REMARK    6  A    between atoms: C22_26  and  C23_28 
REMARK    7  A    between atoms: C23_28  and  C24_29 
REMARK    8  A    between atoms: C24_29  and  C25_30 
REMARK       I    between atoms: C25_30  and  N1_32 
REMARK    9  A    between atoms: N1_32  and  C26_33 
REMARK   10  A    between atoms: C26_33  and  C27_34 
REMARK   11  A    between atoms: C27_34  and  C28_35 
ROOT
HETATM    1  C1  UNL     1       1.829  51.468 -25.632  1.00  0.00     0.020 C 
HETATM    2  C2  UNL     1       0.297  51.731 -25.560  1.00  0.00    -0.016 C 
HETATM    3  C3  UNL     1      -0.356  51.039 -26.790  1.00  0.00     0.022 C 
HETATM    4  C4  UNL     1       0.120  51.614 -28.122  1.00  0.00     0.084 C 
HETATM    5  C5  UNL     1      -0.015  53.119 -28.148  1.00  0.00     0.149 C 
HETATM    6  O1  UNL     1      -0.017  53.752 -29.201  1.00  0.00    -0.293 OA
HETATM    7  C6  UNL     1      -0.108  53.851 -26.861  1.00  0.00     0.053 C 
HETATM    8  C7  UNL     1       0.029  53.229 -25.674  1.00  0.00    -0.068 C 
HETATM    9  C8  UNL     1      -0.096  54.018 -24.397  1.00  0.00     0.035 C 
HETATM   10  C9  UNL     1       0.704  53.398 -23.262  1.00  0.00     0.010 C 
HETATM   11  C10 UNL     1       0.256  51.955 -22.941  1.00  0.00    -0.004 C 
HETATM   12  C11 UNL     1      -0.239  51.145 -24.200  1.00  0.00     0.002 C 
HETATM   13  C12 UNL     1      -1.770  50.918 -24.147  1.00  0.00     0.007 C 
HETATM   14  C13 UNL     1      -2.255  50.197 -22.874  1.00  0.00     0.013 C 
HETATM   15  C14 UNL     1      -1.485  50.594 -21.597  1.00  0.00    -0.002 C 
HETATM   16  C15 UNL     1      -0.455  49.477 -21.272  1.00  0.00     0.019 C 
HETATM   17  C16 UNL     1      -0.813  51.965 -21.829  1.00  0.00     0.002 C 
HETATM   18  C17 UNL     1      -0.360  52.386 -20.430  1.00  0.00     0.009 C 
HETATM   19  C18 UNL     1      -1.420  51.802 -19.473  1.00  0.00     0.047 C 
HETATM   20  C19 UNL     1      -2.351  50.921 -20.338  1.00  0.00     0.128 C 
ENDROOT
BRANCH  20  21
HETATM   21  O2  UNL     1      -3.458  51.765 -20.689  1.00  0.00    -0.381 OA
HETATM   22  H27 UNL     1      -4.133  51.198 -21.109  1.00  0.00     0.211 HD
ENDBRANCH  20  21
BRANCH  20  23
HETATM   23  C20 UNL     1      -2.962  49.669 -19.676  1.00  0.00     0.185 C 
HETATM   24  O3  UNL     1      -2.864  48.575 -20.246  1.00  0.00    -0.292 OA
BRANCH  23  25
HETATM   25  C21 UNL     1      -3.660  49.823 -18.328  1.00  0.00     0.260 C 
BRANCH  25  26
HETATM   26  O4  UNL     1      -2.874  50.431 -17.307  1.00  0.00    -0.314 OA
BRANCH  26  27
HETATM   27  C22 UNL     1      -2.907  49.812 -16.091  1.00  0.00     0.259 C 
HETATM   28  O5  UNL     1      -3.079  48.616 -15.917  1.00  0.00    -0.265 OA
BRANCH  27  29
HETATM   29  C23 UNL     1      -2.778  50.854 -15.003  1.00  0.00     0.120 C 
BRANCH  29  30
HETATM   30  C24 UNL     1      -2.260  50.252 -13.704  1.00  0.00     0.112 C 
BRANCH  30  31
HETATM   31  C25 UNL     1      -3.259  50.413 -12.579  1.00  0.00     0.218 C 
HETATM   32  O6  UNL     1      -4.096  49.567 -12.294  1.00  0.00    -0.274 OA
HETATM   33  N1  UNL     1      -3.120  51.601 -11.898  1.00  0.00    -0.361 N 
HETATM   34  H34 UNL     1      -2.616  52.349 -12.363  1.00  0.00     0.162 HD
BRANCH  33  35
HETATM   35  C26 UNL     1      -4.108  52.014 -10.915  1.00  0.00     0.128 C 
BRANCH  35  36
HETATM   36  C27 UNL     1      -4.035  53.510 -10.573  1.00  0.00     0.078 C 
BRANCH  36  37
HETATM   37  C28 UNL     1      -2.663  53.947 -10.192  1.00  0.00     0.027 A 
HETATM   38  C29 UNL     1      -1.825  53.588  -9.158  1.00  0.00     0.114 A 
HETATM   39  N2  UNL     1      -0.638  54.272  -9.231  1.00  0.00    -0.360 N 
HETATM   40  C30 UNL     1      -0.749  55.054 -10.283  1.00  0.00     0.180 A 
ATOM     41  H2  UNL     1       0.160  54.191  -8.603  1.00  0.00     0.166 HD
HETATM   42  N3  UNL     1      -1.948  54.877 -10.913  1.00  0.00    -0.355 N 
HETATM   43  H41 UNL     1      -2.231  55.330 -11.777  1.00  0.00     0.166 HD
ENDBRANCH  36  37
ENDBRANCH  35  36
ENDBRANCH  33  35
ENDBRANCH  30  31
ENDBRANCH  29  30
ENDBRANCH  27  29
ENDBRANCH  26  27
ENDBRANCH  25  26
ENDBRANCH  23  25
ENDBRANCH  20  23
TORSDOF 11
ENDMDL
MODEL 7
REMARK minimizedAffinity -7.55651188
REMARK CNNscore 0.242368951
REMARK CNNaffinity 5.77685404
REMARK  11 active torsions:
REMARK  status: ('A' for Active; 'I' for Inactive)
REMARK    1  A    between atoms: C19_20  and  O2_21 
REMARK    2  A    between atoms: C19_20  and  C20_22 
REMARK    3  A    between atoms: C20_22  and  C21_24 
REMARK    4  A    between atoms: C21_24  and  O4_25 
REMARK    5  A    between atoms: O4_25  and  C22_26 
REMARK    6  A    between atoms: C22_26  and  C23_28 
REMARK    7  A    between atoms: C23_28  and  C24_29 
REMARK    8  A    between atoms: C24_29  and  C25_30 
REMARK       I    between atoms: C25_30  and  N1_32 
REMARK    9  A    between atoms: N1_32  and  C26_33 
REMARK   10  A    between atoms: C26_33  and  C27_34 
REMARK   11  A    between atoms: C27_34  and  C28_35 
ROOT
HETATM    1  C1  UNL     1      -1.124  50.353 -22.820  1.00  0.00     0.020 C 
HETATM    2  C2  UNL     1      -2.047  50.657 -24.035  1.00  0.00    -0.016 C 
HETATM    3  C3  UNL     1      -1.242  50.339 -25.327  1.00  0.00     0.022 C 
HETATM    4  C4  UNL     1      -0.004  51.219 -25.492  1.00  0.00     0.084 C 
HETATM    5  C5  UNL     1      -0.352  52.683 -25.356  1.00  0.00     0.149 C 
HETATM    6  O1  UNL     1       0.390  53.568 -25.774  1.00  0.00    -0.293 OA
HETATM    7  C6  UNL     1      -1.608  53.058 -24.660  1.00  0.00     0.053 C 
HETATM    8  C7  UNL     1      -2.391  52.143 -24.058  1.00  0.00    -0.068 C 
HETATM    9  C8  UNL     1      -3.667  52.578 -23.384  1.00  0.00     0.035 C 
HETATM   10  C9  UNL     1      -4.057  51.648 -22.246  1.00  0.00     0.010 C 
HETATM   11  C10 UNL     1      -4.273  50.193 -22.716  1.00  0.00    -0.004 C 
HETATM   12  C11 UNL     1      -3.337  49.762 -23.910  1.00  0.00     0.002 C 
HETATM   13  C12 UNL     1      -4.147  49.598 -25.220  1.00  0.00     0.007 C 
HETATM   14  C13 UNL     1      -5.311  48.593 -25.118  1.00  0.00     0.013 C 
HETATM   15  C14 UNL     1      -6.035  48.610 -23.756  1.00  0.00    -0.002 C 
HETATM   16  C15 UNL     1      -5.536  47.401 -22.916  1.00  0.00     0.019 C 
HETATM   17  C16 UNL     1      -5.759  49.962 -23.063  1.00  0.00     0.002 C 
HETATM   18  C17 UNL     1      -6.756  49.983 -21.903  1.00  0.00     0.009 C 
HETATM   19  C18 UNL     1      -7.992  49.218 -22.422  1.00  0.00     0.047 C 
HETATM   20  C19 UNL     1      -7.597  48.636 -23.800  1.00  0.00     0.128 C 
ENDROOT
BRANCH  20  21
HETATM   21  O2  UNL     1      -8.061  49.591 -24.766  1.00  0.00    -0.381 OA
HETATM   22  H27 UNL     1      -7.959  49.184 -25.648  1.00  0.00     0.211 HD
ENDBRANCH  20  21
BRANCH  20  23
HETATM   23  C20 UNL     1      -8.219  47.284 -24.204  1.00  0.00     0.185 C 
HETATM   24  O3  UNL     1      -7.475  46.326 -24.453  1.00  0.00    -0.292 OA
BRANCH  23  25
HETATM   25  C21 UNL     1      -9.739  47.170 -24.273  1.00  0.00     0.260 C 
BRANCH  25  26
HETATM   26  O4  UNL     1     -10.357  47.967 -25.281  1.00  0.00    -0.314 OA
BRANCH  26  27
HETATM   27  C22 UNL     1     -11.582  47.536 -25.702  1.00  0.00     0.259 C 
HETATM   28  O5  UNL     1     -12.235  48.046 -26.599  1.00  0.00    -0.265 OA
BRANCH  27  29
HETATM   29  C23 UNL     1     -12.026  46.383 -24.830  1.00  0.00     0.120 C 
BRANCH  29  30
HETATM   30  C24 UNL     1     -12.500  45.198 -25.659  1.00  0.00     0.112 C 
BRANCH  30  31
HETATM   31  C25 UNL     1     -13.815  45.492 -26.348  1.00  0.00     0.218 C 
HETATM   32  O6  UNL     1     -14.832  45.816 -25.750  1.00  0.00    -0.274 OA
HETATM   33  N1  UNL     1     -13.745  45.376 -27.718  1.00  0.00    -0.361 N 
HETATM   34  H34 UNL     1     -12.975  44.838 -28.102  1.00  0.00     0.162 HD
BRANCH  33  35
HETATM   35  C26 UNL     1     -14.949  45.432 -28.531  1.00  0.00     0.128 C 
BRANCH  35  36
HETATM   36  C27 UNL     1     -15.695  44.092 -28.605  1.00  0.00     0.078 C 
BRANCH  36  37
HETATM   37  C28 UNL     1     -17.088  44.179 -28.083  1.00  0.00     0.027 A 
HETATM   38  C29 UNL     1     -18.215  43.418 -28.306  1.00  0.00     0.114 A 
HETATM   39  N2  UNL     1     -19.278  43.895 -27.584  1.00  0.00    -0.360 N 
HETATM   40  C30 UNL     1     -18.819  44.946 -26.939  1.00  0.00     0.180 A 
ATOM     41  H2  UNL     1     -20.224  43.516 -27.553  1.00  0.00     0.166 HD
HETATM   42  N3  UNL     1     -17.492  45.146 -27.190  1.00  0.00    -0.355 N 
HETATM   43  H41 UNL     1     -16.913  45.861 -26.759  1.00  0.00     0.166 HD
ENDBRANCH  36  37
ENDBRANCH  35  36
ENDBRANCH  33  35
ENDBRANCH  30  31
ENDBRANCH  29  30
ENDBRANCH  27  29
ENDBRANCH  26  27
ENDBRANCH  25  26
ENDBRANCH  23  25
ENDBRANCH  20  23
TORSDOF 11
ENDMDL
MODEL 8
REMARK minimizedAffinity -7.84230471
REMARK CNNscore 0.237888604
REMARK CNNaffinity 6.06221342
REMARK  11 active torsions:
REMARK  status: ('A' for Active; 'I' for Inactive)
REMARK    1  A    between atoms: C19_20  and  O2_21 
REMARK    2  A    between atoms: C19_20  and  C20_22 
REMARK    3  A    between atoms: C20_22  and  C21_24 
REMARK    4  A    between atoms: C21_24  and  O4_25 
REMARK    5  A    between atoms: O4_25  and  C22_26 
REMARK    6  A    between atoms: C22_26  and  C23_28 
REMARK    7  A    between atoms: C23_28  and  C24_29 
REMARK    8  A    between atoms: C24_29  and  C25_30 
REMARK       I    between atoms: C25_30  and  N1_32 
REMARK    9  A    between atoms: N1_32  and  C26_33 
REMARK   10  A    between atoms: C26_33  and  C27_34 
REMARK   11  A    between atoms: C27_34  and  C28_35 
ROOT
HETATM    1  C1  UNL     1      -2.000  52.974 -24.968  1.00  0.00     0.020 C 
HETATM    2  C2  UNL     1      -1.246  51.752 -24.369  1.00  0.00    -0.016 C 
HETATM    3  C3  UNL     1       0.174  52.233 -23.957  1.00  0.00     0.022 C 
HETATM    4  C4  UNL     1       1.008  52.719 -25.141  1.00  0.00     0.084 C 
HETATM    5  C5  UNL     1       1.028  51.696 -26.252  1.00  0.00     0.149 C 
HETATM    6  O1  UNL     1       1.882  51.715 -27.136  1.00  0.00    -0.293 OA
HETATM    7  C6  UNL     1      -0.039  50.666 -26.296  1.00  0.00     0.053 C 
HETATM    8  C7  UNL     1      -1.079  50.678 -25.440  1.00  0.00    -0.068 C 
HETATM    9  C8  UNL     1      -2.123  49.595 -25.516  1.00  0.00     0.035 C 
HETATM   10  C9  UNL     1      -3.479  50.072 -25.017  1.00  0.00     0.010 C 
HETATM   11  C10 UNL     1      -3.435  50.549 -23.549  1.00  0.00    -0.004 C 
HETATM   12  C11 UNL     1      -2.069  51.221 -23.135  1.00  0.00     0.002 C 
HETATM   13  C12 UNL     1      -1.275  50.314 -22.163  1.00  0.00     0.007 C 
HETATM   14  C13 UNL     1      -2.046  49.937 -20.884  1.00  0.00     0.013 C 
HETATM   15  C14 UNL     1      -3.555  49.700 -21.108  1.00  0.00    -0.002 C 
HETATM   16  C15 UNL     1      -4.329  50.963 -20.641  1.00  0.00     0.019 C 
HETATM   17  C16 UNL     1      -3.791  49.384 -22.601  1.00  0.00     0.002 C 
HETATM   18  C17 UNL     1      -5.232  48.872 -22.638  1.00  0.00     0.009 C 
HETATM   19  C18 UNL     1      -5.434  48.148 -21.291  1.00  0.00     0.047 C 
HETATM   20  C19 UNL     1      -4.161  48.416 -20.455  1.00  0.00     0.128 C 
ENDROOT
BRANCH  20  21
HETATM   21  O2  UNL     1      -3.309  47.282 -20.681  1.00  0.00    -0.381 OA
HETATM   22  H27 UNL     1      -2.563  47.350 -20.055  1.00  0.00     0.211 HD
ENDBRANCH  20  21
BRANCH  20  23
HETATM   23  C20 UNL     1      -4.325  48.528 -18.926  1.00  0.00     0.185 C 
HETATM   24  O3  UNL     1      -5.463  48.541 -18.439  1.00  0.00    -0.292 OA
BRANCH  23  25
HETATM   25  C21 UNL     1      -3.071  48.609 -18.061  1.00  0.00     0.260 C 
BRANCH  25  26
HETATM   26  O4  UNL     1      -3.281  49.107 -16.742  1.00  0.00    -0.314 OA
BRANCH  26  27
HETATM   27  C22 UNL     1      -2.932  50.412 -16.543  1.00  0.00     0.259 C 
HETATM   28  O5  UNL     1      -2.838  51.255 -17.421  1.00  0.00    -0.265 OA
BRANCH  27  29
HETATM   29  C23 UNL     1      -2.608  50.618 -15.080  1.00  0.00     0.120 C 
BRANCH  29  30
HETATM   30  C24 UNL     1      -3.349  51.816 -14.502  1.00  0.00     0.112 C 
BRANCH  30  31
HETATM   31  C25 UNL     1      -3.126  51.941 -13.011  1.00  0.00     0.218 C 
HETATM   32  O6  UNL     1      -2.450  51.154 -12.362  1.00  0.00    -0.274 OA
HETATM   33  N1  UNL     1      -3.745  53.040 -12.461  1.00  0.00    -0.361 N 
HETATM   34  H34 UNL     1      -4.500  53.464 -12.992  1.00  0.00     0.162 HD
BRANCH  33  35
HETATM   35  C26 UNL     1      -3.803  53.218 -11.019  1.00  0.00     0.128 C 
BRANCH  35  36
HETATM   36  C27 UNL     1      -2.993  54.425 -10.524  1.00  0.00     0.078 C 
BRANCH  36  37
HETATM   37  C28 UNL     1      -1.615  54.056 -10.095  1.00  0.00     0.027 A 
HETATM   38  C29 UNL     1      -0.371  54.344 -10.612  1.00  0.00     0.114 A 
HETATM   39  N2  UNL     1       0.618  53.775  -9.852  1.00  0.00    -0.360 N 
HETATM   40  C30 UNL     1      -0.007  53.130  -8.891  1.00  0.00     0.180 A 
ATOM     41  H2  UNL     1       1.625  53.838 -10.000  1.00  0.00     0.166 HD
HETATM   42  N3  UNL     1      -1.361  53.289  -8.980  1.00  0.00    -0.355 N 
HETATM   43  H41 UNL     1      -2.040  52.931  -8.315  1.00  0.00     0.166 HD
ENDBRANCH  36  37
ENDBRANCH  35  36
ENDBRANCH  33  35
ENDBRANCH  30  31
ENDBRANCH  29  30
ENDBRANCH  27  29
ENDBRANCH  26  27
ENDBRANCH  25  26
ENDBRANCH  23  25
ENDBRANCH  20  23
TORSDOF 11
ENDMDL
MODEL 9
REMARK minimizedAffinity -7.89957762
REMARK CNNscore 0.2228982
REMARK CNNaffinity 6.37078428
REMARK  11 active torsions:
REMARK  status: ('A' for Active; 'I' for Inactive)
REMARK    1  A    between atoms: C19_20  and  O2_21 
REMARK    2  A    between atoms: C19_20  and  C20_22 
REMARK    3  A    between atoms: C20_22  and  C21_24 
REMARK    4  A    between atoms: C21_24  and  O4_25 
REMARK    5  A    between atoms: O4_25  and  C22_26 
REMARK    6  A    between atoms: C22_26  and  C23_28 
REMARK    7  A    between atoms: C23_28  and  C24_29 
REMARK    8  A    between atoms: C24_29  and  C25_30 
REMARK       I    between atoms: C25_30  and  N1_32 
REMARK    9  A    between atoms: N1_32  and  C26_33 
REMARK   10  A    between atoms: C26_33  and  C27_34 
REMARK   11  A    between atoms: C27_34  and  C28_35 
ROOT
HETATM    1  C1  UNL     1      -1.760  53.091 -24.277  1.00  0.00     0.020 C 
HETATM    2  C2  UNL     1      -1.093  51.735 -23.909  1.00  0.00    -0.016 C 
HETATM    3  C3  UNL     1       0.447  51.927 -24.008  1.00  0.00     0.022 C 
HETATM    4  C4  UNL     1       0.917  52.272 -25.419  1.00  0.00     0.084 C 
HETATM    5  C5  UNL     1       0.376  51.289 -26.431  1.00  0.00     0.149 C 
HETATM    6  O1  UNL     1       0.877  51.165 -27.547  1.00  0.00    -0.293 OA
HETATM    7  C6  UNL     1      -0.818  50.482 -26.078  1.00  0.00     0.053 C 
HETATM    8  C7  UNL     1      -1.493  50.673 -24.929  1.00  0.00    -0.068 C 
HETATM    9  C8  UNL     1      -2.687  49.811 -24.611  1.00  0.00     0.035 C 
HETATM   10  C9  UNL     1      -3.686  50.525 -23.714  1.00  0.00     0.010 C 
HETATM   11  C10 UNL     1      -3.070  50.952 -22.364  1.00  0.00    -0.004 C 
HETATM   12  C11 UNL     1      -1.545  51.342 -22.451  1.00  0.00     0.002 C 
HETATM   13  C12 UNL     1      -0.658  50.279 -21.758  1.00  0.00     0.007 C 
HETATM   14  C13 UNL     1      -1.018  50.027 -20.281  1.00  0.00     0.013 C 
HETATM   15  C14 UNL     1      -2.532  50.086 -19.986  1.00  0.00    -0.002 C 
HETATM   16  C15 UNL     1      -2.857  51.463 -19.343  1.00  0.00     0.019 C 
HETATM   17  C16 UNL     1      -3.304  49.855 -21.303  1.00  0.00     0.002 C 
HETATM   18  C17 UNL     1      -4.744  49.627 -20.842  1.00  0.00     0.009 C 
HETATM   19  C18 UNL     1      -4.621  48.925 -19.474  1.00  0.00     0.047 C 
HETATM   20  C19 UNL     1      -3.116  48.927 -19.117  1.00  0.00     0.128 C 
ENDROOT
BRANCH  20  21
HETATM   21  O2  UNL     1      -2.615  47.657 -19.562  1.00  0.00    -0.381 OA
HETATM   22  H27 UNL     1      -1.705  47.568 -19.219  1.00  0.00     0.211 HD
ENDBRANCH  20  21
BRANCH  20  23
HETATM   23  C20 UNL     1      -2.741  49.034 -17.625  1.00  0.00     0.185 C 
HETATM   24  O3  UNL     1      -3.121  48.155 -16.841  1.00  0.00    -0.292 OA
BRANCH  23  25
HETATM   25  C21 UNL     1      -1.900  50.221 -17.166  1.00  0.00     0.260 C 
BRANCH  25  26
HETATM   26  O4  UNL     1      -0.512  49.947 -16.996  1.00  0.00    -0.314 OA
BRANCH  26  27
HETATM   27  C22 UNL     1       0.306  51.040 -16.980  1.00  0.00     0.259 C 
HETATM   28  O5  UNL     1       0.375  51.879 -17.864  1.00  0.00    -0.265 OA
BRANCH  27  29
HETATM   29  C23 UNL     1       1.164  50.995 -15.735  1.00  0.00     0.120 C 
BRANCH  29  30
HETATM   30  C24 UNL     1       1.125  52.315 -14.976  1.00  0.00     0.112 C 
BRANCH  30  31
HETATM   31  C25 UNL     1       0.421  52.170 -13.644  1.00  0.00     0.218 C 
HETATM   32  O6  UNL     1      -0.561  51.460 -13.474  1.00  0.00    -0.274 OA
HETATM   33  N1  UNL     1       1.009  52.903 -12.639  1.00  0.00    -0.361 N 
HETATM   34  H34 UNL     1       1.619  53.666 -12.915  1.00  0.00     0.162 HD
BRANCH  33  35
HETATM   35  C26 UNL     1       0.364  53.040 -11.343  1.00  0.00     0.128 C 
BRANCH  35  36
HETATM   36  C27 UNL     1       0.112  54.501 -10.942  1.00  0.00     0.078 C 
BRANCH  36  37
HETATM   37  C28 UNL     1       1.298  55.133 -10.299  1.00  0.00     0.027 A 
HETATM   38  C29 UNL     1       1.573  55.486  -8.996  1.00  0.00     0.114 A 
HETATM   39  N2  UNL     1       2.822  56.044  -8.893  1.00  0.00    -0.360 N 
HETATM   40  C30 UNL     1       3.302  56.052 -10.118  1.00  0.00     0.180 A 
ATOM     41  H2  UNL     1       3.280  56.381  -8.047  1.00  0.00     0.166 HD
HETATM   42  N3  UNL     1       2.427  55.490 -11.003  1.00  0.00    -0.355 N 
HETATM   43  H41 UNL     1       2.606  55.336 -11.991  1.00  0.00     0.166 HD
ENDBRANCH  36  37
ENDBRANCH  35  36
ENDBRANCH  33  35
ENDBRANCH  30  31
ENDBRANCH  29  30
ENDBRANCH  27  29
ENDBRANCH  26  27
ENDBRANCH  25  26
ENDBRANCH  23  25
ENDBRANCH  20  23
TORSDOF 11
ENDMDL
