MODEL 1
REMARK minimizedAffinity -6.35998297
REMARK CNNscore 0.508847296
REMARK CNNaffinity 6.1290822
REMARK  9 active torsions:
REMARK  status: ('A' for Active; 'I' for Inactive)
REMARK    1  A    between atoms: O1_2  and  C2_3 
REMARK    2  A    between atoms: C2_3  and  C4_5 
REMARK    3  A    between atoms: C2_3  and  C5_7 
REMARK    4  A    between atoms: C4_5  and  O2_6 
REMARK    5  A    between atoms: C5_7  and  O3_8 
REMARK    6  A    between atoms: C5_7  and  C6_9 
REMARK    7  A    between atoms: C6_9  and  C7_10 
REMARK    8  A    between atoms: C7_10  and  C8_11 
REMARK    9  A    between atoms: C8_11  and  C10_13 
ROOT
HETATM    1  C10 UNL     1     -15.982  -4.075  13.260  1.00  0.00    -0.001 C 
HETATM    2  C11 UNL     1     -16.892  -4.069  11.999  1.00  0.00     0.007 C 
HETATM    3  C12 UNL     1     -17.290  -2.610  11.720  1.00  0.00     0.015 C 
HETATM    4  C13 UNL     1     -16.341  -1.764  12.590  1.00  0.00    -0.004 C 
HETATM    5  C14 UNL     1     -15.009  -1.607  11.796  1.00  0.00     0.021 C 
HETATM    6  C15 UNL     1     -16.730  -0.353  13.003  1.00  0.00     0.007 C 
HETATM    7  C16 UNL     1     -16.250   0.238  14.126  1.00  0.00     0.007 C 
HETATM    8  C17 UNL     1     -15.347  -0.599  15.022  1.00  0.00     0.157 C 
HETATM    9  O4  UNL     1     -14.744  -0.081  15.962  1.00  0.00    -0.293 OA
HETATM   10  C18 UNL     1     -15.166  -2.093  14.772  1.00  0.00     0.094 C 
HETATM   11  C19 UNL     1     -16.259  -2.667  13.874  1.00  0.00    -0.022 C 
HETATM   12  C20 UNL     1     -17.594  -2.709  14.685  1.00  0.00     0.017 C 
HETATM   13  C21 UNL     1     -16.566   1.692  14.567  1.00  0.00    -0.007 C 
HETATM   14  C22 UNL     1     -17.518   1.579  15.783  1.00  0.00     0.021 C 
HETATM   15  C23 UNL     1     -15.282   2.471  15.000  1.00  0.00     0.022 C 
HETATM   16  C24 UNL     1     -15.305   3.984  14.784  1.00  0.00     0.080 C 
HETATM   17  C25 UNL     1     -16.710   4.533  14.770  1.00  0.00     0.135 C 
HETATM   18  O5  UNL     1     -17.041   5.444  15.527  1.00  0.00    -0.297 OA
HETATM   19  C26 UNL     1     -17.656   3.953  13.714  1.00  0.00     0.018 C 
HETATM   20  C27 UNL     1     -19.113   4.065  14.202  1.00  0.00     0.023 C 
HETATM   21  C28 UNL     1     -17.520   4.846  12.462  1.00  0.00     0.023 C 
HETATM   22  C29 UNL     1     -17.203   2.491  13.374  1.00  0.00     0.021 C 
HETATM   23  C30 UNL     1     -18.282   1.669  12.673  1.00  0.00     0.090 C 
HETATM   24  C31 UNL     1     -17.659   0.416  12.120  1.00  0.00     0.157 C 
HETATM   25  O6  UNL     1     -17.930   0.030  10.987  1.00  0.00    -0.293 OA
ENDROOT
BRANCH   1  26
HETATM   26  C8  UNL     1     -16.187  -5.359  14.120  1.00  0.00    -0.014 C 
HETATM   27  C9  UNL     1     -17.603  -5.441  14.703  1.00  0.00     0.010 C 
BRANCH  26  28
HETATM   28  C7  UNL     1     -15.149  -5.411  15.275  1.00  0.00     0.007 C 
BRANCH  28  29
HETATM   29  C6  UNL     1     -13.690  -5.455  14.784  1.00  0.00     0.035 C 
BRANCH  29  30
HETATM   30  C5  UNL     1     -12.737  -6.025  15.854  1.00  0.00     0.154 C 
BRANCH  30  31
HETATM   31  C2  UNL     1     -12.120  -7.426  15.506  1.00  0.00     0.103 C 
HETATM   32  C3  UNL     1     -13.144  -8.559  15.668  1.00  0.00     0.051 C 
BRANCH  31  33
HETATM   33  O1  UNL     1     -10.947  -7.719  16.312  1.00  0.00    -0.381 OA
HETATM   34  C1  UNL     1     -11.157  -8.493  17.485  1.00  0.00     0.202 C 
ENDBRANCH  31  33
BRANCH  31  35
HETATM   35  C4  UNL     1     -11.577  -7.466  14.056  1.00  0.00     0.204 C 
BRANCH  35  36
HETATM   36  O2  UNL     1     -10.833  -6.275  13.778  1.00  0.00    -0.398 OA
HETATM   37  H9  UNL     1     -10.133  -6.263  14.465  1.00  0.00     0.209 HD
ENDBRANCH  35  36
ENDBRANCH  31  35
ENDBRANCH  30  31
BRANCH  30  38
HETATM   38  O3  UNL     1     -11.707  -5.059  16.105  1.00  0.00    -0.392 OA
HETATM   39  H11 UNL     1     -11.072  -5.125  15.361  1.00  0.00     0.210 HD
ENDBRANCH  30  38
ENDBRANCH  29  30
ENDBRANCH  28  29
ENDBRANCH  26  28
ENDBRANCH   1  26
TORSDOF 9
ENDMDL
MODEL 2
REMARK minimizedAffinity -8.17940044
REMARK CNNscore 0.408738136
REMARK CNNaffinity 6.89846277
REMARK  9 active torsions:
REMARK  status: ('A' for Active; 'I' for Inactive)
REMARK    1  A    between atoms: O1_2  and  C2_3 
REMARK    2  A    between atoms: C2_3  and  C4_5 
REMARK    3  A    between atoms: C2_3  and  C5_7 
REMARK    4  A    between atoms: C4_5  and  O2_6 
REMARK    5  A    between atoms: C5_7  and  O3_8 
REMARK    6  A    between atoms: C5_7  and  C6_9 
REMARK    7  A    between atoms: C6_9  and  C7_10 
REMARK    8  A    between atoms: C7_10  and  C8_11 
REMARK    9  A    between atoms: C8_11  and  C10_13 
ROOT
HETATM    1  C10 UNL     1      -5.410   6.219  14.741  1.00  0.00    -0.001 C 
HETATM    2  C11 UNL     1      -5.676   5.145  13.648  1.00  0.00     0.007 C 
HETATM    3  C12 UNL     1      -4.374   4.964  12.849  1.00  0.00     0.015 C 
HETATM    4  C13 UNL     1      -3.288   5.660  13.690  1.00  0.00    -0.004 C 
HETATM    5  C14 UNL     1      -2.825   4.640  14.773  1.00  0.00     0.021 C 
HETATM    6  C15 UNL     1      -2.009   6.158  13.035  1.00  0.00     0.007 C 
HETATM    7  C16 UNL     1      -1.280   7.183  13.543  1.00  0.00     0.007 C 
HETATM    8  C17 UNL     1      -1.832   7.887  14.774  1.00  0.00     0.157 C 
HETATM    9  O4  UNL     1      -1.147   8.709  15.384  1.00  0.00    -0.293 OA
HETATM   10  C18 UNL     1      -3.238   7.587  15.282  1.00  0.00     0.094 C 
HETATM   11  C19 UNL     1      -4.099   6.894  14.229  1.00  0.00    -0.022 C 
HETATM   12  C20 UNL     1      -4.452   7.934  13.117  1.00  0.00     0.017 C 
HETATM   13  C21 UNL     1       0.060   7.695  12.950  1.00  0.00    -0.007 C 
HETATM   14  C22 UNL     1      -0.251   9.062  12.293  1.00  0.00     0.021 C 
HETATM   15  C23 UNL     1       1.152   7.899  14.050  1.00  0.00     0.022 C 
HETATM   16  C24 UNL     1       2.603   7.712  13.603  1.00  0.00     0.080 C 
HETATM   17  C25 UNL     1       2.777   7.963  12.127  1.00  0.00     0.135 C 
HETATM   18  O5  UNL     1       3.598   8.781  11.715  1.00  0.00    -0.297 OA
HETATM   19  C26 UNL     1       1.943   7.087  11.185  1.00  0.00     0.018 C 
HETATM   20  C27 UNL     1       1.698   7.834   9.860  1.00  0.00     0.023 C 
HETATM   21  C28 UNL     1       2.800   5.845  10.862  1.00  0.00     0.023 C 
HETATM   22  C29 UNL     1       0.633   6.649  11.928  1.00  0.00     0.021 C 
HETATM   23  C30 UNL     1      -0.458   6.144  10.986  1.00  0.00     0.090 C 
HETATM   24  C31 UNL     1      -1.530   5.470  11.798  1.00  0.00     0.157 C 
HETATM   25  O6  UNL     1      -2.008   4.399  11.435  1.00  0.00    -0.293 OA
ENDROOT
BRANCH   1  26
HETATM   26  C8  UNL     1      -6.675   7.084  15.028  1.00  0.00    -0.014 C 
HETATM   27  C9  UNL     1      -7.109   6.999  16.496  1.00  0.00     0.010 C 
BRANCH  26  28
HETATM   28  C7  UNL     1      -7.852   6.645  14.114  1.00  0.00     0.007 C 
BRANCH  28  29
HETATM   29  C6  UNL     1      -9.206   7.255  14.524  1.00  0.00     0.035 C 
BRANCH  29  30
HETATM   30  C5  UNL     1     -10.373   6.673  13.703  1.00  0.00     0.154 C 
BRANCH  30  31
HETATM   31  C2  UNL     1     -11.722   7.468  13.824  1.00  0.00     0.103 C 
HETATM   32  C3  UNL     1     -12.910   6.540  14.118  1.00  0.00     0.051 C 
BRANCH  31  33
HETATM   33  O1  UNL     1     -12.003   8.245  12.628  1.00  0.00    -0.381 OA
HETATM   34  C1  UNL     1     -13.034   9.218  12.729  1.00  0.00     0.202 C 
ENDBRANCH  31  33
BRANCH  31  35
HETATM   35  C4  UNL     1     -11.654   8.540  14.939  1.00  0.00     0.204 C 
BRANCH  35  36
HETATM   36  O2  UNL     1     -12.500   8.164  16.032  1.00  0.00    -0.398 OA
HETATM   37  H9  UNL     1     -12.163   7.284  16.305  1.00  0.00     0.209 HD
ENDBRANCH  35  36
ENDBRANCH  31  35
ENDBRANCH  30  31
BRANCH  30  38
HETATM   38  O3  UNL     1      -9.959   6.569  12.334  1.00  0.00    -0.392 OA
HETATM   39  H11 UNL     1     -10.011   7.472  11.956  1.00  0.00     0.210 HD
ENDBRANCH  30  38
ENDBRANCH  29  30
ENDBRANCH  28  29
ENDBRANCH  26  28
ENDBRANCH   1  26
TORSDOF 9
ENDMDL
MODEL 3
REMARK minimizedAffinity -7.37160921
REMARK CNNscore 0.407012582
REMARK CNNaffinity 7.41866636
REMARK  9 active torsions:
REMARK  status: ('A' for Active; 'I' for Inactive)
REMARK    1  A    between atoms: O1_2  and  C2_3 
REMARK    2  A    between atoms: C2_3  and  C4_5 
REMARK    3  A    between atoms: C2_3  and  C5_7 
REMARK    4  A    between atoms: C4_5  and  O2_6 
REMARK    5  A    between atoms: C5_7  and  O3_8 
REMARK    6  A    between atoms: C5_7  and  C6_9 
REMARK    7  A    between atoms: C6_9  and  C7_10 
REMARK    8  A    between atoms: C7_10  and  C8_11 
REMARK    9  A    between atoms: C8_11  and  C10_13 
ROOT
HETATM    1  C10 UNL     1      -5.080   6.784  15.050  1.00  0.00    -0.001 C 
HETATM    2  C11 UNL     1      -4.875   8.229  15.587  1.00  0.00     0.007 C 
HETATM    3  C12 UNL     1      -6.251   8.915  15.612  1.00  0.00     0.015 C 
HETATM    4  C13 UNL     1      -7.270   7.774  15.429  1.00  0.00    -0.004 C 
HETATM    5  C14 UNL     1      -7.504   7.140  16.833  1.00  0.00     0.021 C 
HETATM    6  C15 UNL     1      -8.659   8.065  14.884  1.00  0.00     0.007 C 
HETATM    7  C16 UNL     1      -9.396   7.134  14.228  1.00  0.00     0.007 C 
HETATM    8  C17 UNL     1      -8.745   5.780  13.980  1.00  0.00     0.157 C 
HETATM    9  O4  UNL     1      -9.408   4.838  13.543  1.00  0.00    -0.293 OA
HETATM   10  C18 UNL     1      -7.265   5.558  14.272  1.00  0.00     0.094 C 
HETATM   11  C19 UNL     1      -6.497   6.871  14.401  1.00  0.00    -0.022 C 
HETATM   12  C20 UNL     1      -6.378   7.515  12.981  1.00  0.00     0.017 C 
HETATM   13  C21 UNL     1     -10.839   7.356  13.700  1.00  0.00    -0.007 C 
HETATM   14  C22 UNL     1     -10.727   7.451  12.159  1.00  0.00     0.021 C 
HETATM   15  C23 UNL     1     -11.790   6.170  14.067  1.00  0.00     0.022 C 
HETATM   16  C24 UNL     1     -13.266   6.523  14.250  1.00  0.00     0.080 C 
HETATM   17  C25 UNL     1     -13.653   7.762  13.482  1.00  0.00     0.135 C 
HETATM   18  O5  UNL     1     -14.584   7.745  12.679  1.00  0.00    -0.297 OA
HETATM   19  C26 UNL     1     -12.881   9.041  13.823  1.00  0.00     0.018 C 
HETATM   20  C27 UNL     1     -12.873   9.985  12.606  1.00  0.00     0.023 C 
HETATM   21  C28 UNL     1     -13.671   9.746  14.947  1.00  0.00     0.023 C 
HETATM   22  C29 UNL     1     -11.455   8.650  14.343  1.00  0.00     0.021 C 
HETATM   23  C30 UNL     1     -10.460   9.808  14.313  1.00  0.00     0.090 C 
HETATM   24  C31 UNL     1      -9.240   9.424  15.106  1.00  0.00     0.157 C 
HETATM   25  O6  UNL     1      -8.729  10.218  15.890  1.00  0.00    -0.293 OA
ENDROOT
BRANCH   1  26
HETATM   26  C8  UNL     1      -3.862   6.296  14.208  1.00  0.00    -0.014 C 
HETATM   27  C9  UNL     1      -3.758   7.034  12.867  1.00  0.00     0.010 C 
BRANCH  26  28
HETATM   28  C7  UNL     1      -3.955   4.767  13.952  1.00  0.00     0.007 C 
BRANCH  28  29
HETATM   29  C6  UNL     1      -3.999   4.399  12.457  1.00  0.00     0.035 C 
BRANCH  29  30
HETATM   30  C5  UNL     1      -4.302   2.903  12.240  1.00  0.00     0.154 C 
BRANCH  30  31
HETATM   31  C2  UNL     1      -5.702   2.603  11.597  1.00  0.00     0.103 C 
HETATM   32  C3  UNL     1      -5.794   1.163  11.070  1.00  0.00     0.051 C 
BRANCH  31  33
HETATM   33  O1  UNL     1      -6.018   3.529  10.523  1.00  0.00    -0.381 OA
HETATM   34  C1  UNL     1      -5.632   3.140   9.212  1.00  0.00     0.202 C 
ENDBRANCH  31  33
BRANCH  31  35
HETATM   35  C4  UNL     1      -6.853   2.823  12.609  1.00  0.00     0.204 C 
BRANCH  35  36
HETATM   36  O2  UNL     1      -7.799   1.752  12.519  1.00  0.00    -0.398 OA
HETATM   37  H9  UNL     1      -7.266   0.947  12.692  1.00  0.00     0.209 HD
ENDBRANCH  35  36
ENDBRANCH  31  35
ENDBRANCH  30  31
BRANCH  30  38
HETATM   38  O3  UNL     1      -3.245   2.335  11.454  1.00  0.00    -0.392 OA
HETATM   39  H11 UNL     1      -3.407   2.606  10.526  1.00  0.00     0.210 HD
ENDBRANCH  30  38
ENDBRANCH  29  30
ENDBRANCH  28  29
ENDBRANCH  26  28
ENDBRANCH   1  26
TORSDOF 9
ENDMDL
MODEL 4
REMARK minimizedAffinity -7.34669638
REMARK CNNscore 0.401810229
REMARK CNNaffinity 6.33330965
REMARK  9 active torsions:
REMARK  status: ('A' for Active; 'I' for Inactive)
REMARK    1  A    between atoms: O1_2  and  C2_3 
REMARK    2  A    between atoms: C2_3  and  C4_5 
REMARK    3  A    between atoms: C2_3  and  C5_7 
REMARK    4  A    between atoms: C4_5  and  O2_6 
REMARK    5  A    between atoms: C5_7  and  O3_8 
REMARK    6  A    between atoms: C5_7  and  C6_9 
REMARK    7  A    between atoms: C6_9  and  C7_10 
REMARK    8  A    between atoms: C7_10  and  C8_11 
REMARK    9  A    between atoms: C8_11  and  C10_13 
ROOT
HETATM    1  C10 UNL     1      -7.656   2.297  -9.534  1.00  0.00    -0.001 C 
HETATM    2  C11 UNL     1      -6.296   1.928  -8.877  1.00  0.00     0.007 C 
HETATM    3  C12 UNL     1      -6.457   0.544  -8.224  1.00  0.00     0.015 C 
HETATM    4  C13 UNL     1      -7.770  -0.019  -8.798  1.00  0.00    -0.004 C 
HETATM    5  C14 UNL     1      -7.430  -0.654 -10.180  1.00  0.00     0.021 C 
HETATM    6  C15 UNL     1      -8.542  -1.089  -8.044  1.00  0.00     0.007 C 
HETATM    7  C16 UNL     1      -9.882  -1.258  -8.181  1.00  0.00     0.007 C 
HETATM    8  C17 UNL     1     -10.619  -0.271  -9.076  1.00  0.00     0.157 C 
HETATM    9  O4  UNL     1     -11.797  -0.461  -9.379  1.00  0.00    -0.293 OA
HETATM   10  C18 UNL     1      -9.915   0.967  -9.621  1.00  0.00     0.094 C 
HETATM   11  C19 UNL     1      -8.636   1.292  -8.853  1.00  0.00    -0.022 C 
HETATM   12  C20 UNL     1      -9.031   1.830  -7.439  1.00  0.00     0.017 C 
HETATM   13  C21 UNL     1     -10.712  -2.367  -7.482  1.00  0.00    -0.007 C 
HETATM   14  C22 UNL     1     -11.541  -1.660  -6.382  1.00  0.00     0.021 C 
HETATM   15  C23 UNL     1     -11.688  -3.085  -8.469  1.00  0.00     0.022 C 
HETATM   16  C24 UNL     1     -12.015  -4.545  -8.152  1.00  0.00     0.080 C 
HETATM   17  C25 UNL     1     -11.853  -4.856  -6.686  1.00  0.00     0.135 C 
HETATM   18  O5  UNL     1     -12.776  -5.346  -6.037  1.00  0.00    -0.297 OA
HETATM   19  C26 UNL     1     -10.465  -4.608  -6.087  1.00  0.00     0.018 C 
HETATM   20  C27 UNL     1     -10.591  -4.319  -4.579  1.00  0.00     0.023 C 
HETATM   21  C28 UNL     1      -9.677  -5.927  -6.238  1.00  0.00     0.023 C 
HETATM   22  C29 UNL     1      -9.756  -3.471  -6.902  1.00  0.00     0.021 C 
HETATM   23  C30 UNL     1      -8.572  -2.846  -6.167  1.00  0.00     0.090 C 
HETATM   24  C31 UNL     1      -7.786  -2.005  -7.136  1.00  0.00     0.157 C 
HETATM   25  O6  UNL     1      -6.560  -2.057  -7.157  1.00  0.00    -0.293 OA
ENDROOT
BRANCH   1  26
HETATM   26  C8  UNL     1      -7.936   3.830  -9.470  1.00  0.00    -0.014 C 
HETATM   27  C9  UNL     1      -8.771   4.312 -10.662  1.00  0.00     0.010 C 
BRANCH  26  28
HETATM   28  C7  UNL     1      -6.602   4.625  -9.416  1.00  0.00     0.007 C 
BRANCH  28  29
HETATM   29  C6  UNL     1      -6.524   5.608  -8.233  1.00  0.00     0.035 C 
BRANCH  29  30
HETATM   30  C5  UNL     1      -5.300   6.539  -8.338  1.00  0.00     0.154 C 
BRANCH  30  31
HETATM   31  C2  UNL     1      -4.466   6.679  -7.015  1.00  0.00     0.103 C 
HETATM   32  C3  UNL     1      -4.614   5.446  -6.110  1.00  0.00     0.051 C 
BRANCH  31  33
HETATM   33  O1  UNL     1      -4.830   7.871  -6.266  1.00  0.00    -0.381 OA
HETATM   34  C1  UNL     1      -3.810   8.842  -6.079  1.00  0.00     0.202 C 
ENDBRANCH  31  33
BRANCH  31  35
HETATM   35  C4  UNL     1      -2.960   6.888  -7.308  1.00  0.00     0.204 C 
BRANCH  35  36
HETATM   36  O2  UNL     1      -2.188   5.870  -6.662  1.00  0.00    -0.398 OA
HETATM   37  H9  UNL     1      -2.551   5.031  -7.019  1.00  0.00     0.209 HD
ENDBRANCH  35  36
ENDBRANCH  31  35
ENDBRANCH  30  31
BRANCH  30  38
HETATM   38  O3  UNL     1      -4.474   6.085  -9.418  1.00  0.00    -0.392 OA
HETATM   39  H11 UNL     1      -3.979   5.306  -9.086  1.00  0.00     0.210 HD
ENDBRANCH  30  38
ENDBRANCH  29  30
ENDBRANCH  28  29
ENDBRANCH  26  28
ENDBRANCH   1  26
TORSDOF 9
ENDMDL
MODEL 5
REMARK minimizedAffinity -8.62855625
REMARK CNNscore 0.326348692
REMARK CNNaffinity 6.93917036
REMARK  9 active torsions:
REMARK  status: ('A' for Active; 'I' for Inactive)
REMARK    1  A    between atoms: O1_2  and  C2_3 
REMARK    2  A    between atoms: C2_3  and  C4_5 
REMARK    3  A    between atoms: C2_3  and  C5_7 
REMARK    4  A    between atoms: C4_5  and  O2_6 
REMARK    5  A    between atoms: C5_7  and  O3_8 
REMARK    6  A    between atoms: C5_7  and  C6_9 
REMARK    7  A    between atoms: C6_9  and  C7_10 
REMARK    8  A    between atoms: C7_10  and  C8_11 
REMARK    9  A    between atoms: C8_11  and  C10_13 
ROOT
HETATM    1  C10 UNL     1      -6.196   7.042  14.982  1.00  0.00    -0.001 C 
HETATM    2  C11 UNL     1      -5.955   8.438  15.625  1.00  0.00     0.007 C 
HETATM    3  C12 UNL     1      -4.552   8.906  15.204  1.00  0.00     0.015 C 
HETATM    4  C13 UNL     1      -4.141   7.961  14.059  1.00  0.00    -0.004 C 
HETATM    5  C14 UNL     1      -4.777   8.522  12.752  1.00  0.00     0.021 C 
HETATM    6  C15 UNL     1      -2.672   7.745  13.730  1.00  0.00     0.007 C 
HETATM    7  C16 UNL     1      -2.214   6.611  13.142  1.00  0.00     0.007 C 
HETATM    8  C17 UNL     1      -3.227   5.504  12.884  1.00  0.00     0.157 C 
HETATM    9  O4  UNL     1      -2.920   4.521  12.207  1.00  0.00    -0.293 OA
HETATM   10  C18 UNL     1      -4.640   5.588  13.451  1.00  0.00     0.094 C 
HETATM   11  C19 UNL     1      -4.751   6.609  14.580  1.00  0.00    -0.022 C 
HETATM   12  C20 UNL     1      -4.012   6.042  15.835  1.00  0.00     0.017 C 
HETATM   13  C21 UNL     1      -0.739   6.359  12.732  1.00  0.00    -0.007 C 
HETATM   14  C22 UNL     1      -0.181   5.322  13.738  1.00  0.00     0.021 C 
HETATM   15  C23 UNL     1      -0.619   5.778  11.286  1.00  0.00     0.022 C 
HETATM   16  C24 UNL     1       0.660   6.126  10.524  1.00  0.00     0.080 C 
HETATM   17  C25 UNL     1       1.808   6.430  11.452  1.00  0.00     0.135 C 
HETATM   18  O5  UNL     1       2.874   5.824  11.362  1.00  0.00    -0.297 OA
HETATM   19  C26 UNL     1       1.596   7.581  12.442  1.00  0.00     0.018 C 
HETATM   20  C27 UNL     1       2.474   7.364  13.689  1.00  0.00     0.023 C 
HETATM   21  C28 UNL     1       2.098   8.862  11.742  1.00  0.00     0.023 C 
HETATM   22  C29 UNL     1       0.064   7.709  12.749  1.00  0.00     0.021 C 
HETATM   23  C30 UNL     1      -0.236   8.514  14.013  1.00  0.00     0.090 C 
HETATM   24  C31 UNL     1      -1.705   8.839  14.047  1.00  0.00     0.157 C 
HETATM   25  O6  UNL     1      -2.088   9.965  14.351  1.00  0.00    -0.293 OA
ENDROOT
BRANCH   1  26
HETATM   26  C8  UNL     1      -7.064   6.122  15.895  1.00  0.00    -0.014 C 
HETATM   27  C9  UNL     1      -7.391   4.785  15.219  1.00  0.00     0.010 C 
BRANCH  26  28
HETATM   28  C7  UNL     1      -8.384   6.840  16.291  1.00  0.00     0.007 C 
BRANCH  28  29
HETATM   29  C6  UNL     1      -8.972   7.705  15.161  1.00  0.00     0.035 C 
BRANCH  29  30
HETATM   30  C5  UNL     1     -10.386   7.245  14.757  1.00  0.00     0.154 C 
BRANCH  30  31
HETATM   31  C2  UNL     1     -11.290   8.367  14.135  1.00  0.00     0.103 C 
HETATM   32  C3  UNL     1     -10.674   9.763  14.311  1.00  0.00     0.051 C 
BRANCH  31  33
HETATM   33  O1  UNL     1     -12.631   8.360  14.697  1.00  0.00    -0.381 OA
HETATM   34  C1  UNL     1     -12.865   9.228  15.797  1.00  0.00     0.202 C 
ENDBRANCH  31  33
BRANCH  31  35
HETATM   35  C4  UNL     1     -11.535   8.131  12.624  1.00  0.00     0.204 C 
BRANCH  35  36
HETATM   36  O2  UNL     1     -11.849   9.370  11.979  1.00  0.00    -0.398 OA
HETATM   37  H9  UNL     1     -11.078   9.944  12.172  1.00  0.00     0.209 HD
ENDBRANCH  35  36
ENDBRANCH  31  35
ENDBRANCH  30  31
BRANCH  30  38
HETATM   38  O3  UNL     1     -10.263   6.131  13.862  1.00  0.00    -0.392 OA
HETATM   39  H11 UNL     1     -10.024   6.499  12.985  1.00  0.00     0.210 HD
ENDBRANCH  30  38
ENDBRANCH  29  30
ENDBRANCH  28  29
ENDBRANCH  26  28
ENDBRANCH   1  26
TORSDOF 9
ENDMDL
MODEL 6
REMARK minimizedAffinity -7.23157835
REMARK CNNscore 0.307574332
REMARK CNNaffinity 6.85468483
REMARK  9 active torsions:
REMARK  status: ('A' for Active; 'I' for Inactive)
REMARK    1  A    between atoms: O1_2  and  C2_3 
REMARK    2  A    between atoms: C2_3  and  C4_5 
REMARK    3  A    between atoms: C2_3  and  C5_7 
REMARK    4  A    between atoms: C4_5  and  O2_6 
REMARK    5  A    between atoms: C5_7  and  O3_8 
REMARK    6  A    between atoms: C5_7  and  C6_9 
REMARK    7  A    between atoms: C6_9  and  C7_10 
REMARK    8  A    between atoms: C7_10  and  C8_11 
REMARK    9  A    between atoms: C8_11  and  C10_13 
ROOT
HETATM    1  C10 UNL     1      -5.393   5.610  14.036  1.00  0.00    -0.001 C 
HETATM    2  C11 UNL     1      -5.088   6.161  15.458  1.00  0.00     0.007 C 
HETATM    3  C12 UNL     1      -6.396   6.738  16.023  1.00  0.00     0.015 C 
HETATM    4  C13 UNL     1      -7.502   6.211  15.090  1.00  0.00    -0.004 C 
HETATM    5  C14 UNL     1      -7.866   4.776  15.575  1.00  0.00     0.021 C 
HETATM    6  C15 UNL     1      -8.829   6.945  14.979  1.00  0.00     0.007 C 
HETATM    7  C16 UNL     1      -9.611   6.879  13.872  1.00  0.00     0.007 C 
HETATM    8  C17 UNL     1      -9.072   6.092  12.686  1.00  0.00     0.157 C 
HETATM    9  O4  UNL     1      -9.792   5.849  11.717  1.00  0.00    -0.293 OA
HETATM   10  C18 UNL     1      -7.635   5.581  12.674  1.00  0.00     0.094 C 
HETATM   11  C19 UNL     1      -6.760   6.288  13.706  1.00  0.00    -0.022 C 
HETATM   12  C20 UNL     1      -6.509   7.753  13.221  1.00  0.00     0.017 C 
HETATM   13  C21 UNL     1     -10.998   7.559  13.725  1.00  0.00    -0.007 C 
HETATM   14  C22 UNL     1     -10.797   8.748  12.753  1.00  0.00     0.021 C 
HETATM   15  C23 UNL     1     -12.070   6.591  13.126  1.00  0.00     0.022 C 
HETATM   16  C24 UNL     1     -13.516   6.839  13.555  1.00  0.00     0.080 C 
HETATM   17  C25 UNL     1     -13.749   8.272  13.963  1.00  0.00     0.135 C 
HETATM   18  O5  UNL     1     -14.634   8.945  13.438  1.00  0.00    -0.297 OA
HETATM   19  C26 UNL     1     -12.885   8.799  15.114  1.00  0.00     0.018 C 
HETATM   20  C27 UNL     1     -12.728  10.326  14.989  1.00  0.00     0.023 C 
HETATM   21  C28 UNL     1     -13.667   8.522  16.416  1.00  0.00     0.023 C 
HETATM   22  C29 UNL     1     -11.529   8.013  15.132  1.00  0.00     0.021 C 
HETATM   23  C30 UNL     1     -10.433   8.711  15.936  1.00  0.00     0.090 C 
HETATM   24  C31 UNL     1      -9.296   7.749  16.149  1.00  0.00     0.157 C 
HETATM   25  O6  UNL     1      -8.759   7.651  17.249  1.00  0.00    -0.293 OA
ENDROOT
BRANCH   1  26
HETATM   26  C8  UNL     1      -4.180   5.784  13.071  1.00  0.00    -0.014 C 
HETATM   27  C9  UNL     1      -3.579   4.436  12.655  1.00  0.00     0.010 C 
BRANCH  26  28
HETATM   28  C7  UNL     1      -3.080   6.659  13.733  1.00  0.00     0.007 C 
BRANCH  28  29
HETATM   29  C6  UNL     1      -2.660   7.866  12.873  1.00  0.00     0.035 C 
BRANCH  29  30
HETATM   30  C5  UNL     1      -1.206   8.295  13.152  1.00  0.00     0.154 C 
BRANCH  30  31
HETATM   31  C2  UNL     1      -0.115   7.278  12.662  1.00  0.00     0.103 C 
HETATM   32  C3  UNL     1       1.241   7.961  12.429  1.00  0.00     0.051 C 
BRANCH  31  33
HETATM   33  O1  UNL     1      -0.520   6.588  11.449  1.00  0.00    -0.381 OA
HETATM   34  C1  UNL     1      -0.114   5.233  11.321  1.00  0.00     0.202 C 
ENDBRANCH  31  33
BRANCH  31  35
HETATM   35  C4  UNL     1       0.088   6.127  13.677  1.00  0.00     0.204 C 
BRANCH  35  36
HETATM   36  O2  UNL     1       0.716   6.624  14.864  1.00  0.00    -0.398 OA
HETATM   37  H9  UNL     1       0.110   7.329  15.178  1.00  0.00     0.209 HD
ENDBRANCH  35  36
ENDBRANCH  31  35
ENDBRANCH  30  31
BRANCH  30  38
HETATM   38  O3  UNL     1      -0.996   9.591  12.574  1.00  0.00    -0.392 OA
HETATM   39  H11 UNL     1      -0.876   9.453  11.611  1.00  0.00     0.210 HD
ENDBRANCH  30  38
ENDBRANCH  29  30
ENDBRANCH  28  29
ENDBRANCH  26  28
ENDBRANCH   1  26
TORSDOF 9
ENDMDL
MODEL 7
REMARK minimizedAffinity -8.65144253
REMARK CNNscore 0.255771816
REMARK CNNaffinity 6.40524673
REMARK  9 active torsions:
REMARK  status: ('A' for Active; 'I' for Inactive)
REMARK    1  A    between atoms: O1_2  and  C2_3 
REMARK    2  A    between atoms: C2_3  and  C4_5 
REMARK    3  A    between atoms: C2_3  and  C5_7 
REMARK    4  A    between atoms: C4_5  and  O2_6 
REMARK    5  A    between atoms: C5_7  and  O3_8 
REMARK    6  A    between atoms: C5_7  and  C6_9 
REMARK    7  A    between atoms: C6_9  and  C7_10 
REMARK    8  A    between atoms: C7_10  and  C8_11 
REMARK    9  A    between atoms: C8_11  and  C10_13 
ROOT
HETATM    1  C10 UNL     1       3.079   7.499  10.890  1.00  0.00    -0.001 C 
HETATM    2  C11 UNL     1       3.155   5.987  10.531  1.00  0.00     0.007 C 
HETATM    3  C12 UNL     1       1.779   5.369  10.832  1.00  0.00     0.015 C 
HETATM    4  C13 UNL     1       0.834   6.571  11.023  1.00  0.00    -0.004 C 
HETATM    5  C14 UNL     1       0.378   7.024   9.604  1.00  0.00     0.021 C 
HETATM    6  C15 UNL     1      -0.447   6.421  11.828  1.00  0.00     0.007 C 
HETATM    7  C16 UNL     1      -1.038   7.465  12.463  1.00  0.00     0.007 C 
HETATM    8  C17 UNL     1      -0.322   8.807  12.408  1.00  0.00     0.157 C 
HETATM    9  O4  UNL     1      -0.877   9.829  12.815  1.00  0.00    -0.293 OA
HETATM   10  C18 UNL     1       1.091   8.919  11.844  1.00  0.00     0.094 C 
HETATM   11  C19 UNL     1       1.794   7.565  11.773  1.00  0.00    -0.022 C 
HETATM   12  C20 UNL     1       2.140   7.110  13.227  1.00  0.00     0.017 C 
HETATM   13  C21 UNL     1      -2.373   7.383  13.249  1.00  0.00    -0.007 C 
HETATM   14  C22 UNL     1      -2.000   7.487  14.748  1.00  0.00     0.021 C 
HETATM   15  C23 UNL     1      -3.345   8.553  12.886  1.00  0.00     0.022 C 
HETATM   16  C24 UNL     1      -4.838   8.250  13.004  1.00  0.00     0.080 C 
HETATM   17  C25 UNL     1      -5.116   7.143  13.989  1.00  0.00     0.135 C 
HETATM   18  O5  UNL     1      -5.895   7.310  14.927  1.00  0.00    -0.297 OA
HETATM   19  C26 UNL     1      -4.446   5.795  13.704  1.00  0.00     0.018 C 
HETATM   20  C27 UNL     1      -4.251   5.021  15.022  1.00  0.00     0.023 C 
HETATM   21  C28 UNL     1      -5.434   4.985  12.838  1.00  0.00     0.023 C 
HETATM   22  C29 UNL     1      -3.121   6.046  12.904  1.00  0.00     0.021 C 
HETATM   23  C30 UNL     1      -2.164   4.856  12.928  1.00  0.00     0.090 C 
HETATM   24  C31 UNL     1      -1.090   5.074  11.897  1.00  0.00     0.157 C 
HETATM   25  O6  UNL     1      -0.741   4.159  11.156  1.00  0.00    -0.293 OA
ENDROOT
BRANCH   1  26
HETATM   26  C8  UNL     1       4.436   8.035  11.441  1.00  0.00    -0.014 C 
HETATM   27  C9  UNL     1       5.141   8.955  10.436  1.00  0.00     0.010 C 
BRANCH  26  28
HETATM   28  C7  UNL     1       5.377   6.856  11.811  1.00  0.00     0.007 C 
BRANCH  28  29
HETATM   29  C6  UNL     1       6.827   7.294  12.087  1.00  0.00     0.035 C 
BRANCH  29  30
HETATM   30  C5  UNL     1       7.226   7.073  13.560  1.00  0.00     0.154 C 
BRANCH  30  31
HETATM   31  C2  UNL     1       8.050   8.245  14.201  1.00  0.00     0.103 C 
HETATM   32  C3  UNL     1       7.213   9.526  14.338  1.00  0.00     0.051 C 
BRANCH  31  33
HETATM   33  O1  UNL     1       9.257   8.539  13.445  1.00  0.00    -0.381 OA
HETATM   34  C1  UNL     1      10.494   8.285  14.095  1.00  0.00     0.202 C 
ENDBRANCH  31  33
BRANCH  31  35
HETATM   35  C4  UNL     1       8.590   7.865  15.601  1.00  0.00     0.204 C 
BRANCH  35  36
HETATM   36  O2  UNL     1       7.552   7.996  16.579  1.00  0.00    -0.398 OA
HETATM   37  H9  UNL     1       6.840   7.406  16.253  1.00  0.00     0.209 HD
ENDBRANCH  35  36
ENDBRANCH  31  35
ENDBRANCH  30  31
BRANCH  30  38
HETATM   38  O3  UNL     1       6.038   6.807  14.317  1.00  0.00    -0.392 OA
HETATM   39  H11 UNL     1       5.597   7.671  14.462  1.00  0.00     0.210 HD
ENDBRANCH  30  38
ENDBRANCH  29  30
ENDBRANCH  28  29
ENDBRANCH  26  28
ENDBRANCH   1  26
TORSDOF 9
ENDMDL
MODEL 8
REMARK minimizedAffinity -8.39621925
REMARK CNNscore 0.226128891
REMARK CNNaffinity 6.73877287
REMARK  9 active torsions:
REMARK  status: ('A' for Active; 'I' for Inactive)
REMARK    1  A    between atoms: O1_2  and  C2_3 
REMARK    2  A    between atoms: C2_3  and  C4_5 
REMARK    3  A    between atoms: C2_3  and  C5_7 
REMARK    4  A    between atoms: C4_5  and  O2_6 
REMARK    5  A    between atoms: C5_7  and  O3_8 
REMARK    6  A    between atoms: C5_7  and  C6_9 
REMARK    7  A    between atoms: C6_9  and  C7_10 
REMARK    8  A    between atoms: C7_10  and  C8_11 
REMARK    9  A    between atoms: C8_11  and  C10_13 
ROOT
HETATM    1  C10 UNL     1       1.439   7.092  12.661  1.00  0.00    -0.001 C 
HETATM    2  C11 UNL     1       0.635   8.199  13.402  1.00  0.00     0.007 C 
HETATM    3  C12 UNL     1      -0.809   7.695  13.563  1.00  0.00     0.015 C 
HETATM    4  C13 UNL     1      -0.746   6.191  13.237  1.00  0.00    -0.004 C 
HETATM    5  C14 UNL     1      -0.292   5.460  14.536  1.00  0.00     0.021 C 
HETATM    6  C15 UNL     1      -1.992   5.452  12.775  1.00  0.00     0.007 C 
HETATM    7  C16 UNL     1      -1.937   4.336  12.006  1.00  0.00     0.007 C 
HETATM    8  C17 UNL     1      -0.561   3.878  11.543  1.00  0.00     0.157 C 
HETATM    9  O4  UNL     1      -0.420   2.788  10.987  1.00  0.00    -0.293 OA
HETATM   10  C18 UNL     1       0.669   4.751  11.763  1.00  0.00     0.094 C 
HETATM   11  C19 UNL     1       0.303   6.202  12.066  1.00  0.00    -0.022 C 
HETATM   12  C20 UNL     1      -0.240   6.860  10.757  1.00  0.00     0.017 C 
HETATM   13  C21 UNL     1      -3.171   3.510  11.553  1.00  0.00    -0.007 C 
HETATM   14  C22 UNL     1      -3.349   3.791  10.041  1.00  0.00     0.021 C 
HETATM   15  C23 UNL     1      -2.962   1.975  11.762  1.00  0.00     0.022 C 
HETATM   16  C24 UNL     1      -4.223   1.153  12.031  1.00  0.00     0.080 C 
HETATM   17  C25 UNL     1      -5.458   1.809  11.466  1.00  0.00     0.135 C 
HETATM   18  O5  UNL     1      -6.198   1.205  10.693  1.00  0.00    -0.297 OA
HETATM   19  C26 UNL     1      -5.772   3.220  11.976  1.00  0.00     0.018 C 
HETATM   20  C27 UNL     1      -6.578   3.990  10.913  1.00  0.00     0.023 C 
HETATM   21  C28 UNL     1      -6.682   3.050  13.210  1.00  0.00     0.023 C 
HETATM   22  C29 UNL     1      -4.432   3.917  12.396  1.00  0.00     0.021 C 
HETATM   23  C30 UNL     1      -4.550   5.436  12.515  1.00  0.00     0.090 C 
HETATM   24  C31 UNL     1      -3.326   5.967  13.211  1.00  0.00     0.157 C 
HETATM   25  O6  UNL     1      -3.428   6.815  14.092  1.00  0.00    -0.293 OA
ENDROOT
BRANCH   1  26
HETATM   26  C8  UNL     1       2.532   7.694  11.726  1.00  0.00    -0.014 C 
HETATM   27  C9  UNL     1       2.407   7.177  10.287  1.00  0.00     0.010 C 
BRANCH  26  28
HETATM   28  C7  UNL     1       3.951   7.370  12.270  1.00  0.00     0.007 C 
BRANCH  28  29
HETATM   29  C6  UNL     1       4.262   8.059  13.612  1.00  0.00     0.035 C 
BRANCH  29  30
HETATM   30  C5  UNL     1       5.579   7.550  14.231  1.00  0.00     0.154 C 
BRANCH  30  31
HETATM   31  C2  UNL     1       6.706   8.634  14.362  1.00  0.00     0.103 C 
HETATM   32  C3  UNL     1       6.130  10.028  14.649  1.00  0.00     0.051 C 
BRANCH  31  33
HETATM   33  O1  UNL     1       7.544   8.695  13.175  1.00  0.00    -0.381 OA
HETATM   34  C1  UNL     1       7.153   9.616  12.167  1.00  0.00     0.202 C 
ENDBRANCH  31  33
BRANCH  31  35
HETATM   35  C4  UNL     1       7.709   8.281  15.489  1.00  0.00     0.204 C 
BRANCH  35  36
HETATM   36  O2  UNL     1       7.186   8.692  16.757  1.00  0.00    -0.398 OA
HETATM   37  H9  UNL     1       6.328   8.222  16.826  1.00  0.00     0.209 HD
ENDBRANCH  35  36
ENDBRANCH  31  35
ENDBRANCH  30  31
BRANCH  30  38
HETATM   38  O3  UNL     1       5.284   6.959  15.504  1.00  0.00    -0.392 OA
HETATM   39  H11 UNL     1       5.157   7.700  16.135  1.00  0.00     0.210 HD
ENDBRANCH  30  38
ENDBRANCH  29  30
ENDBRANCH  28  29
ENDBRANCH  26  28
ENDBRANCH   1  26
TORSDOF 9
ENDMDL
MODEL 9
REMARK minimizedAffinity -6.73718166
REMARK CNNscore 0.218656301
REMARK CNNaffinity 5.6655159
REMARK  9 active torsions:
REMARK  status: ('A' for Active; 'I' for Inactive)
REMARK    1  A    between atoms: O1_2  and  C2_3 
REMARK    2  A    between atoms: C2_3  and  C4_5 
REMARK    3  A    between atoms: C2_3  and  C5_7 
REMARK    4  A    between atoms: C4_5  and  O2_6 
REMARK    5  A    between atoms: C5_7  and  O3_8 
REMARK    6  A    between atoms: C5_7  and  C6_9 
REMARK    7  A    between atoms: C6_9  and  C7_10 
REMARK    8  A    between atoms: C7_10  and  C8_11 
REMARK    9  A    between atoms: C8_11  and  C10_13 
ROOT
HETATM    1  C10 UNL     1       6.100   8.719  14.107  1.00  0.00    -0.001 C 
HETATM    2  C11 UNL     1       6.952   8.614  12.809  1.00  0.00     0.007 C 
HETATM    3  C12 UNL     1       8.368   9.113  13.142  1.00  0.00     0.015 C 
HETATM    4  C13 UNL     1       8.421   9.168  14.681  1.00  0.00    -0.004 C 
HETATM    5  C14 UNL     1       8.756   7.730  15.179  1.00  0.00     0.021 C 
HETATM    6  C15 UNL     1       9.417  10.077  15.384  1.00  0.00     0.007 C 
HETATM    7  C16 UNL     1       9.204  10.569  16.630  1.00  0.00     0.007 C 
HETATM    8  C17 UNL     1       7.873  10.238  17.290  1.00  0.00     0.157 C 
HETATM    9  O4  UNL     1       7.679  10.507  18.477  1.00  0.00    -0.293 OA
HETATM   10  C18 UNL     1       6.755   9.563  16.503  1.00  0.00     0.094 C 
HETATM   11  C19 UNL     1       6.965   9.669  14.994  1.00  0.00    -0.022 C 
HETATM   12  C20 UNL     1       6.715  11.150  14.563  1.00  0.00     0.017 C 
HETATM   13  C21 UNL     1      10.208  11.453  17.418  1.00  0.00    -0.007 C 
HETATM   14  C22 UNL     1       9.613  12.882  17.426  1.00  0.00     0.021 C 
HETATM   15  C23 UNL     1      10.387  10.970  18.894  1.00  0.00     0.022 C 
HETATM   16  C24 UNL     1      11.750  11.244  19.532  1.00  0.00     0.080 C 
HETATM   17  C25 UNL     1      12.448  12.419  18.895  1.00  0.00     0.135 C 
HETATM   18  O5  UNL     1      12.836  13.369  19.572  1.00  0.00    -0.297 OA
HETATM   19  C26 UNL     1      12.714  12.317  17.389  1.00  0.00     0.018 C 
HETATM   20  C27 UNL     1      12.788  13.728  16.776  1.00  0.00     0.023 C 
HETATM   21  C28 UNL     1      14.107  11.672  17.230  1.00  0.00     0.023 C 
HETATM   22  C29 UNL     1      11.625  11.392  16.743  1.00  0.00     0.021 C 
HETATM   23  C30 UNL     1      11.521  11.545  15.227  1.00  0.00     0.090 C 
HETATM   24  C31 UNL     1      10.690  10.417  14.678  1.00  0.00     0.157 C 
HETATM   25  O6  UNL     1      11.042   9.817  13.667  1.00  0.00    -0.293 OA
ENDROOT
BRANCH   1  26
HETATM   26  C8  UNL     1       4.613   9.072  13.800  1.00  0.00    -0.014 C 
HETATM   27  C9  UNL     1       3.829   9.414  15.073  1.00  0.00     0.010 C 
BRANCH  26  28
HETATM   28  C7  UNL     1       3.915   7.895  13.063  1.00  0.00     0.007 C 
BRANCH  28  29
HETATM   29  C6  UNL     1       3.630   8.187  11.578  1.00  0.00     0.035 C 
BRANCH  29  30
HETATM   30  C5  UNL     1       3.653   6.905  10.723  1.00  0.00     0.154 C 
BRANCH  30  31
HETATM   31  C2  UNL     1       2.525   6.820   9.635  1.00  0.00     0.103 C 
HETATM   32  C3  UNL     1       2.908   5.878   8.484  1.00  0.00     0.051 C 
BRANCH  31  33
HETATM   33  O1  UNL     1       2.191   8.128   9.094  1.00  0.00    -0.381 OA
HETATM   34  C1  UNL     1       2.878   8.524   7.916  1.00  0.00     0.202 C 
ENDBRANCH  31  33
BRANCH  31  35
HETATM   35  C4  UNL     1       1.185   6.331  10.239  1.00  0.00     0.204 C 
BRANCH  35  36
HETATM   36  O2  UNL     1       0.283   7.433  10.388  1.00  0.00    -0.398 OA
HETATM   37  H9  UNL     1       0.201   7.799   9.482  1.00  0.00     0.209 HD
ENDBRANCH  35  36
ENDBRANCH  31  35
ENDBRANCH  30  31
BRANCH  30  38
HETATM   38  O3  UNL     1       4.951   6.779  10.127  1.00  0.00    -0.392 OA
HETATM   39  H11 UNL     1       4.975   7.404   9.371  1.00  0.00     0.210 HD
ENDBRANCH  30  38
ENDBRANCH  29  30
ENDBRANCH  28  29
ENDBRANCH  26  28
ENDBRANCH   1  26
TORSDOF 9
ENDMDL
