MODEL 1
REMARK minimizedAffinity -8.61850548
REMARK  6 active torsions:
REMARK  status: ('A' for Active; 'I' for Inactive)
REMARK    1  A    between atoms: C2_2  and  C3_3 
REMARK    2  A    between atoms: C2_2  and  C9_10 
REMARK    3  A    between atoms: C3_3  and  C4_4 
REMARK    4  A    between atoms: C4_4  and  C5_5 
REMARK    5  A    between atoms: C17_18  and  C18_19 
REMARK    6  A    between atoms: C18_19  and  O2_22 
ROOT
HETATM    1  C9  UNL     1      -1.316  51.532 -22.228  1.00  0.00    -0.002 C 
HETATM    2  C10 UNL     1      -2.644  52.113 -22.812  1.00  0.00     0.006 C 
HETATM    3  C11 UNL     1      -3.782  51.150 -22.405  1.00  0.00     0.011 C 
HETATM    4  C12 UNL     1      -3.057  49.872 -21.950  1.00  0.00    -0.032 C 
HETATM    5  C13 UNL     1      -2.672  49.118 -23.268  1.00  0.00     0.016 C 
HETATM    6  C14 UNL     1      -3.856  48.946 -20.985  1.00  0.00     0.003 C 
HETATM    7  C15 UNL     1      -5.216  48.449 -21.506  1.00  0.00     0.009 C 
HETATM    8  C16 UNL     1      -5.718  47.189 -20.796  1.00  0.00     0.042 C 
HETATM    9  C17 UNL     1      -5.360  47.028 -19.284  1.00  0.00     0.095 C 
HETATM   10  O3  UNL     1      -5.661  45.634 -19.052  1.00  0.00    -0.377 OA
HETATM   11  C21 UNL     1      -5.274  45.029 -17.830  1.00  0.00     0.169 C 
HETATM   12  C22 UNL     1      -3.952  45.513 -17.263  1.00  0.00     0.027 C 
HETATM   13  C23 UNL     1      -3.086  46.139 -18.335  1.00  0.00     0.010 C 
HETATM   14  C24 UNL     1      -3.811  47.292 -19.070  1.00  0.00     0.032 C 
HETATM   15  C25 UNL     1      -3.002  47.786 -20.358  1.00  0.00    -0.033 C 
HETATM   16  C26 UNL     1      -2.764  46.622 -21.366  1.00  0.00     0.016 C 
HETATM   17  C27 UNL     1      -1.592  48.305 -19.887  1.00  0.00     0.011 C 
HETATM   18  C28 UNL     1      -0.885  49.333 -20.797  1.00  0.00     0.011 C 
HETATM   19  C29 UNL     1      -1.821  50.495 -21.177  1.00  0.00    -0.032 C 
HETATM   20  C30 UNL     1      -2.191  51.251 -19.866  1.00  0.00     0.016 C 
ENDROOT
BRANCH   1  21
HETATM   21  C2  UNL     1      -0.239  52.617 -21.923  1.00  0.00    -0.014 C 
HETATM   22  C1  UNL     1       0.688  52.369 -20.727  1.00  0.00     0.010 C 
BRANCH  21  23
HETATM   23  C3  UNL     1       0.578  52.973 -23.185  1.00  0.00     0.007 C 
BRANCH  23  24
HETATM   24  C4  UNL     1       0.262  52.081 -24.393  1.00  0.00     0.035 C 
BRANCH  24  25
HETATM   25  C5  UNL     1       1.261  52.293 -25.491  1.00  0.00     0.156 A 
HETATM   26  O1  UNL     1       0.886  53.281 -26.461  1.00  0.00    -0.370 OA
HETATM   27  C6  UNL     1       1.003  51.934 -26.946  1.00  0.00     0.080 A 
HETATM   28  C7  UNL     1       2.179  51.721 -27.849  1.00  0.00     0.048 C 
HETATM   29  C8  UNL     1      -0.293  51.329 -27.386  1.00  0.00     0.048 C 
ENDBRANCH  24  25
ENDBRANCH  23  24
ENDBRANCH  21  23
ENDBRANCH   1  21
BRANCH   9  30
HETATM   30  C18 UNL     1      -6.322  47.983 -18.408  1.00  0.00     0.082 C 
HETATM   31  C19 UNL     1      -7.139  48.947 -19.295  1.00  0.00     0.049 C 
HETATM   32  C20 UNL     1      -7.323  47.276 -17.479  1.00  0.00     0.049 C 
BRANCH  30  33
HETATM   33  O2  UNL     1      -5.524  48.792 -17.526  1.00  0.00    -0.388 OA
HETATM   34  H35 UNL     1      -6.090  49.491 -17.155  1.00  0.00     0.210 HD
ENDBRANCH  30  33
ENDBRANCH   9  30
TORSDOF 6
ENDMDL
MODEL 2
REMARK minimizedAffinity -8.59024525
REMARK  6 active torsions:
REMARK  status: ('A' for Active; 'I' for Inactive)
REMARK    1  A    between atoms: C2_2  and  C3_3 
REMARK    2  A    between atoms: C2_2  and  C9_10 
REMARK    3  A    between atoms: C3_3  and  C4_4 
REMARK    4  A    between atoms: C4_4  and  C5_5 
REMARK    5  A    between atoms: C17_18  and  C18_19 
REMARK    6  A    between atoms: C18_19  and  O2_22 
ROOT
HETATM    1  C9  UNL     1      -3.142  51.531 -25.638  1.00  0.00    -0.002 C 
HETATM    2  C10 UNL     1      -2.510  52.678 -24.785  1.00  0.00     0.006 C 
HETATM    3  C11 UNL     1      -2.677  52.288 -23.299  1.00  0.00     0.011 C 
HETATM    4  C12 UNL     1      -3.716  51.154 -23.316  1.00  0.00    -0.032 C 
HETATM    5  C13 UNL     1      -5.105  51.863 -23.452  1.00  0.00     0.016 C 
HETATM    6  C14 UNL     1      -3.692  50.194 -22.089  1.00  0.00     0.003 C 
HETATM    7  C15 UNL     1      -3.874  50.860 -20.713  1.00  0.00     0.009 C 
HETATM    8  C16 UNL     1      -4.345  49.892 -19.625  1.00  0.00     0.042 C 
HETATM    9  C17 UNL     1      -3.842  48.415 -19.712  1.00  0.00     0.095 C 
HETATM   10  O3  UNL     1      -4.729  47.743 -18.790  1.00  0.00    -0.377 OA
HETATM   11  C21 UNL     1      -4.733  46.327 -18.733  1.00  0.00     0.169 C 
HETATM   12  C22 UNL     1      -4.525  45.628 -20.064  1.00  0.00     0.027 C 
HETATM   13  C23 UNL     1      -4.864  46.537 -21.225  1.00  0.00     0.010 C 
HETATM   14  C24 UNL     1      -4.064  47.861 -21.181  1.00  0.00     0.032 C 
HETATM   15  C25 UNL     1      -4.596  48.921 -22.255  1.00  0.00    -0.033 C 
HETATM   16  C26 UNL     1      -6.106  49.242 -22.043  1.00  0.00     0.016 C 
HETATM   17  C27 UNL     1      -4.439  48.291 -23.689  1.00  0.00     0.011 C 
HETATM   18  C28 UNL     1      -4.322  49.274 -24.876  1.00  0.00     0.011 C 
HETATM   19  C29 UNL     1      -3.265  50.361 -24.612  1.00  0.00    -0.032 C 
HETATM   20  C30 UNL     1      -1.882  49.654 -24.491  1.00  0.00     0.016 C 
ENDROOT
BRANCH   1  21
HETATM   21  C2  UNL     1      -2.502  51.377 -27.051  1.00  0.00    -0.014 C 
HETATM   22  C1  UNL     1      -3.239  50.490 -28.063  1.00  0.00     0.010 C 
BRANCH  21  23
HETATM   23  C3  UNL     1      -2.164  52.751 -27.672  1.00  0.00     0.007 C 
BRANCH  23  24
HETATM   24  C4  UNL     1      -0.851  53.352 -27.154  1.00  0.00     0.035 C 
BRANCH  24  25
HETATM   25  C5  UNL     1       0.324  52.533 -27.598  1.00  0.00     0.156 A 
HETATM   26  O1  UNL     1       0.273  51.152 -27.211  1.00  0.00    -0.370 OA
HETATM   27  C6  UNL     1       1.339  51.929 -26.641  1.00  0.00     0.080 A 
HETATM   28  C7  UNL     1       2.693  51.568 -27.170  1.00  0.00     0.048 C 
HETATM   29  C8  UNL     1       1.232  52.119 -25.161  1.00  0.00     0.048 C 
ENDBRANCH  24  25
ENDBRANCH  23  24
ENDBRANCH  21  23
ENDBRANCH   1  21
BRANCH   9  30
HETATM   30  C18 UNL     1      -2.313  48.346 -19.202  1.00  0.00     0.082 C 
HETATM   31  C19 UNL     1      -1.337  48.008 -20.350  1.00  0.00     0.049 C 
HETATM   32  C20 UNL     1      -1.766  49.607 -18.510  1.00  0.00     0.049 C 
BRANCH  30  33
HETATM   33  O2  UNL     1      -2.182  47.309 -18.214  1.00  0.00    -0.388 OA
HETATM   34  H35 UNL     1      -1.233  47.147 -18.064  1.00  0.00     0.210 HD
ENDBRANCH  30  33
ENDBRANCH   9  30
TORSDOF 6
ENDMDL
MODEL 3
REMARK minimizedAffinity -8.5450573
REMARK  6 active torsions:
REMARK  status: ('A' for Active; 'I' for Inactive)
REMARK    1  A    between atoms: C2_2  and  C3_3 
REMARK    2  A    between atoms: C2_2  and  C9_10 
REMARK    3  A    between atoms: C3_3  and  C4_4 
REMARK    4  A    between atoms: C4_4  and  C5_5 
REMARK    5  A    between atoms: C17_18  and  C18_19 
REMARK    6  A    between atoms: C18_19  and  O2_22 
ROOT
HETATM    1  C9  UNL     1      -4.420  47.783 -20.944  1.00  0.00    -0.002 C 
HETATM    2  C10 UNL     1      -5.348  47.318 -22.112  1.00  0.00     0.006 C 
HETATM    3  C11 UNL     1      -5.056  48.236 -23.321  1.00  0.00     0.011 C 
HETATM    4  C12 UNL     1      -4.280  49.421 -22.722  1.00  0.00    -0.032 C 
HETATM    5  C13 UNL     1      -5.364  50.347 -22.075  1.00  0.00     0.016 C 
HETATM    6  C14 UNL     1      -3.382  50.216 -23.717  1.00  0.00     0.003 C 
HETATM    7  C15 UNL     1      -4.101  50.809 -24.942  1.00  0.00     0.009 C 
HETATM    8  C16 UNL     1      -3.339  51.964 -25.596  1.00  0.00     0.042 C 
HETATM    9  C17 UNL     1      -1.778  51.900 -25.567  1.00  0.00     0.095 C 
HETATM   10  O3  UNL     1      -1.418  53.253 -25.926  1.00  0.00    -0.377 OA
HETATM   11  C21 UNL     1      -0.067  53.669 -25.813  1.00  0.00     0.169 C 
HETATM   12  C22 UNL     1       0.690  53.083 -24.635  1.00  0.00     0.027 C 
HETATM   13  C23 UNL     1      -0.254  52.599 -23.556  1.00  0.00     0.010 C 
HETATM   14  C24 UNL     1      -1.283  51.578 -24.097  1.00  0.00     0.032 C 
HETATM   15  C25 UNL     1      -2.429  51.257 -23.028  1.00  0.00    -0.033 C 
HETATM   16  C26 UNL     1      -3.186  52.548 -22.594  1.00  0.00     0.016 C 
HETATM   17  C27 UNL     1      -1.751  50.648 -21.744  1.00  0.00     0.011 C 
HETATM   18  C28 UNL     1      -2.629  49.746 -20.849  1.00  0.00     0.011 C 
HETATM   19  C29 UNL     1      -3.361  48.669 -21.671  1.00  0.00    -0.032 C 
HETATM   20  C30 UNL     1      -2.280  47.742 -22.302  1.00  0.00     0.016 C 
ENDROOT
BRANCH   1  21
HETATM   21  C2  UNL     1      -4.054  46.644 -19.945  1.00  0.00    -0.014 C 
HETATM   22  C1  UNL     1      -4.032  45.211 -20.490  1.00  0.00     0.010 C 
BRANCH  21  23
HETATM   23  C3  UNL     1      -2.748  46.960 -19.182  1.00  0.00     0.007 C 
BRANCH  23  24
HETATM   24  C4  UNL     1      -2.961  47.821 -17.931  1.00  0.00     0.035 C 
BRANCH  24  25
HETATM   25  C5  UNL     1      -1.703  48.552 -17.564  1.00  0.00     0.156 A 
HETATM   26  O1  UNL     1      -1.521  48.760 -16.156  1.00  0.00    -0.370 OA
HETATM   27  C6  UNL     1      -1.687  49.944 -16.952  1.00  0.00     0.080 A 
HETATM   28  C7  UNL     1      -0.439  50.764 -17.076  1.00  0.00     0.048 C 
HETATM   29  C8  UNL     1      -2.951  50.694 -16.674  1.00  0.00     0.048 C 
ENDBRANCH  24  25
ENDBRANCH  23  24
ENDBRANCH  21  23
ENDBRANCH   1  21
BRANCH   9  30
HETATM   30  C18 UNL     1      -1.272  50.850 -26.683  1.00  0.00     0.082 C 
HETATM   31  C19 UNL     1       0.245  50.579 -26.572  1.00  0.00     0.049 C 
HETATM   32  C20 UNL     1      -1.969  49.479 -26.696  1.00  0.00     0.049 C 
BRANCH  30  33
HETATM   33  O2  UNL     1      -1.512  51.388 -27.995  1.00  0.00    -0.388 OA
HETATM   34  H35 UNL     1      -1.029  50.844 -28.642  1.00  0.00     0.210 HD
ENDBRANCH  30  33
ENDBRANCH   9  30
TORSDOF 6
ENDMDL
MODEL 4
REMARK minimizedAffinity -8.51633263
REMARK  6 active torsions:
REMARK  status: ('A' for Active; 'I' for Inactive)
REMARK    1  A    between atoms: C2_2  and  C3_3 
REMARK    2  A    between atoms: C2_2  and  C9_10 
REMARK    3  A    between atoms: C3_3  and  C4_4 
REMARK    4  A    between atoms: C4_4  and  C5_5 
REMARK    5  A    between atoms: C17_18  and  C18_19 
REMARK    6  A    between atoms: C18_19  and  O2_22 
ROOT
HETATM    1  C9  UNL     1       7.755  65.224 -35.711  1.00  0.00    -0.002 C 
HETATM    2  C10 UNL     1       6.980  65.282 -34.355  1.00  0.00     0.006 C 
HETATM    3  C11 UNL     1       5.718  66.144 -34.586  1.00  0.00     0.011 C 
HETATM    4  C12 UNL     1       5.988  66.866 -35.917  1.00  0.00    -0.032 C 
HETATM    5  C13 UNL     1       6.935  68.061 -35.559  1.00  0.00     0.016 C 
HETATM    6  C14 UNL     1       4.728  67.360 -36.689  1.00  0.00     0.003 C 
HETATM    7  C15 UNL     1       3.800  68.314 -35.916  1.00  0.00     0.009 C 
HETATM    8  C16 UNL     1       2.896  69.152 -36.824  1.00  0.00     0.042 C 
HETATM    9  C17 UNL     1       2.400  68.491 -38.149  1.00  0.00     0.095 C 
HETATM   10  O3  UNL     1       1.903  69.632 -38.884  1.00  0.00    -0.377 OA
HETATM   11  C21 UNL     1       1.545  69.483 -40.247  1.00  0.00     0.169 C 
HETATM   12  C22 UNL     1       2.415  68.525 -41.040  1.00  0.00     0.027 C 
HETATM   13  C23 UNL     1       3.762  68.326 -40.380  1.00  0.00     0.010 C 
HETATM   14  C24 UNL     1       3.627  67.844 -38.916  1.00  0.00     0.032 C 
HETATM   15  C25 UNL     1       5.027  67.872 -38.143  1.00  0.00    -0.033 C 
HETATM   16  C26 UNL     1       5.654  69.299 -38.144  1.00  0.00     0.016 C 
HETATM   17  C27 UNL     1       6.025  66.913 -38.893  1.00  0.00     0.011 C 
HETATM   18  C28 UNL     1       7.188  66.325 -38.063  1.00  0.00     0.011 C 
HETATM   19  C29 UNL     1       6.690  65.709 -36.743  1.00  0.00    -0.032 C 
HETATM   20  C30 UNL     1       5.759  64.513 -37.102  1.00  0.00     0.016 C 
ENDROOT
BRANCH   1  21
HETATM   21  C2  UNL     1       8.605  63.929 -35.891  1.00  0.00    -0.014 C 
HETATM   22  C1  UNL     1      10.115  64.104 -36.100  1.00  0.00     0.010 C 
BRANCH  21  23
HETATM   23  C3  UNL     1       8.323  62.907 -34.768  1.00  0.00     0.007 C 
BRANCH  23  24
HETATM   24  C4  UNL     1       9.301  61.725 -34.753  1.00  0.00     0.035 C 
BRANCH  24  25
HETATM   25  C5  UNL     1       9.527  61.234 -33.354  1.00  0.00     0.156 A 
HETATM   26  O1  UNL     1       9.053  62.116 -32.326  1.00  0.00    -0.370 OA
HETATM   27  C6  UNL     1      10.473  61.903 -32.369  1.00  0.00     0.080 A 
HETATM   28  C7  UNL     1      10.994  61.096 -31.219  1.00  0.00     0.048 C 
HETATM   29  C8  UNL     1      11.262  63.118 -32.742  1.00  0.00     0.048 C 
ENDBRANCH  24  25
ENDBRANCH  23  24
ENDBRANCH  21  23
ENDBRANCH   1  21
BRANCH   9  30
HETATM   30  C18 UNL     1       1.209  67.456 -37.811  1.00  0.00     0.082 C 
HETATM   31  C19 UNL     1       1.313  66.164 -38.651  1.00  0.00     0.049 C 
HETATM   32  C20 UNL     1       1.078  67.022 -36.342  1.00  0.00     0.049 C 
BRANCH  30  33
HETATM   33  O2  UNL     1      -0.058  68.062 -38.121  1.00  0.00    -0.388 OA
HETATM   34  H35 UNL     1      -0.742  67.369 -38.102  1.00  0.00     0.210 HD
ENDBRANCH  30  33
ENDBRANCH   9  30
TORSDOF 6
ENDMDL
MODEL 5
REMARK minimizedAffinity -8.51132298
REMARK  6 active torsions:
REMARK  status: ('A' for Active; 'I' for Inactive)
REMARK    1  A    between atoms: C2_2  and  C3_3 
REMARK    2  A    between atoms: C2_2  and  C9_10 
REMARK    3  A    between atoms: C3_3  and  C4_4 
REMARK    4  A    between atoms: C4_4  and  C5_5 
REMARK    5  A    between atoms: C17_18  and  C18_19 
REMARK    6  A    between atoms: C18_19  and  O2_22 
ROOT
HETATM    1  C9  UNL     1      -4.813  47.778 -21.267  1.00  0.00    -0.002 C 
HETATM    2  C10 UNL     1      -5.657  47.372 -22.517  1.00  0.00     0.006 C 
HETATM    3  C11 UNL     1      -5.254  48.320 -23.669  1.00  0.00     0.011 C 
HETATM    4  C12 UNL     1      -4.502  49.467 -22.974  1.00  0.00    -0.032 C 
HETATM    5  C13 UNL     1      -5.614  50.398 -22.381  1.00  0.00     0.016 C 
HETATM    6  C14 UNL     1      -3.514  50.272 -23.869  1.00  0.00     0.003 C 
HETATM    7  C15 UNL     1      -4.124  50.921 -25.125  1.00  0.00     0.009 C 
HETATM    8  C16 UNL     1      -3.289  52.078 -25.680  1.00  0.00     0.042 C 
HETATM    9  C17 UNL     1      -1.737  51.977 -25.535  1.00  0.00     0.095 C 
HETATM   10  O3  UNL     1      -1.323  53.332 -25.820  1.00  0.00    -0.377 OA
HETATM   11  C21 UNL     1       0.024  53.713 -25.589  1.00  0.00     0.169 C 
HETATM   12  C22 UNL     1       0.675  53.072 -24.378  1.00  0.00     0.027 C 
HETATM   13  C23 UNL     1      -0.358  52.576 -23.391  1.00  0.00     0.010 C 
HETATM   14  C24 UNL     1      -1.364  51.597 -24.042  1.00  0.00     0.032 C 
HETATM   15  C25 UNL     1      -2.595  51.269 -23.075  1.00  0.00    -0.033 C 
HETATM   16  C26 UNL     1      -3.357  52.563 -22.658  1.00  0.00     0.016 C 
HETATM   17  C27 UNL     1      -2.031  50.604 -21.764  1.00  0.00     0.011 C 
HETATM   18  C28 UNL     1      -2.994  49.695 -20.970  1.00  0.00     0.011 C 
HETATM   19  C29 UNL     1      -3.683  48.662 -21.881  1.00  0.00    -0.032 C 
HETATM   20  C30 UNL     1      -2.575  47.730 -22.458  1.00  0.00     0.016 C 
ENDROOT
BRANCH   1  21
HETATM   21  C2  UNL     1      -4.548  46.600 -20.281  1.00  0.00    -0.014 C 
HETATM   22  C1  UNL     1      -3.539  46.842 -19.152  1.00  0.00     0.010 C 
BRANCH  21  23
HETATM   23  C3  UNL     1      -5.868  46.024 -19.721  1.00  0.00     0.007 C 
BRANCH  23  24
HETATM   24  C4  UNL     1      -6.711  47.052 -18.957  1.00  0.00     0.035 C 
BRANCH  24  25
HETATM   25  C5  UNL     1      -8.064  47.209 -19.585  1.00  0.00     0.156 A 
HETATM   26  O1  UNL     1      -8.237  48.416 -20.342  1.00  0.00    -0.370 OA
HETATM   27  C6  UNL     1      -9.064  48.278 -19.175  1.00  0.00     0.080 A 
HETATM   28  C7  UNL     1     -10.513  48.060 -19.489  1.00  0.00     0.048 C 
HETATM   29  C8  UNL     1      -8.759  49.263 -18.091  1.00  0.00     0.048 C 
ENDBRANCH  24  25
ENDBRANCH  23  24
ENDBRANCH  21  23
ENDBRANCH   1  21
BRANCH   9  30
HETATM   30  C18 UNL     1      -1.168  50.951 -26.642  1.00  0.00     0.082 C 
HETATM   31  C19 UNL     1       0.339  50.676 -26.452  1.00  0.00     0.049 C 
HETATM   32  C20 UNL     1      -1.863  49.581 -26.726  1.00  0.00     0.049 C 
BRANCH  30  33
HETATM   33  O2  UNL     1      -1.334  51.518 -27.954  1.00  0.00    -0.388 OA
HETATM   34  H35 UNL     1      -0.815  50.988 -28.585  1.00  0.00     0.210 HD
ENDBRANCH  30  33
ENDBRANCH   9  30
TORSDOF 6
ENDMDL
MODEL 6
REMARK minimizedAffinity -8.50767231
REMARK  6 active torsions:
REMARK  status: ('A' for Active; 'I' for Inactive)
REMARK    1  A    between atoms: C2_2  and  C3_3 
REMARK    2  A    between atoms: C2_2  and  C9_10 
REMARK    3  A    between atoms: C3_3  and  C4_4 
REMARK    4  A    between atoms: C4_4  and  C5_5 
REMARK    5  A    between atoms: C17_18  and  C18_19 
REMARK    6  A    between atoms: C18_19  and  O2_22 
ROOT
HETATM    1  C9  UNL     1      -0.886  52.024 -20.846  1.00  0.00    -0.002 C 
HETATM    2  C10 UNL     1      -0.243  51.343 -19.595  1.00  0.00     0.006 C 
HETATM    3  C11 UNL     1      -1.179  50.187 -19.172  1.00  0.00     0.011 C 
HETATM    4  C12 UNL     1      -2.493  50.467 -19.920  1.00  0.00    -0.032 C 
HETATM    5  C13 UNL     1      -3.220  51.576 -19.087  1.00  0.00     0.016 C 
HETATM    6  C14 UNL     1      -3.419  49.235 -20.148  1.00  0.00     0.003 C 
HETATM    7  C15 UNL     1      -3.854  48.480 -18.879  1.00  0.00     0.009 C 
HETATM    8  C16 UNL     1      -5.117  47.637 -19.074  1.00  0.00     0.042 C 
HETATM    9  C17 UNL     1      -5.333  46.985 -20.477  1.00  0.00     0.095 C 
HETATM   10  O3  UNL     1      -6.723  46.593 -20.412  1.00  0.00    -0.377 OA
HETATM   11  C21 UNL     1      -7.376  46.139 -21.586  1.00  0.00     0.169 C 
HETATM   12  C22 UNL     1      -6.954  46.836 -22.867  1.00  0.00     0.027 C 
HETATM   13  C23 UNL     1      -6.327  48.183 -22.584  1.00  0.00     0.010 C 
HETATM   14  C24 UNL     1      -5.129  48.075 -21.610  1.00  0.00     0.032 C 
HETATM   15  C25 UNL     1      -4.625  49.511 -21.115  1.00  0.00    -0.033 C 
HETATM   16  C26 UNL     1      -5.767  50.310 -20.418  1.00  0.00     0.016 C 
HETATM   17  C27 UNL     1      -4.169  50.335 -22.377  1.00  0.00     0.011 C 
HETATM   18  C28 UNL     1      -3.139  51.462 -22.141  1.00  0.00     0.011 C 
HETATM   19  C29 UNL     1      -1.935  50.970 -21.317  1.00  0.00    -0.032 C 
HETATM   20  C30 UNL     1      -1.206  49.877 -22.154  1.00  0.00     0.016 C 
ENDROOT
BRANCH   1  21
HETATM   21  C2  UNL     1       0.153  52.694 -21.796  1.00  0.00    -0.014 C 
HETATM   22  C1  UNL     1       1.572  52.899 -21.253  1.00  0.00     0.010 C 
BRANCH  21  23
HETATM   23  C3  UNL     1       0.190  51.996 -23.174  1.00  0.00     0.007 C 
BRANCH  23  24
HETATM   24  C4  UNL     1       0.676  52.906 -24.310  1.00  0.00     0.035 C 
BRANCH  24  25
HETATM   25  C5  UNL     1       0.145  52.441 -25.633  1.00  0.00     0.156 A 
HETATM   26  O1  UNL     1       0.109  51.016 -25.797  1.00  0.00    -0.370 OA
HETATM   27  C6  UNL     1       0.991  51.731 -26.677  1.00  0.00     0.080 A 
HETATM   28  C7  UNL     1       0.530  51.749 -28.103  1.00  0.00     0.048 C 
HETATM   29  C8  UNL     1       2.442  51.446 -26.450  1.00  0.00     0.048 C 
ENDBRANCH  24  25
ENDBRANCH  23  24
ENDBRANCH  21  23
ENDBRANCH   1  21
BRANCH   9  30
HETATM   30  C18 UNL     1      -4.373  45.696 -20.616  1.00  0.00     0.082 C 
HETATM   31  C19 UNL     1      -3.073  46.027 -21.382  1.00  0.00     0.049 C 
HETATM   32  C20 UNL     1      -3.954  45.012 -19.304  1.00  0.00     0.049 C 
BRANCH  30  33
HETATM   33  O2  UNL     1      -5.052  44.668 -21.357  1.00  0.00    -0.388 OA
HETATM   34  H35 UNL     1      -4.401  43.986 -21.602  1.00  0.00     0.210 HD
ENDBRANCH  30  33
ENDBRANCH   9  30
TORSDOF 6
ENDMDL
MODEL 7
REMARK minimizedAffinity -8.29932117
REMARK  6 active torsions:
REMARK  status: ('A' for Active; 'I' for Inactive)
REMARK    1  A    between atoms: C2_2  and  C3_3 
REMARK    2  A    between atoms: C2_2  and  C9_10 
REMARK    3  A    between atoms: C3_3  and  C4_4 
REMARK    4  A    between atoms: C4_4  and  C5_5 
REMARK    5  A    between atoms: C17_18  and  C18_19 
REMARK    6  A    between atoms: C18_19  and  O2_22 
ROOT
HETATM    1  C9  UNL     1      -0.354  50.399 -18.323  1.00  0.00    -0.002 C 
HETATM    2  C10 UNL     1      -0.416  51.798 -19.017  1.00  0.00     0.006 C 
HETATM    3  C11 UNL     1      -1.408  51.679 -20.196  1.00  0.00     0.011 C 
HETATM    4  C12 UNL     1      -1.588  50.164 -20.393  1.00  0.00    -0.032 C 
HETATM    5  C13 UNL     1      -0.328  49.694 -21.194  1.00  0.00     0.016 C 
HETATM    6  C14 UNL     1      -2.903  49.723 -21.103  1.00  0.00     0.003 C 
HETATM    7  C15 UNL     1      -3.143  50.321 -22.500  1.00  0.00     0.009 C 
HETATM    8  C16 UNL     1      -4.127  49.512 -23.349  1.00  0.00     0.042 C 
HETATM    9  C17 UNL     1      -5.295  48.794 -22.602  1.00  0.00     0.095 C 
HETATM   10  O3  UNL     1      -5.779  47.881 -23.613  1.00  0.00    -0.377 OA
HETATM   11  C21 UNL     1      -6.724  46.884 -23.259  1.00  0.00     0.169 C 
HETATM   12  C22 UNL     1      -6.543  46.289 -21.875  1.00  0.00     0.027 C 
HETATM   13  C23 UNL     1      -5.133  46.491 -21.365  1.00  0.00     0.010 C 
HETATM   14  C24 UNL     1      -4.721  47.982 -21.367  1.00  0.00     0.032 C 
HETATM   15  C25 UNL     1      -3.161  48.175 -21.069  1.00  0.00    -0.033 C 
HETATM   16  C26 UNL     1      -2.281  47.411 -22.104  1.00  0.00     0.016 C 
HETATM   17  C27 UNL     1      -2.852  47.575 -19.647  1.00  0.00     0.011 C 
HETATM   18  C28 UNL     1      -1.618  48.134 -18.904  1.00  0.00     0.011 C 
HETATM   19  C29 UNL     1      -1.615  49.673 -18.885  1.00  0.00    -0.032 C 
HETATM   20  C30 UNL     1      -2.863  50.138 -18.075  1.00  0.00     0.016 C 
ENDROOT
BRANCH   1  21
HETATM   21  C2  UNL     1      -0.002  50.469 -16.806  1.00  0.00    -0.014 C 
HETATM   22  C1  UNL     1       0.340  49.149 -16.102  1.00  0.00     0.010 C 
BRANCH  21  23
HETATM   23  C3  UNL     1       1.080  51.535 -16.525  1.00  0.00     0.007 C 
BRANCH  23  24
HETATM   24  C4  UNL     1       1.092  52.030 -15.073  1.00  0.00     0.035 C 
BRANCH  24  25
HETATM   25  C5  UNL     1       2.052  51.231 -14.242  1.00  0.00     0.156 A 
HETATM   26  O1  UNL     1       2.932  52.014 -13.424  1.00  0.00    -0.370 OA
HETATM   27  C6  UNL     1       3.557  51.236 -14.457  1.00  0.00     0.080 A 
HETATM   28  C7  UNL     1       4.356  50.081 -13.937  1.00  0.00     0.048 C 
HETATM   29  C8  UNL     1       4.192  52.053 -15.537  1.00  0.00     0.048 C 
ENDBRANCH  24  25
ENDBRANCH  23  24
ENDBRANCH  21  23
ENDBRANCH   1  21
BRANCH   9  30
HETATM   30  C18 UNL     1      -6.423  49.880 -22.214  1.00  0.00     0.082 C 
HETATM   31  C19 UNL     1      -7.722  49.677 -23.025  1.00  0.00     0.049 C 
HETATM   32  C20 UNL     1      -6.830  49.943 -20.732  1.00  0.00     0.049 C 
BRANCH  30  33
HETATM   33  O2  UNL     1      -5.940  51.202 -22.511  1.00  0.00    -0.388 OA
HETATM   34  H35 UNL     1      -6.690  51.821 -22.461  1.00  0.00     0.210 HD
ENDBRANCH  30  33
ENDBRANCH   9  30
TORSDOF 6
ENDMDL
MODEL 8
REMARK minimizedAffinity -8.26113129
REMARK  6 active torsions:
REMARK  status: ('A' for Active; 'I' for Inactive)
REMARK    1  A    between atoms: C2_2  and  C3_3 
REMARK    2  A    between atoms: C2_2  and  C9_10 
REMARK    3  A    between atoms: C3_3  and  C4_4 
REMARK    4  A    between atoms: C4_4  and  C5_5 
REMARK    5  A    between atoms: C17_18  and  C18_19 
REMARK    6  A    between atoms: C18_19  and  O2_22 
ROOT
HETATM    1  C9  UNL     1      -4.007  49.515 -26.598  1.00  0.00    -0.002 C 
HETATM    2  C10 UNL     1      -2.601  50.033 -27.044  1.00  0.00     0.006 C 
HETATM    3  C11 UNL     1      -1.914  50.623 -25.791  1.00  0.00     0.011 C 
HETATM    4  C12 UNL     1      -3.053  50.787 -24.771  1.00  0.00    -0.032 C 
HETATM    5  C13 UNL     1      -3.796  52.103 -25.182  1.00  0.00     0.016 C 
HETATM    6  C14 UNL     1      -2.623  50.828 -23.275  1.00  0.00     0.003 C 
HETATM    7  C15 UNL     1      -1.611  51.925 -22.898  1.00  0.00     0.009 C 
HETATM    8  C16 UNL     1      -1.603  52.260 -21.404  1.00  0.00     0.042 C 
HETATM    9  C17 UNL     1      -1.889  51.092 -20.406  1.00  0.00     0.095 C 
HETATM   10  O3  UNL     1      -2.150  51.807 -19.178  1.00  0.00    -0.377 OA
HETATM   11  C21 UNL     1      -2.660  51.105 -18.056  1.00  0.00     0.169 C 
HETATM   12  C22 UNL     1      -3.639  49.992 -18.385  1.00  0.00     0.027 C 
HETATM   13  C23 UNL     1      -4.257  50.184 -19.752  1.00  0.00     0.010 C 
HETATM   14  C24 UNL     1      -3.187  50.305 -20.864  1.00  0.00     0.032 C 
HETATM   15  C25 UNL     1      -3.821  50.754 -22.262  1.00  0.00    -0.033 C 
HETATM   16  C26 UNL     1      -4.571  52.114 -22.140  1.00  0.00     0.016 C 
HETATM   17  C27 UNL     1      -4.872  49.667 -22.699  1.00  0.00     0.011 C 
HETATM   18  C28 UNL     1      -5.175  49.554 -24.210  1.00  0.00     0.011 C 
HETATM   19  C29 UNL     1      -3.883  49.464 -25.043  1.00  0.00    -0.032 C 
HETATM   20  C30 UNL     1      -3.153  48.147 -24.642  1.00  0.00     0.016 C 
ENDROOT
BRANCH   1  21
HETATM   21  C2  UNL     1      -4.540  48.332 -27.461  1.00  0.00    -0.014 C 
HETATM   22  C1  UNL     1      -5.933  47.787 -27.122  1.00  0.00     0.010 C 
BRANCH  21  23
HETATM   23  C3  UNL     1      -4.425  48.637 -28.971  1.00  0.00     0.007 C 
BRANCH  23  24
HETATM   24  C4  UNL     1      -5.462  47.899 -29.828  1.00  0.00     0.035 C 
BRANCH  24  25
HETATM   25  C5  UNL     1      -5.386  48.341 -31.259  1.00  0.00     0.156 A 
HETATM   26  O1  UNL     1      -6.240  47.617 -32.156  1.00  0.00    -0.370 OA
HETATM   27  C6  UNL     1      -4.828  47.477 -32.379  1.00  0.00     0.080 A 
HETATM   28  C7  UNL     1      -4.348  48.149 -33.629  1.00  0.00     0.048 C 
HETATM   29  C8  UNL     1      -4.302  46.100 -32.119  1.00  0.00     0.048 C 
ENDBRANCH  24  25
ENDBRANCH  23  24
ENDBRANCH  21  23
ENDBRANCH   1  21
BRANCH   9  30
HETATM   30  C18 UNL     1      -0.569  50.174 -20.274  1.00  0.00     0.082 C 
HETATM   31  C19 UNL     1      -0.816  48.734 -20.772  1.00  0.00     0.049 C 
HETATM   32  C20 UNL     1       0.692  50.683 -20.993  1.00  0.00     0.049 C 
BRANCH  30  33
HETATM   33  O2  UNL     1      -0.182  50.084 -18.891  1.00  0.00    -0.388 OA
HETATM   34  H35 UNL     1       0.484  49.379 -18.804  1.00  0.00     0.210 HD
ENDBRANCH  30  33
ENDBRANCH   9  30
TORSDOF 6
ENDMDL
MODEL 9
REMARK minimizedAffinity -8.22754097
REMARK  6 active torsions:
REMARK  status: ('A' for Active; 'I' for Inactive)
REMARK    1  A    between atoms: C2_2  and  C3_3 
REMARK    2  A    between atoms: C2_2  and  C9_10 
REMARK    3  A    between atoms: C3_3  and  C4_4 
REMARK    4  A    between atoms: C4_4  and  C5_5 
REMARK    5  A    between atoms: C17_18  and  C18_19 
REMARK    6  A    between atoms: C18_19  and  O2_22 
ROOT
HETATM    1  C9  UNL     1      -3.809  50.697 -25.649  1.00  0.00    -0.002 C 
HETATM    2  C10 UNL     1      -3.235  52.101 -25.272  1.00  0.00     0.006 C 
HETATM    3  C11 UNL     1      -3.061  52.126 -23.736  1.00  0.00     0.011 C 
HETATM    4  C12 UNL     1      -3.881  50.923 -23.239  1.00  0.00    -0.032 C 
HETATM    5  C13 UNL     1      -5.372  51.404 -23.241  1.00  0.00     0.016 C 
HETATM    6  C14 UNL     1      -3.475  50.354 -21.848  1.00  0.00     0.003 C 
HETATM    7  C15 UNL     1      -3.513  51.353 -20.677  1.00  0.00     0.009 C 
HETATM    8  C16 UNL     1      -3.610  50.681 -19.305  1.00  0.00     0.042 C 
HETATM    9  C17 UNL     1      -2.891  49.306 -19.128  1.00  0.00     0.095 C 
HETATM   10  O3  UNL     1      -3.470  48.823 -17.895  1.00  0.00    -0.377 OA
HETATM   11  C21 UNL     1      -3.226  47.488 -17.485  1.00  0.00     0.169 C 
HETATM   12  C22 UNL     1      -3.149  46.473 -18.611  1.00  0.00     0.027 C 
HETATM   13  C23 UNL     1      -3.840  46.977 -19.859  1.00  0.00     0.010 C 
HETATM   14  C24 UNL     1      -3.279  48.342 -20.325  1.00  0.00     0.032 C 
HETATM   15  C25 UNL     1      -4.167  48.991 -21.486  1.00  0.00    -0.033 C 
HETATM   16  C26 UNL     1      -5.646  49.186 -21.035  1.00  0.00     0.016 C 
HETATM   17  C27 UNL     1      -4.169  48.007 -22.715  1.00  0.00     0.011 C 
HETATM   18  C28 UNL     1      -4.436  48.625 -24.106  1.00  0.00     0.011 C 
HETATM   19  C29 UNL     1      -3.546  49.855 -24.362  1.00  0.00    -0.032 C 
HETATM   20  C30 UNL     1      -2.065  49.371 -24.374  1.00  0.00     0.016 C 
ENDROOT
BRANCH   1  21
HETATM   21  C2  UNL     1      -3.419  50.227 -27.084  1.00  0.00    -0.014 C 
HETATM   22  C1  UNL     1      -2.099  50.752 -27.661  1.00  0.00     0.010 C 
BRANCH  21  23
HETATM   23  C3  UNL     1      -3.502  48.690 -27.217  1.00  0.00     0.007 C 
BRANCH  23  24
HETATM   24  C4  UNL     1      -4.905  48.180 -27.572  1.00  0.00     0.035 C 
BRANCH  24  25
HETATM   25  C5  UNL     1      -5.077  48.077 -29.058  1.00  0.00     0.156 A 
HETATM   26  O1  UNL     1      -6.370  48.471 -29.540  1.00  0.00    -0.370 OA
HETATM   27  C6  UNL     1      -6.020  47.091 -29.730  1.00  0.00     0.080 A 
HETATM   28  C7  UNL     1      -5.771  46.728 -31.162  1.00  0.00     0.048 C 
HETATM   29  C8  UNL     1      -6.852  46.135 -28.935  1.00  0.00     0.048 C 
ENDBRANCH  24  25
ENDBRANCH  23  24
ENDBRANCH  21  23
ENDBRANCH   1  21
BRANCH   9  30
HETATM   30  C18 UNL     1      -1.305  49.555 -18.965  1.00  0.00     0.082 C 
HETATM   31  C19 UNL     1      -0.538  49.259 -20.273  1.00  0.00     0.049 C 
HETATM   32  C20 UNL     1      -0.878  50.960 -18.509  1.00  0.00     0.049 C 
BRANCH  30  33
HETATM   33  O2  UNL     1      -0.781  48.674 -17.957  1.00  0.00    -0.388 OA
HETATM   34  H35 UNL     1       0.192  48.694 -18.008  1.00  0.00     0.210 HD
ENDBRANCH  30  33
ENDBRANCH   9  30
TORSDOF 6
ENDMDL
