MODEL 1
REMARK minimizedAffinity -9.88741207
REMARK  5 active torsions:
REMARK  status: ('A' for Active; 'I' for Inactive)
REMARK    1  A    between atoms: C2_2  and  C25_28 
REMARK    2  A    between atoms: C3_3  and  C4_4 
REMARK    3  A    between atoms: C4_4  and  C6_6 
REMARK    4  A    between atoms: C15_15  and  O1_16 
REMARK    5  A    between atoms: C25_28  and  C27_30 
ROOT
HETATM    1  C6  UNL     1      -1.465  48.988 -19.927  1.00  0.00     0.001 C 
HETATM    2  C7  UNL     1      -2.816  48.394 -20.432  1.00  0.00     0.006 C 
HETATM    3  C8  UNL     1      -3.052  48.948 -21.846  1.00  0.00     0.009 C 
HETATM    4  C9  UNL     1      -1.753  49.674 -22.172  1.00  0.00     0.036 C 
HETATM    5  C10 UNL     1      -1.703  50.619 -23.378  1.00  0.00     0.123 C 
HETATM    6  C11 UNL     1      -2.774  51.679 -23.474  1.00  0.00     0.014 C 
HETATM    7  C12 UNL     1      -2.724  52.390 -24.609  1.00  0.00     0.014 C 
HETATM    8  C13 UNL     1      -1.562  52.022 -25.507  1.00  0.00     0.124 C 
HETATM    9  C14 UNL     1      -1.592  52.768 -26.845  1.00  0.00     0.078 C 
HETATM   10  C15 UNL     1      -0.395  52.401 -27.724  1.00  0.00     0.121 C 
HETATM   11  C16 UNL     1       0.943  52.569 -27.003  1.00  0.00     0.033 C 
HETATM   12  C17 UNL     1       0.973  51.831 -25.664  1.00  0.00     0.015 C 
HETATM   13  C18 UNL     1      -0.211  52.213 -24.729  1.00  0.00     0.001 C 
HETATM   14  C19 UNL     1      -0.021  53.687 -24.285  1.00  0.00     0.019 C 
HETATM   15  C20 UNL     1      -0.256  51.207 -23.505  1.00  0.00     0.039 C 
HETATM   16  C21 UNL     1       0.307  51.737 -22.170  1.00  0.00     0.010 C 
HETATM   17  C22 UNL     1       0.173  50.729 -21.014  1.00  0.00     0.010 C 
HETATM   18  C23 UNL     1      -1.284  50.261 -20.816  1.00  0.00    -0.033 C 
HETATM   19  C24 UNL     1      -2.144  51.427 -20.281  1.00  0.00     0.016 C 
HETATM   20  O2  UNL     1      -1.677  50.604 -25.805  1.00  0.00    -0.223 OA
HETATM   21  O3  UNL     1      -1.908  49.803 -24.565  1.00  0.00    -0.224 OA
ENDROOT
BRANCH   1  22
HETATM   22  C4  UNL     1      -1.437  49.123 -18.381  1.00  0.00     0.009 C 
HETATM   23  C5  UNL     1      -2.830  49.245 -17.761  1.00  0.00     0.014 C 
BRANCH  22  24
HETATM   24  C3  UNL     1      -0.644  50.357 -17.982  1.00  0.00    -0.019 C 
HETATM   25  C2  UNL     1       0.179  50.519 -16.923  1.00  0.00    -0.083 C 
HETATM   26  C1  UNL     1       0.440  49.471 -15.873  1.00  0.00     0.043 C 
BRANCH  25  27
HETATM   27  C25 UNL     1       0.929  51.838 -16.690  1.00  0.00     0.013 C 
HETATM   28  C26 UNL     1       1.100  52.584 -18.022  1.00  0.00     0.015 C 
BRANCH  27  29
HETATM   29  C27 UNL     1       2.275  51.649 -15.924  1.00  0.00    -0.015 C 
HETATM   30  C28 UNL     1       2.101  51.879 -14.415  1.00  0.00     0.010 C 
HETATM   31  C29 UNL     1       3.370  52.589 -16.443  1.00  0.00     0.010 C 
ENDBRANCH  27  29
ENDBRANCH  25  27
ENDBRANCH  22  24
ENDBRANCH   1  22
BRANCH  10  32
HETATM   32  O1  UNL     1      -0.400  53.214 -28.896  1.00  0.00    -0.395 OA
HETATM   33  H20 UNL     1      -0.290  54.142 -28.624  1.00  0.00     0.210 HD
ENDBRANCH  10  32
TORSDOF 5
ENDMDL
MODEL 2
REMARK minimizedAffinity -9.41828346
REMARK  5 active torsions:
REMARK  status: ('A' for Active; 'I' for Inactive)
REMARK    1  A    between atoms: C2_2  and  C25_28 
REMARK    2  A    between atoms: C3_3  and  C4_4 
REMARK    3  A    between atoms: C4_4  and  C6_6 
REMARK    4  A    between atoms: C15_15  and  O1_16 
REMARK    5  A    between atoms: C25_28  and  C27_30 
ROOT
HETATM    1  C6  UNL     1      -2.761  48.232 -20.980  1.00  0.00     0.001 C 
HETATM    2  C7  UNL     1      -4.033  47.771 -21.755  1.00  0.00     0.006 C 
HETATM    3  C8  UNL     1      -4.019  48.489 -23.114  1.00  0.00     0.009 C 
HETATM    4  C9  UNL     1      -2.659  49.176 -23.146  1.00  0.00     0.036 C 
HETATM    5  C10 UNL     1      -2.383  50.244 -24.210  1.00  0.00     0.123 C 
HETATM    6  C11 UNL     1      -3.386  51.363 -24.347  1.00  0.00     0.014 C 
HETATM    7  C12 UNL     1      -3.129  52.192 -25.369  1.00  0.00     0.014 C 
HETATM    8  C13 UNL     1      -1.851  51.864 -26.111  1.00  0.00     0.124 C 
HETATM    9  C14 UNL     1      -1.639  52.753 -27.340  1.00  0.00     0.078 C 
HETATM   10  C15 UNL     1      -0.329  52.422 -28.059  1.00  0.00     0.121 C 
HETATM   11  C16 UNL     1       0.880  52.437 -27.123  1.00  0.00     0.033 C 
HETATM   12  C17 UNL     1       0.668  51.556 -25.891  1.00  0.00     0.015 C 
HETATM   13  C18 UNL     1      -0.637  51.895 -25.115  1.00  0.00     0.001 C 
HETATM   14  C19 UNL     1      -0.470  53.299 -24.476  1.00  0.00     0.019 C 
HETATM   15  C20 UNL     1      -0.914  50.765 -24.039  1.00  0.00     0.039 C 
HETATM   16  C21 UNL     1      -0.556  51.114 -22.580  1.00  0.00     0.010 C 
HETATM   17  C22 UNL     1      -0.910  49.992 -21.585  1.00  0.00     0.010 C 
HETATM   18  C23 UNL     1      -2.394  49.584 -21.674  1.00  0.00    -0.033 C 
HETATM   19  C24 UNL     1      -3.288  50.727 -21.147  1.00  0.00     0.016 C 
HETATM   20  O2  UNL     1      -1.967  50.495 -26.588  1.00  0.00    -0.223 OA
HETATM   21  O3  UNL     1      -2.422  49.576 -25.502  1.00  0.00    -0.224 OA
ENDROOT
BRANCH   1  22
HETATM   22  C4  UNL     1      -2.978  48.194 -19.443  1.00  0.00     0.009 C 
HETATM   23  C5  UNL     1      -4.104  49.116 -18.970  1.00  0.00     0.014 C 
BRANCH  22  24
HETATM   24  C3  UNL     1      -1.705  48.616 -18.728  1.00  0.00    -0.019 C 
HETATM   25  C2  UNL     1      -1.518  49.661 -17.893  1.00  0.00    -0.083 C 
HETATM   26  C1  UNL     1      -2.577  50.671 -17.535  1.00  0.00     0.043 C 
BRANCH  25  27
HETATM   27  C25 UNL     1      -0.157  49.920 -17.230  1.00  0.00     0.013 C 
HETATM   28  C26 UNL     1      -0.087  49.190 -15.880  1.00  0.00     0.015 C 
BRANCH  27  29
HETATM   29  C27 UNL     1       0.189  51.437 -17.119  1.00  0.00    -0.015 C 
HETATM   30  C28 UNL     1       0.474  52.052 -18.497  1.00  0.00     0.010 C 
HETATM   31  C29 UNL     1       1.398  51.686 -16.209  1.00  0.00     0.010 C 
ENDBRANCH  27  29
ENDBRANCH  25  27
ENDBRANCH  22  24
ENDBRANCH   1  22
BRANCH  10  32
HETATM   32  O1  UNL     1      -0.117  53.358 -29.114  1.00  0.00    -0.395 OA
HETATM   33  H20 UNL     1      -0.019  54.244 -28.721  1.00  0.00     0.210 HD
ENDBRANCH  10  32
TORSDOF 5
ENDMDL
MODEL 3
REMARK minimizedAffinity -9.36153698
REMARK  5 active torsions:
REMARK  status: ('A' for Active; 'I' for Inactive)
REMARK    1  A    between atoms: C2_2  and  C25_28 
REMARK    2  A    between atoms: C3_3  and  C4_4 
REMARK    3  A    between atoms: C4_4  and  C6_6 
REMARK    4  A    between atoms: C15_15  and  O1_16 
REMARK    5  A    between atoms: C25_28  and  C27_30 
ROOT
HETATM    1  C6  UNL     1      -0.267  51.382 -20.533  1.00  0.00     0.001 C 
HETATM    2  C7  UNL     1      -0.836  52.117 -19.281  1.00  0.00     0.006 C 
HETATM    3  C8  UNL     1      -2.243  51.553 -19.027  1.00  0.00     0.009 C 
HETATM    4  C9  UNL     1      -2.351  50.394 -20.010  1.00  0.00     0.036 C 
HETATM    5  C10 UNL     1      -3.722  49.762 -20.277  1.00  0.00     0.123 C 
HETATM    6  C11 UNL     1      -4.854  50.690 -20.646  1.00  0.00     0.014 C 
HETATM    7  C12 UNL     1      -6.039  50.073 -20.755  1.00  0.00     0.014 C 
HETATM    8  C13 UNL     1      -5.965  48.574 -20.559  1.00  0.00     0.124 C 
HETATM    9  C14 UNL     1      -7.344  47.908 -20.577  1.00  0.00     0.078 C 
HETATM   10  C15 UNL     1      -7.243  46.391 -20.403  1.00  0.00     0.121 C 
HETATM   11  C16 UNL     1      -6.280  45.745 -21.400  1.00  0.00     0.033 C 
HETATM   12  C17 UNL     1      -4.904  46.412 -21.389  1.00  0.00     0.015 C 
HETATM   13  C18 UNL     1      -4.971  47.952 -21.603  1.00  0.00     0.001 C 
HETATM   14  C19 UNL     1      -5.442  48.219 -23.057  1.00  0.00     0.019 C 
HETATM   15  C20 UNL     1      -3.550  48.584 -21.297  1.00  0.00     0.039 C 
HETATM   16  C21 UNL     1      -2.694  48.959 -22.525  1.00  0.00     0.010 C 
HETATM   17  C22 UNL     1      -1.356  49.623 -22.150  1.00  0.00     0.010 C 
HETATM   18  C23 UNL     1      -1.553  50.863 -21.254  1.00  0.00    -0.033 C 
HETATM   19  C24 UNL     1      -2.221  51.997 -22.063  1.00  0.00     0.016 C 
HETATM   20  O2  UNL     1      -5.393  48.338 -19.243  1.00  0.00    -0.223 OA
HETATM   21  O3  UNL     1      -4.158  49.152 -19.031  1.00  0.00    -0.224 OA
ENDROOT
BRANCH   1  22
HETATM   22  C4  UNL     1       0.742  52.268 -21.312  1.00  0.00     0.009 C 
HETATM   23  C5  UNL     1       0.675  53.745 -20.922  1.00  0.00     0.014 C 
BRANCH  22  24
HETATM   24  C3  UNL     1       0.474  52.172 -22.805  1.00  0.00    -0.019 C 
HETATM   25  C2  UNL     1       0.732  53.086 -23.765  1.00  0.00    -0.083 C 
HETATM   26  C1  UNL     1       1.322  54.450 -23.512  1.00  0.00     0.043 C 
BRANCH  25  27
HETATM   27  C25 UNL     1       0.420  52.805 -25.241  1.00  0.00     0.013 C 
HETATM   28  C26 UNL     1      -1.093  52.919 -25.485  1.00  0.00     0.015 C 
BRANCH  27  29
HETATM   29  C27 UNL     1       1.015  51.454 -25.746  1.00  0.00    -0.015 C 
HETATM   30  C28 UNL     1       2.301  51.674 -26.557  1.00  0.00     0.010 C 
HETATM   31  C29 UNL     1       0.017  50.671 -26.607  1.00  0.00     0.010 C 
ENDBRANCH  27  29
ENDBRANCH  25  27
ENDBRANCH  22  24
ENDBRANCH   1  22
BRANCH  10  32
HETATM   32  O1  UNL     1      -8.536  45.809 -20.556  1.00  0.00    -0.395 OA
HETATM   33  H20 UNL     1      -8.842  45.980 -21.464  1.00  0.00     0.210 HD
ENDBRANCH  10  32
TORSDOF 5
ENDMDL
MODEL 4
REMARK minimizedAffinity -9.23787785
REMARK  5 active torsions:
REMARK  status: ('A' for Active; 'I' for Inactive)
REMARK    1  A    between atoms: C2_2  and  C25_28 
REMARK    2  A    between atoms: C3_3  and  C4_4 
REMARK    3  A    between atoms: C4_4  and  C6_6 
REMARK    4  A    between atoms: C15_15  and  O1_16 
REMARK    5  A    between atoms: C25_28  and  C27_30 
ROOT
HETATM    1  C6  UNL     1       0.685  51.430 -18.462  1.00  0.00     0.001 C 
HETATM    2  C7  UNL     1      -0.549  50.498 -18.263  1.00  0.00     0.006 C 
HETATM    3  C8  UNL     1      -1.238  50.362 -19.629  1.00  0.00     0.009 C 
HETATM    4  C9  UNL     1      -0.278  51.053 -20.589  1.00  0.00     0.036 C 
HETATM    5  C10 UNL     1      -0.750  51.394 -22.007  1.00  0.00     0.123 C 
HETATM    6  C11 UNL     1      -2.047  52.154 -22.143  1.00  0.00     0.014 C 
HETATM    7  C12 UNL     1      -2.444  52.317 -23.413  1.00  0.00     0.014 C 
HETATM    8  C13 UNL     1      -1.466  51.768 -24.430  1.00  0.00     0.124 C 
HETATM    9  C14 UNL     1      -1.992  51.864 -25.865  1.00  0.00     0.078 C 
HETATM   10  C15 UNL     1      -0.978  51.328 -26.877  1.00  0.00     0.121 C 
HETATM   11  C16 UNL     1       0.403  51.969 -26.728  1.00  0.00     0.033 C 
HETATM   12  C17 UNL     1       0.928  51.881 -25.294  1.00  0.00     0.015 C 
HETATM   13  C18 UNL     1      -0.066  52.455 -24.244  1.00  0.00     0.001 C 
HETATM   14  C19 UNL     1      -0.161  53.989 -24.453  1.00  0.00     0.019 C 
HETATM   15  C20 UNL     1       0.430  52.068 -22.789  1.00  0.00     0.039 C 
HETATM   16  C21 UNL     1       1.132  53.186 -21.990  1.00  0.00     0.010 C 
HETATM   17  C22 UNL     1       1.529  52.755 -20.566  1.00  0.00     0.010 C 
HETATM   18  C23 UNL     1       0.326  52.218 -19.764  1.00  0.00    -0.033 C 
HETATM   19  C24 UNL     1      -0.655  53.369 -19.452  1.00  0.00     0.016 C 
HETATM   20  O2  UNL     1      -1.282  50.356 -24.135  1.00  0.00    -0.223 OA
HETATM   21  O3  UNL     1      -1.009  50.133 -22.683  1.00  0.00    -0.224 OA
ENDROOT
BRANCH   1  22
HETATM   22  C4  UNL     1       1.034  52.211 -17.166  1.00  0.00     0.009 C 
HETATM   23  C5  UNL     1       2.425  52.845 -17.201  1.00  0.00     0.014 C 
BRANCH  22  24
HETATM   24  C3  UNL     1       0.980  51.278 -15.968  1.00  0.00    -0.019 C 
HETATM   25  C2  UNL     1       1.915  51.085 -15.012  1.00  0.00    -0.083 C 
HETATM   26  C1  UNL     1       3.262  51.760 -14.984  1.00  0.00     0.043 C 
BRANCH  25  27
HETATM   27  C25 UNL     1       1.677  50.115 -13.846  1.00  0.00     0.013 C 
HETATM   28  C26 UNL     1       2.890  50.126 -12.903  1.00  0.00     0.015 C 
BRANCH  27  29
HETATM   29  C27 UNL     1       1.285  48.680 -14.314  1.00  0.00    -0.015 C 
HETATM   30  C28 UNL     1       0.016  48.184 -13.606  1.00  0.00     0.010 C 
HETATM   31  C29 UNL     1       2.411  47.668 -14.073  1.00  0.00     0.010 C 
ENDBRANCH  27  29
ENDBRANCH  25  27
ENDBRANCH  22  24
ENDBRANCH   1  22
BRANCH  10  32
HETATM   32  O1  UNL     1      -1.460  51.558 -28.200  1.00  0.00    -0.395 OA
HETATM   33  H20 UNL     1      -1.530  52.520 -28.337  1.00  0.00     0.210 HD
ENDBRANCH  10  32
TORSDOF 5
ENDMDL
MODEL 5
REMARK minimizedAffinity -9.15891266
REMARK  5 active torsions:
REMARK  status: ('A' for Active; 'I' for Inactive)
REMARK    1  A    between atoms: C2_2  and  C25_28 
REMARK    2  A    between atoms: C3_3  and  C4_4 
REMARK    3  A    between atoms: C4_4  and  C6_6 
REMARK    4  A    between atoms: C15_15  and  O1_16 
REMARK    5  A    between atoms: C25_28  and  C27_30 
ROOT
HETATM    1  C6  UNL     1      -1.177  52.056 -22.107  1.00  0.00     0.001 C 
HETATM    2  C7  UNL     1      -2.705  51.810 -22.293  1.00  0.00     0.006 C 
HETATM    3  C8  UNL     1      -3.250  51.313 -20.945  1.00  0.00     0.009 C 
HETATM    4  C9  UNL     1      -2.070  51.475 -19.995  1.00  0.00     0.036 C 
HETATM    5  C10 UNL     1      -2.118  50.806 -18.617  1.00  0.00     0.123 C 
HETATM    6  C11 UNL     1      -2.453  49.335 -18.571  1.00  0.00     0.014 C 
HETATM    7  C12 UNL     1      -2.582  48.853 -17.327  1.00  0.00     0.014 C 
HETATM    8  C13 UNL     1      -2.290  49.873 -16.247  1.00  0.00     0.124 C 
HETATM    9  C14 UNL     1      -2.553  49.331 -14.838  1.00  0.00     0.078 C 
HETATM   10  C15 UNL     1      -2.227  50.368 -13.762  1.00  0.00     0.121 C 
HETATM   11  C16 UNL     1      -0.816  50.942 -13.902  1.00  0.00     0.033 C 
HETATM   12  C17 UNL     1      -0.548  51.478 -15.309  1.00  0.00     0.015 C 
HETATM   13  C18 UNL     1      -0.833  50.432 -16.425  1.00  0.00     0.001 C 
HETATM   14  C19 UNL     1       0.222  49.300 -16.310  1.00  0.00     0.019 C 
HETATM   15  C20 UNL     1      -0.803  51.152 -17.837  1.00  0.00     0.039 C 
HETATM   16  C21 UNL     1       0.476  50.949 -18.676  1.00  0.00     0.010 C 
HETATM   17  C22 UNL     1       0.407  51.626 -20.057  1.00  0.00     0.010 C 
HETATM   18  C23 UNL     1      -0.824  51.171 -20.867  1.00  0.00    -0.033 C 
HETATM   19  C24 UNL     1      -0.667  49.691 -21.280  1.00  0.00     0.016 C 
HETATM   20  O2  UNL     1      -3.196  50.991 -16.451  1.00  0.00    -0.223 OA
HETATM   21  O3  UNL     1      -3.199  51.437 -17.877  1.00  0.00    -0.224 OA
ENDROOT
BRANCH   1  22
HETATM   22  C4  UNL     1      -0.395  51.860 -23.434  1.00  0.00     0.009 C 
HETATM   23  C5  UNL     1       0.248  53.147 -23.951  1.00  0.00     0.014 C 
BRANCH  22  24
HETATM   24  C3  UNL     1      -1.330  51.343 -24.516  1.00  0.00    -0.019 C 
HETATM   25  C2  UNL     1      -1.013  50.832 -25.725  1.00  0.00    -0.083 C 
HETATM   26  C1  UNL     1       0.390  50.714 -26.264  1.00  0.00     0.043 C 
BRANCH  25  27
HETATM   27  C25 UNL     1      -2.096  50.325 -26.687  1.00  0.00     0.013 C 
HETATM   28  C26 UNL     1      -3.253  51.335 -26.747  1.00  0.00     0.015 C 
BRANCH  27  29
HETATM   29  C27 UNL     1      -2.573  48.876 -26.364  1.00  0.00    -0.015 C 
HETATM   30  C28 UNL     1      -3.599  48.378 -27.393  1.00  0.00     0.010 C 
HETATM   31  C29 UNL     1      -3.189  48.770 -24.964  1.00  0.00     0.010 C 
ENDBRANCH  27  29
ENDBRANCH  25  27
ENDBRANCH  22  24
ENDBRANCH   1  22
BRANCH  10  32
HETATM   32  O1  UNL     1      -2.364  49.774 -12.473  1.00  0.00    -0.395 OA
HETATM   33  H20 UNL     1      -1.710  49.057 -12.395  1.00  0.00     0.210 HD
ENDBRANCH  10  32
TORSDOF 5
ENDMDL
MODEL 6
REMARK minimizedAffinity -9.14476395
REMARK  5 active torsions:
REMARK  status: ('A' for Active; 'I' for Inactive)
REMARK    1  A    between atoms: C2_2  and  C25_28 
REMARK    2  A    between atoms: C3_3  and  C4_4 
REMARK    3  A    between atoms: C4_4  and  C6_6 
REMARK    4  A    between atoms: C15_15  and  O1_16 
REMARK    5  A    between atoms: C25_28  and  C27_30 
ROOT
HETATM    1  C6  UNL     1      -0.039  51.433 -22.744  1.00  0.00     0.001 C 
HETATM    2  C7  UNL     1       0.073  51.983 -21.289  1.00  0.00     0.006 C 
HETATM    3  C8  UNL     1      -1.179  51.515 -20.532  1.00  0.00     0.009 C 
HETATM    4  C9  UNL     1      -1.859  50.563 -21.508  1.00  0.00     0.036 C 
HETATM    5  C10 UNL     1      -3.301  50.117 -21.242  1.00  0.00     0.123 C 
HETATM    6  C11 UNL     1      -4.323  51.195 -20.977  1.00  0.00     0.014 C 
HETATM    7  C12 UNL     1      -5.531  50.719 -20.646  1.00  0.00     0.014 C 
HETATM    8  C13 UNL     1      -5.621  49.208 -20.685  1.00  0.00     0.124 C 
HETATM    9  C14 UNL     1      -6.975  48.685 -20.195  1.00  0.00     0.078 C 
HETATM   10  C15 UNL     1      -7.052  47.159 -20.268  1.00  0.00     0.121 C 
HETATM   11  C16 UNL     1      -6.692  46.613 -21.650  1.00  0.00     0.033 C 
HETATM   12  C17 UNL     1      -5.344  47.139 -22.145  1.00  0.00     0.015 C 
HETATM   13  C18 UNL     1      -5.248  48.692 -22.120  1.00  0.00     0.001 C 
HETATM   14  C19 UNL     1      -6.220  49.254 -23.190  1.00  0.00     0.019 C 
HETATM   15  C20 UNL     1      -3.745  49.127 -22.373  1.00  0.00     0.039 C 
HETATM   16  C21 UNL     1      -3.414  49.633 -23.793  1.00  0.00     0.010 C 
HETATM   17  C22 UNL     1      -1.953  50.095 -23.945  1.00  0.00     0.010 C 
HETATM   18  C23 UNL     1      -1.571  51.170 -22.906  1.00  0.00    -0.033 C 
HETATM   19  C24 UNL     1      -2.322  52.486 -23.209  1.00  0.00     0.016 C 
HETATM   20  O2  UNL     1      -4.609  48.691 -19.777  1.00  0.00    -0.223 OA
HETATM   21  O3  UNL     1      -3.284  49.338 -20.013  1.00  0.00    -0.224 OA
ENDROOT
BRANCH   1  22
HETATM   22  C4  UNL     1       0.693  52.346 -23.764  1.00  0.00     0.009 C 
HETATM   23  C5  UNL     1       0.536  53.837 -23.459  1.00  0.00     0.014 C 
BRANCH  22  24
HETATM   24  C3  UNL     1       0.153  52.101 -25.163  1.00  0.00    -0.019 C 
HETATM   25  C2  UNL     1       0.825  51.707 -26.266  1.00  0.00    -0.083 C 
HETATM   26  C1  UNL     1       2.312  51.469 -26.322  1.00  0.00     0.043 C 
BRANCH  25  27
HETATM   27  C25 UNL     1       0.105  51.477 -27.602  1.00  0.00     0.013 C 
HETATM   28  C26 UNL     1       0.311  52.691 -28.521  1.00  0.00     0.015 C 
BRANCH  27  29
HETATM   29  C27 UNL     1      -1.397  51.096 -27.428  1.00  0.00    -0.015 C 
HETATM   30  C28 UNL     1      -2.187  52.218 -26.738  1.00  0.00     0.010 C 
HETATM   31  C29 UNL     1      -1.575  49.802 -26.624  1.00  0.00     0.010 C 
ENDBRANCH  27  29
ENDBRANCH  25  27
ENDBRANCH  22  24
ENDBRANCH   1  22
BRANCH  10  32
HETATM   32  O1  UNL     1      -8.370  46.734 -19.925  1.00  0.00    -0.395 OA
HETATM   33  H20 UNL     1      -8.988  47.090 -20.589  1.00  0.00     0.210 HD
ENDBRANCH  10  32
TORSDOF 5
ENDMDL
MODEL 7
REMARK minimizedAffinity -9.0669775
REMARK  5 active torsions:
REMARK  status: ('A' for Active; 'I' for Inactive)
REMARK    1  A    between atoms: C2_2  and  C25_28 
REMARK    2  A    between atoms: C3_3  and  C4_4 
REMARK    3  A    between atoms: C4_4  and  C6_6 
REMARK    4  A    between atoms: C15_15  and  O1_16 
REMARK    5  A    between atoms: C25_28  and  C27_30 
ROOT
HETATM    1  C6  UNL     1      -2.986  50.912 -22.493  1.00  0.00     0.001 C 
HETATM    2  C7  UNL     1      -4.485  51.027 -22.078  1.00  0.00     0.006 C 
HETATM    3  C8  UNL     1      -4.538  50.930 -20.545  1.00  0.00     0.009 C 
HETATM    4  C9  UNL     1      -3.073  50.958 -20.130  1.00  0.00     0.036 C 
HETATM    5  C10 UNL     1      -2.692  50.579 -18.694  1.00  0.00     0.123 C 
HETATM    6  C11 UNL     1      -3.220  49.270 -18.159  1.00  0.00     0.014 C 
HETATM    7  C12 UNL     1      -2.934  49.065 -16.866  1.00  0.00     0.014 C 
HETATM    8  C13 UNL     1      -2.081  50.154 -16.252  1.00  0.00     0.124 C 
HETATM    9  C14 UNL     1      -1.863  49.955 -14.748  1.00  0.00     0.078 C 
HETATM   10  C15 UNL     1      -0.977  51.052 -14.154  1.00  0.00     0.121 C 
HETATM   11  C16 UNL     1       0.342  51.221 -14.909  1.00  0.00     0.033 C 
HETATM   12  C17 UNL     1       0.127  51.414 -16.411  1.00  0.00     0.015 C 
HETATM   13  C18 UNL     1      -0.738  50.291 -17.053  1.00  0.00     0.001 C 
HETATM   14  C19 UNL     1       0.076  48.971 -17.015  1.00  0.00     0.019 C 
HETATM   15  C20 UNL     1      -1.140  50.718 -18.525  1.00  0.00     0.039 C 
HETATM   16  C21 UNL     1      -0.339  50.056 -19.667  1.00  0.00     0.010 C 
HETATM   17  C22 UNL     1      -0.826  50.472 -21.067  1.00  0.00     0.010 C 
HETATM   18  C23 UNL     1      -2.332  50.203 -21.263  1.00  0.00    -0.033 C 
HETATM   19  C24 UNL     1      -2.594  48.682 -21.308  1.00  0.00     0.016 C 
HETATM   20  O2  UNL     1      -2.798  51.409 -16.416  1.00  0.00    -0.223 OA
HETATM   21  O3  UNL     1      -3.280  51.580 -17.820  1.00  0.00    -0.224 OA
ENDROOT
BRANCH   1  22
HETATM   22  C4  UNL     1      -2.826  50.295 -23.908  1.00  0.00     0.009 C 
HETATM   23  C5  UNL     1      -2.921  48.768 -23.914  1.00  0.00     0.014 C 
BRANCH  22  24
HETATM   24  C3  UNL     1      -1.475  50.675 -24.491  1.00  0.00    -0.019 C 
HETATM   25  C2  UNL     1      -1.115  50.761 -25.790  1.00  0.00    -0.083 C 
HETATM   26  C1  UNL     1      -2.019  50.438 -26.952  1.00  0.00     0.043 C 
BRANCH  25  27
HETATM   27  C25 UNL     1       0.299  51.195 -26.200  1.00  0.00     0.013 C 
HETATM   28  C26 UNL     1       0.918  52.067 -25.097  1.00  0.00     0.015 C 
BRANCH  27  29
HETATM   29  C27 UNL     1       0.348  51.871 -27.605  1.00  0.00    -0.015 C 
HETATM   30  C28 UNL     1       1.742  51.751 -28.239  1.00  0.00     0.010 C 
HETATM   31  C29 UNL     1      -0.040  53.353 -27.546  1.00  0.00     0.010 C 
ENDBRANCH  27  29
ENDBRANCH  25  27
ENDBRANCH  22  24
ENDBRANCH   1  22
BRANCH  10  32
HETATM   32  O1  UNL     1      -0.700  50.750 -12.788  1.00  0.00    -0.395 OA
HETATM   33  H20 UNL     1      -0.196  49.918 -12.756  1.00  0.00     0.210 HD
ENDBRANCH  10  32
TORSDOF 5
ENDMDL
MODEL 8
REMARK minimizedAffinity -8.89980412
REMARK  5 active torsions:
REMARK  status: ('A' for Active; 'I' for Inactive)
REMARK    1  A    between atoms: C2_2  and  C25_28 
REMARK    2  A    between atoms: C3_3  and  C4_4 
REMARK    3  A    between atoms: C4_4  and  C6_6 
REMARK    4  A    between atoms: C15_15  and  O1_16 
REMARK    5  A    between atoms: C25_28  and  C27_30 
ROOT
HETATM    1  C6  UNL     1      -2.889  51.577 -24.080  1.00  0.00     0.001 C 
HETATM    2  C7  UNL     1      -4.202  52.332 -23.713  1.00  0.00     0.006 C 
HETATM    3  C8  UNL     1      -4.423  52.147 -22.203  1.00  0.00     0.009 C 
HETATM    4  C9  UNL     1      -3.145  51.466 -21.731  1.00  0.00     0.036 C 
HETATM    5  C10 UNL     1      -3.100  50.840 -20.333  1.00  0.00     0.123 C 
HETATM    6  C11 UNL     1      -4.208  49.882 -19.966  1.00  0.00     0.014 C 
HETATM    7  C12 UNL     1      -4.156  49.464 -18.694  1.00  0.00     0.014 C 
HETATM    8  C13 UNL     1      -2.958  49.987 -17.930  1.00  0.00     0.124 C 
HETATM    9  C14 UNL     1      -2.982  49.589 -16.451  1.00  0.00     0.078 C 
HETATM   10  C15 UNL     1      -1.749  50.105 -15.706  1.00  0.00     0.121 C 
HETATM   11  C16 UNL     1      -0.438  49.710 -16.386  1.00  0.00     0.033 C 
HETATM   12  C17 UNL     1      -0.414  50.101 -17.864  1.00  0.00     0.015 C 
HETATM   13  C18 UNL     1      -1.636  49.556 -18.659  1.00  0.00     0.001 C 
HETATM   14  C19 UNL     1      -1.514  48.011 -18.736  1.00  0.00     0.019 C 
HETATM   15  C20 UNL     1      -1.674  50.237 -20.090  1.00  0.00     0.039 C 
HETATM   16  C21 UNL     1      -1.166  49.376 -21.266  1.00  0.00     0.010 C 
HETATM   17  C22 UNL     1      -1.292  50.080 -22.630  1.00  0.00     0.010 C 
HETATM   18  C23 UNL     1      -2.733  50.549 -22.912  1.00  0.00    -0.033 C 
HETATM   19  C24 UNL     1      -3.651  49.328 -23.134  1.00  0.00     0.016 C 
HETATM   20  O2  UNL     1      -3.011  51.439 -17.983  1.00  0.00    -0.223 OA
HETATM   21  O3  UNL     1      -3.243  51.926 -19.376  1.00  0.00    -0.224 OA
ENDROOT
BRANCH   1  22
HETATM   22  C4  UNL     1      -2.906  51.070 -25.547  1.00  0.00     0.009 C 
HETATM   23  C5  UNL     1      -2.624  49.573 -25.672  1.00  0.00     0.014 C 
BRANCH  22  24
HETATM   24  C3  UNL     1      -1.857  51.808 -26.364  1.00  0.00    -0.019 C 
HETATM   25  C2  UNL     1      -0.899  52.655 -25.930  1.00  0.00    -0.083 C 
HETATM   26  C1  UNL     1      -0.715  53.078 -24.495  1.00  0.00     0.043 C 
BRANCH  25  27
HETATM   27  C25 UNL     1       0.105  53.291 -26.902  1.00  0.00     0.013 C 
HETATM   28  C26 UNL     1      -0.644  53.917 -28.089  1.00  0.00     0.015 C 
BRANCH  27  29
HETATM   29  C27 UNL     1       1.232  52.310 -27.346  1.00  0.00    -0.015 C 
HETATM   30  C28 UNL     1       0.920  51.673 -28.708  1.00  0.00     0.010 C 
HETATM   31  C29 UNL     1       1.460  51.192 -26.321  1.00  0.00     0.010 C 
ENDBRANCH  27  29
ENDBRANCH  25  27
ENDBRANCH  22  24
ENDBRANCH   1  22
BRANCH  10  32
HETATM   32  O1  UNL     1      -1.756  49.600 -14.372  1.00  0.00    -0.395 OA
HETATM   33  H20 UNL     1      -1.688  48.630 -14.412  1.00  0.00     0.210 HD
ENDBRANCH  10  32
TORSDOF 5
ENDMDL
MODEL 9
REMARK minimizedAffinity -8.89785862
REMARK  5 active torsions:
REMARK  status: ('A' for Active; 'I' for Inactive)
REMARK    1  A    between atoms: C2_2  and  C25_28 
REMARK    2  A    between atoms: C3_3  and  C4_4 
REMARK    3  A    between atoms: C4_4  and  C6_6 
REMARK    4  A    between atoms: C15_15  and  O1_16 
REMARK    5  A    between atoms: C25_28  and  C27_30 
ROOT
HETATM    1  C6  UNL     1      -1.910  51.880 -22.978  1.00  0.00     0.001 C 
HETATM    2  C7  UNL     1      -2.634  52.203 -24.321  1.00  0.00     0.006 C 
HETATM    3  C8  UNL     1      -4.005  51.512 -24.273  1.00  0.00     0.009 C 
HETATM    4  C9  UNL     1      -4.096  50.986 -22.846  1.00  0.00     0.036 C 
HETATM    5  C10 UNL     1      -5.188  49.973 -22.487  1.00  0.00     0.123 C 
HETATM    6  C11 UNL     1      -5.312  48.747 -23.359  1.00  0.00     0.014 C 
HETATM    7  C12 UNL     1      -6.357  47.969 -23.045  1.00  0.00     0.014 C 
HETATM    8  C13 UNL     1      -7.136  48.453 -21.840  1.00  0.00     0.124 C 
HETATM    9  C14 UNL     1      -8.388  47.613 -21.572  1.00  0.00     0.078 C 
HETATM   10  C15 UNL     1      -9.144  48.103 -20.335  1.00  0.00     0.121 C 
HETATM   11  C16 UNL     1      -8.250  48.213 -19.099  1.00  0.00     0.033 C 
HETATM   12  C17 UNL     1      -6.996  49.046 -19.367  1.00  0.00     0.015 C 
HETATM   13  C18 UNL     1      -6.182  48.547 -20.596  1.00  0.00     0.001 C 
HETATM   14  C19 UNL     1      -5.576  47.163 -20.247  1.00  0.00     0.019 C 
HETATM   15  C20 UNL     1      -5.077  49.622 -20.963  1.00  0.00     0.039 C 
HETATM   16  C21 UNL     1      -3.637  49.296 -20.515  1.00  0.00     0.010 C 
HETATM   17  C22 UNL     1      -2.611  50.354 -20.960  1.00  0.00     0.010 C 
HETATM   18  C23 UNL     1      -2.641  50.590 -22.483  1.00  0.00    -0.033 C 
HETATM   19  C24 UNL     1      -2.106  49.343 -23.221  1.00  0.00     0.016 C 
HETATM   20  O2  UNL     1      -7.583  49.806 -22.129  1.00  0.00    -0.223 OA
HETATM   21  O3  UNL     1      -6.465  50.650 -22.648  1.00  0.00    -0.224 OA
ENDROOT
BRANCH   1  22
HETATM   22  C4  UNL     1      -0.366  51.870 -23.143  1.00  0.00     0.009 C 
HETATM   23  C5  UNL     1       0.330  52.986 -22.364  1.00  0.00     0.014 C 
BRANCH  22  24
HETATM   24  C3  UNL     1       0.000  52.032 -24.609  1.00  0.00    -0.019 C 
HETATM   25  C2  UNL     1       0.329  53.161 -25.273  1.00  0.00    -0.083 C 
HETATM   26  C1  UNL     1       0.351  54.538 -24.661  1.00  0.00     0.043 C 
BRANCH  25  27
HETATM   27  C25 UNL     1       0.704  53.133 -26.761  1.00  0.00     0.013 C 
HETATM   28  C26 UNL     1      -0.474  53.640 -27.606  1.00  0.00     0.015 C 
BRANCH  27  29
HETATM   29  C27 UNL     1       1.234  51.743 -27.232  1.00  0.00    -0.015 C 
HETATM   30  C28 UNL     1       0.209  50.631 -26.966  1.00  0.00     0.010 C 
HETATM   31  C29 UNL     1       2.555  51.369 -26.550  1.00  0.00     0.010 C 
ENDBRANCH  27  29
ENDBRANCH  25  27
ENDBRANCH  22  24
ENDBRANCH   1  22
BRANCH  10  32
HETATM   32  O1  UNL     1     -10.223  47.212 -20.055  1.00  0.00    -0.395 OA
HETATM   33  H20 UNL     1      -9.850  46.339 -19.842  1.00  0.00     0.210 HD
ENDBRANCH  10  32
TORSDOF 5
ENDMDL
