MODEL 1
REMARK minimizedAffinity -5.76190281
REMARK CNNscore 0.525861561
REMARK CNNaffinity 5.67854071
REMARK  11 active torsions:
REMARK  status: ('A' for Active; 'I' for Inactive)
REMARK    1  A    between atoms: C2_2  and  O1_3 
REMARK    2  A    between atoms: O1_3  and  C3_4 
REMARK    3  A    between atoms: C3_4  and  C4_6 
REMARK    4  A    between atoms: N1_9  and  C7_10 
REMARK    5  A    between atoms: C7_10  and  C8_11 
REMARK    6  A    between atoms: C8_11  and  N2_12 
REMARK    7  A    between atoms: C15_20  and  C16_21 
REMARK    8  A    between atoms: C16_21  and  O5_23 
REMARK    9  A    between atoms: O5_23  and  C17_24 
REMARK   10  A    between atoms: C19_26  and  C20_27 
REMARK   11  A    between atoms: C25_32  and  C26_33 
ROOT
HETATM    1  C4  UNL     1       2.776  53.087  -9.510  1.00  0.00     0.052 A 
HETATM    2  C5  UNL     1       2.204  52.794 -10.701  1.00  0.00     0.021 A 
HETATM    3  C6  UNL     1       2.931  51.925 -11.714  1.00  0.00     0.069 C 
HETATM    4  N1  UNL     1       0.908  53.294 -11.033  1.00  0.00    -0.351 N 
HETATM    5  C13 UNL     1       0.173  54.053 -10.068  1.00  0.00     0.021 A 
HETATM    6  C14 UNL     1      -1.242  54.488 -10.419  1.00  0.00     0.069 C 
HETATM    7  C15 UNL     1       0.721  54.380  -8.871  1.00  0.00     0.052 A 
HETATM    8  C19 UNL     1       2.134  53.983  -8.475  1.00  0.00     0.101 A 
ENDROOT
BRANCH   8   9
HETATM    9  C20 UNL     1       2.996  55.231  -8.186  1.00  0.00    -0.030 A 
HETATM   10  C21 UNL     1       3.410  55.472  -6.856  1.00  0.00     0.009 A 
HETATM   11  C22 UNL     1       4.196  56.575  -6.528  1.00  0.00     0.001 A 
HETATM   12  C23 UNL     1       4.580  57.470  -7.517  1.00  0.00     0.001 A 
HETATM   13  C24 UNL     1       4.172  57.265  -8.835  1.00  0.00     0.017 A 
HETATM   14  C25 UNL     1       3.377  56.155  -9.193  1.00  0.00     0.055 A 
BRANCH  14  15
HETATM   15  C26 UNL     1       2.939  56.027 -10.638  1.00  0.00     0.418 C 
HETATM   16  F1  UNL     1       3.461  54.925 -11.240  1.00  0.00    -0.166 F 
HETATM   17  F2  UNL     1       3.310  57.086 -11.406  1.00  0.00    -0.166 F 
HETATM   18  F3  UNL     1       1.588  55.923 -10.793  1.00  0.00    -0.166 F 
ENDBRANCH  14  15
ENDBRANCH   8   9
BRANCH   1  19
HETATM   19  C3  UNL     1       4.032  52.424  -9.106  1.00  0.00     0.292 C 
HETATM   20  O2  UNL     1       4.074  51.483  -8.330  1.00  0.00    -0.259 OA
BRANCH  19  21
HETATM   21  O1  UNL     1       5.072  52.988  -9.763  1.00  0.00    -0.318 OA
BRANCH  21  22
HETATM   22  C2  UNL     1       6.265  53.174  -8.989  1.00  0.00     0.174 C 
HETATM   23  C1  UNL     1       6.686  54.632  -9.022  1.00  0.00     0.034 C 
ENDBRANCH  21  22
ENDBRANCH  19  21
ENDBRANCH   1  19
BRANCH   7  24
HETATM   24  C16 UNL     1      -0.007  55.231  -7.898  1.00  0.00     0.292 C 
HETATM   25  O4  UNL     1      -0.476  56.329  -8.155  1.00  0.00    -0.259 OA
BRANCH  24  26
HETATM   26  O5  UNL     1      -0.081  54.588  -6.708  1.00  0.00    -0.318 OA
BRANCH  26  27
HETATM   27  C17 UNL     1      -1.190  53.688  -6.561  1.00  0.00     0.174 C 
HETATM   28  C18 UNL     1      -1.732  53.716  -5.141  1.00  0.00     0.034 C 
ENDBRANCH  26  27
ENDBRANCH  24  26
ENDBRANCH   7  24
BRANCH   4  29
HETATM   29  C7  UNL     1       0.295  52.970 -12.358  1.00  0.00     0.159 C 
BRANCH  29  30
HETATM   30  C8  UNL     1      -0.312  51.546 -12.376  1.00  0.00     0.292 C 
BRANCH  30  31
HETATM   31  N2  UNL     1      -1.592  51.469 -11.647  1.00  0.00     0.094 N 
HETATM   32  C9  UNL     1      -1.594  50.328 -10.706  1.00  0.00     0.298 C 
HETATM   33  C10 UNL     1      -3.018  49.991 -10.243  1.00  0.00     0.198 C 
HETATM   34  O3  UNL     1      -3.869  49.558 -11.313  1.00  0.00    -0.388 OA
HETATM   35  C11 UNL     1      -3.440  50.023 -12.596  1.00  0.00     0.198 C 
HETATM   36  C12 UNL     1      -2.767  51.406 -12.546  1.00  0.00     0.298 C 
ENDBRANCH  30  31
ENDBRANCH  29  30
ENDBRANCH   4  29
TORSDOF 11
ENDMDL
MODEL 2
REMARK minimizedAffinity -5.70370579
REMARK CNNscore 0.426181495
REMARK CNNaffinity 5.59316778
REMARK  11 active torsions:
REMARK  status: ('A' for Active; 'I' for Inactive)
REMARK    1  A    between atoms: C2_2  and  O1_3 
REMARK    2  A    between atoms: O1_3  and  C3_4 
REMARK    3  A    between atoms: C3_4  and  C4_6 
REMARK    4  A    between atoms: N1_9  and  C7_10 
REMARK    5  A    between atoms: C7_10  and  C8_11 
REMARK    6  A    between atoms: C8_11  and  N2_12 
REMARK    7  A    between atoms: C15_20  and  C16_21 
REMARK    8  A    between atoms: C16_21  and  O5_23 
REMARK    9  A    between atoms: O5_23  and  C17_24 
REMARK   10  A    between atoms: C19_26  and  C20_27 
REMARK   11  A    between atoms: C25_32  and  C26_33 
ROOT
HETATM    1  C4  UNL     1       2.422  52.487  -9.311  1.00  0.00     0.052 A 
HETATM    2  C5  UNL     1       1.340  52.750 -10.080  1.00  0.00     0.021 A 
HETATM    3  C6  UNL     1       0.945  51.809 -11.207  1.00  0.00     0.069 C 
HETATM    4  N1  UNL     1       0.546  53.915  -9.853  1.00  0.00    -0.351 N 
HETATM    5  C13 UNL     1       0.854  54.778  -8.754  1.00  0.00     0.021 A 
HETATM    6  C14 UNL     1      -0.069  55.956  -8.483  1.00  0.00     0.069 C 
HETATM    7  C15 UNL     1       1.940  54.554  -7.972  1.00  0.00     0.052 A 
HETATM    8  C19 UNL     1       2.902  53.401  -8.207  1.00  0.00     0.101 A 
ENDROOT
BRANCH   8   9
HETATM    9  C20 UNL     1       4.331  53.921  -8.474  1.00  0.00    -0.030 A 
HETATM   10  C21 UNL     1       5.337  53.650  -7.519  1.00  0.00     0.009 A 
HETATM   11  C22 UNL     1       6.649  54.084  -7.704  1.00  0.00     0.001 A 
HETATM   12  C23 UNL     1       6.986  54.805  -8.841  1.00  0.00     0.001 A 
HETATM   13  C24 UNL     1       6.009  55.099  -9.791  1.00  0.00     0.017 A 
HETATM   14  C25 UNL     1       4.674  54.671  -9.628  1.00  0.00     0.055 A 
BRANCH  14  15
HETATM   15  C26 UNL     1       3.663  55.069 -10.685  1.00  0.00     0.418 C 
HETATM   16  F1  UNL     1       2.647  55.813 -10.173  1.00  0.00    -0.166 F 
HETATM   17  F2  UNL     1       3.078  54.003 -11.295  1.00  0.00    -0.166 F 
HETATM   18  F3  UNL     1       4.193  55.817 -11.694  1.00  0.00    -0.166 F 
ENDBRANCH  14  15
ENDBRANCH   8   9
BRANCH   1  19
HETATM   19  C3  UNL     1       3.128  51.197  -9.439  1.00  0.00     0.292 C 
HETATM   20  O2  UNL     1       2.936  50.250  -8.692  1.00  0.00    -0.259 OA
BRANCH  19  21
HETATM   21  O1  UNL     1       3.948  51.234 -10.515  1.00  0.00    -0.318 OA
BRANCH  21  22
HETATM   22  C2  UNL     1       4.276  49.961 -11.087  1.00  0.00     0.174 C 
HETATM   23  C1  UNL     1       4.139  50.016 -12.597  1.00  0.00     0.034 C 
ENDBRANCH  21  22
ENDBRANCH  19  21
ENDBRANCH   1  19
BRANCH   7  24
HETATM   24  C16 UNL     1       2.306  55.488  -6.878  1.00  0.00     0.292 C 
HETATM   25  O4  UNL     1       2.219  55.226  -5.688  1.00  0.00    -0.259 OA
BRANCH  24  26
HETATM   26  O5  UNL     1       2.764  56.646  -7.411  1.00  0.00    -0.318 OA
BRANCH  26  27
HETATM   27  C17 UNL     1       3.585  57.442  -6.543  1.00  0.00     0.174 C 
HETATM   28  C18 UNL     1       5.043  57.387  -6.968  1.00  0.00     0.034 C 
ENDBRANCH  26  27
ENDBRANCH  24  26
ENDBRANCH   7  24
BRANCH   4  29
HETATM   29  C7  UNL     1      -0.639  54.197 -10.720  1.00  0.00     0.159 C 
BRANCH  29  30
HETATM   30  C8  UNL     1      -1.896  54.531  -9.880  1.00  0.00     0.292 C 
BRANCH  30  31
HETATM   31  N2  UNL     1      -2.947  53.503 -10.002  1.00  0.00     0.094 N 
HETATM   32  C9  UNL     1      -2.371  52.145  -9.891  1.00  0.00     0.298 C 
HETATM   33  C10 UNL     1      -3.351  51.081 -10.403  1.00  0.00     0.198 C 
HETATM   34  O3  UNL     1      -3.647  51.217 -11.801  1.00  0.00    -0.388 OA
HETATM   35  C11 UNL     1      -3.441  52.544 -12.293  1.00  0.00     0.198 C 
HETATM   36  C12 UNL     1      -3.740  53.631 -11.246  1.00  0.00     0.298 C 
ENDBRANCH  30  31
ENDBRANCH  29  30
ENDBRANCH   4  29
TORSDOF 11
ENDMDL
MODEL 3
REMARK minimizedAffinity -5.47234631
REMARK CNNscore 0.366659522
REMARK CNNaffinity 5.18230772
REMARK  11 active torsions:
REMARK  status: ('A' for Active; 'I' for Inactive)
REMARK    1  A    between atoms: C2_2  and  O1_3 
REMARK    2  A    between atoms: O1_3  and  C3_4 
REMARK    3  A    between atoms: C3_4  and  C4_6 
REMARK    4  A    between atoms: N1_9  and  C7_10 
REMARK    5  A    between atoms: C7_10  and  C8_11 
REMARK    6  A    between atoms: C8_11  and  N2_12 
REMARK    7  A    between atoms: C15_20  and  C16_21 
REMARK    8  A    between atoms: C16_21  and  O5_23 
REMARK    9  A    between atoms: O5_23  and  C17_24 
REMARK   10  A    between atoms: C19_26  and  C20_27 
REMARK   11  A    between atoms: C25_32  and  C26_33 
ROOT
HETATM    1  C4  UNL     1       0.591  55.325  -8.278  1.00  0.00     0.052 A 
HETATM    2  C5  UNL     1      -0.024  54.145  -8.527  1.00  0.00     0.021 A 
HETATM    3  C6  UNL     1      -1.306  53.773  -7.801  1.00  0.00     0.069 C 
HETATM    4  N1  UNL     1       0.517  53.224  -9.475  1.00  0.00    -0.351 N 
HETATM    5  C13 UNL     1       1.683  53.583 -10.225  1.00  0.00     0.021 A 
HETATM    6  C14 UNL     1       2.175  52.620 -11.294  1.00  0.00     0.069 C 
HETATM    7  C15 UNL     1       2.334  54.750  -9.990  1.00  0.00     0.052 A 
HETATM    8  C19 UNL     1       1.892  55.740  -8.925  1.00  0.00     0.101 A 
ENDROOT
BRANCH   8   9
HETATM    9  C20 UNL     1       3.007  55.959  -7.879  1.00  0.00    -0.030 A 
HETATM   10  C21 UNL     1       3.674  57.205  -7.854  1.00  0.00     0.009 A 
HETATM   11  C22 UNL     1       4.684  57.469  -6.930  1.00  0.00     0.001 A 
HETATM   12  C23 UNL     1       5.058  56.495  -6.016  1.00  0.00     0.001 A 
HETATM   13  C24 UNL     1       4.428  55.251  -6.030  1.00  0.00     0.017 A 
HETATM   14  C25 UNL     1       3.402  54.959  -6.955  1.00  0.00     0.055 A 
BRANCH  14  15
HETATM   15  C26 UNL     1       2.797  53.569  -6.933  1.00  0.00     0.418 C 
HETATM   16  F1  UNL     1       1.477  53.586  -6.608  1.00  0.00    -0.166 F 
HETATM   17  F2  UNL     1       3.395  52.739  -6.037  1.00  0.00    -0.166 F 
HETATM   18  F3  UNL     1       2.871  52.922  -8.131  1.00  0.00    -0.166 F 
ENDBRANCH  14  15
ENDBRANCH   8   9
BRANCH   1  19
HETATM   19  C3  UNL     1      -0.067  56.341  -7.433  1.00  0.00     0.292 C 
HETATM   20  O2  UNL     1      -0.743  57.253  -7.882  1.00  0.00    -0.259 OA
BRANCH  19  21
HETATM   21  O1  UNL     1       0.159  56.059  -6.128  1.00  0.00    -0.318 OA
BRANCH  21  22
HETATM   22  C2  UNL     1       0.159  57.188  -5.243  1.00  0.00     0.174 C 
HETATM   23  C1  UNL     1       1.568  57.463  -4.749  1.00  0.00     0.034 C 
ENDBRANCH  21  22
ENDBRANCH  19  21
ENDBRANCH   1  19
BRANCH   7  24
HETATM   24  C16 UNL     1       3.585  55.091 -10.711  1.00  0.00     0.292 C 
HETATM   25  O4  UNL     1       3.792  56.159 -11.267  1.00  0.00    -0.259 OA
BRANCH  24  26
HETATM   26  O5  UNL     1       4.448  54.050 -10.630  1.00  0.00    -0.318 OA
BRANCH  26  27
HETATM   27  C17 UNL     1       5.348  54.080  -9.512  1.00  0.00     0.174 C 
HETATM   28  C18 UNL     1       6.346  55.219  -9.645  1.00  0.00     0.034 C 
ENDBRANCH  26  27
ENDBRANCH  24  26
ENDBRANCH   7  24
BRANCH   4  29
HETATM   29  C7  UNL     1      -0.168  51.920  -9.731  1.00  0.00     0.159 C 
BRANCH  29  30
HETATM   30  C8  UNL     1      -0.431  51.697 -11.240  1.00  0.00     0.292 C 
BRANCH  30  31
HETATM   31  N2  UNL     1      -1.869  51.593 -11.553  1.00  0.00     0.094 N 
HETATM   32  C9  UNL     1      -2.169  52.218 -12.860  1.00  0.00     0.298 C 
HETATM   33  C10 UNL     1      -3.674  52.476 -13.020  1.00  0.00     0.198 C 
HETATM   34  O3  UNL     1      -4.189  53.412 -12.063  1.00  0.00    -0.388 OA
HETATM   35  C11 UNL     1      -3.396  53.494 -10.875  1.00  0.00     0.198 C 
HETATM   36  C12 UNL     1      -2.735  52.159 -10.493  1.00  0.00     0.298 C 
ENDBRANCH  30  31
ENDBRANCH  29  30
ENDBRANCH   4  29
TORSDOF 11
ENDMDL
MODEL 4
REMARK minimizedAffinity -5.43979788
REMARK CNNscore 0.356944889
REMARK CNNaffinity 5.33992052
REMARK  11 active torsions:
REMARK  status: ('A' for Active; 'I' for Inactive)
REMARK    1  A    between atoms: C2_2  and  O1_3 
REMARK    2  A    between atoms: O1_3  and  C3_4 
REMARK    3  A    between atoms: C3_4  and  C4_6 
REMARK    4  A    between atoms: N1_9  and  C7_10 
REMARK    5  A    between atoms: C7_10  and  C8_11 
REMARK    6  A    between atoms: C8_11  and  N2_12 
REMARK    7  A    between atoms: C15_20  and  C16_21 
REMARK    8  A    between atoms: C16_21  and  O5_23 
REMARK    9  A    between atoms: O5_23  and  C17_24 
REMARK   10  A    between atoms: C19_26  and  C20_27 
REMARK   11  A    between atoms: C25_32  and  C26_33 
ROOT
HETATM    1  C4  UNL     1       1.512  53.707  -8.401  1.00  0.00     0.052 A 
HETATM    2  C5  UNL     1       0.764  52.743  -7.814  1.00  0.00     0.021 A 
HETATM    3  C6  UNL     1       0.086  52.998  -6.478  1.00  0.00     0.069 C 
HETATM    4  N1  UNL     1       0.597  51.468  -8.435  1.00  0.00    -0.351 N 
HETATM    5  C13 UNL     1       1.165  51.228  -9.726  1.00  0.00     0.021 A 
HETATM    6  C14 UNL     1       0.886  49.893 -10.400  1.00  0.00     0.069 C 
HETATM    7  C15 UNL     1       1.934  52.165 -10.337  1.00  0.00     0.052 A 
HETATM    8  C19 UNL     1       2.255  53.509  -9.703  1.00  0.00     0.101 A 
ENDROOT
BRANCH   8   9
HETATM    9  C20 UNL     1       3.779  53.684  -9.525  1.00  0.00    -0.030 A 
HETATM   10  C21 UNL     1       4.492  52.699  -8.805  1.00  0.00     0.009 A 
HETATM   11  C22 UNL     1       5.870  52.793  -8.616  1.00  0.00     0.001 A 
HETATM   12  C23 UNL     1       6.567  53.876  -9.131  1.00  0.00     0.001 A 
HETATM   13  C24 UNL     1       5.885  54.871  -9.831  1.00  0.00     0.017 A 
HETATM   14  C25 UNL     1       4.490  54.798 -10.038  1.00  0.00     0.055 A 
BRANCH  14  15
HETATM   15  C26 UNL     1       3.818  55.941 -10.772  1.00  0.00     0.418 C 
HETATM   16  F1  UNL     1       3.698  57.052  -9.998  1.00  0.00    -0.166 F 
HETATM   17  F2  UNL     1       2.561  55.640 -11.196  1.00  0.00    -0.166 F 
HETATM   18  F3  UNL     1       4.489  56.344 -11.889  1.00  0.00    -0.166 F 
ENDBRANCH  14  15
ENDBRANCH   8   9
BRANCH   1  19
HETATM   19  C3  UNL     1       1.534  55.073  -7.842  1.00  0.00     0.292 C 
HETATM   20  O2  UNL     1       2.490  55.537  -7.242  1.00  0.00    -0.259 OA
BRANCH  19  21
HETATM   21  O1  UNL     1       0.377  55.706  -8.149  1.00  0.00    -0.318 OA
BRANCH  21  22
HETATM   22  C2  UNL     1       0.171  56.967  -7.497  1.00  0.00     0.174 C 
HETATM   23  C1  UNL     1      -0.049  56.755  -6.010  1.00  0.00     0.034 C 
ENDBRANCH  21  22
ENDBRANCH  19  21
ENDBRANCH   1  19
BRANCH   7  24
HETATM   24  C16 UNL     1       2.587  51.894 -11.641  1.00  0.00     0.292 C 
HETATM   25  O4  UNL     1       3.574  51.188 -11.786  1.00  0.00    -0.259 OA
BRANCH  24  26
HETATM   26  O5  UNL     1       1.907  52.529 -12.625  1.00  0.00    -0.318 OA
BRANCH  26  27
HETATM   27  C17 UNL     1       1.264  51.674 -13.582  1.00  0.00     0.174 C 
HETATM   28  C18 UNL     1       1.920  51.792 -14.947  1.00  0.00     0.034 C 
ENDBRANCH  26  27
ENDBRANCH  24  26
ENDBRANCH   7  24
BRANCH   4  29
HETATM   29  C7  UNL     1      -0.223  50.410  -7.768  1.00  0.00     0.159 C 
BRANCH  29  30
HETATM   30  C8  UNL     1      -1.739  50.690  -7.904  1.00  0.00     0.292 C 
BRANCH  30  31
HETATM   31  N2  UNL     1      -2.120  51.084  -9.273  1.00  0.00     0.094 N 
HETATM   32  C9  UNL     1      -2.690  52.449  -9.289  1.00  0.00     0.298 C 
HETATM   33  C10 UNL     1      -3.445  52.721 -10.597  1.00  0.00     0.198 C 
HETATM   34  O3  UNL     1      -4.585  51.869 -10.775  1.00  0.00    -0.388 OA
HETATM   35  C11 UNL     1      -4.491  50.643 -10.044  1.00  0.00     0.198 C 
HETATM   36  C12 UNL     1      -3.048  50.124  -9.915  1.00  0.00     0.298 C 
ENDBRANCH  30  31
ENDBRANCH  29  30
ENDBRANCH   4  29
TORSDOF 11
ENDMDL
MODEL 5
REMARK minimizedAffinity -5.89418364
REMARK CNNscore 0.321834952
REMARK CNNaffinity 5.43747473
REMARK  11 active torsions:
REMARK  status: ('A' for Active; 'I' for Inactive)
REMARK    1  A    between atoms: C2_2  and  O1_3 
REMARK    2  A    between atoms: O1_3  and  C3_4 
REMARK    3  A    between atoms: C3_4  and  C4_6 
REMARK    4  A    between atoms: N1_9  and  C7_10 
REMARK    5  A    between atoms: C7_10  and  C8_11 
REMARK    6  A    between atoms: C8_11  and  N2_12 
REMARK    7  A    between atoms: C15_20  and  C16_21 
REMARK    8  A    between atoms: C16_21  and  O5_23 
REMARK    9  A    between atoms: O5_23  and  C17_24 
REMARK   10  A    between atoms: C19_26  and  C20_27 
REMARK   11  A    between atoms: C25_32  and  C26_33 
ROOT
HETATM    1  C4  UNL     1       2.580  53.047  -9.338  1.00  0.00     0.052 A 
HETATM    2  C5  UNL     1       2.103  52.737 -10.566  1.00  0.00     0.021 A 
HETATM    3  C6  UNL     1       2.912  51.867 -11.513  1.00  0.00     0.069 C 
HETATM    4  N1  UNL     1       0.831  53.222 -11.000  1.00  0.00    -0.351 N 
HETATM    5  C13 UNL     1       0.019  53.982 -10.100  1.00  0.00     0.021 A 
HETATM    6  C14 UNL     1      -1.370  54.399 -10.561  1.00  0.00     0.069 C 
HETATM    7  C15 UNL     1       0.472  54.325  -8.868  1.00  0.00     0.052 A 
HETATM    8  C19 UNL     1       1.854  53.946  -8.364  1.00  0.00     0.101 A 
ENDROOT
BRANCH   8   9
HETATM    9  C20 UNL     1       2.680  55.205  -8.022  1.00  0.00    -0.030 A 
HETATM   10  C21 UNL     1       2.963  55.479  -6.664  1.00  0.00     0.009 A 
HETATM   11  C22 UNL     1       3.710  56.595  -6.289  1.00  0.00     0.001 A 
HETATM   12  C23 UNL     1       4.185  57.467  -7.257  1.00  0.00     0.001 A 
HETATM   13  C24 UNL     1       3.908  57.229  -8.603  1.00  0.00     0.017 A 
HETATM   14  C25 UNL     1       3.154  56.106  -9.009  1.00  0.00     0.055 A 
BRANCH  14  15
HETATM   15  C26 UNL     1       2.860  55.942 -10.487  1.00  0.00     0.418 C 
HETATM   16  F1  UNL     1       1.526  55.866 -10.742  1.00  0.00    -0.166 F 
HETATM   17  F2  UNL     1       3.410  54.819 -11.021  1.00  0.00    -0.166 F 
HETATM   18  F3  UNL     1       3.321  56.971 -11.254  1.00  0.00    -0.166 F 
ENDBRANCH  14  15
ENDBRANCH   8   9
BRANCH   1  19
HETATM   19  C3  UNL     1       3.808  52.401  -8.834  1.00  0.00     0.292 C 
HETATM   20  O2  UNL     1       3.933  51.191  -8.723  1.00  0.00    -0.259 OA
BRANCH  19  21
HETATM   21  O1  UNL     1       4.746  53.344  -8.582  1.00  0.00    -0.318 OA
BRANCH  21  22
HETATM   22  C2  UNL     1       5.904  53.307  -9.427  1.00  0.00     0.174 C 
HETATM   23  C1  UNL     1       6.568  54.671  -9.462  1.00  0.00     0.034 C 
ENDBRANCH  21  22
ENDBRANCH  19  21
ENDBRANCH   1  19
BRANCH   7  24
HETATM   24  C16 UNL     1      -0.336  55.177  -7.961  1.00  0.00     0.292 C 
HETATM   25  O4  UNL     1      -0.439  56.390  -8.062  1.00  0.00    -0.259 OA
BRANCH  24  26
HETATM   26  O5  UNL     1      -0.943  54.397  -7.035  1.00  0.00    -0.318 OA
BRANCH  26  27
HETATM   27  C17 UNL     1      -0.560  54.644  -5.674  1.00  0.00     0.174 C 
HETATM   28  C18 UNL     1      -1.574  54.058  -4.706  1.00  0.00     0.034 C 
ENDBRANCH  26  27
ENDBRANCH  24  26
ENDBRANCH   7  24
BRANCH   4  29
HETATM   29  C7  UNL     1       0.323  52.879 -12.364  1.00  0.00     0.159 C 
BRANCH  29  30
HETATM   30  C8  UNL     1      -0.371  51.496 -12.386  1.00  0.00     0.292 C 
BRANCH  30  31
HETATM   31  N2  UNL     1      -0.037  50.716 -13.593  1.00  0.00     0.094 N 
HETATM   32  C9  UNL     1       0.634  51.566 -14.601  1.00  0.00     0.298 C 
HETATM   33  C10 UNL     1       0.629  50.899 -15.983  1.00  0.00     0.198 C 
HETATM   34  O3  UNL     1      -0.691  50.712 -16.512  1.00  0.00    -0.388 OA
HETATM   35  C11 UNL     1      -1.701  50.664 -15.500  1.00  0.00     0.198 C 
HETATM   36  C12 UNL     1      -1.211  50.034 -14.185  1.00  0.00     0.298 C 
ENDBRANCH  30  31
ENDBRANCH  29  30
ENDBRANCH   4  29
TORSDOF 11
ENDMDL
MODEL 6
REMARK minimizedAffinity -5.56166744
REMARK CNNscore 0.321744293
REMARK CNNaffinity 5.63477373
REMARK  11 active torsions:
REMARK  status: ('A' for Active; 'I' for Inactive)
REMARK    1  A    between atoms: C2_2  and  O1_3 
REMARK    2  A    between atoms: O1_3  and  C3_4 
REMARK    3  A    between atoms: C3_4  and  C4_6 
REMARK    4  A    between atoms: N1_9  and  C7_10 
REMARK    5  A    between atoms: C7_10  and  C8_11 
REMARK    6  A    between atoms: C8_11  and  N2_12 
REMARK    7  A    between atoms: C15_20  and  C16_21 
REMARK    8  A    between atoms: C16_21  and  O5_23 
REMARK    9  A    between atoms: O5_23  and  C17_24 
REMARK   10  A    between atoms: C19_26  and  C20_27 
REMARK   11  A    between atoms: C25_32  and  C26_33 
ROOT
HETATM    1  C4  UNL     1      -4.862  48.374 -23.538  1.00  0.00     0.052 A 
HETATM    2  C5  UNL     1      -6.130  48.069 -23.903  1.00  0.00     0.021 A 
HETATM    3  C6  UNL     1      -6.703  48.587 -25.212  1.00  0.00     0.069 C 
HETATM    4  N1  UNL     1      -6.956  47.258 -23.067  1.00  0.00    -0.351 N 
HETATM    5  C13 UNL     1      -6.417  46.699 -21.865  1.00  0.00     0.021 A 
HETATM    6  C14 UNL     1      -7.293  45.761 -21.050  1.00  0.00     0.069 C 
HETATM    7  C15 UNL     1      -5.156  46.996 -21.461  1.00  0.00     0.052 A 
HETATM    8  C19 UNL     1      -4.243  47.937 -22.230  1.00  0.00     0.101 A 
ENDROOT
BRANCH   8   9
HETATM    9  C20 UNL     1      -3.835  49.144 -21.358  1.00  0.00    -0.030 A 
HETATM   10  C21 UNL     1      -4.771  50.185 -21.166  1.00  0.00     0.009 A 
HETATM   11  C22 UNL     1      -4.468  51.299 -20.384  1.00  0.00     0.001 A 
HETATM   12  C23 UNL     1      -3.221  51.404 -19.783  1.00  0.00     0.001 A 
HETATM   13  C24 UNL     1      -2.274  50.398 -19.969  1.00  0.00     0.017 A 
HETATM   14  C25 UNL     1      -2.556  49.260 -20.756  1.00  0.00     0.055 A 
BRANCH  14  15
HETATM   15  C26 UNL     1      -1.458  48.233 -20.944  1.00  0.00     0.418 C 
HETATM   16  F1  UNL     1      -1.584  47.551 -22.114  1.00  0.00    -0.166 F 
HETATM   17  F2  UNL     1      -1.429  47.293 -19.962  1.00  0.00    -0.166 F 
HETATM   18  F3  UNL     1      -0.205  48.771 -20.968  1.00  0.00    -0.166 F 
ENDBRANCH  14  15
ENDBRANCH   8   9
BRANCH   1  19
HETATM   19  C3  UNL     1      -3.963  49.062 -24.485  1.00  0.00     0.292 C 
HETATM   20  O2  UNL     1      -3.866  50.277 -24.556  1.00  0.00    -0.259 OA
BRANCH  19  21
HETATM   21  O1  UNL     1      -3.260  48.144 -25.189  1.00  0.00    -0.318 OA
BRANCH  21  22
HETATM   22  C2  UNL     1      -2.745  48.595 -26.450  1.00  0.00     0.174 C 
HETATM   23  C1  UNL     1      -3.808  48.463 -27.525  1.00  0.00     0.034 C 
ENDBRANCH  21  22
ENDBRANCH  19  21
ENDBRANCH   1  19
BRANCH   7  24
HETATM   24  C16 UNL     1      -4.618  46.480 -20.178  1.00  0.00     0.292 C 
HETATM   25  O4  UNL     1      -4.658  47.086 -19.118  1.00  0.00    -0.259 OA
BRANCH  24  26
HETATM   26  O5  UNL     1      -4.106  45.241 -20.372  1.00  0.00    -0.318 OA
BRANCH  26  27
HETATM   27  C17 UNL     1      -3.889  44.470 -19.180  1.00  0.00     0.174 C 
HETATM   28  C18 UNL     1      -4.823  43.272 -19.128  1.00  0.00     0.034 C 
ENDBRANCH  26  27
ENDBRANCH  24  26
ENDBRANCH   7  24
BRANCH   4  29
HETATM   29  C7  UNL     1      -8.358  46.940 -23.479  1.00  0.00     0.159 C 
BRANCH  29  30
HETATM   30  C8  UNL     1      -8.406  45.772 -24.494  1.00  0.00     0.292 C 
BRANCH  30  31
HETATM   31  N2  UNL     1      -9.575  45.849 -25.390  1.00  0.00     0.094 N 
HETATM   32  C9  UNL     1      -9.166  45.703 -26.803  1.00  0.00     0.298 C 
HETATM   33  C10 UNL     1     -10.276  46.169 -27.755  1.00  0.00     0.198 C 
HETATM   34  O3  UNL     1     -10.577  47.566 -27.625  1.00  0.00    -0.388 OA
HETATM   35  C11 UNL     1     -10.220  48.101 -26.347  1.00  0.00     0.198 C 
HETATM   36  C12 UNL     1     -10.368  47.085 -25.202  1.00  0.00     0.298 C 
ENDBRANCH  30  31
ENDBRANCH  29  30
ENDBRANCH   4  29
TORSDOF 11
ENDMDL
MODEL 7
REMARK minimizedAffinity -6.23792267
REMARK CNNscore 0.295106113
REMARK CNNaffinity 4.01943731
REMARK  11 active torsions:
REMARK  status: ('A' for Active; 'I' for Inactive)
REMARK    1  A    between atoms: C2_2  and  O1_3 
REMARK    2  A    between atoms: O1_3  and  C3_4 
REMARK    3  A    between atoms: C3_4  and  C4_6 
REMARK    4  A    between atoms: N1_9  and  C7_10 
REMARK    5  A    between atoms: C7_10  and  C8_11 
REMARK    6  A    between atoms: C8_11  and  N2_12 
REMARK    7  A    between atoms: C15_20  and  C16_21 
REMARK    8  A    between atoms: C16_21  and  O5_23 
REMARK    9  A    between atoms: O5_23  and  C17_24 
REMARK   10  A    between atoms: C19_26  and  C20_27 
REMARK   11  A    between atoms: C25_32  and  C26_33 
ROOT
HETATM    1  C4  UNL     1     -17.326  46.269 -23.127  1.00  0.00     0.052 A 
HETATM    2  C5  UNL     1     -16.384  45.975 -24.055  1.00  0.00     0.021 A 
HETATM    3  C6  UNL     1     -16.779  45.697 -25.496  1.00  0.00     0.069 C 
HETATM    4  N1  UNL     1     -15.002  45.918 -23.701  1.00  0.00    -0.351 N 
HETATM    5  C13 UNL     1     -14.598  46.247 -22.368  1.00  0.00     0.021 A 
HETATM    6  C14 UNL     1     -13.111  46.271 -22.051  1.00  0.00     0.069 C 
HETATM    7  C15 UNL     1     -15.516  46.530 -21.409  1.00  0.00     0.052 A 
HETATM    8  C19 UNL     1     -17.013  46.507 -21.668  1.00  0.00     0.101 A 
ENDROOT
BRANCH   8   9
HETATM    9  C20 UNL     1     -17.715  45.478 -20.756  1.00  0.00    -0.030 A 
HETATM   10  C21 UNL     1     -17.434  44.105 -20.947  1.00  0.00     0.009 A 
HETATM   11  C22 UNL     1     -18.028  43.126 -20.152  1.00  0.00     0.001 A 
HETATM   12  C23 UNL     1     -18.921  43.491 -19.155  1.00  0.00     0.001 A 
HETATM   13  C24 UNL     1     -19.228  44.836 -18.957  1.00  0.00     0.017 A 
HETATM   14  C25 UNL     1     -18.640  45.848 -19.747  1.00  0.00     0.055 A 
BRANCH  14  15
HETATM   15  C26 UNL     1     -19.058  47.283 -19.496  1.00  0.00     0.418 C 
HETATM   16  F1  UNL     1     -19.418  47.923 -20.641  1.00  0.00    -0.166 F 
HETATM   17  F2  UNL     1     -18.076  48.037 -18.936  1.00  0.00    -0.166 F 
HETATM   18  F3  UNL     1     -20.128  47.401 -18.659  1.00  0.00    -0.166 F 
ENDBRANCH  14  15
ENDBRANCH   8   9
BRANCH   1  19
HETATM   19  C3  UNL     1     -18.725  46.497 -23.538  1.00  0.00     0.292 C 
HETATM   20  O2  UNL     1     -19.079  47.450 -24.214  1.00  0.00    -0.259 OA
BRANCH  19  21
HETATM   21  O1  UNL     1     -19.499  45.479 -23.094  1.00  0.00    -0.318 OA
BRANCH  21  22
HETATM   22  C2  UNL     1     -20.023  44.613 -24.109  1.00  0.00     0.174 C 
HETATM   23  C1  UNL     1     -19.412  43.229 -23.981  1.00  0.00     0.034 C 
ENDBRANCH  21  22
ENDBRANCH  19  21
ENDBRANCH   1  19
BRANCH   7  24
HETATM   24  C16 UNL     1     -15.107  46.797 -20.007  1.00  0.00     0.292 C 
HETATM   25  O4  UNL     1     -14.875  45.931 -19.178  1.00  0.00    -0.259 OA
BRANCH  24  26
HETATM   26  O5  UNL     1     -15.014  48.134 -19.814  1.00  0.00    -0.318 OA
BRANCH  26  27
HETATM   27  C17 UNL     1     -14.614  48.541 -18.497  1.00  0.00     0.174 C 
HETATM   28  C18 UNL     1     -15.508  49.652 -17.972  1.00  0.00     0.034 C 
ENDBRANCH  26  27
ENDBRANCH  24  26
ENDBRANCH   7  24
BRANCH   4  29
HETATM   29  C7  UNL     1     -13.975  45.581 -24.734  1.00  0.00     0.159 C 
BRANCH  29  30
HETATM   30  C8  UNL     1     -13.322  46.852 -25.328  1.00  0.00     0.292 C 
BRANCH  30  31
HETATM   31  N2  UNL     1     -13.682  47.065 -26.742  1.00  0.00     0.094 N 
HETATM   32  C9  UNL     1     -13.786  45.776 -27.459  1.00  0.00     0.298 C 
HETATM   33  C10 UNL     1     -13.763  45.981 -28.980  1.00  0.00     0.198 C 
HETATM   34  O3  UNL     1     -12.529  46.540 -29.453  1.00  0.00    -0.388 OA
HETATM   35  C11 UNL     1     -11.822  47.272 -28.447  1.00  0.00     0.198 C 
HETATM   36  C12 UNL     1     -12.753  47.979 -27.446  1.00  0.00     0.298 C 
ENDBRANCH  30  31
ENDBRANCH  29  30
ENDBRANCH   4  29
TORSDOF 11
ENDMDL
MODEL 8
REMARK minimizedAffinity -5.57012653
REMARK CNNscore 0.276912063
REMARK CNNaffinity 4.66743898
REMARK  11 active torsions:
REMARK  status: ('A' for Active; 'I' for Inactive)
REMARK    1  A    between atoms: C2_2  and  O1_3 
REMARK    2  A    between atoms: O1_3  and  C3_4 
REMARK    3  A    between atoms: C3_4  and  C4_6 
REMARK    4  A    between atoms: N1_9  and  C7_10 
REMARK    5  A    between atoms: C7_10  and  C8_11 
REMARK    6  A    between atoms: C8_11  and  N2_12 
REMARK    7  A    between atoms: C15_20  and  C16_21 
REMARK    8  A    between atoms: C16_21  and  O5_23 
REMARK    9  A    between atoms: O5_23  and  C17_24 
REMARK   10  A    between atoms: C19_26  and  C20_27 
REMARK   11  A    between atoms: C25_32  and  C26_33 
ROOT
HETATM    1  C4  UNL     1       2.424  56.411  -6.797  1.00  0.00     0.052 A 
HETATM    2  C5  UNL     1       1.808  56.218  -5.607  1.00  0.00     0.021 A 
HETATM    3  C6  UNL     1       2.004  57.203  -4.466  1.00  0.00     0.069 C 
HETATM    4  N1  UNL     1       0.962  55.086  -5.395  1.00  0.00    -0.351 N 
HETATM    5  C13 UNL     1       0.703  54.184  -6.476  1.00  0.00     0.021 A 
HETATM    6  C14 UNL     1      -0.278  53.045  -6.244  1.00  0.00     0.069 C 
HETATM    7  C15 UNL     1       1.316  54.337  -7.676  1.00  0.00     0.052 A 
HETATM    8  C19 UNL     1       2.314  55.448  -7.957  1.00  0.00     0.101 A 
ENDROOT
BRANCH   8   9
HETATM    9  C20 UNL     1       3.690  54.867  -8.351  1.00  0.00    -0.030 A 
HETATM   10  C21 UNL     1       4.371  54.055  -7.417  1.00  0.00     0.009 A 
HETATM   11  C22 UNL     1       5.612  53.493  -7.713  1.00  0.00     0.001 A 
HETATM   12  C23 UNL     1       6.206  53.736  -8.944  1.00  0.00     0.001 A 
HETATM   13  C24 UNL     1       5.563  54.547  -9.877  1.00  0.00     0.017 A 
HETATM   14  C25 UNL     1       4.305  55.127  -9.602  1.00  0.00     0.055 A 
BRANCH  14  15
HETATM   15  C26 UNL     1       3.692  56.031 -10.653  1.00  0.00     0.418 C 
HETATM   16  F1  UNL     1       2.436  55.641 -11.000  1.00  0.00    -0.166 F 
HETATM   17  F2  UNL     1       4.407  56.071 -11.809  1.00  0.00    -0.166 F 
HETATM   18  F3  UNL     1       3.574  57.330 -10.254  1.00  0.00    -0.166 F 
ENDBRANCH  14  15
ENDBRANCH   8   9
BRANCH   1  19
HETATM   19  C3  UNL     1       3.150  57.668  -7.061  1.00  0.00     0.292 C 
HETATM   20  O2  UNL     1       2.606  58.760  -7.107  1.00  0.00    -0.259 OA
BRANCH  19  21
HETATM   21  O1  UNL     1       4.473  57.409  -7.185  1.00  0.00    -0.318 OA
BRANCH  21  22
HETATM   22  C2  UNL     1       5.250  57.579  -5.991  1.00  0.00     0.174 C 
HETATM   23  C1  UNL     1       6.545  56.794  -6.096  1.00  0.00     0.034 C 
ENDBRANCH  21  22
ENDBRANCH  19  21
ENDBRANCH   1  19
BRANCH   7  24
HETATM   24  C16 UNL     1       1.110  53.362  -8.776  1.00  0.00     0.292 C 
HETATM   25  O4  UNL     1       1.953  52.565  -9.160  1.00  0.00    -0.259 OA
BRANCH  24  26
HETATM   26  O5  UNL     1      -0.151  53.486  -9.255  1.00  0.00    -0.318 OA
BRANCH  26  27
HETATM   27  C17 UNL     1      -0.292  54.331 -10.407  1.00  0.00     0.174 C 
HETATM   28  C18 UNL     1      -1.328  55.416 -10.165  1.00  0.00     0.034 C 
ENDBRANCH  26  27
ENDBRANCH  24  26
ENDBRANCH   7  24
BRANCH   4  29
HETATM   29  C7  UNL     1       0.298  54.882  -4.071  1.00  0.00     0.159 C 
BRANCH  29  30
HETATM   30  C8  UNL     1      -1.134  55.469  -4.052  1.00  0.00     0.292 C 
BRANCH  30  31
HETATM   31  N2  UNL     1      -1.452  56.142  -2.779  1.00  0.00     0.094 N 
HETATM   32  C9  UNL     1      -2.847  55.868  -2.372  1.00  0.00     0.298 C 
HETATM   33  C10 UNL     1      -3.316  56.854  -1.293  1.00  0.00     0.198 C 
HETATM   34  O3  UNL     1      -3.351  58.213  -1.751  1.00  0.00    -0.388 OA
HETATM   35  C11 UNL     1      -2.475  58.457  -2.856  1.00  0.00     0.198 C 
HETATM   36  C12 UNL     1      -1.197  57.601  -2.815  1.00  0.00     0.298 C 
ENDBRANCH  30  31
ENDBRANCH  29  30
ENDBRANCH   4  29
TORSDOF 11
ENDMDL
MODEL 9
REMARK minimizedAffinity -7.55096102
REMARK CNNscore 0.269621611
REMARK CNNaffinity 6.33731794
REMARK  11 active torsions:
REMARK  status: ('A' for Active; 'I' for Inactive)
REMARK    1  A    between atoms: C2_2  and  O1_3 
REMARK    2  A    between atoms: O1_3  and  C3_4 
REMARK    3  A    between atoms: C3_4  and  C4_6 
REMARK    4  A    between atoms: N1_9  and  C7_10 
REMARK    5  A    between atoms: C7_10  and  C8_11 
REMARK    6  A    between atoms: C8_11  and  N2_12 
REMARK    7  A    between atoms: C15_20  and  C16_21 
REMARK    8  A    between atoms: C16_21  and  O5_23 
REMARK    9  A    between atoms: O5_23  and  C17_24 
REMARK   10  A    between atoms: C19_26  and  C20_27 
REMARK   11  A    between atoms: C25_32  and  C26_33 
ROOT
HETATM    1  C4  UNL     1      -1.084  50.260 -21.320  1.00  0.00     0.052 A 
HETATM    2  C5  UNL     1      -0.409  50.826 -20.292  1.00  0.00     0.021 A 
HETATM    3  C6  UNL     1      -0.446  50.202 -18.906  1.00  0.00     0.069 C 
HETATM    4  N1  UNL     1       0.350  52.021 -20.484  1.00  0.00    -0.351 N 
HETATM    5  C13 UNL     1       0.460  52.587 -21.794  1.00  0.00     0.021 A 
HETATM    6  C14 UNL     1       1.355  53.803 -21.980  1.00  0.00     0.069 C 
HETATM    7  C15 UNL     1      -0.215  52.056 -22.844  1.00  0.00     0.052 A 
HETATM    8  C19 UNL     1      -1.132  50.851 -22.710  1.00  0.00     0.101 A 
ENDROOT
BRANCH   8   9
HETATM    9  C20 UNL     1      -2.575  51.207 -23.131  1.00  0.00    -0.030 A 
HETATM   10  C21 UNL     1      -3.277  52.178 -22.379  1.00  0.00     0.009 A 
HETATM   11  C22 UNL     1      -4.579  52.550 -22.711  1.00  0.00     0.001 A 
HETATM   12  C23 UNL     1      -5.214  51.958 -23.793  1.00  0.00     0.001 A 
HETATM   13  C24 UNL     1      -4.550  50.986 -24.541  1.00  0.00     0.017 A 
HETATM   14  C25 UNL     1      -3.232  50.592 -24.227  1.00  0.00     0.055 A 
BRANCH  14  15
HETATM   15  C26 UNL     1      -2.596  49.499 -25.062  1.00  0.00     0.418 C 
HETATM   16  F1  UNL     1      -3.376  49.133 -26.114  1.00  0.00    -0.166 F 
HETATM   17  F2  UNL     1      -2.353  48.360 -24.360  1.00  0.00    -0.166 F 
HETATM   18  F3  UNL     1      -1.395  49.853 -25.603  1.00  0.00    -0.166 F 
ENDBRANCH  14  15
ENDBRANCH   8   9
BRANCH   1  19
HETATM   19  C3  UNL     1      -1.717  48.938 -21.153  1.00  0.00     0.292 C 
HETATM   20  O2  UNL     1      -1.130  47.884 -21.341  1.00  0.00    -0.259 OA
BRANCH  19  21
HETATM   21  O1  UNL     1      -2.990  49.096 -20.722  1.00  0.00    -0.318 OA
BRANCH  21  22
HETATM   22  C2  UNL     1      -3.460  48.103 -19.801  1.00  0.00     0.174 C 
HETATM   23  C1  UNL     1      -3.891  48.757 -18.502  1.00  0.00     0.034 C 
ENDBRANCH  21  22
ENDBRANCH  19  21
ENDBRANCH   1  19
BRANCH   7  24
HETATM   24  C16 UNL     1      -0.165  52.683 -24.188  1.00  0.00     0.292 C 
HETATM   25  O4  UNL     1      -1.023  53.431 -24.634  1.00  0.00    -0.259 OA
BRANCH  24  26
HETATM   26  O5  UNL     1       0.977  52.313 -24.814  1.00  0.00    -0.318 OA
BRANCH  26  27
HETATM   27  C17 UNL     1       0.858  52.076 -26.225  1.00  0.00     0.174 C 
HETATM   28  C18 UNL     1       2.130  51.461 -26.785  1.00  0.00     0.034 C 
ENDBRANCH  26  27
ENDBRANCH  24  26
ENDBRANCH   7  24
BRANCH   4  29
HETATM   29  C7  UNL     1       1.081  52.639 -19.335  1.00  0.00     0.159 C 
BRANCH  29  30
HETATM   30  C8  UNL     1       0.336  52.417 -17.997  1.00  0.00     0.292 C 
BRANCH  30  31
HETATM   31  N2  UNL     1       1.168  52.751 -16.825  1.00  0.00     0.094 N 
HETATM   32  C9  UNL     1       2.597  52.485 -17.101  1.00  0.00     0.298 C 
HETATM   33  C10 UNL     1       3.415  52.442 -15.804  1.00  0.00     0.198 C 
HETATM   34  O3  UNL     1       3.028  51.371 -14.931  1.00  0.00    -0.388 OA
HETATM   35  C11 UNL     1       1.686  50.925 -15.150  1.00  0.00     0.198 C 
HETATM   36  C12 UNL     1       0.737  52.053 -15.592  1.00  0.00     0.298 C 
ENDBRANCH  30  31
ENDBRANCH  29  30
ENDBRANCH   4  29
TORSDOF 11
ENDMDL
