MODEL 1
REMARK minimizedAffinity -10.6344147
REMARK  9 active torsions:
REMARK  status: ('A' for Active; 'I' for Inactive)
REMARK    1  A    between atoms: C2_2  and  C3_3 
REMARK    2  A    between atoms: C2_2  and  C27_31 
REMARK    3  A    between atoms: C3_3  and  C4_4 
REMARK    4  A    between atoms: C4_4  and  C5_5 
REMARK    5  A    between atoms: C5_5  and  C7_7 
REMARK    6  A    between atoms: C22_24  and  O3_26 
REMARK    7  A    between atoms: C26_29  and  O4_30 
REMARK    8  A    between atoms: C27_31  and  C29_33 
REMARK    9  A    between atoms: C29_33  and  O6_35 
ROOT
HETATM    1  C7  UNL     1      -1.221  50.371 -22.806  1.00  0.00    -0.002 C 
HETATM    2  C8  UNL     1      -0.657  51.782 -23.141  1.00  0.00     0.006 C 
HETATM    3  C9  UNL     1      -0.148  52.389 -21.828  1.00  0.00     0.010 C 
HETATM    4  C10 UNL     1      -0.120  51.207 -20.861  1.00  0.00     0.027 C 
HETATM    5  C11 UNL     1       0.058  51.386 -19.365  1.00  0.00    -0.036 C 
HETATM    6  C12 UNL     1      -0.346  50.423 -18.494  1.00  0.00     0.002 C 
HETATM    7  C13 UNL     1      -1.166  49.268 -19.039  1.00  0.00     0.157 C 
HETATM    8  O1  UNL     1      -1.736  48.480 -18.286  1.00  0.00    -0.293 OA
HETATM    9  C14 UNL     1      -1.293  49.077 -20.541  1.00  0.00     0.093 C 
HETATM   10  C15 UNL     1      -1.393  50.423 -21.255  1.00  0.00    -0.026 C 
HETATM   11  C16 UNL     1      -2.703  51.147 -20.853  1.00  0.00     0.016 C 
HETATM   12  C17 UNL     1      -0.031  50.471 -16.975  1.00  0.00    -0.006 C 
HETATM   13  C18 UNL     1      -1.305  51.016 -16.289  1.00  0.00     0.021 C 
HETATM   14  C19 UNL     1       0.329  49.076 -16.382  1.00  0.00     0.022 C 
HETATM   15  C20 UNL     1       0.754  49.106 -14.920  1.00  0.00     0.083 C 
HETATM   16  C21 UNL     1       1.901  50.055 -14.704  1.00  0.00     0.161 C 
HETATM   17  O2  UNL     1       2.867  49.723 -14.013  1.00  0.00    -0.295 OA
HETATM   18  C22 UNL     1       1.746  51.473 -15.285  1.00  0.00     0.119 C 
HETATM   19  C23 UNL     1       3.093  52.209 -15.181  1.00  0.00     0.055 C 
HETATM   20  C24 UNL     1       1.255  51.369 -16.756  1.00  0.00     0.043 C 
HETATM   21  C25 UNL     1       1.044  52.738 -17.408  1.00  0.00     0.045 C 
HETATM   22  C26 UNL     1       0.824  52.608 -18.915  1.00  0.00     0.148 C 
ENDROOT
BRANCH   1  23
HETATM   23  C5  UNL     1      -2.444  50.002 -23.698  1.00  0.00    -0.014 C 
HETATM   24  C6  UNL     1      -3.222  48.811 -23.126  1.00  0.00     0.010 C 
BRANCH  23  25
HETATM   25  C4  UNL     1      -1.997  49.671 -25.150  1.00  0.00     0.009 C 
BRANCH  25  26
HETATM   26  C3  UNL     1      -1.104  50.740 -25.809  1.00  0.00     0.034 C 
BRANCH  26  27
HETATM   27  C2  UNL     1      -1.490  51.206 -27.199  1.00  0.00    -0.075 C 
HETATM   28  C1  UNL     1      -2.713  50.931 -27.693  1.00  0.00     0.015 C 
BRANCH  27  29
HETATM   29  C27 UNL     1      -0.513  52.076 -27.988  1.00  0.00     0.107 C 
HETATM   30  C28 UNL     1       0.950  51.704 -27.747  1.00  0.00     0.026 C 
BRANCH  29  31
HETATM   31  C29 UNL     1      -0.750  53.564 -27.720  1.00  0.00     0.147 C 
HETATM   32  O5  UNL     1      -0.118  54.306 -26.984  1.00  0.00    -0.650 OA
BRANCH  31  33
HETATM   33  O6  UNL     1      -1.832  54.045 -28.370  1.00  0.00    -0.776 OA
HETATM   34  H42 UNL     1      -1.876  54.981 -28.082  1.00  0.00     0.167 HD
ENDBRANCH  31  33
ENDBRANCH  29  31
ENDBRANCH  27  29
ENDBRANCH  26  27
ENDBRANCH  25  26
ENDBRANCH  23  25
ENDBRANCH   1  23
BRANCH  22  35
HETATM   35  O4  UNL     1       0.144  53.785 -19.335  1.00  0.00    -0.391 OA
HETATM   36  H37 UNL     1      -0.752  53.752 -18.956  1.00  0.00     0.210 HD
ENDBRANCH  22  35
BRANCH  18  37
HETATM   37  O3  UNL     1       0.807  52.202 -14.500  1.00  0.00    -0.382 OA
HETATM   38  H32 UNL     1       1.186  52.302 -13.606  1.00  0.00     0.211 HD
ENDBRANCH  18  37
TORSDOF 9
ENDMDL
MODEL 2
REMARK minimizedAffinity -9.99075413
REMARK  9 active torsions:
REMARK  status: ('A' for Active; 'I' for Inactive)
REMARK    1  A    between atoms: C2_2  and  C3_3 
REMARK    2  A    between atoms: C2_2  and  C27_31 
REMARK    3  A    between atoms: C3_3  and  C4_4 
REMARK    4  A    between atoms: C4_4  and  C5_5 
REMARK    5  A    between atoms: C5_5  and  C7_7 
REMARK    6  A    between atoms: C22_24  and  O3_26 
REMARK    7  A    between atoms: C26_29  and  O4_30 
REMARK    8  A    between atoms: C27_31  and  C29_33 
REMARK    9  A    between atoms: C29_33  and  O6_35 
ROOT
HETATM    1  C7  UNL     1      -0.429  51.559 -20.861  1.00  0.00    -0.002 C 
HETATM    2  C8  UNL     1       0.341  52.903 -20.717  1.00  0.00     0.006 C 
HETATM    3  C9  UNL     1       0.870  52.971 -19.280  1.00  0.00     0.010 C 
HETATM    4  C10 UNL     1       0.688  51.550 -18.752  1.00  0.00     0.027 C 
HETATM    5  C11 UNL     1       0.822  51.207 -17.279  1.00  0.00    -0.036 C 
HETATM    6  C12 UNL     1       0.247  50.085 -16.770  1.00  0.00     0.002 C 
HETATM    7  C13 UNL     1      -0.701  49.302 -17.660  1.00  0.00     0.157 C 
HETATM    8  O1  UNL     1      -1.409  48.407 -17.203  1.00  0.00    -0.293 OA
HETATM    9  C14 UNL     1      -0.785  49.628 -19.141  1.00  0.00     0.093 C 
HETATM   10  C15 UNL     1      -0.663  51.131 -19.377  1.00  0.00    -0.026 C 
HETATM   11  C16 UNL     1      -1.875  51.872 -18.757  1.00  0.00     0.016 C 
HETATM   12  C17 UNL     1       0.496  49.593 -15.319  1.00  0.00    -0.006 C 
HETATM   13  C18 UNL     1      -0.719  50.068 -14.489  1.00  0.00     0.021 C 
HETATM   14  C19 UNL     1       0.630  48.044 -15.215  1.00  0.00     0.022 C 
HETATM   15  C20 UNL     1       0.988  47.537 -13.824  1.00  0.00     0.083 C 
HETATM   16  C21 UNL     1       2.245  48.185 -13.314  1.00  0.00     0.161 C 
HETATM   17  O2  UNL     1       3.123  47.509 -12.771  1.00  0.00    -0.295 OA
HETATM   18  C22 UNL     1       2.317  49.721 -13.399  1.00  0.00     0.119 C 
HETATM   19  C23 UNL     1       3.748  50.177 -13.065  1.00  0.00     0.055 C 
HETATM   20  C24 UNL     1       1.884  50.171 -14.822  1.00  0.00     0.043 C 
HETATM   21  C25 UNL     1       1.897  51.694 -14.991  1.00  0.00     0.045 C 
HETATM   22  C26 UNL     1       1.730  52.092 -16.457  1.00  0.00     0.148 C 
ENDROOT
BRANCH   1  23
HETATM   23  C5  UNL     1      -1.650  51.682 -21.820  1.00  0.00    -0.014 C 
HETATM   24  C6  UNL     1      -2.940  51.178 -21.162  1.00  0.00     0.010 C 
BRANCH  23  25
HETATM   25  C4  UNL     1      -1.406  50.893 -23.138  1.00  0.00     0.009 C 
BRANCH  25  26
HETATM   26  C3  UNL     1      -0.504  51.610 -24.161  1.00  0.00     0.034 C 
BRANCH  26  27
HETATM   27  C2  UNL     1      -0.558  51.121 -25.595  1.00  0.00    -0.075 C 
HETATM   28  C1  UNL     1      -1.548  50.302 -25.998  1.00  0.00     0.015 C 
BRANCH  27  29
HETATM   29  C27 UNL     1       0.465  51.652 -26.599  1.00  0.00     0.107 C 
HETATM   30  C28 UNL     1       1.901  51.595 -26.078  1.00  0.00     0.026 C 
BRANCH  29  31
HETATM   31  C29 UNL     1       0.109  53.067 -27.062  1.00  0.00     0.147 C 
HETATM   32  O5  UNL     1       0.386  54.127 -26.525  1.00  0.00    -0.650 OA
BRANCH  31  33
HETATM   33  O6  UNL     1      -0.644  53.073 -28.185  1.00  0.00    -0.776 OA
HETATM   34  H42 UNL     1      -0.819  54.025 -28.339  1.00  0.00     0.167 HD
ENDBRANCH  31  33
ENDBRANCH  29  31
ENDBRANCH  27  29
ENDBRANCH  26  27
ENDBRANCH  25  26
ENDBRANCH  23  25
ENDBRANCH   1  23
BRANCH  22  35
HETATM   35  O4  UNL     1       1.241  53.428 -16.468  1.00  0.00    -0.391 OA
HETATM   36  H37 UNL     1       0.333  53.406 -16.119  1.00  0.00     0.210 HD
ENDBRANCH  22  35
BRANCH  18  37
HETATM   37  O3  UNL     1       1.454  50.287 -12.417  1.00  0.00    -0.382 OA
HETATM   38  H32 UNL     1       1.803  50.036 -11.540  1.00  0.00     0.211 HD
ENDBRANCH  18  37
TORSDOF 9
ENDMDL
MODEL 3
REMARK minimizedAffinity -9.87897205
REMARK  9 active torsions:
REMARK  status: ('A' for Active; 'I' for Inactive)
REMARK    1  A    between atoms: C2_2  and  C3_3 
REMARK    2  A    between atoms: C2_2  and  C27_31 
REMARK    3  A    between atoms: C3_3  and  C4_4 
REMARK    4  A    between atoms: C4_4  and  C5_5 
REMARK    5  A    between atoms: C5_5  and  C7_7 
REMARK    6  A    between atoms: C22_24  and  O3_26 
REMARK    7  A    between atoms: C26_29  and  O4_30 
REMARK    8  A    between atoms: C27_31  and  C29_33 
REMARK    9  A    between atoms: C29_33  and  O6_35 
ROOT
HETATM    1  C7  UNL     1      -1.144  50.598 -22.860  1.00  0.00    -0.002 C 
HETATM    2  C8  UNL     1      -0.553  52.021 -23.075  1.00  0.00     0.006 C 
HETATM    3  C9  UNL     1      -0.094  52.532 -21.704  1.00  0.00     0.010 C 
HETATM    4  C10 UNL     1      -0.120  51.288 -20.818  1.00  0.00     0.027 C 
HETATM    5  C11 UNL     1      -0.004  51.365 -19.307  1.00  0.00    -0.036 C 
HETATM    6  C12 UNL     1      -0.455  50.351 -18.521  1.00  0.00     0.002 C 
HETATM    7  C13 UNL     1      -1.263  49.246 -19.176  1.00  0.00     0.157 C 
HETATM    8  O1  UNL     1      -1.872  48.417 -18.502  1.00  0.00    -0.293 OA
HETATM    9  C14 UNL     1      -1.327  49.157 -20.691  1.00  0.00     0.093 C 
HETATM   10  C15 UNL     1      -1.383  50.548 -21.318  1.00  0.00    -0.026 C 
HETATM   11  C16 UNL     1      -2.701  51.262 -20.923  1.00  0.00     0.016 C 
HETATM   12  C17 UNL     1      -0.205  50.294 -16.990  1.00  0.00    -0.006 C 
HETATM   13  C18 UNL     1      -1.501  50.809 -16.323  1.00  0.00     0.021 C 
HETATM   14  C19 UNL     1       0.115  48.857 -16.478  1.00  0.00     0.022 C 
HETATM   15  C20 UNL     1       0.477  48.785 -15.000  1.00  0.00     0.083 C 
HETATM   16  C21 UNL     1       1.623  49.702 -14.673  1.00  0.00     0.161 C 
HETATM   17  O2  UNL     1       2.555  49.313 -13.966  1.00  0.00    -0.295 OA
HETATM   18  C22 UNL     1       1.508  51.158 -15.163  1.00  0.00     0.119 C 
HETATM   19  C23 UNL     1       2.857  51.867 -14.954  1.00  0.00     0.055 C 
HETATM   20  C24 UNL     1       1.079  51.158 -16.657  1.00  0.00     0.043 C 
HETATM   21  C25 UNL     1       0.911  52.571 -17.224  1.00  0.00     0.045 C 
HETATM   22  C26 UNL     1       0.755  52.544 -18.744  1.00  0.00     0.148 C 
ENDROOT
BRANCH   1  23
HETATM   23  C5  UNL     1      -2.333  50.305 -23.825  1.00  0.00    -0.014 C 
HETATM   24  C6  UNL     1      -3.549  51.181 -23.506  1.00  0.00     0.010 C 
BRANCH  23  25
HETATM   25  C4  UNL     1      -2.749  48.808 -23.758  1.00  0.00     0.009 C 
BRANCH  25  26
HETATM   26  C3  UNL     1      -4.076  48.475 -24.466  1.00  0.00     0.034 C 
BRANCH  26  27
HETATM   27  C2  UNL     1      -4.072  48.474 -25.982  1.00  0.00    -0.075 C 
HETATM   28  C1  UNL     1      -2.912  48.380 -26.659  1.00  0.00     0.015 C 
BRANCH  27  29
HETATM   29  C27 UNL     1      -5.407  48.477 -26.727  1.00  0.00     0.107 C 
HETATM   30  C28 UNL     1      -6.500  47.693 -26.002  1.00  0.00     0.026 C 
BRANCH  29  31
HETATM   31  C29 UNL     1      -5.243  47.984 -28.166  1.00  0.00     0.147 C 
HETATM   32  O5  UNL     1      -4.529  48.444 -29.043  1.00  0.00    -0.650 OA
BRANCH  31  33
HETATM   33  O6  UNL     1      -6.047  46.936 -28.452  1.00  0.00    -0.776 OA
HETATM   34  H42 UNL     1      -5.860  46.754 -29.398  1.00  0.00     0.167 HD
ENDBRANCH  31  33
ENDBRANCH  29  31
ENDBRANCH  27  29
ENDBRANCH  26  27
ENDBRANCH  25  26
ENDBRANCH  23  25
ENDBRANCH   1  23
BRANCH  22  35
HETATM   35  O4  UNL     1       0.105  53.755 -19.113  1.00  0.00    -0.391 OA
HETATM   36  H37 UNL     1      -0.807  53.708 -18.775  1.00  0.00     0.210 HD
ENDBRANCH  22  35
BRANCH  18  37
HETATM   37  O3  UNL     1       0.544  51.845 -14.371  1.00  0.00    -0.382 OA
HETATM   38  H32 UNL     1       0.885  51.880 -13.458  1.00  0.00     0.211 HD
ENDBRANCH  18  37
TORSDOF 9
ENDMDL
MODEL 4
REMARK minimizedAffinity -9.81477737
REMARK  9 active torsions:
REMARK  status: ('A' for Active; 'I' for Inactive)
REMARK    1  A    between atoms: C2_2  and  C3_3 
REMARK    2  A    between atoms: C2_2  and  C27_31 
REMARK    3  A    between atoms: C3_3  and  C4_4 
REMARK    4  A    between atoms: C4_4  and  C5_5 
REMARK    5  A    between atoms: C5_5  and  C7_7 
REMARK    6  A    between atoms: C22_24  and  O3_26 
REMARK    7  A    between atoms: C26_29  and  O4_30 
REMARK    8  A    between atoms: C27_31  and  C29_33 
REMARK    9  A    between atoms: C29_33  and  O6_35 
ROOT
HETATM    1  C7  UNL     1      -0.403  51.368 -23.299  1.00  0.00    -0.002 C 
HETATM    2  C8  UNL     1       0.285  52.764 -23.267  1.00  0.00     0.006 C 
HETATM    3  C9  UNL     1       0.561  53.099 -21.797  1.00  0.00     0.010 C 
HETATM    4  C10 UNL     1       0.341  51.775 -21.069  1.00  0.00     0.027 C 
HETATM    5  C11 UNL     1       0.235  51.688 -19.557  1.00  0.00    -0.036 C 
HETATM    6  C12 UNL     1      -0.378  50.631 -18.961  1.00  0.00     0.002 C 
HETATM    7  C13 UNL     1      -1.134  49.655 -19.844  1.00  0.00     0.157 C 
HETATM    8  O1  UNL     1      -1.878  48.803 -19.360  1.00  0.00    -0.293 OA
HETATM    9  C14 UNL     1      -0.978  49.727 -21.353  1.00  0.00     0.093 C 
HETATM   10  C15 UNL     1      -0.869  51.176 -21.822  1.00  0.00    -0.026 C 
HETATM   11  C16 UNL     1      -2.194  51.931 -21.541  1.00  0.00     0.016 C 
HETATM   12  C17 UNL     1      -0.361  50.400 -17.426  1.00  0.00    -0.006 C 
HETATM   13  C18 UNL     1      -1.715  50.927 -16.897  1.00  0.00     0.021 C 
HETATM   14  C19 UNL     1      -0.194  48.900 -17.038  1.00  0.00     0.022 C 
HETATM   15  C20 UNL     1      -0.059  48.651 -15.541  1.00  0.00     0.083 C 
HETATM   16  C21 UNL     1       1.071  49.452 -14.954  1.00  0.00     0.161 C 
HETATM   17  O2  UNL     1       1.867  48.931 -14.169  1.00  0.00    -0.295 OA
HETATM   18  C22 UNL     1       1.103  50.955 -15.289  1.00  0.00     0.119 C 
HETATM   19  C23 UNL     1       2.440  51.548 -14.813  1.00  0.00     0.055 C 
HETATM   20  C24 UNL     1       0.901  51.137 -16.820  1.00  0.00     0.043 C 
HETATM   21  C25 UNL     1       0.891  52.609 -17.244  1.00  0.00     0.045 C 
HETATM   22  C26 UNL     1       0.960  52.750 -18.764  1.00  0.00     0.148 C 
ENDROOT
BRANCH   1  23
HETATM   23  C5  UNL     1      -1.448  51.256 -24.450  1.00  0.00    -0.014 C 
HETATM   24  C6  UNL     1      -2.397  52.459 -24.471  1.00  0.00     0.010 C 
BRANCH  23  25
HETATM   25  C4  UNL     1      -2.281  49.949 -24.320  1.00  0.00     0.009 C 
BRANCH  25  26
HETATM   26  C3  UNL     1      -2.912  49.453 -25.635  1.00  0.00     0.034 C 
BRANCH  26  27
HETATM   27  C2  UNL     1      -4.275  48.794 -25.544  1.00  0.00    -0.075 C 
HETATM   28  C1  UNL     1      -4.838  48.243 -26.637  1.00  0.00     0.015 C 
BRANCH  27  29
HETATM   29  C27 UNL     1      -4.950  48.672 -24.179  1.00  0.00     0.107 C 
HETATM   30  C28 UNL     1      -6.244  47.859 -24.220  1.00  0.00     0.026 C 
BRANCH  29  31
HETATM   31  C29 UNL     1      -5.189  50.047 -23.551  1.00  0.00     0.147 C 
HETATM   32  O5  UNL     1      -4.964  50.400 -22.405  1.00  0.00    -0.650 OA
BRANCH  31  33
HETATM   33  O6  UNL     1      -5.764  50.919 -24.409  1.00  0.00    -0.776 OA
HETATM   34  H42 UNL     1      -5.884  51.728 -23.868  1.00  0.00     0.167 HD
ENDBRANCH  31  33
ENDBRANCH  29  31
ENDBRANCH  27  29
ENDBRANCH  26  27
ENDBRANCH  25  26
ENDBRANCH  23  25
ENDBRANCH   1  23
BRANCH  22  35
HETATM   35  O4  UNL     1       0.434  54.033 -19.084  1.00  0.00    -0.391 OA
HETATM   36  H37 UNL     1      -0.519  54.012 -18.886  1.00  0.00     0.210 HD
ENDBRANCH  22  35
BRANCH  18  37
HETATM   37  O3  UNL     1       0.067  51.619 -14.571  1.00  0.00    -0.382 OA
HETATM   38  H32 UNL     1       0.271  51.537 -13.620  1.00  0.00     0.211 HD
ENDBRANCH  18  37
TORSDOF 9
ENDMDL
MODEL 5
REMARK minimizedAffinity -9.61566448
REMARK  9 active torsions:
REMARK  status: ('A' for Active; 'I' for Inactive)
REMARK    1  A    between atoms: C2_2  and  C3_3 
REMARK    2  A    between atoms: C2_2  and  C27_31 
REMARK    3  A    between atoms: C3_3  and  C4_4 
REMARK    4  A    between atoms: C4_4  and  C5_5 
REMARK    5  A    between atoms: C5_5  and  C7_7 
REMARK    6  A    between atoms: C22_24  and  O3_26 
REMARK    7  A    between atoms: C26_29  and  O4_30 
REMARK    8  A    between atoms: C27_31  and  C29_33 
REMARK    9  A    between atoms: C29_33  and  O6_35 
ROOT
HETATM    1  C7  UNL     1      -0.708  50.139 -21.589  1.00  0.00    -0.002 C 
HETATM    2  C8  UNL     1      -0.861  49.521 -20.169  1.00  0.00     0.006 C 
HETATM    3  C9  UNL     1      -2.240  48.855 -20.111  1.00  0.00     0.010 C 
HETATM    4  C10 UNL     1      -2.691  48.813 -21.569  1.00  0.00     0.027 C 
HETATM    5  C11 UNL     1      -4.118  48.485 -21.969  1.00  0.00    -0.036 C 
HETATM    6  C12 UNL     1      -4.609  48.868 -23.179  1.00  0.00     0.002 C 
HETATM    7  C13 UNL     1      -3.768  49.806 -24.025  1.00  0.00     0.157 C 
HETATM    8  O1  UNL     1      -4.233  50.352 -25.023  1.00  0.00    -0.293 OA
HETATM    9  C14 UNL     1      -2.326  50.084 -23.635  1.00  0.00     0.093 C 
HETATM   10  C15 UNL     1      -2.176  50.164 -22.118  1.00  0.00    -0.026 C 
HETATM   11  C16 UNL     1      -2.959  51.382 -21.566  1.00  0.00     0.016 C 
HETATM   12  C17 UNL     1      -5.993  48.411 -23.711  1.00  0.00    -0.006 C 
HETATM   13  C18 UNL     1      -6.968  49.579 -23.433  1.00  0.00     0.021 C 
HETATM   14  C19 UNL     1      -5.984  48.087 -25.235  1.00  0.00     0.022 C 
HETATM   15  C20 UNL     1      -7.297  47.527 -25.766  1.00  0.00     0.083 C 
HETATM   16  C21 UNL     1      -7.722  46.307 -24.995  1.00  0.00     0.161 C 
HETATM   17  O2  UNL     1      -8.131  45.305 -25.585  1.00  0.00    -0.295 OA
HETATM   18  C22 UNL     1      -7.729  46.425 -23.460  1.00  0.00     0.119 C 
HETATM   19  C23 UNL     1      -7.949  45.030 -22.849  1.00  0.00     0.055 C 
HETATM   20  C24 UNL     1      -6.387  47.056 -22.993  1.00  0.00     0.043 C 
HETATM   21  C25 UNL     1      -6.316  47.239 -21.474  1.00  0.00     0.045 C 
HETATM   22  C26 UNL     1      -4.902  47.605 -21.024  1.00  0.00     0.148 C 
ENDROOT
BRANCH   1  23
HETATM   23  C5  UNL     1       0.117  51.461 -21.567  1.00  0.00    -0.014 C 
HETATM   24  C6  UNL     1      -0.222  52.319 -20.343  1.00  0.00     0.010 C 
BRANCH  23  25
HETATM   25  C4  UNL     1      -0.128  52.292 -22.858  1.00  0.00     0.009 C 
BRANCH  25  26
HETATM   26  C3  UNL     1       0.761  51.903 -24.055  1.00  0.00     0.034 C 
BRANCH  26  27
HETATM   27  C2  UNL     1       0.622  52.727 -25.320  1.00  0.00    -0.075 C 
HETATM   28  C1  UNL     1       0.254  54.021 -25.251  1.00  0.00     0.015 C 
BRANCH  27  29
HETATM   29  C27 UNL     1       1.004  52.099 -26.659  1.00  0.00     0.107 C 
HETATM   30  C28 UNL     1       0.014  51.032 -27.126  1.00  0.00     0.026 C 
BRANCH  29  31
HETATM   31  C29 UNL     1       2.430  51.544 -26.628  1.00  0.00     0.147 C 
HETATM   32  O5  UNL     1       2.863  50.620 -25.959  1.00  0.00    -0.650 OA
BRANCH  31  33
HETATM   33  O6  UNL     1       3.275  52.234 -27.427  1.00  0.00    -0.776 OA
HETATM   34  H42 UNL     1       4.139  51.794 -27.282  1.00  0.00     0.167 HD
ENDBRANCH  31  33
ENDBRANCH  29  31
ENDBRANCH  27  29
ENDBRANCH  26  27
ENDBRANCH  25  26
ENDBRANCH  23  25
ENDBRANCH   1  23
BRANCH  22  35
HETATM   35  O4  UNL     1      -5.025  48.246 -19.759  1.00  0.00    -0.391 OA
HETATM   36  H37 UNL     1      -5.460  49.103 -19.911  1.00  0.00     0.210 HD
ENDBRANCH  22  35
BRANCH  18  37
HETATM   37  O3  UNL     1      -8.825  47.240 -23.056  1.00  0.00    -0.382 OA
HETATM   38  H32 UNL     1      -9.646  46.774 -23.307  1.00  0.00     0.211 HD
ENDBRANCH  18  37
TORSDOF 9
ENDMDL
MODEL 6
REMARK minimizedAffinity -9.52426338
REMARK  9 active torsions:
REMARK  status: ('A' for Active; 'I' for Inactive)
REMARK    1  A    between atoms: C2_2  and  C3_3 
REMARK    2  A    between atoms: C2_2  and  C27_31 
REMARK    3  A    between atoms: C3_3  and  C4_4 
REMARK    4  A    between atoms: C4_4  and  C5_5 
REMARK    5  A    between atoms: C5_5  and  C7_7 
REMARK    6  A    between atoms: C22_24  and  O3_26 
REMARK    7  A    between atoms: C26_29  and  O4_30 
REMARK    8  A    between atoms: C27_31  and  C29_33 
REMARK    9  A    between atoms: C29_33  and  O6_35 
ROOT
HETATM    1  C7  UNL     1      -1.747  49.446 -21.872  1.00  0.00    -0.002 C 
HETATM    2  C8  UNL     1      -1.264  50.813 -22.439  1.00  0.00     0.006 C 
HETATM    3  C9  UNL     1      -0.625  51.584 -21.278  1.00  0.00     0.010 C 
HETATM    4  C10 UNL     1      -0.455  50.532 -20.185  1.00  0.00     0.027 C 
HETATM    5  C11 UNL     1      -0.112  50.897 -18.752  1.00  0.00    -0.036 C 
HETATM    6  C12 UNL     1      -0.389  50.044 -17.730  1.00  0.00     0.002 C 
HETATM    7  C13 UNL     1      -1.234  48.820 -18.031  1.00  0.00     0.157 C 
HETATM    8  O1  UNL     1      -1.692  48.124 -17.127  1.00  0.00    -0.293 OA
HETATM    9  C14 UNL     1      -1.525  48.443 -19.473  1.00  0.00     0.093 C 
HETATM   10  C15 UNL     1      -1.743  49.687 -20.329  1.00  0.00    -0.026 C 
HETATM   11  C16 UNL     1      -3.017  50.439 -19.869  1.00  0.00     0.016 C 
HETATM   12  C17 UNL     1       0.096  50.284 -16.274  1.00  0.00    -0.006 C 
HETATM   13  C18 UNL     1      -1.106  50.893 -15.516  1.00  0.00     0.021 C 
HETATM   14  C19 UNL     1       0.559  48.977 -15.562  1.00  0.00     0.022 C 
HETATM   15  C20 UNL     1       1.147  49.195 -14.174  1.00  0.00     0.083 C 
HETATM   16  C21 UNL     1       2.284  50.178 -14.210  1.00  0.00     0.161 C 
HETATM   17  O2  UNL     1       3.331  49.946 -13.601  1.00  0.00    -0.295 OA
HETATM   18  C22 UNL     1       2.026  51.511 -14.937  1.00  0.00     0.119 C 
HETATM   19  C23 UNL     1       3.355  52.271 -15.081  1.00  0.00     0.055 C 
HETATM   20  C24 UNL     1       1.373  51.218 -16.317  1.00  0.00     0.043 C 
HETATM   21  C25 UNL     1       1.053  52.494 -17.102  1.00  0.00     0.045 C 
HETATM   22  C26 UNL     1       0.666  52.175 -18.546  1.00  0.00     0.148 C 
ENDROOT
BRANCH   1  23
HETATM   23  C5  UNL     1      -3.053  48.954 -22.563  1.00  0.00    -0.014 C 
HETATM   24  C6  UNL     1      -3.456  47.556 -22.080  1.00  0.00     0.010 C 
BRANCH  23  25
HETATM   25  C4  UNL     1      -2.893  48.934 -24.110  1.00  0.00     0.009 C 
BRANCH  25  26
HETATM   26  C3  UNL     1      -4.132  49.406 -24.894  1.00  0.00     0.034 C 
BRANCH  26  27
HETATM   27  C2  UNL     1      -4.624  48.514 -26.017  1.00  0.00    -0.075 C 
HETATM   28  C1  UNL     1      -5.740  47.777 -25.861  1.00  0.00     0.015 C 
BRANCH  27  29
HETATM   29  C27 UNL     1      -3.894  48.542 -27.360  1.00  0.00     0.107 C 
HETATM   30  C28 UNL     1      -3.162  49.859 -27.616  1.00  0.00     0.026 C 
BRANCH  29  31
HETATM   31  C29 UNL     1      -4.840  48.209 -28.516  1.00  0.00     0.147 C 
HETATM   32  O5  UNL     1      -4.581  47.628 -29.557  1.00  0.00    -0.650 OA
BRANCH  31  33
HETATM   33  O6  UNL     1      -6.091  48.683 -28.318  1.00  0.00    -0.776 OA
HETATM   34  H42 UNL     1      -6.565  48.428 -29.137  1.00  0.00     0.167 HD
ENDBRANCH  31  33
ENDBRANCH  29  31
ENDBRANCH  27  29
ENDBRANCH  26  27
ENDBRANCH  25  26
ENDBRANCH  23  25
ENDBRANCH   1  23
BRANCH  22  35
HETATM   35  O4  UNL     1      -0.090  53.282 -19.024  1.00  0.00    -0.391 OA
HETATM   36  H37 UNL     1      -0.935  53.284 -18.542  1.00  0.00     0.210 HD
ENDBRANCH  22  35
BRANCH  18  37
HETATM   37  O3  UNL     1       1.162  52.319 -14.143  1.00  0.00    -0.382 OA
HETATM   38  H32 UNL     1       1.638  52.534 -13.318  1.00  0.00     0.211 HD
ENDBRANCH  18  37
TORSDOF 9
ENDMDL
MODEL 7
REMARK minimizedAffinity -9.45766926
REMARK  9 active torsions:
REMARK  status: ('A' for Active; 'I' for Inactive)
REMARK    1  A    between atoms: C2_2  and  C3_3 
REMARK    2  A    between atoms: C2_2  and  C27_31 
REMARK    3  A    between atoms: C3_3  and  C4_4 
REMARK    4  A    between atoms: C4_4  and  C5_5 
REMARK    5  A    between atoms: C5_5  and  C7_7 
REMARK    6  A    between atoms: C22_24  and  O3_26 
REMARK    7  A    between atoms: C26_29  and  O4_30 
REMARK    8  A    between atoms: C27_31  and  C29_33 
REMARK    9  A    between atoms: C29_33  and  O6_35 
ROOT
HETATM    1  C7  UNL     1      -1.083  50.540 -22.875  1.00  0.00    -0.002 C 
HETATM    2  C8  UNL     1      -0.538  51.984 -23.077  1.00  0.00     0.006 C 
HETATM    3  C9  UNL     1      -0.114  52.505 -21.699  1.00  0.00     0.010 C 
HETATM    4  C10 UNL     1      -0.109  51.257 -20.818  1.00  0.00     0.027 C 
HETATM    5  C11 UNL     1      -0.014  51.331 -19.305  1.00  0.00    -0.036 C 
HETATM    6  C12 UNL     1      -0.441  50.300 -18.529  1.00  0.00     0.002 C 
HETATM    7  C13 UNL     1      -1.202  49.170 -19.198  1.00  0.00     0.157 C 
HETATM    8  O1  UNL     1      -1.791  48.318 -18.535  1.00  0.00    -0.293 OA
HETATM    9  C14 UNL     1      -1.244  49.086 -20.714  1.00  0.00     0.093 C 
HETATM   10  C15 UNL     1      -1.339  50.476 -21.336  1.00  0.00    -0.026 C 
HETATM   11  C16 UNL     1      -2.686  51.143 -20.956  1.00  0.00     0.016 C 
HETATM   12  C17 UNL     1      -0.209  50.245 -16.995  1.00  0.00    -0.006 C 
HETATM   13  C18 UNL     1      -1.530  50.712 -16.342  1.00  0.00     0.021 C 
HETATM   14  C19 UNL     1       0.154  48.818 -16.484  1.00  0.00     0.022 C 
HETATM   15  C20 UNL     1       0.500  48.752 -15.001  1.00  0.00     0.083 C 
HETATM   16  C21 UNL     1       1.609  49.706 -14.657  1.00  0.00     0.161 C 
HETATM   17  O2  UNL     1       2.545  49.345 -13.939  1.00  0.00    -0.295 OA
HETATM   18  C22 UNL     1       1.451  51.159 -15.143  1.00  0.00     0.119 C 
HETATM   19  C23 UNL     1       2.772  51.913 -14.913  1.00  0.00     0.055 C 
HETATM   20  C24 UNL     1       1.041  51.150 -16.642  1.00  0.00     0.043 C 
HETATM   21  C25 UNL     1       0.832  52.559 -17.206  1.00  0.00     0.045 C 
HETATM   22  C26 UNL     1       0.696  52.534 -18.728  1.00  0.00     0.148 C 
ENDROOT
BRANCH   1  23
HETATM   23  C5  UNL     1      -2.248  50.211 -23.856  1.00  0.00    -0.014 C 
HETATM   24  C6  UNL     1      -3.414  51.194 -23.699  1.00  0.00     0.010 C 
BRANCH  23  25
HETATM   25  C4  UNL     1      -2.767  48.762 -23.638  1.00  0.00     0.009 C 
BRANCH  25  26
HETATM   26  C3  UNL     1      -4.282  48.579 -23.854  1.00  0.00     0.034 C 
BRANCH  26  27
HETATM   27  C2  UNL     1      -5.105  48.143 -22.657  1.00  0.00    -0.075 C 
HETATM   28  C1  UNL     1      -4.513  47.536 -21.610  1.00  0.00     0.015 C 
BRANCH  27  29
HETATM   29  C27 UNL     1      -6.592  48.492 -22.613  1.00  0.00     0.107 C 
HETATM   30  C28 UNL     1      -7.261  48.441 -23.987  1.00  0.00     0.026 C 
BRANCH  29  31
HETATM   31  C29 UNL     1      -6.827  49.846 -21.940  1.00  0.00     0.147 C 
HETATM   32  O5  UNL     1      -6.809  50.107 -20.749  1.00  0.00    -0.650 OA
BRANCH  31  33
HETATM   33  O6  UNL     1      -7.131  50.821 -22.825  1.00  0.00    -0.776 OA
HETATM   34  H42 UNL     1      -7.284  51.606 -22.258  1.00  0.00     0.167 HD
ENDBRANCH  31  33
ENDBRANCH  29  31
ENDBRANCH  27  29
ENDBRANCH  26  27
ENDBRANCH  25  26
ENDBRANCH  23  25
ENDBRANCH   1  23
BRANCH  22  35
HETATM   35  O4  UNL     1       0.010  53.723 -19.101  1.00  0.00    -0.391 OA
HETATM   36  H37 UNL     1      -0.904  53.644 -18.775  1.00  0.00     0.210 HD
ENDBRANCH  22  35
BRANCH  18  37
HETATM   37  O3  UNL     1       0.453  51.809 -14.361  1.00  0.00    -0.382 OA
HETATM   38  H32 UNL     1       0.782  51.853 -13.443  1.00  0.00     0.211 HD
ENDBRANCH  18  37
TORSDOF 9
ENDMDL
MODEL 8
REMARK minimizedAffinity -9.37956429
REMARK  9 active torsions:
REMARK  status: ('A' for Active; 'I' for Inactive)
REMARK    1  A    between atoms: C2_2  and  C3_3 
REMARK    2  A    between atoms: C2_2  and  C27_31 
REMARK    3  A    between atoms: C3_3  and  C4_4 
REMARK    4  A    between atoms: C4_4  and  C5_5 
REMARK    5  A    between atoms: C5_5  and  C7_7 
REMARK    6  A    between atoms: C22_24  and  O3_26 
REMARK    7  A    between atoms: C26_29  and  O4_30 
REMARK    8  A    between atoms: C27_31  and  C29_33 
REMARK    9  A    between atoms: C29_33  and  O6_35 
ROOT
HETATM    1  C7  UNL     1      -0.236  49.782 -18.140  1.00  0.00    -0.002 C 
HETATM    2  C8  UNL     1      -1.188  48.554 -18.059  1.00  0.00     0.006 C 
HETATM    3  C9  UNL     1      -1.962  48.493 -19.382  1.00  0.00     0.010 C 
HETATM    4  C10 UNL     1      -1.209  49.458 -20.295  1.00  0.00     0.027 C 
HETATM    5  C11 UNL     1      -1.775  49.930 -21.622  1.00  0.00    -0.036 C 
HETATM    6  C12 UNL     1      -1.333  51.079 -22.199  1.00  0.00     0.002 C 
HETATM    7  C13 UNL     1      -0.421  51.980 -21.387  1.00  0.00     0.157 C 
HETATM    8  O1  UNL     1      -0.155  53.121 -21.762  1.00  0.00    -0.293 OA
HETATM    9  C14 UNL     1       0.175  51.473 -20.085  1.00  0.00     0.093 C 
HETATM   10  C15 UNL     1      -0.827  50.604 -19.329  1.00  0.00    -0.026 C 
HETATM   11  C16 UNL     1      -2.044  51.454 -18.883  1.00  0.00     0.016 C 
HETATM   12  C17 UNL     1      -1.744  51.517 -23.630  1.00  0.00    -0.006 C 
HETATM   13  C18 UNL     1      -2.878  52.553 -23.455  1.00  0.00     0.021 C 
HETATM   14  C19 UNL     1      -0.570  52.155 -24.433  1.00  0.00     0.022 C 
HETATM   15  C20 UNL     1      -0.910  52.491 -25.879  1.00  0.00     0.083 C 
HETATM   16  C21 UNL     1      -1.424  51.284 -26.614  1.00  0.00     0.161 C 
HETATM   17  O2  UNL     1      -1.015  51.020 -27.748  1.00  0.00    -0.295 OA
HETATM   18  C22 UNL     1      -2.551  50.486 -25.933  1.00  0.00     0.119 C 
HETATM   19  C23 UNL     1      -2.772  49.172 -26.703  1.00  0.00     0.055 C 
HETATM   20  C24 UNL     1      -2.166  50.230 -24.449  1.00  0.00     0.043 C 
HETATM   21  C25 UNL     1      -3.247  49.462 -23.682  1.00  0.00     0.045 C 
HETATM   22  C26 UNL     1      -2.735  48.995 -22.319  1.00  0.00     0.148 C 
ENDROOT
BRANCH   1  23
HETATM   23  C5  UNL     1      -0.050  50.471 -16.755  1.00  0.00    -0.014 C 
HETATM   24  C6  UNL     1      -1.394  50.721 -16.062  1.00  0.00     0.010 C 
BRANCH  23  25
HETATM   25  C4  UNL     1       0.709  51.820 -16.901  1.00  0.00     0.009 C 
BRANCH  25  26
HETATM   26  C3  UNL     1       1.413  52.307 -15.620  1.00  0.00     0.034 C 
BRANCH  26  27
HETATM   27  C2  UNL     1       2.688  51.593 -15.215  1.00  0.00    -0.075 C 
HETATM   28  C1  UNL     1       3.887  52.075 -15.594  1.00  0.00     0.015 C 
BRANCH  27  29
HETATM   29  C27 UNL     1       2.596  50.382 -14.287  1.00  0.00     0.107 C 
HETATM   30  C28 UNL     1       1.379  50.423 -13.364  1.00  0.00     0.026 C 
BRANCH  29  31
HETATM   31  C29 UNL     1       3.885  50.198 -13.482  1.00  0.00     0.147 C 
HETATM   32  O5  UNL     1       4.900  49.606 -13.813  1.00  0.00    -0.650 OA
BRANCH  31  33
HETATM   33  O6  UNL     1       3.810  50.740 -12.247  1.00  0.00    -0.776 OA
HETATM   34  H42 UNL     1       4.677  50.520 -11.846  1.00  0.00     0.167 HD
ENDBRANCH  31  33
ENDBRANCH  29  31
ENDBRANCH  27  29
ENDBRANCH  26  27
ENDBRANCH  25  26
ENDBRANCH  23  25
ENDBRANCH   1  23
BRANCH  22  35
HETATM   35  O4  UNL     1      -3.879  48.781 -21.501  1.00  0.00    -0.391 OA
HETATM   36  H37 UNL     1      -4.276  49.652 -21.324  1.00  0.00     0.210 HD
ENDBRANCH  22  35
BRANCH  18  37
HETATM   37  O3  UNL     1      -3.764  51.228 -26.009  1.00  0.00    -0.382 OA
HETATM   38  H32 UNL     1      -4.003  51.305 -26.952  1.00  0.00     0.211 HD
ENDBRANCH  18  37
TORSDOF 9
ENDMDL
MODEL 9
REMARK minimizedAffinity -9.35936451
REMARK  9 active torsions:
REMARK  status: ('A' for Active; 'I' for Inactive)
REMARK    1  A    between atoms: C2_2  and  C3_3 
REMARK    2  A    between atoms: C2_2  and  C27_31 
REMARK    3  A    between atoms: C3_3  and  C4_4 
REMARK    4  A    between atoms: C4_4  and  C5_5 
REMARK    5  A    between atoms: C5_5  and  C7_7 
REMARK    6  A    between atoms: C22_24  and  O3_26 
REMARK    7  A    between atoms: C26_29  and  O4_30 
REMARK    8  A    between atoms: C27_31  and  C29_33 
REMARK    9  A    between atoms: C29_33  and  O6_35 
ROOT
HETATM    1  C7  UNL     1      -0.109  50.220 -17.718  1.00  0.00    -0.002 C 
HETATM    2  C8  UNL     1      -0.995  48.947 -17.593  1.00  0.00     0.006 C 
HETATM    3  C9  UNL     1      -1.722  48.768 -18.931  1.00  0.00     0.010 C 
HETATM    4  C10 UNL     1      -0.994  49.720 -19.877  1.00  0.00     0.027 C 
HETATM    5  C11 UNL     1      -1.542  50.084 -21.245  1.00  0.00    -0.036 C 
HETATM    6  C12 UNL     1      -1.146  51.221 -21.875  1.00  0.00     0.002 C 
HETATM    7  C13 UNL     1      -0.311  52.217 -21.092  1.00  0.00     0.157 C 
HETATM    8  O1  UNL     1      -0.095  53.347 -21.525  1.00  0.00    -0.293 OA
HETATM    9  C14 UNL     1       0.271  51.818 -19.747  1.00  0.00     0.093 C 
HETATM   10  C15 UNL     1      -0.706  50.939 -18.969  1.00  0.00    -0.026 C 
HETATM   11  C16 UNL     1      -1.981  51.743 -18.608  1.00  0.00     0.016 C 
HETATM   12  C17 UNL     1      -1.535  51.554 -23.341  1.00  0.00    -0.006 C 
HETATM   13  C18 UNL     1      -2.729  52.532 -23.258  1.00  0.00     0.021 C 
HETATM   14  C19 UNL     1      -0.373  52.210 -24.146  1.00  0.00     0.022 C 
HETATM   15  C20 UNL     1      -0.685  52.444 -25.619  1.00  0.00     0.083 C 
HETATM   16  C21 UNL     1      -1.109  51.170 -26.296  1.00  0.00     0.161 C 
HETATM   17  O2  UNL     1      -0.651  50.865 -27.400  1.00  0.00    -0.295 OA
HETATM   18  C22 UNL     1      -2.212  50.349 -25.602  1.00  0.00     0.119 C 
HETATM   19  C23 UNL     1      -2.337  48.984 -26.299  1.00  0.00     0.055 C 
HETATM   20  C24 UNL     1      -1.861  50.200 -24.095  1.00  0.00     0.043 C 
HETATM   21  C25 UNL     1      -2.922  49.418 -23.315  1.00  0.00     0.045 C 
HETATM   22  C26 UNL     1      -2.428  49.058 -21.914  1.00  0.00     0.148 C 
ENDROOT
BRANCH   1  23
HETATM   23  C5  UNL     1      -0.004  50.996 -16.371  1.00  0.00    -0.014 C 
HETATM   24  C6  UNL     1       1.447  51.095 -15.887  1.00  0.00     0.010 C 
BRANCH  23  25
HETATM   25  C4  UNL     1      -0.866  50.318 -15.269  1.00  0.00     0.009 C 
BRANCH  25  26
HETATM   26  C3  UNL     1      -2.157  51.075 -14.902  1.00  0.00     0.034 C 
BRANCH  26  27
HETATM   27  C2  UNL     1      -2.593  51.040 -13.451  1.00  0.00    -0.075 C 
HETATM   28  C1  UNL     1      -3.068  49.901 -12.911  1.00  0.00     0.015 C 
BRANCH  27  29
HETATM   29  C27 UNL     1      -2.390  52.283 -12.585  1.00  0.00     0.107 C 
HETATM   30  C28 UNL     1      -1.540  52.016 -11.343  1.00  0.00     0.026 C 
BRANCH  29  31
HETATM   31  C29 UNL     1      -3.727  52.922 -12.205  1.00  0.00     0.147 C 
HETATM   32  O5  UNL     1      -4.368  52.772 -11.178  1.00  0.00    -0.650 OA
BRANCH  31  33
HETATM   33  O6  UNL     1      -4.229  53.702 -13.188  1.00  0.00    -0.776 OA
HETATM   34  H42 UNL     1      -5.085  54.011 -12.822  1.00  0.00     0.167 HD
ENDBRANCH  31  33
ENDBRANCH  29  31
ENDBRANCH  27  29
ENDBRANCH  26  27
ENDBRANCH  25  26
ENDBRANCH  23  25
ENDBRANCH   1  23
BRANCH  22  35
HETATM   35  O4  UNL     1      -3.584  48.827 -21.117  1.00  0.00    -0.391 OA
HETATM   36  H37 UNL     1      -4.033  49.683 -21.003  1.00  0.00     0.210 HD
ENDBRANCH  22  35
BRANCH  18  37
HETATM   37  O3  UNL     1      -3.461  51.017 -25.755  1.00  0.00    -0.382 OA
HETATM   38  H32 UNL     1      -3.674  51.027 -26.708  1.00  0.00     0.211 HD
ENDBRANCH  18  37
TORSDOF 9
ENDMDL
