MODEL 1
REMARK minimizedAffinity -11.901248
REMARK  5 active torsions:
REMARK  status: ('A' for Active; 'I' for Inactive)
REMARK    1  A    between atoms: N1_2  and  C2_3 
REMARK    2  A    between atoms: C4_5  and  N3_29 
REMARK    3  A    between atoms: C5_7  and  N2_12 
REMARK    4  A    between atoms: C7_9  and  O2_10 
REMARK    5  A    between atoms: C28_35  and  O4_36 
ROOT
HETATM    1  C2  UNL     1      -2.854  47.562 -20.799  1.00  0.00     0.257 C 
HETATM    2  C3  UNL     1      -1.701  48.322 -21.577  1.00  0.00     0.092 C 
HETATM    3  C4  UNL     1      -1.963  49.779 -21.302  1.00  0.00     0.234 C 
HETATM    4  O1  UNL     1      -2.205  49.833 -19.889  1.00  0.00    -0.333 OA
HETATM    5  C5  UNL     1      -3.626  49.771 -19.661  1.00  0.00     0.168 C 
HETATM    6  C6  UNL     1      -3.697  49.469 -18.151  1.00  0.00     0.074 C 
HETATM    7  C7  UNL     1      -4.145  48.495 -20.491  1.00  0.00     0.209 C 
ENDROOT
BRANCH   1   8
HETATM    8  N1  UNL     1      -3.093  46.213 -21.350  1.00  0.00     0.086 N 
HETATM    9  C1  UNL     1      -4.002  45.381 -20.575  1.00  0.00     0.307 C 
HETATM   10  H4  UNL     1      -3.457  46.302 -22.300  1.00  0.00     0.316 HD
ENDBRANCH   1   8
BRANCH   7  11
HETATM   11  O2  UNL     1      -4.726  48.844 -21.762  1.00  0.00    -0.384 OA
HETATM   12  C8  UNL     1      -5.734  49.843 -21.693  1.00  0.00     0.202 C 
ENDBRANCH   7  11
BRANCH   3  13
HETATM   13  N3  UNL     1      -1.288  50.998 -21.578  1.00  0.00    -0.316 N 
HETATM   14  C24 UNL     1      -0.470  51.831 -20.879  1.00  0.00     0.048 A 
HETATM   15  C19 UNL     1       0.036  52.768 -21.812  1.00  0.00     0.004 A 
HETATM   16  C23 UNL     1      -0.112  51.852 -19.523  1.00  0.00     0.030 A 
HETATM   17  C18 UNL     1      -0.503  52.451 -23.107  1.00  0.00     0.022 A 
HETATM   18  C20 UNL     1       0.930  53.753 -21.339  1.00  0.00     0.014 A 
HETATM   19  C17 UNL     1      -0.447  52.849 -24.449  1.00  0.00     0.057 A 
HETATM   20  C25 UNL     1      -1.334  51.381 -22.894  1.00  0.00     0.077 A 
HETATM   21  C16 UNL     1      -1.152  52.213 -25.531  1.00  0.00     0.020 A 
HETATM   22  C27 UNL     1       0.359  53.926 -25.036  1.00  0.00     0.255 C 
HETATM   23  C15 UNL     1      -2.014  51.111 -25.340  1.00  0.00     0.017 A 
HETATM   24  C28 UNL     1      -0.755  52.897 -26.807  1.00  0.00     0.257 C 
HETATM   25  C14 UNL     1      -2.825  50.250 -26.136  1.00  0.00     0.004 A 
HETATM   26  C26 UNL     1      -2.157  50.669 -24.043  1.00  0.00     0.077 A 
HETATM   27  C9  UNL     1      -3.455  49.322 -25.282  1.00  0.00     0.049 A 
HETATM   28  C13 UNL     1      -3.084  50.183 -27.523  1.00  0.00     0.014 A 
HETATM   29  N2  UNL     1      -3.070  49.620 -23.975  1.00  0.00    -0.308 N 
HETATM   30  C10 UNL     1      -4.318  48.336 -25.798  1.00  0.00     0.030 A 
HETATM   31  C11 UNL     1      -4.546  48.290 -27.176  1.00  0.00     0.002 A 
HETATM   32  C12 UNL     1      -3.942  49.204 -28.030  1.00  0.00     0.001 A 
HETATM   33  N4  UNL     1       0.068  53.979 -26.383  1.00  0.00    -0.326 N 
HETATM   34  H24 UNL     1       0.679  54.498 -26.997  1.00  0.00     0.165 HD
HETATM   35  O3  UNL     1       1.163  54.642 -24.472  1.00  0.00    -0.268 OA
HETATM   36  C21 UNL     1       1.286  53.782 -19.986  1.00  0.00     0.001 A 
HETATM   37  C22 UNL     1       0.773  52.845 -19.095  1.00  0.00     0.002 A 
BRANCH  24  38
HETATM   38  O4  UNL     1      -1.849  53.466 -27.470  1.00  0.00    -0.372 OA
HETATM   39  H26 UNL     1      -1.811  54.408 -27.221  1.00  0.00     0.212 HD
ENDBRANCH  24  38
ENDBRANCH   3  13
TORSDOF 5
ENDMDL
MODEL 2
REMARK minimizedAffinity -11.510644
REMARK  5 active torsions:
REMARK  status: ('A' for Active; 'I' for Inactive)
REMARK    1  A    between atoms: N1_2  and  C2_3 
REMARK    2  A    between atoms: C4_5  and  N3_29 
REMARK    3  A    between atoms: C5_7  and  N2_12 
REMARK    4  A    between atoms: C7_9  and  O2_10 
REMARK    5  A    between atoms: C28_35  and  O4_36 
ROOT
HETATM    1  C2  UNL     1       0.318  53.648 -26.521  1.00  0.00     0.257 C 
HETATM    2  C3  UNL     1      -0.143  53.945 -25.034  1.00  0.00     0.092 C 
HETATM    3  C4  UNL     1      -0.071  52.607 -24.346  1.00  0.00     0.234 C 
HETATM    4  O1  UNL     1       1.200  52.075 -24.744  1.00  0.00    -0.333 OA
HETATM    5  C5  UNL     1       1.004  51.219 -25.886  1.00  0.00     0.168 C 
HETATM    6  C6  UNL     1       2.446  51.037 -26.403  1.00  0.00     0.074 C 
HETATM    7  C7  UNL     1       0.160  52.089 -26.943  1.00  0.00     0.209 C 
ENDROOT
BRANCH   1   8
HETATM    8  N1  UNL     1      -0.172  54.672 -27.465  1.00  0.00     0.086 N 
HETATM    9  C1  UNL     1      -0.011  56.048 -27.021  1.00  0.00     0.307 C 
HETATM   10  H4  UNL     1       0.306  54.556 -28.359  1.00  0.00     0.316 HD
ENDBRANCH   1   8
BRANCH   7  11
HETATM   11  O2  UNL     1      -1.249  51.789 -26.927  1.00  0.00    -0.384 OA
HETATM   12  C8  UNL     1      -2.039  52.631 -27.755  1.00  0.00     0.202 C 
ENDBRANCH   7  11
BRANCH   3  13
HETATM   13  N3  UNL     1      -0.231  52.146 -23.012  1.00  0.00    -0.316 N 
HETATM   14  C24 UNL     1       0.238  52.529 -21.793  1.00  0.00     0.048 A 
HETATM   15  C19 UNL     1      -0.480  51.774 -20.834  1.00  0.00     0.004 A 
HETATM   16  C23 UNL     1       1.212  53.471 -21.431  1.00  0.00     0.030 A 
HETATM   17  C18 UNL     1      -1.412  50.930 -21.532  1.00  0.00     0.022 A 
HETATM   18  C20 UNL     1      -0.187  51.991 -19.471  1.00  0.00     0.014 A 
HETATM   19  C17 UNL     1      -2.434  49.999 -21.306  1.00  0.00     0.057 A 
HETATM   20  C25 UNL     1      -1.188  51.176 -22.863  1.00  0.00     0.077 A 
HETATM   21  C16 UNL     1      -3.212  49.359 -22.335  1.00  0.00     0.020 A 
HETATM   22  C27 UNL     1      -2.956  49.530 -20.018  1.00  0.00     0.255 C 
HETATM   23  C15 UNL     1      -3.002  49.593 -23.712  1.00  0.00     0.017 A 
HETATM   24  C28 UNL     1      -4.245  48.499 -21.665  1.00  0.00     0.257 C 
HETATM   25  C14 UNL     1      -3.564  49.178 -24.954  1.00  0.00     0.004 A 
HETATM   26  C26 UNL     1      -1.992  50.474 -24.031  1.00  0.00     0.077 A 
HETATM   27  C9  UNL     1      -2.853  49.810 -25.994  1.00  0.00     0.049 A 
HETATM   28  C13 UNL     1      -4.623  48.304 -25.287  1.00  0.00     0.014 A 
HETATM   29  N2  UNL     1      -1.846  50.579 -25.411  1.00  0.00    -0.308 N 
HETATM   30  C10 UNL     1      -3.195  49.589 -27.342  1.00  0.00     0.030 A 
HETATM   31  C11 UNL     1      -4.255  48.728 -27.638  1.00  0.00     0.002 A 
HETATM   32  C12 UNL     1      -4.958  48.088 -26.626  1.00  0.00     0.001 A 
HETATM   33  N4  UNL     1      -3.931  48.589 -20.280  1.00  0.00    -0.326 N 
HETATM   34  H24 UNL     1      -4.561  48.316 -19.539  1.00  0.00     0.165 HD
HETATM   35  O3  UNL     1      -2.631  49.900 -18.907  1.00  0.00    -0.268 OA
HETATM   36  C21 UNL     1       0.788  52.925 -19.105  1.00  0.00     0.001 A 
HETATM   37  C22 UNL     1       1.474  53.653 -20.071  1.00  0.00     0.002 A 
BRANCH  24  38
HETATM   38  O4  UNL     1      -4.123  47.149 -22.013  1.00  0.00    -0.372 OA
HETATM   39  H26 UNL     1      -3.640  46.755 -21.264  1.00  0.00     0.212 HD
ENDBRANCH  24  38
ENDBRANCH   3  13
TORSDOF 5
ENDMDL
MODEL 3
REMARK minimizedAffinity -11.4710808
REMARK  5 active torsions:
REMARK  status: ('A' for Active; 'I' for Inactive)
REMARK    1  A    between atoms: N1_2  and  C2_3 
REMARK    2  A    between atoms: C4_5  and  N3_29 
REMARK    3  A    between atoms: C5_7  and  N2_12 
REMARK    4  A    between atoms: C7_9  and  O2_10 
REMARK    5  A    between atoms: C28_35  and  O4_36 
ROOT
HETATM    1  C2  UNL     1      -3.131  47.957 -20.684  1.00  0.00     0.257 C 
HETATM    2  C3  UNL     1      -2.153  48.095 -21.923  1.00  0.00     0.092 C 
HETATM    3  C4  UNL     1      -2.947  48.873 -22.940  1.00  0.00     0.234 C 
HETATM    4  O1  UNL     1      -3.517  49.955 -22.190  1.00  0.00    -0.333 OA
HETATM    5  C5  UNL     1      -4.845  49.581 -21.777  1.00  0.00     0.168 C 
HETATM    6  C6  UNL     1      -5.162  50.646 -20.708  1.00  0.00     0.074 C 
HETATM    7  C7  UNL     1      -4.694  48.142 -21.075  1.00  0.00     0.209 C 
ENDROOT
BRANCH   1   8
HETATM    8  N1  UNL     1      -2.765  46.817 -19.819  1.00  0.00     0.086 N 
HETATM    9  C1  UNL     1      -2.982  47.026 -18.396  1.00  0.00     0.307 C 
HETATM   10  H4  UNL     1      -3.292  45.994 -20.115  1.00  0.00     0.316 HD
ENDBRANCH   1   8
BRANCH   7  11
HETATM   11  O2  UNL     1      -5.044  47.048 -21.944  1.00  0.00    -0.384 OA
HETATM   12  C8  UNL     1      -6.247  47.239 -22.675  1.00  0.00     0.202 C 
ENDBRANCH   7  11
BRANCH   3  13
HETATM   13  N3  UNL     1      -2.677  49.445 -24.212  1.00  0.00    -0.316 N 
HETATM   14  C24 UNL     1      -3.148  49.259 -25.475  1.00  0.00     0.048 A 
HETATM   15  C19 UNL     1      -2.611  50.309 -26.259  1.00  0.00     0.004 A 
HETATM   16  C23 UNL     1      -4.000  48.282 -26.010  1.00  0.00     0.030 A 
HETATM   17  C18 UNL     1      -1.809  51.143 -25.406  1.00  0.00     0.022 A 
HETATM   18  C20 UNL     1      -2.957  50.353 -27.627  1.00  0.00     0.014 A 
HETATM   19  C17 UNL     1      -1.045  52.317 -25.419  1.00  0.00     0.057 A 
HETATM   20  C25 UNL     1      -1.859  50.543 -24.173  1.00  0.00     0.077 A 
HETATM   21  C16 UNL     1      -0.383  52.887 -24.274  1.00  0.00     0.020 A 
HETATM   22  C27 UNL     1      -0.807  53.224 -26.548  1.00  0.00     0.255 C 
HETATM   23  C15 UNL     1      -0.418  52.291 -22.994  1.00  0.00     0.017 A 
HETATM   24  C28 UNL     1       0.253  54.178 -24.703  1.00  0.00     0.257 C 
HETATM   25  C14 UNL     1       0.075  52.564 -21.685  1.00  0.00     0.004 A 
HETATM   26  C26 UNL     1      -1.121  51.111 -22.893  1.00  0.00     0.077 A 
HETATM   27  C9  UNL     1      -0.331  51.518 -20.832  1.00  0.00     0.049 A 
HETATM   28  C13 UNL     1       0.846  53.619 -21.148  1.00  0.00     0.014 A 
HETATM   29  N2  UNL     1      -1.036  50.594 -21.603  1.00  0.00    -0.308 N 
HETATM   30  C10 UNL     1       0.011  51.525 -19.467  1.00  0.00     0.030 A 
HETATM   31  C11 UNL     1       0.765  52.588 -18.964  1.00  0.00     0.002 A 
HETATM   32  C12 UNL     1       1.183  53.621 -19.792  1.00  0.00     0.001 A 
HETATM   33  N4  UNL     1       0.032  54.227 -26.108  1.00  0.00    -0.326 N 
HETATM   34  H24 UNL     1       0.132  55.063 -26.667  1.00  0.00     0.165 HD
HETATM   35  O3  UNL     1      -1.268  53.149 -27.670  1.00  0.00    -0.268 OA
HETATM   36  C21 UNL     1      -3.802  49.379 -28.167  1.00  0.00     0.001 A 
HETATM   37  C22 UNL     1      -4.315  48.361 -27.369  1.00  0.00     0.002 A 
BRANCH  24  38
HETATM   38  O4  UNL     1       1.641  54.175 -24.519  1.00  0.00    -0.372 OA
HETATM   39  H26 UNL     1       1.995  53.971 -25.404  1.00  0.00     0.212 HD
ENDBRANCH  24  38
ENDBRANCH   3  13
TORSDOF 5
ENDMDL
MODEL 4
REMARK minimizedAffinity -11.1820383
REMARK  5 active torsions:
REMARK  status: ('A' for Active; 'I' for Inactive)
REMARK    1  A    between atoms: N1_2  and  C2_3 
REMARK    2  A    between atoms: C4_5  and  N3_29 
REMARK    3  A    between atoms: C5_7  and  N2_12 
REMARK    4  A    between atoms: C7_9  and  O2_10 
REMARK    5  A    between atoms: C28_35  and  O4_36 
ROOT
HETATM    1  C2  UNL     1      -3.219  47.856 -20.867  1.00  0.00     0.257 C 
HETATM    2  C3  UNL     1      -1.978  48.202 -21.790  1.00  0.00     0.092 C 
HETATM    3  C4  UNL     1      -2.489  49.276 -22.715  1.00  0.00     0.234 C 
HETATM    4  O1  UNL     1      -3.177  50.189 -21.849  1.00  0.00    -0.333 OA
HETATM    5  C5  UNL     1      -4.577  49.850 -21.840  1.00  0.00     0.168 C 
HETATM    6  C6  UNL     1      -5.093  50.646 -20.624  1.00  0.00     0.074 C 
HETATM    7  C7  UNL     1      -4.643  48.275 -21.520  1.00  0.00     0.209 C 
ENDROOT
BRANCH   1   8
HETATM    8  N1  UNL     1      -3.102  46.509 -20.271  1.00  0.00     0.086 N 
HETATM    9  C1  UNL     1      -4.220  45.617 -20.538  1.00  0.00     0.307 C 
HETATM   10  H4  UNL     1      -2.244  46.071 -20.606  1.00  0.00     0.316 HD
ENDBRANCH   1   8
BRANCH   7  11
HETATM   11  O2  UNL     1      -4.822  47.465 -22.698  1.00  0.00    -0.384 OA
HETATM   12  C8  UNL     1      -5.584  48.083 -23.725  1.00  0.00     0.202 C 
ENDBRANCH   7  11
BRANCH   3  13
HETATM   13  N3  UNL     1      -1.914  50.114 -23.706  1.00  0.00    -0.316 N 
HETATM   14  C24 UNL     1      -2.101  50.302 -25.041  1.00  0.00     0.048 A 
HETATM   15  C19 UNL     1      -1.350  51.450 -25.392  1.00  0.00     0.004 A 
HETATM   16  C23 UNL     1      -2.862  49.587 -25.978  1.00  0.00     0.030 A 
HETATM   17  C18 UNL     1      -0.715  51.952 -24.204  1.00  0.00     0.022 A 
HETATM   18  C20 UNL     1      -1.380  51.871 -26.738  1.00  0.00     0.014 A 
HETATM   19  C17 UNL     1       0.092  53.003 -23.749  1.00  0.00     0.057 A 
HETATM   20  C25 UNL     1      -1.069  51.073 -23.212  1.00  0.00     0.077 A 
HETATM   21  C16 UNL     1       0.511  53.195 -22.385  1.00  0.00     0.020 A 
HETATM   22  C27 UNL     1       0.622  54.132 -24.523  1.00  0.00     0.255 C 
HETATM   23  C15 UNL     1       0.162  52.305 -21.345  1.00  0.00     0.017 A 
HETATM   24  C28 UNL     1       1.293  54.475 -22.316  1.00  0.00     0.257 C 
HETATM   25  C14 UNL     1       0.366  52.188 -19.939  1.00  0.00     0.004 A 
HETATM   26  C26 UNL     1      -0.606  51.220 -21.705  1.00  0.00     0.077 A 
HETATM   27  C9  UNL     1      -0.274  51.012 -19.496  1.00  0.00     0.049 A 
HETATM   28  C13 UNL     1       1.051  52.985 -18.996  1.00  0.00     0.014 A 
HETATM   29  N2  UNL     1      -0.837  50.391 -20.611  1.00  0.00    -0.308 N 
HETATM   30  C10 UNL     1      -0.244  50.641 -18.138  1.00  0.00     0.030 A 
HETATM   31  C11 UNL     1       0.433  51.457 -17.229  1.00  0.00     0.002 A 
HETATM   32  C12 UNL     1       1.078  52.612 -17.650  1.00  0.00     0.001 A 
HETATM   33  N4  UNL     1       1.392  54.897 -23.672  1.00  0.00    -0.326 N 
HETATM   34  H24 UNL     1       1.657  55.830 -23.955  1.00  0.00     0.165 HD
HETATM   35  O3  UNL     1       0.418  54.389 -25.693  1.00  0.00    -0.268 OA
HETATM   36  C21 UNL     1      -2.133  51.159 -27.678  1.00  0.00     0.001 A 
HETATM   37  C22 UNL     1      -2.863  50.036 -27.301  1.00  0.00     0.002 A 
BRANCH  24  38
HETATM   38  O4  UNL     1       2.603  54.276 -21.865  1.00  0.00    -0.372 OA
HETATM   39  H26 UNL     1       3.134  54.262 -22.682  1.00  0.00     0.212 HD
ENDBRANCH  24  38
ENDBRANCH   3  13
TORSDOF 5
ENDMDL
MODEL 5
REMARK minimizedAffinity -11.1754971
REMARK  5 active torsions:
REMARK  status: ('A' for Active; 'I' for Inactive)
REMARK    1  A    between atoms: N1_2  and  C2_3 
REMARK    2  A    between atoms: C4_5  and  N3_29 
REMARK    3  A    between atoms: C5_7  and  N2_12 
REMARK    4  A    between atoms: C7_9  and  O2_10 
REMARK    5  A    between atoms: C28_35  and  O4_36 
ROOT
HETATM    1  C2  UNL     1      -1.306  51.929 -26.878  1.00  0.00     0.257 C 
HETATM    2  C3  UNL     1      -1.803  51.340 -25.493  1.00  0.00     0.092 C 
HETATM    3  C4  UNL     1      -0.869  51.941 -24.475  1.00  0.00     0.234 C 
HETATM    4  O1  UNL     1      -0.810  53.330 -24.828  1.00  0.00    -0.333 OA
HETATM    5  C5  UNL     1       0.339  53.544 -25.670  1.00  0.00     0.168 C 
HETATM    6  C6  UNL     1       0.058  54.946 -26.248  1.00  0.00     0.074 C 
HETATM    7  C7  UNL     1       0.231  52.447 -26.842  1.00  0.00     0.209 C 
ENDROOT
BRANCH   1   8
HETATM    8  N1  UNL     1      -1.724  51.087 -28.016  1.00  0.00     0.086 N 
HETATM    9  C1  UNL     1      -3.134  50.729 -28.035  1.00  0.00     0.307 C 
HETATM   10  H4  UNL     1      -1.495  51.568 -28.887  1.00  0.00     0.316 HD
ENDBRANCH   1   8
BRANCH   7  11
HETATM   11  O2  UNL     1       1.061  51.292 -26.615  1.00  0.00    -0.384 OA
HETATM   12  C8  UNL     1       2.456  51.549 -26.680  1.00  0.00     0.202 C 
ENDBRANCH   7  11
BRANCH   3  13
HETATM   13  N3  UNL     1      -0.786  51.946 -23.058  1.00  0.00    -0.316 N 
HETATM   14  C24 UNL     1      -0.043  52.615 -22.134  1.00  0.00     0.048 A 
HETATM   15  C19 UNL     1      -0.606  52.311 -20.872  1.00  0.00     0.004 A 
HETATM   16  C23 UNL     1       1.062  53.468 -22.278  1.00  0.00     0.030 A 
HETATM   17  C18 UNL     1      -1.731  51.440 -21.079  1.00  0.00     0.022 A 
HETATM   18  C20 UNL     1      -0.018  52.894 -19.729  1.00  0.00     0.014 A 
HETATM   19  C17 UNL     1      -2.759  50.787 -20.386  1.00  0.00     0.057 A 
HETATM   20  C25 UNL     1      -1.769  51.224 -22.433  1.00  0.00     0.077 A 
HETATM   21  C16 UNL     1      -3.786  49.981 -20.994  1.00  0.00     0.020 A 
HETATM   22  C27 UNL     1      -3.039  50.824 -18.946  1.00  0.00     0.255 C 
HETATM   23  C15 UNL     1      -3.849  49.742 -22.385  1.00  0.00     0.017 A 
HETATM   24  C28 UNL     1      -4.726  49.536 -19.911  1.00  0.00     0.257 C 
HETATM   25  C14 UNL     1      -4.690  49.050 -23.303  1.00  0.00     0.004 A 
HETATM   26  C26 UNL     1      -2.857  50.320 -23.146  1.00  0.00     0.077 A 
HETATM   27  C9  UNL     1      -4.160  49.214 -24.599  1.00  0.00     0.049 A 
HETATM   28  C13 UNL     1      -5.865  48.283 -23.141  1.00  0.00     0.014 A 
HETATM   29  N2  UNL     1      -2.993  49.968 -24.486  1.00  0.00    -0.308 N 
HETATM   30  C10 UNL     1      -4.794  48.639 -25.717  1.00  0.00     0.030 A 
HETATM   31  C11 UNL     1      -5.961  47.896 -25.525  1.00  0.00     0.002 A 
HETATM   32  C12 UNL     1      -6.490  47.714 -24.254  1.00  0.00     0.001 A 
HETATM   33  N4  UNL     1      -4.123  50.004 -18.710  1.00  0.00    -0.326 N 
HETATM   34  H24 UNL     1      -4.605  50.071 -17.825  1.00  0.00     0.165 HD
HETATM   35  O3  UNL     1      -2.459  51.468 -18.094  1.00  0.00    -0.268 OA
HETATM   36  C21 UNL     1       1.087  53.741 -19.866  1.00  0.00     0.001 A 
HETATM   37  C22 UNL     1       1.616  54.022 -21.122  1.00  0.00     0.002 A 
BRANCH  24  38
HETATM   38  O4  UNL     1      -4.794  48.141 -19.804  1.00  0.00    -0.372 OA
HETATM   39  H26 UNL     1      -4.200  47.933 -19.060  1.00  0.00     0.212 HD
ENDBRANCH  24  38
ENDBRANCH   3  13
TORSDOF 5
ENDMDL
MODEL 6
REMARK minimizedAffinity -10.9972057
REMARK  5 active torsions:
REMARK  status: ('A' for Active; 'I' for Inactive)
REMARK    1  A    between atoms: N1_2  and  C2_3 
REMARK    2  A    between atoms: C4_5  and  N3_29 
REMARK    3  A    between atoms: C5_7  and  N2_12 
REMARK    4  A    between atoms: C7_9  and  O2_10 
REMARK    5  A    between atoms: C28_35  and  O4_36 
ROOT
HETATM    1  C2  UNL     1      -4.763  49.179 -20.336  1.00  0.00     0.257 C 
HETATM    2  C3  UNL     1      -4.331  50.263 -21.408  1.00  0.00     0.092 C 
HETATM    3  C4  UNL     1      -2.875  50.515 -21.117  1.00  0.00     0.234 C 
HETATM    4  O1  UNL     1      -2.313  49.204 -20.969  1.00  0.00    -0.333 OA
HETATM    5  C5  UNL     1      -2.297  48.864 -19.569  1.00  0.00     0.168 C 
HETATM    6  C6  UNL     1      -2.031  47.346 -19.610  1.00  0.00     0.074 C 
HETATM    7  C7  UNL     1      -3.791  49.135 -19.038  1.00  0.00     0.209 C 
ENDROOT
BRANCH   1   8
HETATM    8  N1  UNL     1      -6.222  49.185 -20.105  1.00  0.00     0.086 N 
HETATM    9  C1  UNL     1      -7.036  48.980 -21.294  1.00  0.00     0.307 C 
HETATM   10  H4  UNL     1      -6.453  48.465 -19.420  1.00  0.00     0.316 HD
ENDBRANCH   1   8
BRANCH   7  11
HETATM   11  O2  UNL     1      -3.931  50.399 -18.362  1.00  0.00    -0.384 OA
HETATM   12  C8  UNL     1      -2.964  51.372 -18.729  1.00  0.00     0.202 C 
ENDBRANCH   7  11
BRANCH   3  13
HETATM   13  N3  UNL     1      -1.836  51.264 -21.731  1.00  0.00    -0.316 N 
HETATM   14  C24 UNL     1      -0.779  51.997 -21.286  1.00  0.00     0.048 A 
HETATM   15  C19 UNL     1       0.001  52.307 -22.427  1.00  0.00     0.004 A 
HETATM   16  C23 UNL     1      -0.420  52.412 -19.995  1.00  0.00     0.030 A 
HETATM   17  C18 UNL     1      -0.628  51.713 -23.576  1.00  0.00     0.022 A 
HETATM   18  C20 UNL     1       1.176  53.064 -22.236  1.00  0.00     0.014 A 
HETATM   19  C17 UNL     1      -0.456  51.539 -24.955  1.00  0.00     0.057 A 
HETATM   20  C25 UNL     1      -1.765  51.119 -23.092  1.00  0.00     0.077 A 
HETATM   21  C16 UNL     1      -1.345  50.799 -25.813  1.00  0.00     0.020 A 
HETATM   22  C27 UNL     1       0.656  52.007 -25.791  1.00  0.00     0.255 C 
HETATM   23  C15 UNL     1      -2.523  50.178 -25.342  1.00  0.00     0.017 A 
HETATM   24  C28 UNL     1      -0.756  50.793 -27.194  1.00  0.00     0.257 C 
HETATM   25  C14 UNL     1      -3.582  49.382 -25.866  1.00  0.00     0.004 A 
HETATM   26  C26 UNL     1      -2.791  50.324 -23.999  1.00  0.00     0.077 A 
HETATM   27  C9  UNL     1      -4.477  49.089 -24.816  1.00  0.00     0.049 A 
HETATM   28  C13 UNL     1      -3.864  48.885 -27.158  1.00  0.00     0.014 A 
HETATM   29  N2  UNL     1      -4.000  49.719 -23.667  1.00  0.00    -0.308 N 
HETATM   30  C10 UNL     1      -5.624  48.306 -25.042  1.00  0.00     0.030 A 
HETATM   31  C11 UNL     1      -5.869  47.820 -26.329  1.00  0.00     0.002 A 
HETATM   32  C12 UNL     1      -5.005  48.108 -27.377  1.00  0.00     0.001 A 
HETATM   33  N4  UNL     1       0.385  51.638 -27.092  1.00  0.00    -0.326 N 
HETATM   34  H24 UNL     1       1.127  51.670 -27.776  1.00  0.00     0.165 HD
HETATM   35  O3  UNL     1       1.659  52.591 -25.431  1.00  0.00    -0.268 OA
HETATM   36  C21 UNL     1       1.536  53.486 -20.952  1.00  0.00     0.001 A 
HETATM   37  C22 UNL     1       0.750  53.163 -19.850  1.00  0.00     0.002 A 
BRANCH  24  38
HETATM   38  O4  UNL     1      -1.605  51.383 -28.138  1.00  0.00    -0.372 OA
HETATM   39  H26 UNL     1      -1.253  52.286 -28.239  1.00  0.00     0.212 HD
ENDBRANCH  24  38
ENDBRANCH   3  13
TORSDOF 5
ENDMDL
MODEL 7
REMARK minimizedAffinity -10.9179916
REMARK  5 active torsions:
REMARK  status: ('A' for Active; 'I' for Inactive)
REMARK    1  A    between atoms: N1_2  and  C2_3 
REMARK    2  A    between atoms: C4_5  and  N3_29 
REMARK    3  A    between atoms: C5_7  and  N2_12 
REMARK    4  A    between atoms: C7_9  and  O2_10 
REMARK    5  A    between atoms: C28_35  and  O4_36 
ROOT
HETATM    1  C2  UNL     1      -2.923  47.195 -20.293  1.00  0.00     0.257 C 
HETATM    2  C3  UNL     1      -1.587  47.967 -20.652  1.00  0.00     0.092 C 
HETATM    3  C4  UNL     1      -1.849  49.387 -20.223  1.00  0.00     0.234 C 
HETATM    4  O1  UNL     1      -2.425  49.260 -18.915  1.00  0.00    -0.333 OA
HETATM    5  C5  UNL     1      -3.860  49.274 -19.039  1.00  0.00     0.168 C 
HETATM    6  C6  UNL     1      -4.308  48.767 -17.653  1.00  0.00     0.074 C 
HETATM    7  C7  UNL     1      -4.212  48.170 -20.155  1.00  0.00     0.209 C 
ENDROOT
BRANCH   1   8
HETATM    8  N1  UNL     1      -3.075  45.959 -21.087  1.00  0.00     0.086 N 
HETATM    9  C1  UNL     1      -4.102  45.044 -20.615  1.00  0.00     0.307 C 
HETATM   10  H4  UNL     1      -3.276  46.209 -22.055  1.00  0.00     0.316 HD
ENDBRANCH   1   8
BRANCH   7  11
HETATM   11  O2  UNL     1      -4.453  48.738 -21.457  1.00  0.00    -0.384 OA
HETATM   12  C8  UNL     1      -5.554  48.170 -22.151  1.00  0.00     0.202 C 
ENDBRANCH   7  11
BRANCH   3  13
HETATM   13  N3  UNL     1      -1.080  50.578 -20.142  1.00  0.00    -0.316 N 
HETATM   14  C24 UNL     1      -0.358  51.199 -19.169  1.00  0.00     0.048 A 
HETATM   15  C19 UNL     1       0.347  52.249 -19.804  1.00  0.00     0.004 A 
HETATM   16  C23 UNL     1      -0.243  50.940 -17.795  1.00  0.00     0.030 A 
HETATM   17  C18 UNL     1       0.028  52.222 -21.206  1.00  0.00     0.022 A 
HETATM   18  C20 UNL     1       1.189  53.054 -19.008  1.00  0.00     0.014 A 
HETATM   19  C17 UNL     1       0.338  52.855 -22.417  1.00  0.00     0.057 A 
HETATM   20  C25 UNL     1      -0.877  51.201 -21.345  1.00  0.00     0.077 A 
HETATM   21  C16 UNL     1      -0.196  52.489 -23.703  1.00  0.00     0.020 A 
HETATM   22  C27 UNL     1       1.284  53.955 -22.642  1.00  0.00     0.255 C 
HETATM   23  C15 UNL     1      -1.129  51.443 -23.875  1.00  0.00     0.017 A 
HETATM   24  C28 UNL     1       0.450  53.363 -24.738  1.00  0.00     0.257 C 
HETATM   25  C14 UNL     1      -1.827  50.812 -24.945  1.00  0.00     0.004 A 
HETATM   26  C26 UNL     1      -1.518  50.782 -22.731  1.00  0.00     0.077 A 
HETATM   27  C9  UNL     1      -2.641  49.795 -24.405  1.00  0.00     0.049 A 
HETATM   28  C13 UNL     1      -1.843  51.025 -26.342  1.00  0.00     0.014 A 
HETATM   29  N2  UNL     1      -2.477  49.815 -23.020  1.00  0.00    -0.308 N 
HETATM   30  C10 UNL     1      -3.446  48.995 -25.237  1.00  0.00     0.030 A 
HETATM   31  C11 UNL     1      -3.430  49.223 -26.616  1.00  0.00     0.002 A 
HETATM   32  C12 UNL     1      -2.644  50.228 -27.164  1.00  0.00     0.001 A 
HETATM   33  N4  UNL     1       1.236  54.279 -23.982  1.00  0.00    -0.326 N 
HETATM   34  H24 UNL     1       1.969  54.852 -24.375  1.00  0.00     0.165 HD
HETATM   35  O3  UNL     1       2.010  54.486 -21.826  1.00  0.00    -0.268 OA
HETATM   36  C21 UNL     1       1.304  52.804 -17.637  1.00  0.00     0.001 A 
HETATM   37  C22 UNL     1       0.599  51.762 -17.042  1.00  0.00     0.002 A 
BRANCH  24  38
HETATM   38  O4  UNL     1      -0.482  54.131 -25.446  1.00  0.00    -0.372 OA
HETATM   39  H26 UNL     1      -0.445  55.004 -25.014  1.00  0.00     0.212 HD
ENDBRANCH  24  38
ENDBRANCH   3  13
TORSDOF 5
ENDMDL
MODEL 8
REMARK minimizedAffinity -10.7477322
REMARK  5 active torsions:
REMARK  status: ('A' for Active; 'I' for Inactive)
REMARK    1  A    between atoms: N1_2  and  C2_3 
REMARK    2  A    between atoms: C4_5  and  N3_29 
REMARK    3  A    between atoms: C5_7  and  N2_12 
REMARK    4  A    between atoms: C7_9  and  O2_10 
REMARK    5  A    between atoms: C28_35  and  O4_36 
ROOT
HETATM    1  C2  UNL     1      -3.810  50.534 -19.352  1.00  0.00     0.257 C 
HETATM    2  C3  UNL     1      -2.937  50.783 -20.651  1.00  0.00     0.092 C 
HETATM    3  C4  UNL     1      -3.601  49.945 -21.712  1.00  0.00     0.234 C 
HETATM    4  O1  UNL     1      -4.998  50.234 -21.566  1.00  0.00    -0.333 OA
HETATM    5  C5  UNL     1      -5.592  49.226 -20.724  1.00  0.00     0.168 C 
HETATM    6  C6  UNL     1      -6.951  49.863 -20.371  1.00  0.00     0.074 C 
HETATM    7  C7  UNL     1      -4.670  49.160 -19.408  1.00  0.00     0.209 C 
ENDROOT
BRANCH   1   8
HETATM    8  N1  UNL     1      -3.053  50.824 -18.117  1.00  0.00     0.086 N 
HETATM    9  C1  UNL     1      -1.631  50.522 -18.179  1.00  0.00     0.307 C 
HETATM   10  H4  UNL     1      -3.170  51.810 -17.880  1.00  0.00     0.316 HD
ENDBRANCH   1   8
BRANCH   7  11
HETATM   11  O2  UNL     1      -3.726  48.071 -19.433  1.00  0.00    -0.384 OA
HETATM   12  C8  UNL     1      -3.735  47.260 -18.267  1.00  0.00     0.202 C 
ENDBRANCH   7  11
BRANCH   3  13
HETATM   13  N3  UNL     1      -3.434  49.767 -23.111  1.00  0.00    -0.316 N 
HETATM   14  C24 UNL     1      -4.135  49.143 -24.097  1.00  0.00     0.048 A 
HETATM   15  C19 UNL     1      -3.533  49.527 -25.319  1.00  0.00     0.004 A 
HETATM   16  C23 UNL     1      -5.246  48.287 -24.043  1.00  0.00     0.030 A 
HETATM   17  C18 UNL     1      -2.447  50.422 -25.024  1.00  0.00     0.022 A 
HETATM   18  C20 UNL     1      -4.083  49.017 -26.515  1.00  0.00     0.014 A 
HETATM   19  C17 UNL     1      -1.473  51.212 -25.648  1.00  0.00     0.057 A 
HETATM   20  C25 UNL     1      -2.414  50.502 -23.655  1.00  0.00     0.077 A 
HETATM   21  C16 UNL     1      -0.529  52.057 -24.964  1.00  0.00     0.020 A 
HETATM   22  C27 UNL     1      -1.245  51.392 -27.087  1.00  0.00     0.255 C 
HETATM   23  C15 UNL     1      -0.472  52.157 -23.555  1.00  0.00     0.017 A 
HETATM   24  C28 UNL     1       0.278  52.784 -26.000  1.00  0.00     0.257 C 
HETATM   25  C14 UNL     1       0.276  52.870 -22.574  1.00  0.00     0.004 A 
HETATM   26  C26 UNL     1      -1.375  51.388 -22.855  1.00  0.00     0.077 A 
HETATM   27  C9  UNL     1      -0.188  52.488 -21.299  1.00  0.00     0.049 A 
HETATM   28  C13 UNL     1       1.324  53.813 -22.661  1.00  0.00     0.014 A 
HETATM   29  N2  UNL     1      -1.185  51.529 -21.483  1.00  0.00    -0.308 N 
HETATM   30  C10 UNL     1       0.368  53.041 -20.131  1.00  0.00     0.030 A 
HETATM   31  C11 UNL     1       1.396  53.980 -20.251  1.00  0.00     0.002 A 
HETATM   32  C12 UNL     1       1.874  54.360 -21.499  1.00  0.00     0.001 A 
HETATM   33  N4  UNL     1      -0.158  52.229 -27.236  1.00  0.00    -0.326 N 
HETATM   34  H24 UNL     1       0.017  52.650 -28.137  1.00  0.00     0.165 HD
HETATM   35  O3  UNL     1      -1.891  50.925 -28.004  1.00  0.00    -0.268 OA
HETATM   36  C21 UNL     1      -5.187  48.159 -26.467  1.00  0.00     0.001 A 
HETATM   37  C22 UNL     1      -5.758  47.803 -25.249  1.00  0.00     0.002 A 
BRANCH  24  38
HETATM   38  O4  UNL     1       1.647  52.509 -25.901  1.00  0.00    -0.372 OA
HETATM   39  H26 UNL     1       1.801  51.832 -26.585  1.00  0.00     0.212 HD
ENDBRANCH  24  38
ENDBRANCH   3  13
TORSDOF 5
ENDMDL
MODEL 9
REMARK minimizedAffinity -10.6968126
REMARK  5 active torsions:
REMARK  status: ('A' for Active; 'I' for Inactive)
REMARK    1  A    between atoms: N1_2  and  C2_3 
REMARK    2  A    between atoms: C4_5  and  N3_29 
REMARK    3  A    between atoms: C5_7  and  N2_12 
REMARK    4  A    between atoms: C7_9  and  O2_10 
REMARK    5  A    between atoms: C28_35  and  O4_36 
ROOT
HETATM    1  C2  UNL     1      -0.480  50.113 -19.752  1.00  0.00     0.257 C 
HETATM    2  C3  UNL     1      -0.741  49.405 -21.146  1.00  0.00     0.092 C 
HETATM    3  C4  UNL     1      -1.053  50.539 -22.088  1.00  0.00     0.234 C 
HETATM    4  O1  UNL     1      -0.038  51.514 -21.813  1.00  0.00    -0.333 OA
HETATM    5  C5  UNL     1      -0.556  52.465 -20.863  1.00  0.00     0.168 C 
HETATM    6  C6  UNL     1       0.724  53.192 -20.404  1.00  0.00     0.074 C 
HETATM    7  C7  UNL     1      -1.143  51.590 -19.647  1.00  0.00     0.209 C 
ENDROOT
BRANCH   1   8
HETATM    8  N1  UNL     1      -0.677  49.186 -18.619  1.00  0.00     0.086 N 
HETATM    9  C1  UNL     1      -0.032  49.582 -17.377  1.00  0.00     0.307 C 
HETATM   10  H4  UNL     1      -1.678  49.077 -18.450  1.00  0.00     0.316 HD
ENDBRANCH   1   8
BRANCH   7  11
HETATM   11  O2  UNL     1      -2.572  51.417 -19.712  1.00  0.00    -0.384 OA
HETATM   12  C8  UNL     1      -3.168  50.990 -18.496  1.00  0.00     0.202 C 
ENDBRANCH   7  11
BRANCH   3  13
HETATM   13  N3  UNL     1      -1.274  50.661 -23.485  1.00  0.00    -0.316 N 
HETATM   14  C24 UNL     1      -0.560  51.143 -24.539  1.00  0.00     0.048 A 
HETATM   15  C19 UNL     1      -1.270  50.769 -25.706  1.00  0.00     0.004 A 
HETATM   16  C23 UNL     1       0.644  51.860 -24.589  1.00  0.00     0.030 A 
HETATM   17  C18 UNL     1      -2.435  50.028 -25.306  1.00  0.00     0.022 A 
HETATM   18  C20 UNL     1      -0.730  51.145 -26.955  1.00  0.00     0.014 A 
HETATM   19  C17 UNL     1      -3.528  49.329 -25.834  1.00  0.00     0.057 A 
HETATM   20  C25 UNL     1      -2.402  50.026 -23.935  1.00  0.00     0.077 A 
HETATM   21  C16 UNL     1      -4.526  48.642 -25.056  1.00  0.00     0.020 A 
HETATM   22  C27 UNL     1      -3.855  49.102 -27.247  1.00  0.00     0.255 C 
HETATM   23  C15 UNL     1      -4.516  48.624 -23.643  1.00  0.00     0.017 A 
HETATM   24  C28 UNL     1      -5.468  47.963 -26.007  1.00  0.00     0.257 C 
HETATM   25  C14 UNL     1      -5.288  48.059 -22.587  1.00  0.00     0.004 A 
HETATM   26  C26 UNL     1      -3.492  49.315 -23.034  1.00  0.00     0.077 A 
HETATM   27  C9  UNL     1      -4.712  48.451 -21.360  1.00  0.00     0.049 A 
HETATM   28  C13 UNL     1      -6.443  47.246 -22.566  1.00  0.00     0.014 A 
HETATM   29  N2  UNL     1      -3.622  49.271 -21.648  1.00  0.00    -0.308 N 
HETATM   30  C10 UNL     1      -5.265  48.031 -20.136  1.00  0.00     0.030 A 
HETATM   31  C11 UNL     1      -6.401  47.217 -20.150  1.00  0.00     0.002 A 
HETATM   32  C12 UNL     1      -6.988  46.832 -21.348  1.00  0.00     0.001 A 
HETATM   33  N4  UNL     1      -5.038  48.395 -27.294  1.00  0.00    -0.326 N 
HETATM   34  H24 UNL     1      -5.311  47.951 -28.159  1.00  0.00     0.165 HD
HETATM   35  O3  UNL     1      -3.210  49.438 -28.220  1.00  0.00    -0.268 OA
HETATM   36  C21 UNL     1       0.468  51.865 -27.011  1.00  0.00     0.001 A 
HETATM   37  C22 UNL     1       1.143  52.215 -25.845  1.00  0.00     0.002 A 
BRANCH  24  38
HETATM   38  O4  UNL     1      -6.788  48.406 -25.859  1.00  0.00    -0.372 OA
HETATM   39  H26 UNL     1      -6.898  49.059 -26.574  1.00  0.00     0.212 HD
ENDBRANCH  24  38
ENDBRANCH   3  13
TORSDOF 5
ENDMDL
