MODEL 1
REMARK minimizedAffinity -10.7005301
REMARK  5 active torsions:
REMARK  status: ('A' for Active; 'I' for Inactive)
REMARK    1  A    between atoms: C3_3  and  C4_4 
REMARK    2  A    between atoms: C4_4  and  C5_5 
REMARK       I    between atoms: C5_5  and  N1_7 
REMARK    3  A    between atoms: N1_7  and  C6_8 
REMARK    4  A    between atoms: C6_8  and  C7_9 
REMARK    5  A    between atoms: C7_9  and  C8_10 
ROOT
HETATM    1  C1  UNL     1      -2.280  49.027 -26.347  1.00  0.00     0.050 C 
HETATM    2  C2  UNL     1      -3.601  48.614 -25.748  1.00  0.00    -0.036 A 
HETATM    3  C3  UNL     1      -3.828  48.532 -24.419  1.00  0.00     0.033 A 
HETATM    4  C16 UNL     1      -5.168  48.175 -23.875  1.00  0.00     0.295 A 
HETATM    5  O2  UNL     1      -5.383  48.159 -22.664  1.00  0.00    -0.259 OA
HETATM    6  O3  UNL     1      -6.165  47.864 -24.778  1.00  0.00    -0.274 OA
HETATM    7  C17 UNL     1      -5.941  47.933 -26.160  1.00  0.00     0.093 A 
HETATM    8  C18 UNL     1      -7.030  47.619 -26.975  1.00  0.00     0.075 A 
HETATM    9  C19 UNL     1      -6.893  47.681 -28.357  1.00  0.00     0.079 A 
HETATM   10  C20 UNL     1      -5.664  48.030 -28.920  1.00  0.00    -0.024 A 
HETATM   11  C21 UNL     1      -4.583  48.348 -28.077  1.00  0.00     0.024 A 
HETATM   12  C22 UNL     1      -4.704  48.304 -26.680  1.00  0.00     0.005 A 
HETATM   13  C23 UNL     1      -5.496  48.104 -30.408  1.00  0.00     0.044 C 
HETATM   14  C24 UNL     1      -6.611  47.344 -31.109  1.00  0.00     0.042 C 
HETATM   15  C25 UNL     1      -7.979  47.666 -30.489  1.00  0.00     0.061 C 
HETATM   16  C26 UNL     1      -9.040  46.762 -31.134  1.00  0.00     0.046 C 
HETATM   17  C27 UNL     1      -8.397  49.131 -30.695  1.00  0.00     0.046 C 
HETATM   18  O4  UNL     1      -8.007  47.366 -29.082  1.00  0.00    -0.340 OA
ENDROOT
BRANCH   3  19
HETATM   19  C4  UNL     1      -2.801  48.770 -23.341  1.00  0.00     0.148 C 
BRANCH  19  20
HETATM   20  C5  UNL     1      -2.613  50.263 -23.132  1.00  0.00     0.222 C 
HETATM   21  O1  UNL     1      -3.501  50.975 -22.668  1.00  0.00    -0.273 OA
HETATM   22  N1  UNL     1      -1.377  50.737 -23.499  1.00  0.00    -0.360 N 
HETATM   23  H6  UNL     1      -0.702  50.087 -23.901  1.00  0.00     0.162 HD
BRANCH  22  24
HETATM   24  C6  UNL     1      -1.040  52.147 -23.470  1.00  0.00     0.127 C 
BRANCH  24  25
HETATM   25  C7  UNL     1       0.438  52.412 -23.157  1.00  0.00     0.060 C 
BRANCH  25  26
HETATM   26  C8  UNL     1       0.668  52.830 -21.735  1.00  0.00    -0.029 A 
HETATM   27  C9  UNL     1       1.211  54.026 -21.307  1.00  0.00     0.096 A 
HETATM   28  N2  UNL     1       1.227  54.028 -19.939  1.00  0.00    -0.365 N 
HETATM   29  C10 UNL     1       0.703  52.852 -19.455  1.00  0.00     0.043 A 
HETATM   30  H12 UNL     1       1.568  54.784 -19.361  1.00  0.00     0.165 HD
HETATM   31  C11 UNL     1       0.514  52.426 -18.135  1.00  0.00     0.032 A 
HETATM   32  C15 UNL     1       0.356  52.073 -20.559  1.00  0.00    -0.000 A 
HETATM   33  C12 UNL     1      -0.053  51.162 -17.938  1.00  0.00     0.026 A 
HETATM   34  C13 UNL     1      -0.404  50.363 -19.024  1.00  0.00     0.035 A 
HETATM   35 CL1  UNL     1      -1.107  48.816 -18.747  1.00  0.00    -0.084 Cl
HETATM   36  C14 UNL     1      -0.202  50.797 -20.336  1.00  0.00     0.038 A 
ENDBRANCH  25  26
ENDBRANCH  24  25
ENDBRANCH  22  24
ENDBRANCH  19  20
ENDBRANCH   3  19
TORSDOF 5
ENDMDL
MODEL 2
REMARK minimizedAffinity -10.3470297
REMARK  5 active torsions:
REMARK  status: ('A' for Active; 'I' for Inactive)
REMARK    1  A    between atoms: C3_3  and  C4_4 
REMARK    2  A    between atoms: C4_4  and  C5_5 
REMARK       I    between atoms: C5_5  and  N1_7 
REMARK    3  A    between atoms: N1_7  and  C6_8 
REMARK    4  A    between atoms: C6_8  and  C7_9 
REMARK    5  A    between atoms: C7_9  and  C8_10 
ROOT
HETATM    1  C1  UNL     1      -2.551  48.609 -26.551  1.00  0.00     0.050 C 
HETATM    2  C2  UNL     1      -3.866  48.411 -25.839  1.00  0.00    -0.036 A 
HETATM    3  C3  UNL     1      -4.017  48.512 -24.500  1.00  0.00     0.033 A 
HETATM    4  C16 UNL     1      -5.348  48.366 -23.850  1.00  0.00     0.295 A 
HETATM    5  O2  UNL     1      -5.488  48.517 -22.638  1.00  0.00    -0.259 OA
HETATM    6  O3  UNL     1      -6.426  48.055 -24.656  1.00  0.00    -0.274 OA
HETATM    7  C17 UNL     1      -6.283  47.934 -26.045  1.00  0.00     0.093 A 
HETATM    8  C18 UNL     1      -7.446  47.641 -26.759  1.00  0.00     0.075 A 
HETATM    9  C19 UNL     1      -7.391  47.522 -28.143  1.00  0.00     0.079 A 
HETATM   10  C20 UNL     1      -6.171  47.671 -28.806  1.00  0.00    -0.024 A 
HETATM   11  C21 UNL     1      -5.013  47.972 -28.064  1.00  0.00     0.024 A 
HETATM   12  C22 UNL     1      -5.051  48.109 -26.668  1.00  0.00     0.005 A 
HETATM   13  C23 UNL     1      -6.090  47.548 -30.299  1.00  0.00     0.044 C 
HETATM   14  C24 UNL     1      -7.316  46.832 -30.842  1.00  0.00     0.042 C 
HETATM   15  C25 UNL     1      -8.604  47.367 -30.199  1.00  0.00     0.061 C 
HETATM   16  C26 UNL     1      -9.787  46.509 -30.672  1.00  0.00     0.046 C 
HETATM   17  C27 UNL     1      -8.889  48.832 -30.566  1.00  0.00     0.046 C 
HETATM   18  O4  UNL     1      -8.574  47.242 -28.766  1.00  0.00    -0.340 OA
ENDROOT
BRANCH   3  19
HETATM   19  C4  UNL     1      -2.906  48.769 -23.514  1.00  0.00     0.148 C 
BRANCH  19  20
HETATM   20  C5  UNL     1      -2.633  50.261 -23.424  1.00  0.00     0.222 C 
HETATM   21  O1  UNL     1      -3.211  50.983 -22.616  1.00  0.00    -0.273 OA
HETATM   22  N1  UNL     1      -1.692  50.719 -24.313  1.00  0.00    -0.360 N 
HETATM   23  H6  UNL     1      -1.275  50.061 -24.970  1.00  0.00     0.162 HD
BRANCH  22  24
HETATM   24  C6  UNL     1      -1.367  52.126 -24.451  1.00  0.00     0.127 C 
BRANCH  24  25
HETATM   25  C7  UNL     1       0.139  52.395 -24.554  1.00  0.00     0.060 C 
BRANCH  25  26
HETATM   26  C8  UNL     1       0.672  53.185 -23.396  1.00  0.00    -0.029 A 
HETATM   27  C9  UNL     1       1.327  54.400 -23.461  1.00  0.00     0.096 A 
HETATM   28  N2  UNL     1       1.627  54.797 -22.187  1.00  0.00    -0.365 N 
HETATM   29  C10 UNL     1       1.182  53.864 -21.280  1.00  0.00     0.043 A 
HETATM   30  H12 UNL     1       2.103  55.654 -21.940  1.00  0.00     0.165 HD
HETATM   31  C11 UNL     1       1.260  53.858 -19.882  1.00  0.00     0.032 A 
HETATM   32  C15 UNL     1       0.590  52.833 -22.009  1.00  0.00    -0.000 A 
HETATM   33  C12 UNL     1       0.710  52.762 -19.208  1.00  0.00     0.026 A 
HETATM   34  C13 UNL     1       0.118  51.717 -19.914  1.00  0.00     0.035 A 
HETATM   35 CL1  UNL     1      -0.558  50.387 -19.054  1.00  0.00    -0.084 Cl
HETATM   36  C14 UNL     1       0.054  51.732 -21.309  1.00  0.00     0.038 A 
ENDBRANCH  25  26
ENDBRANCH  24  25
ENDBRANCH  22  24
ENDBRANCH  19  20
ENDBRANCH   3  19
TORSDOF 5
ENDMDL
MODEL 3
REMARK minimizedAffinity -10.2474461
REMARK  5 active torsions:
REMARK  status: ('A' for Active; 'I' for Inactive)
REMARK    1  A    between atoms: C3_3  and  C4_4 
REMARK    2  A    between atoms: C4_4  and  C5_5 
REMARK       I    between atoms: C5_5  and  N1_7 
REMARK    3  A    between atoms: N1_7  and  C6_8 
REMARK    4  A    between atoms: C6_8  and  C7_9 
REMARK    5  A    between atoms: C7_9  and  C8_10 
ROOT
HETATM    1  C1  UNL     1      -2.811  48.833 -25.972  1.00  0.00     0.050 C 
HETATM    2  C2  UNL     1      -4.189  48.381 -25.557  1.00  0.00    -0.036 A 
HETATM    3  C3  UNL     1      -4.561  48.195 -24.272  1.00  0.00     0.033 A 
HETATM    4  C16 UNL     1      -5.952  47.804 -23.909  1.00  0.00     0.295 A 
HETATM    5  O2  UNL     1      -6.300  47.693 -22.735  1.00  0.00    -0.259 OA
HETATM    6  O3  UNL     1      -6.842  47.571 -24.938  1.00  0.00    -0.274 OA
HETATM    7  C17 UNL     1      -6.468  47.748 -26.278  1.00  0.00     0.093 A 
HETATM    8  C18 UNL     1      -7.458  47.506 -27.231  1.00  0.00     0.075 A 
HETATM    9  C19 UNL     1      -7.170  47.676 -28.579  1.00  0.00     0.079 A 
HETATM   10  C20 UNL     1      -5.888  48.061 -28.974  1.00  0.00    -0.024 A 
HETATM   11  C21 UNL     1      -4.907  48.305 -27.994  1.00  0.00     0.024 A 
HETATM   12  C22 UNL     1      -5.182  48.152 -26.627  1.00  0.00     0.005 A 
HETATM   13  C23 UNL     1      -5.556  48.252 -30.424  1.00  0.00     0.044 C 
HETATM   14  C24 UNL     1      -6.585  47.556 -31.302  1.00  0.00     0.042 C 
HETATM   15  C25 UNL     1      -8.014  47.836 -30.813  1.00  0.00     0.061 C 
HETATM   16  C26 UNL     1      -8.994  46.992 -31.640  1.00  0.00     0.046 C 
HETATM   17  C27 UNL     1      -8.411  49.315 -30.947  1.00  0.00     0.046 C 
HETATM   18  O4  UNL     1      -8.197  47.425 -29.445  1.00  0.00    -0.340 OA
ENDROOT
BRANCH   3  19
HETATM   19  C4  UNL     1      -3.660  48.342 -23.072  1.00  0.00     0.148 C 
BRANCH  19  20
HETATM   20  C5  UNL     1      -3.604  49.799 -22.647  1.00  0.00     0.222 C 
HETATM   21  O1  UNL     1      -4.589  50.532 -22.694  1.00  0.00    -0.273 OA
HETATM   22  N1  UNL     1      -2.370  50.215 -22.208  1.00  0.00    -0.360 N 
HETATM   23  H6  UNL     1      -1.596  49.553 -22.224  1.00  0.00     0.162 HD
BRANCH  22  24
HETATM   24  C6  UNL     1      -2.090  51.593 -21.856  1.00  0.00     0.127 C 
BRANCH  24  25
HETATM   25  C7  UNL     1      -1.035  52.248 -22.756  1.00  0.00     0.060 C 
BRANCH  25  26
HETATM   26  C8  UNL     1      -1.470  52.350 -24.187  1.00  0.00    -0.029 A 
HETATM   27  C9  UNL     1      -2.745  52.627 -24.642  1.00  0.00     0.096 A 
HETATM   28  N2  UNL     1      -2.719  52.655 -26.009  1.00  0.00    -0.365 N 
HETATM   29  C10 UNL     1      -1.448  52.401 -26.467  1.00  0.00     0.043 A 
HETATM   30  H12 UNL     1      -3.516  52.842 -26.603  1.00  0.00     0.165 HD
HETATM   31  C11 UNL     1      -0.957  52.342 -27.777  1.00  0.00     0.032 A 
HETATM   32  C15 UNL     1      -0.643  52.191 -25.347  1.00  0.00    -0.000 A 
HETATM   33  C12 UNL     1       0.403  52.063 -27.946  1.00  0.00     0.026 A 
HETATM   34  C13 UNL     1       1.227  51.845 -26.844  1.00  0.00     0.035 A 
HETATM   35 CL1  UNL     1       2.899  51.511 -27.086  1.00  0.00    -0.084 Cl
HETATM   36  C14 UNL     1       0.723  51.899 -25.542  1.00  0.00     0.038 A 
ENDBRANCH  25  26
ENDBRANCH  24  25
ENDBRANCH  22  24
ENDBRANCH  19  20
ENDBRANCH   3  19
TORSDOF 5
ENDMDL
MODEL 4
REMARK minimizedAffinity -10.2009335
REMARK  5 active torsions:
REMARK  status: ('A' for Active; 'I' for Inactive)
REMARK    1  A    between atoms: C3_3  and  C4_4 
REMARK    2  A    between atoms: C4_4  and  C5_5 
REMARK       I    between atoms: C5_5  and  N1_7 
REMARK    3  A    between atoms: N1_7  and  C6_8 
REMARK    4  A    between atoms: C6_8  and  C7_9 
REMARK    5  A    between atoms: C7_9  and  C8_10 
ROOT
HETATM    1  C1  UNL     1      -5.651  48.074 -24.046  1.00  0.00     0.050 C 
HETATM    2  C2  UNL     1      -4.820  48.360 -25.271  1.00  0.00    -0.036 A 
HETATM    3  C3  UNL     1      -3.548  48.813 -25.226  1.00  0.00     0.033 A 
HETATM    4  C16 UNL     1      -2.748  49.025 -26.464  1.00  0.00     0.295 A 
HETATM    5  O2  UNL     1      -1.573  49.382 -26.413  1.00  0.00    -0.259 OA
HETATM    6  O3  UNL     1      -3.372  48.806 -27.676  1.00  0.00    -0.274 OA
HETATM    7  C17 UNL     1      -4.696  48.348 -27.740  1.00  0.00     0.093 A 
HETATM    8  C18 UNL     1      -5.213  48.140 -29.020  1.00  0.00     0.075 A 
HETATM    9  C19 UNL     1      -6.512  47.670 -29.167  1.00  0.00     0.079 A 
HETATM   10  C20 UNL     1      -7.300  47.434 -28.039  1.00  0.00    -0.024 A 
HETATM   11  C21 UNL     1      -6.753  47.646 -26.758  1.00  0.00     0.024 A 
HETATM   12  C22 UNL     1      -5.440  48.108 -26.588  1.00  0.00     0.005 A 
HETATM   13  C23 UNL     1      -8.704  46.925 -28.175  1.00  0.00     0.044 C 
HETATM   14  C24 UNL     1      -9.220  47.159 -29.586  1.00  0.00     0.042 C 
HETATM   15  C25 UNL     1      -8.170  46.764 -30.635  1.00  0.00     0.061 C 
HETATM   16  C26 UNL     1      -8.687  47.161 -32.026  1.00  0.00     0.046 C 
HETATM   17  C27 UNL     1      -7.869  45.257 -30.640  1.00  0.00     0.046 C 
HETATM   18  O4  UNL     1      -6.939  47.486 -30.452  1.00  0.00    -0.340 OA
ENDROOT
BRANCH   3  19
HETATM   19  C4  UNL     1      -2.790  49.162 -23.970  1.00  0.00     0.148 C 
BRANCH  19  20
HETATM   20  C5  UNL     1      -2.569  50.663 -23.904  1.00  0.00     0.222 C 
HETATM   21  O1  UNL     1      -3.499  51.464 -23.966  1.00  0.00    -0.273 OA
HETATM   22  N1  UNL     1      -1.254  51.037 -23.766  1.00  0.00    -0.360 N 
HETATM   23  H6  UNL     1      -0.538  50.313 -23.748  1.00  0.00     0.162 HD
BRANCH  22  24
HETATM   24  C6  UNL     1      -0.830  52.424 -23.785  1.00  0.00     0.127 C 
BRANCH  24  25
HETATM   25  C7  UNL     1       0.607  52.627 -23.292  1.00  0.00     0.060 C 
BRANCH  25  26
HETATM   26  C8  UNL     1       0.686  52.900 -21.819  1.00  0.00    -0.029 A 
HETATM   27  C9  UNL     1       1.121  54.068 -21.222  1.00  0.00     0.096 A 
HETATM   28  N2  UNL     1       1.015  53.924 -19.865  1.00  0.00    -0.365 N 
HETATM   29  C10 UNL     1       0.517  52.680 -19.556  1.00  0.00     0.043 A 
HETATM   30  H12 UNL     1       1.260  54.629 -19.183  1.00  0.00     0.165 HD
HETATM   31  C11 UNL     1       0.235  52.106 -18.310  1.00  0.00     0.032 A 
HETATM   32  C15 UNL     1       0.313  52.009 -20.762  1.00  0.00    -0.000 A 
HETATM   33  C12 UNL     1      -0.275  50.804 -18.298  1.00  0.00     0.026 A 
HETATM   34  C13 UNL     1      -0.483  50.110 -19.488  1.00  0.00     0.035 A 
HETATM   35 CL1  UNL     1      -1.121  48.511 -19.438  1.00  0.00    -0.084 Cl
HETATM   36  C14 UNL     1      -0.190  50.692 -20.724  1.00  0.00     0.038 A 
ENDBRANCH  25  26
ENDBRANCH  24  25
ENDBRANCH  22  24
ENDBRANCH  19  20
ENDBRANCH   3  19
TORSDOF 5
ENDMDL
MODEL 5
REMARK minimizedAffinity -10.1927919
REMARK  5 active torsions:
REMARK  status: ('A' for Active; 'I' for Inactive)
REMARK    1  A    between atoms: C3_3  and  C4_4 
REMARK    2  A    between atoms: C4_4  and  C5_5 
REMARK       I    between atoms: C5_5  and  N1_7 
REMARK    3  A    between atoms: N1_7  and  C6_8 
REMARK    4  A    between atoms: C6_8  and  C7_9 
REMARK    5  A    between atoms: C7_9  and  C8_10 
ROOT
HETATM    1  C1  UNL     1      -2.470  48.811 -26.420  1.00  0.00     0.050 C 
HETATM    2  C2  UNL     1      -3.813  48.448 -25.836  1.00  0.00    -0.036 A 
HETATM    3  C3  UNL     1      -4.049  48.338 -24.511  1.00  0.00     0.033 A 
HETATM    4  C16 UNL     1      -5.408  48.034 -23.981  1.00  0.00     0.295 A 
HETATM    5  O2  UNL     1      -5.629  47.993 -22.772  1.00  0.00    -0.259 OA
HETATM    6  O3  UNL     1      -6.415  47.800 -24.895  1.00  0.00    -0.274 OA
HETATM    7  C17 UNL     1      -6.183  47.899 -26.275  1.00  0.00     0.093 A 
HETATM    8  C18 UNL     1      -7.283  47.664 -27.101  1.00  0.00     0.075 A 
HETATM    9  C19 UNL     1      -7.138  47.759 -28.480  1.00  0.00     0.079 A 
HETATM   10  C20 UNL     1      -5.890  48.062 -29.030  1.00  0.00    -0.024 A 
HETATM   11  C21 UNL     1      -4.798  48.300 -28.174  1.00  0.00     0.024 A 
HETATM   12  C22 UNL     1      -4.927  48.221 -26.780  1.00  0.00     0.005 A 
HETATM   13  C23 UNL     1      -5.712  48.172 -30.515  1.00  0.00     0.044 C 
HETATM   14  C24 UNL     1      -6.862  47.490 -31.241  1.00  0.00     0.042 C 
HETATM   15  C25 UNL     1      -8.214  47.863 -30.615  1.00  0.00     0.061 C 
HETATM   16  C26 UNL     1      -9.317  47.033 -31.289  1.00  0.00     0.046 C 
HETATM   17  C27 UNL     1      -8.557  49.352 -30.778  1.00  0.00     0.046 C 
HETATM   18  O4  UNL     1      -8.263  47.523 -29.217  1.00  0.00    -0.340 OA
ENDROOT
BRANCH   3  19
HETATM   19  C4  UNL     1      -3.016  48.492 -23.424  1.00  0.00     0.148 C 
BRANCH  19  20
HETATM   20  C5  UNL     1      -3.101  49.887 -22.828  1.00  0.00     0.222 C 
HETATM   21  O1  UNL     1      -3.487  50.854 -23.482  1.00  0.00    -0.273 OA
HETATM   22  N1  UNL     1      -2.717  49.967 -21.512  1.00  0.00    -0.360 N 
HETATM   23  H6  UNL     1      -2.385  49.124 -21.046  1.00  0.00     0.162 HD
BRANCH  22  24
HETATM   24  C6  UNL     1      -2.633  51.226 -20.797  1.00  0.00     0.127 C 
BRANCH  24  25
HETATM   25  C7  UNL     1      -1.594  51.216 -19.669  1.00  0.00     0.060 C 
BRANCH  25  26
HETATM   26  C8  UNL     1      -0.529  52.257 -19.847  1.00  0.00    -0.029 A 
HETATM   27  C9  UNL     1       0.172  52.896 -18.842  1.00  0.00     0.096 A 
HETATM   28  N2  UNL     1       1.068  53.753 -19.420  1.00  0.00    -0.365 N 
HETATM   29  C10 UNL     1       0.971  53.693 -20.790  1.00  0.00     0.043 A 
HETATM   30  H12 UNL     1       1.716  54.345 -18.917  1.00  0.00     0.165 HD
HETATM   31  C11 UNL     1       1.691  54.378 -21.776  1.00  0.00     0.032 A 
HETATM   32  C15 UNL     1      -0.033  52.772 -21.089  1.00  0.00    -0.000 A 
HETATM   33  C12 UNL     1       1.375  54.110 -23.112  1.00  0.00     0.026 A 
HETATM   34  C13 UNL     1       0.373  53.199 -23.437  1.00  0.00     0.035 A 
HETATM   35 CL1  UNL     1       0.014  52.884 -25.092  1.00  0.00    -0.084 Cl
HETATM   36  C14 UNL     1      -0.343  52.527 -22.443  1.00  0.00     0.038 A 
ENDBRANCH  25  26
ENDBRANCH  24  25
ENDBRANCH  22  24
ENDBRANCH  19  20
ENDBRANCH   3  19
TORSDOF 5
ENDMDL
MODEL 6
REMARK minimizedAffinity -10.1250229
REMARK  5 active torsions:
REMARK  status: ('A' for Active; 'I' for Inactive)
REMARK    1  A    between atoms: C3_3  and  C4_4 
REMARK    2  A    between atoms: C4_4  and  C5_5 
REMARK       I    between atoms: C5_5  and  N1_7 
REMARK    3  A    between atoms: N1_7  and  C6_8 
REMARK    4  A    between atoms: C6_8  and  C7_9 
REMARK    5  A    between atoms: C7_9  and  C8_10 
ROOT
HETATM    1  C1  UNL     1      -0.697  49.910 -20.694  1.00  0.00     0.050 C 
HETATM    2  C2  UNL     1       0.005  51.163 -20.237  1.00  0.00    -0.036 A 
HETATM    3  C3  UNL     1       0.380  52.159 -21.070  1.00  0.00     0.033 A 
HETATM    4  C16 UNL     1       1.020  53.404 -20.562  1.00  0.00     0.295 A 
HETATM    5  O2  UNL     1       1.306  54.331 -21.317  1.00  0.00    -0.259 OA
HETATM    6  O3  UNL     1       1.281  53.486 -19.208  1.00  0.00    -0.274 OA
HETATM    7  C17 UNL     1       0.909  52.455 -18.333  1.00  0.00     0.093 A 
HETATM    8  C18 UNL     1       1.203  52.659 -16.984  1.00  0.00     0.075 A 
HETATM    9  C19 UNL     1       0.851  51.691 -16.050  1.00  0.00     0.079 A 
HETATM   10  C20 UNL     1       0.230  50.513 -16.470  1.00  0.00    -0.024 A 
HETATM   11  C21 UNL     1      -0.062  50.334 -17.836  1.00  0.00     0.024 A 
HETATM   12  C22 UNL     1       0.275  51.304 -18.791  1.00  0.00     0.005 A 
HETATM   13  C23 UNL     1      -0.160  49.457 -15.479  1.00  0.00     0.044 C 
HETATM   14  C24 UNL     1       0.593  49.649 -14.172  1.00  0.00     0.042 C 
HETATM   15  C25 UNL     1       0.592  51.123 -13.741  1.00  0.00     0.061 C 
HETATM   16  C26 UNL     1       1.489  51.276 -12.503  1.00  0.00     0.046 C 
HETATM   17  C27 UNL     1      -0.811  51.642 -13.392  1.00  0.00     0.046 C 
HETATM   18  O4  UNL     1       1.167  51.971 -14.751  1.00  0.00    -0.340 OA
ENDROOT
BRANCH   3  19
HETATM   19  C4  UNL     1       0.220  52.150 -22.569  1.00  0.00     0.148 C 
BRANCH  19  20
HETATM   20  C5  UNL     1      -1.195  51.733 -22.932  1.00  0.00     0.222 C 
HETATM   21  O1  UNL     1      -2.170  52.435 -22.671  1.00  0.00    -0.273 OA
HETATM   22  N1  UNL     1      -1.283  50.521 -23.572  1.00  0.00    -0.360 N 
HETATM   23  H6  UNL     1      -0.430  49.987 -23.729  1.00  0.00     0.162 HD
BRANCH  22  24
HETATM   24  C6  UNL     1      -2.552  49.905 -23.908  1.00  0.00     0.127 C 
BRANCH  24  25
HETATM   25  C7  UNL     1      -2.575  49.290 -25.313  1.00  0.00     0.060 C 
BRANCH  25  26
HETATM   26  C8  UNL     1      -2.345  50.301 -26.397  1.00  0.00    -0.029 A 
HETATM   27  C9  UNL     1      -3.309  50.884 -27.197  1.00  0.00     0.096 A 
HETATM   28  N2  UNL     1      -2.694  51.768 -28.040  1.00  0.00    -0.365 N 
HETATM   29  C10 UNL     1      -1.338  51.780 -27.811  1.00  0.00     0.043 A 
HETATM   30  H12 UNL     1      -3.164  52.339 -28.730  1.00  0.00     0.165 HD
HETATM   31  C11 UNL     1      -0.327  52.530 -28.424  1.00  0.00     0.032 A 
HETATM   32  C15 UNL     1      -1.086  50.858 -26.794  1.00  0.00    -0.000 A 
HETATM   33  C12 UNL     1       0.984  52.334 -27.979  1.00  0.00     0.026 A 
HETATM   34  C13 UNL     1       1.263  51.416 -26.969  1.00  0.00     0.035 A 
HETATM   35 CL1  UNL     1       2.888  51.205 -26.438  1.00  0.00    -0.084 Cl
HETATM   36  C14 UNL     1       0.246  50.668 -26.371  1.00  0.00     0.038 A 
ENDBRANCH  25  26
ENDBRANCH  24  25
ENDBRANCH  22  24
ENDBRANCH  19  20
ENDBRANCH   3  19
TORSDOF 5
ENDMDL
MODEL 7
REMARK minimizedAffinity -10.088418
REMARK  5 active torsions:
REMARK  status: ('A' for Active; 'I' for Inactive)
REMARK    1  A    between atoms: C3_3  and  C4_4 
REMARK    2  A    between atoms: C4_4  and  C5_5 
REMARK       I    between atoms: C5_5  and  N1_7 
REMARK    3  A    between atoms: N1_7  and  C6_8 
REMARK    4  A    between atoms: C6_8  and  C7_9 
REMARK    5  A    between atoms: C7_9  and  C8_10 
ROOT
HETATM    1  C1  UNL     1      -0.572  50.666 -22.934  1.00  0.00     0.050 C 
HETATM    2  C2  UNL     1       0.039  51.758 -22.093  1.00  0.00    -0.036 A 
HETATM    3  C3  UNL     1       0.566  52.892 -22.604  1.00  0.00     0.033 A 
HETATM    4  C16 UNL     1       1.106  53.968 -21.727  1.00  0.00     0.295 A 
HETATM    5  O2  UNL     1       1.532  55.022 -22.196  1.00  0.00    -0.259 OA
HETATM    6  O3  UNL     1       1.112  53.744 -20.365  1.00  0.00    -0.274 OA
HETATM    7  C17 UNL     1       0.580  52.567 -19.820  1.00  0.00     0.093 A 
HETATM    8  C18 UNL     1       0.619  52.461 -18.428  1.00  0.00     0.075 A 
HETATM    9  C19 UNL     1       0.095  51.332 -17.811  1.00  0.00     0.079 A 
HETATM   10  C20 UNL     1      -0.442  50.301 -18.584  1.00  0.00    -0.024 A 
HETATM   11  C21 UNL     1      -0.476  50.434 -19.986  1.00  0.00     0.024 A 
HETATM   12  C22 UNL     1       0.036  51.572 -20.627  1.00  0.00     0.005 A 
HETATM   13  C23 UNL     1      -1.015  49.075 -17.938  1.00  0.00     0.044 C 
HETATM   14  C24 UNL     1      -0.517  48.946 -16.507  1.00  0.00     0.042 C 
HETATM   15  C25 UNL     1      -0.590  50.291 -15.768  1.00  0.00     0.061 C 
HETATM   16  C26 UNL     1       0.062  50.132 -14.387  1.00  0.00     0.046 C 
HETATM   17  C27 UNL     1      -2.032  50.786 -15.572  1.00  0.00     0.046 C 
HETATM   18  O4  UNL     1       0.166  51.310 -16.447  1.00  0.00    -0.340 OA
ENDROOT
BRANCH   3  19
HETATM   19  C4  UNL     1       0.687  53.214 -24.072  1.00  0.00     0.148 C 
BRANCH  19  20
HETATM   20  C5  UNL     1      -0.587  52.810 -24.793  1.00  0.00     0.222 C 
HETATM   21  O1  UNL     1      -1.685  53.272 -24.489  1.00  0.00    -0.273 OA
HETATM   22  N1  UNL     1      -0.402  51.897 -25.802  1.00  0.00    -0.360 N 
HETATM   23  H6  UNL     1       0.536  51.541 -25.976  1.00  0.00     0.162 HD
BRANCH  22  24
HETATM   24  C6  UNL     1      -1.506  51.313 -26.540  1.00  0.00     0.127 C 
BRANCH  24  25
HETATM   25  C7  UNL     1      -1.588  49.787 -26.406  1.00  0.00     0.060 C 
BRANCH  25  26
HETATM   26  C8  UNL     1      -2.996  49.273 -26.427  1.00  0.00    -0.029 A 
HETATM   27  C9  UNL     1      -3.793  49.103 -27.543  1.00  0.00     0.096 A 
HETATM   28  N2  UNL     1      -4.995  48.590 -27.141  1.00  0.00    -0.365 N 
HETATM   29  C10 UNL     1      -5.008  48.419 -25.777  1.00  0.00     0.043 A 
HETATM   30  H12 UNL     1      -5.766  48.362 -27.754  1.00  0.00     0.165 HD
HETATM   31  C11 UNL     1      -6.013  47.918 -24.941  1.00  0.00     0.032 A 
HETATM   32  C15 UNL     1      -3.771  48.852 -25.298  1.00  0.00    -0.000 A 
HETATM   33  C12 UNL     1      -5.742  47.855 -23.570  1.00  0.00     0.026 A 
HETATM   34  C13 UNL     1      -4.517  48.285 -23.066  1.00  0.00     0.035 A 
HETATM   35 CL1  UNL     1      -4.212  48.186 -21.374  1.00  0.00    -0.084 Cl
HETATM   36  C14 UNL     1      -3.525  48.790 -23.910  1.00  0.00     0.038 A 
ENDBRANCH  25  26
ENDBRANCH  24  25
ENDBRANCH  22  24
ENDBRANCH  19  20
ENDBRANCH   3  19
TORSDOF 5
ENDMDL
MODEL 8
REMARK minimizedAffinity -10.0030107
REMARK  5 active torsions:
REMARK  status: ('A' for Active; 'I' for Inactive)
REMARK    1  A    between atoms: C3_3  and  C4_4 
REMARK    2  A    between atoms: C4_4  and  C5_5 
REMARK       I    between atoms: C5_5  and  N1_7 
REMARK    3  A    between atoms: N1_7  and  C6_8 
REMARK    4  A    between atoms: C6_8  and  C7_9 
REMARK    5  A    between atoms: C7_9  and  C8_10 
ROOT
HETATM    1  C1  UNL     1      -1.432  49.070 -19.276  1.00  0.00     0.050 C 
HETATM    2  C2  UNL     1      -0.680  50.375 -19.204  1.00  0.00    -0.036 A 
HETATM    3  C3  UNL     1      -0.209  50.907 -18.055  1.00  0.00     0.033 A 
HETATM    4  C16 UNL     1       0.579  52.170 -18.043  1.00  0.00     0.295 A 
HETATM    5  O2  UNL     1       1.054  52.618 -17.001  1.00  0.00    -0.259 OA
HETATM    6  O3  UNL     1       0.762  52.824 -19.245  1.00  0.00    -0.274 OA
HETATM    7  C17 UNL     1       0.269  52.292 -20.445  1.00  0.00     0.093 A 
HETATM    8  C18 UNL     1       0.534  53.029 -21.600  1.00  0.00     0.075 A 
HETATM    9  C19 UNL     1       0.093  52.558 -22.831  1.00  0.00     0.079 A 
HETATM   10  C20 UNL     1      -0.633  51.368 -22.902  1.00  0.00    -0.024 A 
HETATM   11  C21 UNL     1      -0.882  50.639 -21.724  1.00  0.00     0.024 A 
HETATM   12  C22 UNL     1      -0.435  51.091 -20.473  1.00  0.00     0.005 A 
HETATM   13  C23 UNL     1      -1.116  50.842 -24.221  1.00  0.00     0.044 C 
HETATM   14  C24 UNL     1      -1.110  51.944 -25.269  1.00  0.00     0.042 C 
HETATM   15  C25 UNL     1       0.191  52.758 -25.213  1.00  0.00     0.061 C 
HETATM   16  C26 UNL     1       0.075  53.941 -26.185  1.00  0.00     0.046 C 
HETATM   17  C27 UNL     1       1.428  51.931 -25.598  1.00  0.00     0.046 C 
HETATM   18  O4  UNL     1       0.401  53.335 -23.912  1.00  0.00    -0.340 OA
ENDROOT
BRANCH   3  19
HETATM   19  C4  UNL     1      -0.412  50.328 -16.678  1.00  0.00     0.148 C 
BRANCH  19  20
HETATM   20  C5  UNL     1      -1.737  50.807 -16.110  1.00  0.00     0.222 C 
HETATM   21  O1  UNL     1      -2.636  51.243 -16.826  1.00  0.00    -0.273 OA
HETATM   22  N1  UNL     1      -1.839  50.705 -14.744  1.00  0.00    -0.360 N 
HETATM   23  H6  UNL     1      -1.039  50.357 -14.217  1.00  0.00     0.162 HD
BRANCH  22  24
HETATM   24  C6  UNL     1      -2.984  51.203 -14.006  1.00  0.00     0.127 C 
BRANCH  24  25
HETATM   25  C7  UNL     1      -2.865  51.001 -12.490  1.00  0.00     0.060 C 
BRANCH  25  26
HETATM   26  C8  UNL     1      -2.929  52.288 -11.723  1.00  0.00    -0.029 A 
HETATM   27  C9  UNL     1      -4.072  52.921 -11.273  1.00  0.00     0.096 A 
HETATM   28  N2  UNL     1      -3.701  54.051 -10.596  1.00  0.00    -0.365 N 
HETATM   29  C10 UNL     1      -2.332  54.175 -10.591  1.00  0.00     0.043 A 
HETATM   30  H12 UNL     1      -4.338  54.702 -10.156  1.00  0.00     0.165 HD
HETATM   31  C11 UNL     1      -1.518  55.159 -10.015  1.00  0.00     0.032 A 
HETATM   32  C15 UNL     1      -1.819  53.090 -11.303  1.00  0.00    -0.000 A 
HETATM   33  C12 UNL     1      -0.134  55.025 -10.169  1.00  0.00     0.026 A 
HETATM   34  C13 UNL     1       0.402  53.954 -10.879  1.00  0.00     0.035 A 
HETATM   35 CL1  UNL     1       2.111  53.815 -11.043  1.00  0.00    -0.084 Cl
HETATM   36  C14 UNL     1      -0.421  52.984 -11.456  1.00  0.00     0.038 A 
ENDBRANCH  25  26
ENDBRANCH  24  25
ENDBRANCH  22  24
ENDBRANCH  19  20
ENDBRANCH   3  19
TORSDOF 5
ENDMDL
MODEL 9
REMARK minimizedAffinity -9.96098042
REMARK  5 active torsions:
REMARK  status: ('A' for Active; 'I' for Inactive)
REMARK    1  A    between atoms: C3_3  and  C4_4 
REMARK    2  A    between atoms: C4_4  and  C5_5 
REMARK       I    between atoms: C5_5  and  N1_7 
REMARK    3  A    between atoms: N1_7  and  C6_8 
REMARK    4  A    between atoms: C6_8  and  C7_9 
REMARK    5  A    between atoms: C7_9  and  C8_10 
ROOT
HETATM    1  C1  UNL     1      -7.391  47.714 -25.851  1.00  0.00     0.050 C 
HETATM    2  C2  UNL     1      -6.194  47.904 -26.750  1.00  0.00    -0.036 A 
HETATM    3  C3  UNL     1      -4.949  48.166 -26.295  1.00  0.00     0.033 A 
HETATM    4  C16 UNL     1      -3.788  48.288 -27.219  1.00  0.00     0.295 A 
HETATM    5  O2  UNL     1      -2.649  48.469 -26.795  1.00  0.00    -0.259 OA
HETATM    6  O3  UNL     1      -4.034  48.189 -28.574  1.00  0.00    -0.274 OA
HETATM    7  C17 UNL     1      -5.322  47.929 -29.063  1.00  0.00     0.093 A 
HETATM    8  C18 UNL     1      -5.445  47.826 -30.449  1.00  0.00     0.075 A 
HETATM    9  C19 UNL     1      -6.687  47.553 -31.010  1.00  0.00     0.079 A 
HETATM   10  C20 UNL     1      -7.806  47.409 -30.188  1.00  0.00    -0.024 A 
HETATM   11  C21 UNL     1      -7.655  47.511 -28.792  1.00  0.00     0.024 A 
HETATM   12  C22 UNL     1      -6.408  47.774 -28.205  1.00  0.00     0.005 A 
HETATM   13  C23 UNL     1      -9.155  47.112 -30.772  1.00  0.00     0.044 C 
HETATM   14  C24 UNL     1      -9.178  47.450 -32.255  1.00  0.00     0.042 C 
HETATM   15  C25 UNL     1      -7.919  46.930 -32.964  1.00  0.00     0.061 C 
HETATM   16  C26 UNL     1      -7.928  47.428 -34.417  1.00  0.00     0.046 C 
HETATM   17  C27 UNL     1      -7.832  45.396 -32.977  1.00  0.00     0.046 C 
HETATM   18  O4  UNL     1      -6.719  47.462 -32.373  1.00  0.00    -0.340 OA
ENDROOT
BRANCH   3  19
HETATM   19  C4  UNL     1      -4.574  48.373 -24.849  1.00  0.00     0.148 C 
BRANCH  19  20
HETATM   20  C5  UNL     1      -3.667  49.586 -24.723  1.00  0.00     0.222 C 
HETATM   21  O1  UNL     1      -2.557  49.520 -24.200  1.00  0.00    -0.273 OA
HETATM   22  N1  UNL     1      -4.193  50.744 -25.243  1.00  0.00    -0.360 N 
HETATM   23  H6  UNL     1      -5.132  50.722 -25.638  1.00  0.00     0.162 HD
BRANCH  22  24
HETATM   24  C6  UNL     1      -3.524  52.026 -25.129  1.00  0.00     0.127 C 
BRANCH  24  25
HETATM   25  C7  UNL     1      -2.313  52.165 -26.060  1.00  0.00     0.060 C 
BRANCH  25  26
HETATM   26  C8  UNL     1      -1.100  52.703 -25.363  1.00  0.00    -0.029 A 
HETATM   27  C9  UNL     1      -0.058  53.399 -25.945  1.00  0.00     0.096 A 
HETATM   28  N2  UNL     1       0.837  53.735 -24.966  1.00  0.00    -0.365 N 
HETATM   29  C10 UNL     1       0.404  53.272 -23.746  1.00  0.00     0.043 A 
HETATM   30  H12 UNL     1       1.693  54.253 -25.112  1.00  0.00     0.165 HD
HETATM   31  C11 UNL     1       0.988  53.391 -22.479  1.00  0.00     0.032 A 
HETATM   32  C15 UNL     1      -0.803  52.608 -23.964  1.00  0.00    -0.000 A 
HETATM   33  C12 UNL     1       0.311  52.816 -21.398  1.00  0.00     0.026 A 
HETATM   34  C13 UNL     1      -0.894  52.143 -21.590  1.00  0.00     0.035 A 
HETATM   35 CL1  UNL     1      -1.706  51.453 -20.238  1.00  0.00    -0.084 Cl
HETATM   36  C14 UNL     1      -1.461  52.024 -22.862  1.00  0.00     0.038 A 
ENDBRANCH  25  26
ENDBRANCH  24  25
ENDBRANCH  22  24
ENDBRANCH  19  20
ENDBRANCH   3  19
TORSDOF 5
ENDMDL
