MODEL 1
REMARK minimizedAffinity -6.10135555
REMARK CNNscore 0.624033213
REMARK CNNaffinity 6.03687143
REMARK  5 active torsions:
REMARK  status: ('A' for Active; 'I' for Inactive)
REMARK    1  A    between atoms: C2_2  and  C4_4 
REMARK    2  A    between atoms: C7_7  and  C8_8 
REMARK    3  A    between atoms: C8_8  and  O2_10 
REMARK    4  A    between atoms: C11_13  and  C12_14 
REMARK    5  A    between atoms: C12_14  and  O4_16 
ROOT
HETATM    1  C4  UNL     1     -18.642  -3.862  15.789  1.00  0.00     0.019 C 
HETATM    2  C5  UNL     1     -18.035  -5.290  15.809  1.00  0.00     0.011 C 
HETATM    3  C6  UNL     1     -16.512  -5.115  15.900  1.00  0.00     0.021 C 
HETATM    4  C7  UNL     1     -16.265  -3.723  15.309  1.00  0.00     0.050 C 
HETATM    5  C9  UNL     1     -14.940  -3.075  15.714  1.00  0.00     0.022 C 
HETATM    6  C10 UNL     1     -14.894  -1.590  15.295  1.00  0.00     0.023 C 
HETATM    7  C11 UNL     1     -16.146  -0.699  15.660  1.00  0.00     0.057 C 
HETATM    8  C13 UNL     1     -17.488  -1.476  15.452  1.00  0.00     0.011 C 
HETATM    9  C14 UNL     1     -18.670  -0.693  16.033  1.00  0.00     0.007 C 
HETATM   10  C15 UNL     1     -18.604   0.822  15.820  1.00  0.00     0.006 C 
HETATM   11  C16 UNL     1     -17.688   1.284  14.664  1.00  0.00     0.003 C 
HETATM   12  C17 UNL     1     -17.788   2.870  14.357  1.00  0.00    -0.035 C 
HETATM   13  C18 UNL     1     -17.772   3.059  12.812  1.00  0.00     0.016 C 
HETATM   14  C19 UNL     1     -19.137   3.470  14.862  1.00  0.00     0.017 C 
HETATM   15  C20 UNL     1     -19.270   4.975  14.690  1.00  0.00     0.080 C 
HETATM   16  C21 UNL     1     -18.127   5.698  15.353  1.00  0.00     0.135 C 
HETATM   17  O5  UNL     1     -18.352   6.712  16.017  1.00  0.00    -0.297 OA
HETATM   18  C22 UNL     1     -16.697   5.209  15.064  1.00  0.00     0.017 C 
HETATM   19  C23 UNL     1     -16.233   5.849  13.746  1.00  0.00     0.023 C 
HETATM   20  C24 UNL     1     -15.788   5.772  16.190  1.00  0.00     0.023 C 
HETATM   21  C25 UNL     1     -16.638   3.637  15.091  1.00  0.00     0.009 C 
HETATM   22  C26 UNL     1     -15.267   3.078  14.675  1.00  0.00     0.007 C 
HETATM   23  C27 UNL     1     -15.102   1.653  15.176  1.00  0.00     0.011 C 
HETATM   24  C28 UNL     1     -16.208   0.653  14.729  1.00  0.00    -0.022 C 
HETATM   25  C29 UNL     1     -15.851   0.290  13.246  1.00  0.00     0.017 C 
HETATM   26  C30 UNL     1     -17.418  -2.931  15.963  1.00  0.00     0.018 C 
ENDROOT
BRANCH   4  27
HETATM   27  C8  UNL     1     -16.331  -3.853  13.779  1.00  0.00     0.149 C 
HETATM   28  O1  UNL     1     -17.006  -3.199  13.004  1.00  0.00    -0.649 OA
BRANCH  27  29
HETATM   29  O2  UNL     1     -15.545  -4.839  13.300  1.00  0.00    -0.776 OA
HETATM   30  H11 UNL     1     -15.705  -4.822  12.333  1.00  0.00     0.167 HD
ENDBRANCH  27  29
ENDBRANCH   4  27
BRANCH   1  31
HETATM   31  C2  UNL     1     -19.764  -3.705  16.803  1.00  0.00    -0.088 C 
HETATM   32  C1  UNL     1     -21.049  -3.662  16.408  1.00  0.00     0.014 C 
HETATM   33  C3  UNL     1     -19.416  -3.622  18.267  1.00  0.00     0.043 C 
ENDBRANCH   1  31
BRANCH   7  34
HETATM   34  C12 UNL     1     -16.020  -0.333  17.174  1.00  0.00     0.149 C 
HETATM   35  O3  UNL     1     -16.422  -0.967  18.137  1.00  0.00    -0.649 OA
BRANCH  34  36
HETATM   36  O4  UNL     1     -15.350   0.805  17.430  1.00  0.00    -0.776 OA
HETATM   37  H16 UNL     1     -15.363   0.861  18.410  1.00  0.00     0.167 HD
ENDBRANCH  34  36
ENDBRANCH   7  34
TORSDOF 5
ENDMDL
MODEL 2
REMARK minimizedAffinity -7.2054143
REMARK CNNscore 0.612847447
REMARK CNNaffinity 6.33130884
REMARK  5 active torsions:
REMARK  status: ('A' for Active; 'I' for Inactive)
REMARK    1  A    between atoms: C2_2  and  C4_4 
REMARK    2  A    between atoms: C7_7  and  C8_8 
REMARK    3  A    between atoms: C8_8  and  O2_10 
REMARK    4  A    between atoms: C11_13  and  C12_14 
REMARK    5  A    between atoms: C12_14  and  O4_16 
ROOT
HETATM    1  C4  UNL     1       1.906   7.280   8.830  1.00  0.00     0.019 C 
HETATM    2  C5  UNL     1       2.786   6.171   8.196  1.00  0.00     0.011 C 
HETATM    3  C6  UNL     1       2.723   4.967   9.147  1.00  0.00     0.021 C 
HETATM    4  C7  UNL     1       2.385   5.589  10.507  1.00  0.00     0.050 C 
HETATM    5  C9  UNL     1       1.774   4.625  11.524  1.00  0.00     0.022 C 
HETATM    6  C10 UNL     1       1.227   5.382  12.754  1.00  0.00     0.023 C 
HETATM    7  C11 UNL     1       0.311   6.638  12.476  1.00  0.00     0.057 C 
HETATM    8  C13 UNL     1       0.840   7.485  11.272  1.00  0.00     0.011 C 
HETATM    9  C14 UNL     1      -0.179   8.553  10.864  1.00  0.00     0.007 C 
HETATM   10  C15 UNL     1      -0.907   9.226  12.032  1.00  0.00     0.006 C 
HETATM   11  C16 UNL     1      -0.189   9.130  13.397  1.00  0.00     0.003 C 
HETATM   12  C17 UNL     1      -0.896  10.005  14.560  1.00  0.00    -0.035 C 
HETATM   13  C18 UNL     1       0.228  10.679  15.400  1.00  0.00     0.016 C 
HETATM   14  C19 UNL     1      -1.757  11.162  13.966  1.00  0.00     0.017 C 
HETATM   15  C20 UNL     1      -2.527  11.978  14.993  1.00  0.00     0.080 C 
HETATM   16  C21 UNL     1      -3.402  11.091  15.841  1.00  0.00     0.135 C 
HETATM   17  O5  UNL     1      -4.555  11.446  16.101  1.00  0.00    -0.297 OA
HETATM   18  C22 UNL     1      -2.774   9.830  16.458  1.00  0.00     0.017 C 
HETATM   19  C23 UNL     1      -2.067  10.242  17.760  1.00  0.00     0.023 C 
HETATM   20  C24 UNL     1      -3.942   8.886  16.852  1.00  0.00     0.023 C 
HETATM   21  C25 UNL     1      -1.854   9.104  15.408  1.00  0.00     0.009 C 
HETATM   22  C26 UNL     1      -1.086   7.912  16.002  1.00  0.00     0.007 C 
HETATM   23  C27 UNL     1      -0.625   6.975  14.898  1.00  0.00     0.011 C 
HETATM   24  C28 UNL     1       0.245   7.628  13.786  1.00  0.00    -0.022 C 
HETATM   25  C29 UNL     1       1.674   7.765  14.417  1.00  0.00     0.017 C 
HETATM   26  C30 UNL     1       1.304   6.609  10.088  1.00  0.00     0.018 C 
ENDROOT
BRANCH   4  27
HETATM   27  C8  UNL     1       3.681   6.188  11.076  1.00  0.00     0.149 C 
HETATM   28  O1  UNL     1       4.800   6.130  10.601  1.00  0.00    -0.649 OA
BRANCH  27  29
HETATM   29  O2  UNL     1       3.496   6.820  12.254  1.00  0.00    -0.776 OA
HETATM   30  H11 UNL     1       4.393   7.124  12.504  1.00  0.00     0.167 HD
ENDBRANCH  27  29
ENDBRANCH   4  27
BRANCH   1  31
HETATM   31  C2  UNL     1       0.918   7.864   7.833  1.00  0.00    -0.088 C 
HETATM   32  C1  UNL     1      -0.138   8.585   8.251  1.00  0.00     0.014 C 
HETATM   33  C3  UNL     1       1.153   7.643   6.361  1.00  0.00     0.043 C 
ENDBRANCH   1  31
BRANCH   7  34
HETATM   34  C12 UNL     1      -1.108   6.097  12.110  1.00  0.00     0.149 C 
HETATM   35  O3  UNL     1      -2.190   6.473  12.534  1.00  0.00    -0.649 OA
BRANCH  34  36
HETATM   36  O4  UNL     1      -1.122   5.122  11.182  1.00  0.00    -0.776 OA
HETATM   37  H16 UNL     1      -2.078   4.923  11.076  1.00  0.00     0.167 HD
ENDBRANCH  34  36
ENDBRANCH   7  34
TORSDOF 5
ENDMDL
MODEL 3
REMARK minimizedAffinity -7.26780605
REMARK CNNscore 0.487725407
REMARK CNNaffinity 5.84326696
REMARK  5 active torsions:
REMARK  status: ('A' for Active; 'I' for Inactive)
REMARK    1  A    between atoms: C2_2  and  C4_4 
REMARK    2  A    between atoms: C7_7  and  C8_8 
REMARK    3  A    between atoms: C8_8  and  O2_10 
REMARK    4  A    between atoms: C11_13  and  C12_14 
REMARK    5  A    between atoms: C12_14  and  O4_16 
ROOT
HETATM    1  C4  UNL     1     -13.425   8.413  12.932  1.00  0.00     0.019 C 
HETATM    2  C5  UNL     1     -13.535   9.890  12.471  1.00  0.00     0.011 C 
HETATM    3  C6  UNL     1     -14.962  10.347  12.808  1.00  0.00     0.021 C 
HETATM    4  C7  UNL     1     -15.769   9.044  12.837  1.00  0.00     0.050 C 
HETATM    5  C9  UNL     1     -17.080   9.114  13.620  1.00  0.00     0.022 C 
HETATM    6  C10 UNL     1     -17.688   7.709  13.819  1.00  0.00     0.023 C 
HETATM    7  C11 UNL     1     -16.723   6.575  14.345  1.00  0.00     0.057 C 
HETATM    8  C13 UNL     1     -15.306   6.672  13.689  1.00  0.00     0.011 C 
HETATM    9  C14 UNL     1     -14.317   5.727  14.379  1.00  0.00     0.007 C 
HETATM   10  C15 UNL     1     -14.900   4.369  14.780  1.00  0.00     0.006 C 
HETATM   11  C16 UNL     1     -16.175   3.949  14.015  1.00  0.00     0.003 C 
HETATM   12  C17 UNL     1     -16.651   2.436  14.336  1.00  0.00    -0.035 C 
HETATM   13  C18 UNL     1     -17.116   1.788  13.000  1.00  0.00     0.016 C 
HETATM   14  C19 UNL     1     -15.472   1.562  14.865  1.00  0.00     0.017 C 
HETATM   15  C20 UNL     1     -15.859   0.149  15.275  1.00  0.00     0.080 C 
HETATM   16  C21 UNL     1     -16.962   0.168  16.300  1.00  0.00     0.135 C 
HETATM   17  O5  UNL     1     -16.900  -0.589  17.273  1.00  0.00    -0.297 OA
HETATM   18  C22 UNL     1     -18.195   1.045  16.022  1.00  0.00     0.017 C 
HETATM   19  C23 UNL     1     -19.152   0.247  15.123  1.00  0.00     0.023 C 
HETATM   20  C24 UNL     1     -18.916   1.259  17.380  1.00  0.00     0.023 C 
HETATM   21  C25 UNL     1     -17.756   2.441  15.445  1.00  0.00     0.009 C 
HETATM   22  C26 UNL     1     -18.945   3.316  15.015  1.00  0.00     0.007 C 
HETATM   23  C27 UNL     1     -18.530   4.776  14.941  1.00  0.00     0.011 C 
HETATM   24  C28 UNL     1     -17.321   5.081  14.011  1.00  0.00    -0.022 C 
HETATM   25  C29 UNL     1     -17.912   5.062  12.558  1.00  0.00     0.017 C 
HETATM   26  C30 UNL     1     -14.791   8.125  13.601  1.00  0.00     0.018 C 
ENDROOT
BRANCH   4  27
HETATM   27  C8  UNL     1     -16.056   8.646  11.381  1.00  0.00     0.149 C 
HETATM   28  O1  UNL     1     -16.548   9.333  10.504  1.00  0.00    -0.649 OA
BRANCH  27  29
HETATM   29  O2  UNL     1     -15.726   7.366  11.110  1.00  0.00    -0.776 OA
HETATM   30  H11 UNL     1     -15.982   7.248  10.172  1.00  0.00     0.167 HD
ENDBRANCH  27  29
ENDBRANCH   4  27
BRANCH   1  31
HETATM   31  C2  UNL     1     -12.188   8.172  13.782  1.00  0.00    -0.088 C 
HETATM   32  C1  UNL     1     -11.693   6.931  13.941  1.00  0.00     0.014 C 
HETATM   33  C3  UNL     1     -11.507   9.350  14.429  1.00  0.00     0.043 C 
ENDBRANCH   1  31
BRANCH   7  34
HETATM   34  C12 UNL     1     -16.567   6.785  15.885  1.00  0.00     0.149 C 
HETATM   35  O3  UNL     1     -15.653   6.418  16.606  1.00  0.00    -0.649 OA
BRANCH  34  36
HETATM   36  O4  UNL     1     -17.553   7.495  16.464  1.00  0.00    -0.776 OA
HETATM   37  H16 UNL     1     -17.283   7.533  17.407  1.00  0.00     0.167 HD
ENDBRANCH  34  36
ENDBRANCH   7  34
TORSDOF 5
ENDMDL
MODEL 4
REMARK minimizedAffinity -8.15583324
REMARK CNNscore 0.483552486
REMARK CNNaffinity 6.4178834
REMARK  5 active torsions:
REMARK  status: ('A' for Active; 'I' for Inactive)
REMARK    1  A    between atoms: C2_2  and  C4_4 
REMARK    2  A    between atoms: C7_7  and  C8_8 
REMARK    3  A    between atoms: C8_8  and  O2_10 
REMARK    4  A    between atoms: C11_13  and  C12_14 
REMARK    5  A    between atoms: C12_14  and  O4_16 
ROOT
HETATM    1  C4  UNL     1       6.688  11.151  16.759  1.00  0.00     0.019 C 
HETATM    2  C5  UNL     1       8.056  11.283  17.477  1.00  0.00     0.011 C 
HETATM    3  C6  UNL     1       9.120  10.800  16.480  1.00  0.00     0.021 C 
HETATM    4  C7  UNL     1       8.350   9.861  15.545  1.00  0.00     0.050 C 
HETATM    5  C9  UNL     1       9.005   9.626  14.183  1.00  0.00     0.022 C 
HETATM    6  C10 UNL     1       8.045   8.892  13.222  1.00  0.00     0.023 C 
HETATM    7  C11 UNL     1       6.575   9.456  13.103  1.00  0.00     0.057 C 
HETATM    8  C13 UNL     1       6.014   9.905  14.493  1.00  0.00     0.011 C 
HETATM    9  C14 UNL     1       4.694  10.665  14.331  1.00  0.00     0.007 C 
HETATM   10  C15 UNL     1       3.758  10.105  13.255  1.00  0.00     0.006 C 
HETATM   11  C16 UNL     1       4.011   8.632  12.865  1.00  0.00     0.003 C 
HETATM   12  C17 UNL     1       2.891   8.028  11.866  1.00  0.00    -0.035 C 
HETATM   13  C18 UNL     1       2.580   6.572  12.321  1.00  0.00     0.016 C 
HETATM   14  C19 UNL     1       1.550   8.817  11.961  1.00  0.00     0.017 C 
HETATM   15  C20 UNL     1       0.473   8.366  10.986  1.00  0.00     0.080 C 
HETATM   16  C21 UNL     1       0.977   8.412   9.566  1.00  0.00     0.135 C 
HETATM   17  O5  UNL     1       0.250   8.865   8.678  1.00  0.00    -0.297 OA
HETATM   18  C22 UNL     1       2.339   7.766   9.261  1.00  0.00     0.017 C 
HETATM   19  C23 UNL     1       2.113   6.260   9.048  1.00  0.00     0.023 C 
HETATM   20  C24 UNL     1       2.825   8.350   7.907  1.00  0.00     0.023 C 
HETATM   21  C25 UNL     1       3.381   8.126  10.382  1.00  0.00     0.009 C 
HETATM   22  C26 UNL     1       4.726   7.400  10.211  1.00  0.00     0.007 C 
HETATM   23  C27 UNL     1       5.820   8.122  10.980  1.00  0.00     0.011 C 
HETATM   24  C28 UNL     1       5.549   8.323  12.499  1.00  0.00    -0.022 C 
HETATM   25  C29 UNL     1       5.855   6.931  13.153  1.00  0.00     0.017 C 
HETATM   26  C30 UNL     1       7.055  10.676  15.332  1.00  0.00     0.018 C 
ENDROOT
BRANCH   4  27
HETATM   27  C8  UNL     1       8.179   8.520  16.276  1.00  0.00     0.149 C 
HETATM   28  O1  UNL     1       9.048   7.826  16.773  1.00  0.00    -0.649 OA
BRANCH  27  29
HETATM   29  O2  UNL     1       6.897   8.102  16.317  1.00  0.00    -0.776 OA
HETATM   30  H11 UNL     1       6.943   7.241  16.781  1.00  0.00     0.167 HD
ENDBRANCH  27  29
ENDBRANCH   4  27
BRANCH   1  31
HETATM   31  C2  UNL     1       5.866  12.427  16.858  1.00  0.00    -0.088 C 
HETATM   32  C1  UNL     1       6.241  13.541  16.204  1.00  0.00     0.014 C 
HETATM   33  C3  UNL     1       4.607  12.419  17.686  1.00  0.00     0.043 C 
ENDBRANCH   1  31
BRANCH   7  34
HETATM   34  C12 UNL     1       6.639  10.708  12.171  1.00  0.00     0.149 C 
HETATM   35  O3  UNL     1       7.301  11.724  12.320  1.00  0.00    -0.649 OA
BRANCH  34  36
HETATM   36  O4  UNL     1       5.898  10.622  11.052  1.00  0.00    -0.776 OA
HETATM   37  H16 UNL     1       6.070  11.476  10.598  1.00  0.00     0.167 HD
ENDBRANCH  34  36
ENDBRANCH   7  34
TORSDOF 5
ENDMDL
MODEL 5
REMARK minimizedAffinity -6.40838432
REMARK CNNscore 0.386911184
REMARK CNNaffinity 5.74114943
REMARK  5 active torsions:
REMARK  status: ('A' for Active; 'I' for Inactive)
REMARK    1  A    between atoms: C2_2  and  C4_4 
REMARK    2  A    between atoms: C7_7  and  C8_8 
REMARK    3  A    between atoms: C8_8  and  O2_10 
REMARK    4  A    between atoms: C11_13  and  C12_14 
REMARK    5  A    between atoms: C12_14  and  O4_16 
ROOT
HETATM    1  C4  UNL     1     -19.282   0.287  16.026  1.00  0.00     0.019 C 
HETATM    2  C5  UNL     1     -19.068   1.470  17.006  1.00  0.00     0.011 C 
HETATM    3  C6  UNL     1     -17.758   2.153  16.586  1.00  0.00     0.021 C 
HETATM    4  C7  UNL     1     -16.980   1.047  15.865  1.00  0.00     0.050 C 
HETATM    5  C9  UNL     1     -15.887   1.540  14.916  1.00  0.00     0.022 C 
HETATM    6  C10 UNL     1     -15.342   0.387  14.045  1.00  0.00     0.023 C 
HETATM    7  C11 UNL     1     -16.403  -0.536  13.327  1.00  0.00     0.057 C 
HETATM    8  C13 UNL     1     -17.629  -0.835  14.251  1.00  0.00     0.011 C 
HETATM    9  C14 UNL     1     -18.751  -1.523  13.468  1.00  0.00     0.007 C 
HETATM   10  C15 UNL     1     -18.277  -2.556  12.440  1.00  0.00     0.006 C 
HETATM   11  C16 UNL     1     -16.859  -3.120  12.682  1.00  0.00     0.003 C 
HETATM   12  C17 UNL     1     -16.471  -4.336  11.686  1.00  0.00    -0.035 C 
HETATM   13  C18 UNL     1     -15.708  -5.408  12.517  1.00  0.00     0.016 C 
HETATM   14  C19 UNL     1     -17.740  -5.039  11.115  1.00  0.00     0.017 C 
HETATM   15  C20 UNL     1     -17.460  -6.137  10.100  1.00  0.00     0.080 C 
HETATM   16  C21 UNL     1     -16.625  -5.616   8.959  1.00  0.00     0.135 C 
HETATM   17  O5  UNL     1     -16.912  -5.935   7.802  1.00  0.00    -0.297 OA
HETATM   18  C22 UNL     1     -15.362  -4.806   9.297  1.00  0.00     0.017 C 
HETATM   19  C23 UNL     1     -14.222  -5.799   9.573  1.00  0.00     0.023 C 
HETATM   20  C24 UNL     1     -14.976  -4.012   8.020  1.00  0.00     0.023 C 
HETATM   21  C25 UNL     1     -15.654  -3.794  10.465  1.00  0.00     0.009 C 
HETATM   22  C26 UNL     1     -14.398  -3.050  10.946  1.00  0.00     0.007 C 
HETATM   23  C27 UNL     1     -14.785  -1.781  11.688  1.00  0.00     0.011 C 
HETATM   24  C28 UNL     1     -15.744  -1.978  12.896  1.00  0.00    -0.022 C 
HETATM   25  C29 UNL     1     -14.831  -2.509  14.057  1.00  0.00     0.017 C 
HETATM   26  C30 UNL     1     -18.109   0.412  15.023  1.00  0.00     0.018 C 
ENDROOT
BRANCH   4  27
HETATM   27  C8  UNL     1     -16.362   0.140  16.940  1.00  0.00     0.149 C 
HETATM   28  O1  UNL     1     -16.705  -0.986  17.253  1.00  0.00    -0.649 OA
BRANCH  27  29
HETATM   29  O2  UNL     1     -15.339   0.725  17.598  1.00  0.00    -0.776 OA
HETATM   30  H11 UNL     1     -15.065   0.054  18.256  1.00  0.00     0.167 HD
ENDBRANCH  27  29
ENDBRANCH   4  27
BRANCH   1  31
HETATM   31  C2  UNL     1     -20.683   0.283  15.435  1.00  0.00    -0.088 C 
HETATM   32  C1  UNL     1     -21.069   1.239  14.571  1.00  0.00     0.014 C 
HETATM   33  C3  UNL     1     -21.630  -0.826  15.814  1.00  0.00     0.043 C 
ENDBRANCH   1  31
BRANCH   7  34
HETATM   34  C12 UNL     1     -16.913   0.245  12.072  1.00  0.00     0.149 C 
HETATM   35  O3  UNL     1     -17.199   1.429  11.988  1.00  0.00    -0.649 OA
BRANCH  34  36
HETATM   36  O4  UNL     1     -17.004  -0.487  10.947  1.00  0.00    -0.776 OA
HETATM   37  H16 UNL     1     -17.321   0.160  10.280  1.00  0.00     0.167 HD
ENDBRANCH  34  36
ENDBRANCH   7  34
TORSDOF 5
ENDMDL
MODEL 6
REMARK minimizedAffinity -5.99984932
REMARK CNNscore 0.333576202
REMARK CNNaffinity 6.01159477
REMARK  5 active torsions:
REMARK  status: ('A' for Active; 'I' for Inactive)
REMARK    1  A    between atoms: C2_2  and  C4_4 
REMARK    2  A    between atoms: C7_7  and  C8_8 
REMARK    3  A    between atoms: C8_8  and  O2_10 
REMARK    4  A    between atoms: C11_13  and  C12_14 
REMARK    5  A    between atoms: C12_14  and  O4_16 
ROOT
HETATM    1  C4  UNL     1       5.865  18.272  -1.799  1.00  0.00     0.019 C 
HETATM    2  C5  UNL     1       7.396  18.329  -2.043  1.00  0.00     0.011 C 
HETATM    3  C6  UNL     1       7.993  17.088  -1.362  1.00  0.00     0.021 C 
HETATM    4  C7  UNL     1       6.971  16.738  -0.274  1.00  0.00     0.050 C 
HETATM    5  C9  UNL     1       7.031  15.295   0.227  1.00  0.00     0.022 C 
HETATM    6  C10 UNL     1       5.813  14.961   1.115  1.00  0.00     0.023 C 
HETATM    7  C11 UNL     1       4.388  15.356   0.560  1.00  0.00     0.057 C 
HETATM    8  C13 UNL     1       4.411  16.747  -0.155  1.00  0.00     0.011 C 
HETATM    9  C14 UNL     1       3.094  17.007  -0.893  1.00  0.00     0.007 C 
HETATM   10  C15 UNL     1       1.840  16.530  -0.153  1.00  0.00     0.006 C 
HETATM   11  C16 UNL     1       2.006  16.343   1.371  1.00  0.00     0.003 C 
HETATM   12  C17 UNL     1       0.618  16.018   2.137  1.00  0.00    -0.035 C 
HETATM   13  C18 UNL     1       0.611  16.815   3.473  1.00  0.00     0.016 C 
HETATM   14  C19 UNL     1      -0.617  16.510   1.321  1.00  0.00     0.017 C 
HETATM   15  C20 UNL     1      -1.966  16.162   1.932  1.00  0.00     0.080 C 
HETATM   16  C21 UNL     1      -2.085  14.678   2.167  1.00  0.00     0.135 C 
HETATM   17  O5  UNL     1      -3.136  14.100   1.879  1.00  0.00    -0.297 OA
HETATM   18  C22 UNL     1      -0.926  13.963   2.881  1.00  0.00     0.017 C 
HETATM   19  C23 UNL     1      -1.122  14.137   4.395  1.00  0.00     0.023 C 
HETATM   20  C24 UNL     1      -1.068  12.448   2.574  1.00  0.00     0.023 C 
HETATM   21  C25 UNL     1       0.457  14.473   2.331  1.00  0.00     0.009 C 
HETATM   22  C26 UNL     1       1.660  13.899   3.098  1.00  0.00     0.007 C 
HETATM   23  C27 UNL     1       2.923  14.008   2.261  1.00  0.00     0.011 C 
HETATM   24  C28 UNL     1       3.279  15.440   1.770  1.00  0.00    -0.022 C 
HETATM   25  C29 UNL     1       3.912  16.152   3.017  1.00  0.00     0.017 C 
HETATM   26  C30 UNL     1       5.652  16.931  -1.055  1.00  0.00     0.018 C 
ENDROOT
BRANCH   4  27
HETATM   27  C8  UNL     1       7.197  17.703   0.900  1.00  0.00     0.149 C 
HETATM   28  O1  UNL     1       6.724  18.815   1.053  1.00  0.00    -0.649 OA
BRANCH  27  29
HETATM   29  O2  UNL     1       8.048  17.215   1.826  1.00  0.00    -0.776 OA
HETATM   30  H11 UNL     1       8.115  17.933   2.489  1.00  0.00     0.167 HD
ENDBRANCH  27  29
ENDBRANCH   4  27
BRANCH   1  31
HETATM   31  C2  UNL     1       5.076  18.467  -3.084  1.00  0.00    -0.088 C 
HETATM   32  C1  UNL     1       5.085  17.529  -4.048  1.00  0.00     0.014 C 
HETATM   33  C3  UNL     1       4.260  19.723  -3.252  1.00  0.00     0.043 C 
ENDBRANCH   1  31
BRANCH   7  34
HETATM   34  C12 UNL     1       3.989  14.270  -0.491  1.00  0.00     0.149 C 
HETATM   35  O3  UNL     1       3.059  14.294  -1.282  1.00  0.00    -0.649 OA
BRANCH  34  36
HETATM   36  O4  UNL     1       4.807  13.202  -0.543  1.00  0.00    -0.776 OA
HETATM   37  H16 UNL     1       4.413  12.649  -1.251  1.00  0.00     0.167 HD
ENDBRANCH  34  36
ENDBRANCH   7  34
TORSDOF 5
ENDMDL
MODEL 7
REMARK minimizedAffinity -7.03465223
REMARK CNNscore 0.329071522
REMARK CNNaffinity 5.72071838
REMARK  5 active torsions:
REMARK  status: ('A' for Active; 'I' for Inactive)
REMARK    1  A    between atoms: C2_2  and  C4_4 
REMARK    2  A    between atoms: C7_7  and  C8_8 
REMARK    3  A    between atoms: C8_8  and  O2_10 
REMARK    4  A    between atoms: C11_13  and  C12_14 
REMARK    5  A    between atoms: C12_14  and  O4_16 
ROOT
HETATM    1  C4  UNL     1       5.923  12.699  21.955  1.00  0.00     0.019 C 
HETATM    2  C5  UNL     1       6.171  13.608  23.187  1.00  0.00     0.011 C 
HETATM    3  C6  UNL     1       7.394  14.474  22.852  1.00  0.00     0.021 C 
HETATM    4  C7  UNL     1       8.153  13.650  21.806  1.00  0.00     0.050 C 
HETATM    5  C9  UNL     1       9.118  14.450  20.930  1.00  0.00     0.022 C 
HETATM    6  C10 UNL     1       9.634  13.602  19.748  1.00  0.00     0.023 C 
HETATM    7  C11 UNL     1       8.557  12.812  18.905  1.00  0.00     0.057 C 
HETATM    8  C13 UNL     1       7.447  12.194  19.819  1.00  0.00     0.011 C 
HETATM    9  C14 UNL     1       6.290  11.642  18.980  1.00  0.00     0.007 C 
HETATM   10  C15 UNL     1       6.713  10.943  17.684  1.00  0.00     0.006 C 
HETATM   11  C16 UNL     1       8.176  10.448  17.652  1.00  0.00     0.003 C 
HETATM   12  C17 UNL     1       8.527   9.558  16.346  1.00  0.00    -0.035 C 
HETATM   13  C18 UNL     1       9.426   8.372  16.803  1.00  0.00     0.016 C 
HETATM   14  C19 UNL     1       7.246   8.926  15.720  1.00  0.00     0.017 C 
HETATM   15  C20 UNL     1       7.481   8.147  14.435  1.00  0.00     0.080 C 
HETATM   16  C21 UNL     1       8.168   9.003  13.403  1.00  0.00     0.135 C 
HETATM   17  O5  UNL     1       7.785   8.966  12.231  1.00  0.00    -0.297 OA
HETATM   18  C22 UNL     1       9.414   9.795  13.833  1.00  0.00     0.017 C 
HETATM   19  C23 UNL     1      10.628   8.856  13.746  1.00  0.00     0.023 C 
HETATM   20  C24 UNL     1       9.627  10.915  12.778  1.00  0.00     0.023 C 
HETATM   21  C25 UNL     1       9.187  10.452  15.244  1.00  0.00     0.009 C 
HETATM   22  C26 UNL     1      10.444  11.146  15.796  1.00  0.00     0.007 C 
HETATM   23  C27 UNL     1      10.066  12.152  16.870  1.00  0.00     0.011 C 
HETATM   24  C28 UNL     1       9.245  11.581  18.062  1.00  0.00    -0.022 C 
HETATM   25  C29 UNL     1      10.296  10.846  18.965  1.00  0.00     0.017 C 
HETATM   26  C30 UNL     1       6.981  13.164  20.925  1.00  0.00     0.018 C 
ENDROOT
BRANCH   4  27
HETATM   27  C8  UNL     1       8.924  12.551  22.554  1.00  0.00     0.149 C 
HETATM   28  O1  UNL     1       9.084  11.392  22.217  1.00  0.00    -0.649 OA
BRANCH  27  29
HETATM   29  O2  UNL     1       9.438  12.975  23.727  1.00  0.00    -0.776 OA
HETATM   30  H11 UNL     1       9.871  12.178  24.098  1.00  0.00     0.167 HD
ENDBRANCH  27  29
ENDBRANCH   4  27
BRANCH   1  31
HETATM   31  C2  UNL     1       4.472  12.736  21.502  1.00  0.00    -0.088 C 
HETATM   32  C1  UNL     1       3.636  11.722  21.786  1.00  0.00     0.014 C 
HETATM   33  C3  UNL     1       3.976  13.942  20.747  1.00  0.00     0.043 C 
ENDBRANCH   1  31
BRANCH   7  34
HETATM   34  C12 UNL     1       7.883  13.843  17.943  1.00  0.00     0.149 C 
HETATM   35  O3  UNL     1       6.695  14.106  17.834  1.00  0.00    -0.649 OA
BRANCH  34  36
HETATM   36  O4  UNL     1       8.736  14.546  17.176  1.00  0.00    -0.776 OA
HETATM   37  H16 UNL     1       8.145  15.136  16.660  1.00  0.00     0.167 HD
ENDBRANCH  34  36
ENDBRANCH   7  34
TORSDOF 5
ENDMDL
MODEL 8
REMARK minimizedAffinity -6.02288294
REMARK CNNscore 0.298590839
REMARK CNNaffinity 5.72733355
REMARK  5 active torsions:
REMARK  status: ('A' for Active; 'I' for Inactive)
REMARK    1  A    between atoms: C2_2  and  C4_4 
REMARK    2  A    between atoms: C7_7  and  C8_8 
REMARK    3  A    between atoms: C8_8  and  O2_10 
REMARK    4  A    between atoms: C11_13  and  C12_14 
REMARK    5  A    between atoms: C12_14  and  O4_16 
ROOT
HETATM    1  C4  UNL     1       9.405  13.881  15.767  1.00  0.00     0.019 C 
HETATM    2  C5  UNL     1      10.736  14.622  15.475  1.00  0.00     0.011 C 
HETATM    3  C6  UNL     1      11.485  14.719  16.813  1.00  0.00     0.021 C 
HETATM    4  C7  UNL     1      10.372  14.637  17.864  1.00  0.00     0.050 C 
HETATM    5  C9  UNL     1      10.831  14.209  19.258  1.00  0.00     0.022 C 
HETATM    6  C10 UNL     1       9.626  13.900  20.173  1.00  0.00     0.023 C 
HETATM    7  C11 UNL     1       8.500  12.961  19.587  1.00  0.00     0.057 C 
HETATM    8  C13 UNL     1       8.213  13.274  18.080  1.00  0.00     0.011 C 
HETATM    9  C14 UNL     1       7.301  12.208  17.464  1.00  0.00     0.007 C 
HETATM   10  C15 UNL     1       6.183  11.709  18.384  1.00  0.00     0.006 C 
HETATM   11  C16 UNL     1       5.814  12.659  19.546  1.00  0.00     0.003 C 
HETATM   12  C17 UNL     1       4.512  12.181  20.381  1.00  0.00    -0.035 C 
HETATM   13  C18 UNL     1       3.662  13.445  20.703  1.00  0.00     0.016 C 
HETATM   14  C19 UNL     1       3.602  11.239  19.536  1.00  0.00     0.017 C 
HETATM   15  C20 UNL     1       2.402  10.674  20.280  1.00  0.00     0.080 C 
HETATM   16  C21 UNL     1       2.832   9.957  21.533  1.00  0.00     0.135 C 
HETATM   17  O5  UNL     1       2.317   8.874  21.820  1.00  0.00    -0.297 OA
HETATM   18  C22 UNL     1       3.812  10.674  22.477  1.00  0.00     0.017 C 
HETATM   19  C23 UNL     1       2.998  11.607  23.387  1.00  0.00     0.023 C 
HETATM   20  C24 UNL     1       4.444   9.587  23.388  1.00  0.00     0.023 C 
HETATM   21  C25 UNL     1       4.950  11.382  21.653  1.00  0.00     0.009 C 
HETATM   22  C26 UNL     1       5.887  12.233  22.527  1.00  0.00     0.007 C 
HETATM   23  C27 UNL     1       7.203  12.479  21.809  1.00  0.00     0.011 C 
HETATM   24  C28 UNL     1       7.088  13.141  20.406  1.00  0.00    -0.022 C 
HETATM   25  C29 UNL     1       6.835  14.662  20.696  1.00  0.00     0.017 C 
HETATM   26  C30 UNL     1       9.503  13.508  17.266  1.00  0.00     0.018 C 
ENDROOT
BRANCH   4  27
HETATM   27  C8  UNL     1       9.706  16.020  17.940  1.00  0.00     0.149 C 
HETATM   28  O1  UNL     1       8.520  16.282  17.847  1.00  0.00    -0.649 OA
BRANCH  27  29
HETATM   29  O2  UNL     1      10.593  17.023  18.106  1.00  0.00    -0.776 OA
HETATM   30  H11 UNL     1      10.039  17.831  18.112  1.00  0.00     0.167 HD
ENDBRANCH  27  29
ENDBRANCH   4  27
BRANCH   1  31
HETATM   31  C2  UNL     1       9.165  12.736  14.797  1.00  0.00    -0.088 C 
HETATM   32  C1  UNL     1       8.274  12.857  13.796  1.00  0.00     0.014 C 
HETATM   33  C3  UNL     1       9.959  11.466  14.959  1.00  0.00     0.043 C 
ENDBRANCH   1  31
BRANCH   7  34
HETATM   34  C12 UNL     1       9.027  11.494  19.692  1.00  0.00     0.149 C 
HETATM   35  O3  UNL     1       8.835  10.568  18.919  1.00  0.00    -0.649 OA
BRANCH  34  36
HETATM   36  O4  UNL     1       9.820  11.250  20.751  1.00  0.00    -0.776 OA
HETATM   37  H16 UNL     1      10.057  10.303  20.645  1.00  0.00     0.167 HD
ENDBRANCH  34  36
ENDBRANCH   7  34
TORSDOF 5
ENDMDL
MODEL 9
REMARK minimizedAffinity -6.26916122
REMARK CNNscore 0.284196049
REMARK CNNaffinity 5.79321098
REMARK  5 active torsions:
REMARK  status: ('A' for Active; 'I' for Inactive)
REMARK    1  A    between atoms: C2_2  and  C4_4 
REMARK    2  A    between atoms: C7_7  and  C8_8 
REMARK    3  A    between atoms: C8_8  and  O2_10 
REMARK    4  A    between atoms: C11_13  and  C12_14 
REMARK    5  A    between atoms: C12_14  and  O4_16 
ROOT
HETATM    1  C4  UNL     1      -8.090  -8.893   9.390  1.00  0.00     0.019 C 
HETATM    2  C5  UNL     1      -6.604  -8.609   9.050  1.00  0.00     0.011 C 
HETATM    3  C6  UNL     1      -5.766  -9.506   9.974  1.00  0.00     0.021 C 
HETATM    4  C7  UNL     1      -6.687  -9.765  11.171  1.00  0.00     0.050 C 
HETATM    5  C9  UNL     1      -6.337 -11.001  11.999  1.00  0.00     0.022 C 
HETATM    6  C10 UNL     1      -7.456 -11.331  13.011  1.00  0.00     0.023 C 
HETATM    7  C11 UNL     1      -8.936 -11.363  12.462  1.00  0.00     0.057 C 
HETATM    8  C13 UNL     1      -9.196 -10.213  11.433  1.00  0.00     0.011 C 
HETATM    9  C14 UNL     1     -10.546 -10.398  10.734  1.00  0.00     0.007 C 
HETATM   10  C15 UNL     1     -11.674 -10.907  11.638  1.00  0.00     0.006 C 
HETATM   11  C16 UNL     1     -11.458 -10.677  13.150  1.00  0.00     0.003 C 
HETATM   12  C17 UNL     1     -12.747 -11.061  14.051  1.00  0.00    -0.035 C 
HETATM   13  C18 UNL     1     -12.898  -9.975  15.155  1.00  0.00     0.016 C 
HETATM   14  C19 UNL     1     -14.063 -11.029  13.215  1.00  0.00     0.017 C 
HETATM   15  C20 UNL     1     -15.309 -11.465  13.969  1.00  0.00     0.080 C 
HETATM   16  C21 UNL     1     -15.129 -12.840  14.559  1.00  0.00     0.135 C 
HETATM   17  O5  UNL     1     -16.048 -13.660  14.481  1.00  0.00    -0.297 OA
HETATM   18  C22 UNL     1     -13.844 -13.123  15.356  1.00  0.00     0.017 C 
HETATM   19  C23 UNL     1     -14.056 -12.621  16.793  1.00  0.00     0.023 C 
HETATM   20  C24 UNL     1     -13.686 -14.666  15.430  1.00  0.00     0.023 C 
HETATM   21  C25 UNL     1     -12.596 -12.511  14.619  1.00  0.00     0.009 C 
HETATM   22  C26 UNL     1     -11.295 -12.639  15.430  1.00  0.00     0.007 C 
HETATM   23  C27 UNL     1     -10.087 -12.502  14.519  1.00  0.00     0.011 C 
HETATM   24  C28 UNL     1     -10.027 -11.194  13.679  1.00  0.00    -0.022 C 
HETATM   25  C29 UNL     1      -9.536 -10.091  14.679  1.00  0.00     0.017 C 
HETATM   26  C30 UNL     1      -8.025 -10.024  10.445  1.00  0.00     0.018 C 
ENDROOT
BRANCH   4  27
HETATM   27  C8  UNL     1      -6.646  -8.514  12.064  1.00  0.00     0.149 C 
HETATM   28  O1  UNL     1      -6.833  -7.357  11.736  1.00  0.00    -0.649 OA
BRANCH  27  29
HETATM   29  O2  UNL     1      -6.336  -8.795  13.347  1.00  0.00    -0.776 OA
HETATM   30  H11 UNL     1      -6.322  -7.918  13.785  1.00  0.00     0.167 HD
ENDBRANCH  27  29
ENDBRANCH   4  27
BRANCH   1  31
HETATM   31  C2  UNL     1      -8.915  -9.174   8.144  1.00  0.00    -0.088 C 
HETATM   32  C1  UNL     1     -10.020  -8.455   7.873  1.00  0.00     0.014 C 
HETATM   33  C3  UNL     1      -8.464 -10.259   7.201  1.00  0.00     0.043 C 
ENDBRANCH   1  31
BRANCH   7  34
HETATM   34  C12 UNL     1      -9.122 -12.730  11.727  1.00  0.00     0.149 C 
HETATM   35  O3  UNL     1      -9.811 -12.971  10.749  1.00  0.00    -0.649 OA
BRANCH  34  36
HETATM   36  O4  UNL     1      -8.393 -13.745  12.225  1.00  0.00    -0.776 OA
HETATM   37  H16 UNL     1      -8.626 -14.500  11.642  1.00  0.00     0.167 HD
ENDBRANCH  34  36
ENDBRANCH   7  34
TORSDOF 5
ENDMDL
