MODEL 1
REMARK minimizedAffinity -8.99823475
REMARK CNNscore 0.752135396
REMARK CNNaffinity 7.48127985
REMARK  11 active torsions:
REMARK  status: ('A' for Active; 'I' for Inactive)
REMARK    1  A    between atoms: C2_2  and  C4_4 
REMARK    2  A    between atoms: C4_4  and  C6_6 
REMARK    3  A    between atoms: C7_8  and  C8_9 
REMARK    4  A    between atoms: C8_9  and  O2_10 
REMARK    5  A    between atoms: C25_28  and  O4_29 
REMARK    6  A    between atoms: C26_30  and  O5_31 
REMARK    7  A    between atoms: C27_32  and  O6_33 
REMARK    8  A    between atoms: C31_37  and  C32_38 
REMARK    9  A    between atoms: C32_38  and  C33_39 
REMARK   10  A    between atoms: C33_39  and  C34_40 
REMARK   11  A    between atoms: C38_44  and  O7_45 
ROOT
HETATM    1  C8  UNL     1      -3.141  51.417 -11.007  1.00  0.00     0.094 C 
HETATM    2  C9  UNL     1      -4.004  52.653 -10.619  1.00  0.00     0.067 C 
HETATM    3  C10 UNL     1      -3.482  54.044 -10.871  1.00  0.00    -0.027 C 
HETATM    4  C11 UNL     1      -2.337  54.580 -10.422  1.00  0.00    -0.025 C 
HETATM    5  C12 UNL     1      -1.280  53.856  -9.624  1.00  0.00     0.021 C 
HETATM    6  C13 UNL     1      -0.125  54.835  -9.250  1.00  0.00     0.019 C 
HETATM    7  C14 UNL     1       1.027  54.159  -8.460  1.00  0.00     0.028 C 
HETATM    8  C15 UNL     1       1.488  52.895  -9.200  1.00  0.00    -0.037 C 
HETATM    9  C16 UNL     1       2.748  52.687  -9.613  1.00  0.00     0.057 C 
HETATM   10  C17 UNL     1       3.772  53.748  -9.513  1.00  0.00     0.155 C 
HETATM   11  O3  UNL     1       4.930  53.479  -9.819  1.00  0.00    -0.293 OA
HETATM   12  C18 UNL     1       3.326  55.139  -9.079  1.00  0.00     0.075 C 
HETATM   13  C19 UNL     1       4.505  55.994  -8.562  1.00  0.00     0.029 C 
HETATM   14  C20 UNL     1       4.016  57.437  -8.321  1.00  0.00     0.008 C 
HETATM   15  C21 UNL     1       2.852  57.506  -7.343  1.00  0.00     0.001 C 
HETATM   16  C22 UNL     1       1.735  56.538  -7.737  1.00  0.00     0.011 C 
HETATM   17  C23 UNL     1       2.224  55.080  -7.998  1.00  0.00    -0.019 C 
HETATM   18  C24 UNL     1       2.808  54.522  -6.650  1.00  0.00     0.045 C 
HETATM   19  C25 UNL     1       4.323  54.304  -6.592  1.00  0.00     0.148 C 
HETATM   20  C26 UNL     1       5.184  55.348  -7.330  1.00  0.00     0.151 C 
HETATM   21  C27 UNL     1       0.366  51.921  -9.436  1.00  0.00     0.090 C 
HETATM   22  C28 UNL     1       0.544  50.551 -10.098  1.00  0.00     0.044 C 
HETATM   23  C29 UNL     1      -0.904  50.129 -10.455  1.00  0.00     0.012 C 
HETATM   24  C30 UNL     1      -1.809  51.377 -10.209  1.00  0.00     0.035 C 
HETATM   25  C31 UNL     1      -0.773  52.556 -10.312  1.00  0.00     0.009 C 
ENDROOT
BRANCH   1  26
HETATM   26  C7  UNL     1      -3.885  50.096 -10.764  1.00  0.00     0.186 A 
HETATM   27  C6  UNL     1      -5.351  49.865 -11.101  1.00  0.00     0.158 A 
HETATM   28  O1  UNL     1      -4.288  49.402 -11.955  1.00  0.00    -0.372 OA
BRANCH  27  29
HETATM   29  C4  UNL     1      -6.228  48.756 -10.552  1.00  0.00     0.017 C 
HETATM   30  C5  UNL     1      -6.460  47.629 -11.565  1.00  0.00     0.013 C 
BRANCH  29  31
HETATM   31  C2  UNL     1      -7.566  49.324  -9.979  1.00  0.00    -0.016 C 
HETATM   32  C1  UNL     1      -7.952  48.657  -8.649  1.00  0.00     0.010 C 
HETATM   33  C3  UNL     1      -8.737  49.165 -10.956  1.00  0.00     0.010 C 
ENDBRANCH  29  31
ENDBRANCH  27  29
ENDBRANCH   1  26
BRANCH   1  34
HETATM   34  O2  UNL     1      -2.881  51.463 -12.412  1.00  0.00    -0.386 OA
HETATM   35  H14 UNL     1      -3.683  51.128 -12.863  1.00  0.00     0.210 HD
ENDBRANCH   1  34
BRANCH  25  36
HETATM   36  C32 UNL     1      -0.400  52.787 -11.844  1.00  0.00     0.018 C 
BRANCH  36  37
HETATM   37  C33 UNL     1      -0.268  51.611 -12.814  1.00  0.00     0.039 C 
BRANCH  37  38
HETATM   38  C34 UNL     1       0.942  51.763 -13.714  1.00  0.00    -0.056 A 
HETATM   39  C35 UNL     1       2.227  51.464 -13.241  1.00  0.00     0.007 A 
HETATM   40  C36 UNL     1       3.342  51.623 -14.068  1.00  0.00     0.003 A 
HETATM   41  C37 UNL     1       3.183  52.076 -15.378  1.00  0.00     0.036 A 
HETATM   42  C38 UNL     1       1.909  52.380 -15.845  1.00  0.00     0.066 A 
HETATM   43  C39 UNL     1       0.793  52.232 -15.027  1.00  0.00     0.043 A 
BRANCH  42  44
HETATM   44  O7  UNL     1       1.706  52.830 -17.116  1.00  0.00    -0.361 OA
HETATM   45  H51 UNL     1       2.568  52.913 -17.555  1.00  0.00     0.217 HD
ENDBRANCH  42  44
ENDBRANCH  37  38
ENDBRANCH  36  37
ENDBRANCH  25  36
BRANCH  21  46
HETATM   46  O6  UNL     1      -0.115  51.629  -8.104  1.00  0.00    -0.384 OA
HETATM   47  H38 UNL     1       0.618  51.210  -7.620  1.00  0.00     0.211 HD
ENDBRANCH  21  46
BRANCH  19  48
HETATM   48  O4  UNL     1       4.727  54.222  -5.219  1.00  0.00    -0.393 OA
HETATM   49  H35 UNL     1       4.678  55.131  -4.876  1.00  0.00     0.210 HD
ENDBRANCH  19  48
BRANCH  20  50
HETATM   50  O5  UNL     1       5.648  56.334  -6.399  1.00  0.00    -0.393 OA
HETATM   51  H37 UNL     1       6.354  55.899  -5.885  1.00  0.00     0.210 HD
ENDBRANCH  20  50
TORSDOF 11
ENDMDL
MODEL 2
REMARK minimizedAffinity -9.80958748
REMARK CNNscore 0.673465252
REMARK CNNaffinity 7.59220648
REMARK  11 active torsions:
REMARK  status: ('A' for Active; 'I' for Inactive)
REMARK    1  A    between atoms: C2_2  and  C4_4 
REMARK    2  A    between atoms: C4_4  and  C6_6 
REMARK    3  A    between atoms: C7_8  and  C8_9 
REMARK    4  A    between atoms: C8_9  and  O2_10 
REMARK    5  A    between atoms: C25_28  and  O4_29 
REMARK    6  A    between atoms: C26_30  and  O5_31 
REMARK    7  A    between atoms: C27_32  and  O6_33 
REMARK    8  A    between atoms: C31_37  and  C32_38 
REMARK    9  A    between atoms: C32_38  and  C33_39 
REMARK   10  A    between atoms: C33_39  and  C34_40 
REMARK   11  A    between atoms: C38_44  and  O7_45 
ROOT
HETATM    1  C8  UNL     1      -3.282  51.279 -24.780  1.00  0.00     0.094 C 
HETATM    2  C9  UNL     1      -3.144  50.078 -25.761  1.00  0.00     0.067 C 
HETATM    3  C10 UNL     1      -4.220  49.025 -25.817  1.00  0.00    -0.027 C 
HETATM    4  C11 UNL     1      -4.680  48.273 -24.806  1.00  0.00    -0.025 C 
HETATM    5  C12 UNL     1      -4.260  48.390 -23.361  1.00  0.00     0.021 C 
HETATM    6  C13 UNL     1      -4.984  47.307 -22.502  1.00  0.00     0.019 C 
HETATM    7  C14 UNL     1      -4.638  47.383 -20.992  1.00  0.00     0.028 C 
HETATM    8  C15 UNL     1      -4.834  48.820 -20.488  1.00  0.00    -0.037 C 
HETATM    9  C16 UNL     1      -5.653  49.155 -19.480  1.00  0.00     0.057 C 
HETATM   10  C17 UNL     1      -6.557  48.160 -18.864  1.00  0.00     0.155 C 
HETATM   11  O3  UNL     1      -7.218  48.492 -17.885  1.00  0.00    -0.293 OA
HETATM   12  C18 UNL     1      -6.655  46.783 -19.508  1.00  0.00     0.075 C 
HETATM   13  C19 UNL     1      -7.226  45.724 -18.538  1.00  0.00     0.029 C 
HETATM   14  C20 UNL     1      -7.473  44.411 -19.308  1.00  0.00     0.008 C 
HETATM   15  C21 UNL     1      -6.213  43.880 -19.978  1.00  0.00     0.001 C 
HETATM   16  C22 UNL     1      -5.528  44.962 -20.814  1.00  0.00     0.011 C 
HETATM   17  C23 UNL     1      -5.290  46.298 -20.046  1.00  0.00    -0.019 C 
HETATM   18  C24 UNL     1      -4.307  46.000 -18.856  1.00  0.00     0.045 C 
HETATM   19  C25 UNL     1      -4.892  46.072 -17.443  1.00  0.00     0.148 C 
HETATM   20  C26 UNL     1      -6.336  45.558 -17.282  1.00  0.00     0.151 C 
HETATM   21  C27 UNL     1      -4.024  49.820 -21.267  1.00  0.00     0.090 C 
HETATM   22  C28 UNL     1      -3.977  51.319 -20.950  1.00  0.00     0.044 C 
HETATM   23  C29 UNL     1      -3.354  51.941 -22.226  1.00  0.00     0.012 C 
HETATM   24  C30 UNL     1      -3.307  50.809 -23.300  1.00  0.00     0.035 C 
HETATM   25  C31 UNL     1      -4.423  49.826 -22.787  1.00  0.00     0.009 C 
ENDROOT
BRANCH   1  26
HETATM   26  C7  UNL     1      -2.137  52.290 -24.943  1.00  0.00     0.186 A 
HETATM   27  C6  UNL     1      -1.024  52.163 -25.973  1.00  0.00     0.158 A 
HETATM   28  O1  UNL     1      -2.156  53.031 -26.173  1.00  0.00    -0.372 OA
BRANCH  27  29
HETATM   29  C4  UNL     1       0.309  52.887 -25.939  1.00  0.00     0.017 C 
HETATM   30  C5  UNL     1       0.161  54.406 -26.094  1.00  0.00     0.013 C 
BRANCH  29  31
HETATM   31  C2  UNL     1       1.309  52.279 -26.973  1.00  0.00    -0.016 C 
HETATM   32  C1  UNL     1       0.584  51.606 -28.150  1.00  0.00     0.010 C 
HETATM   33  C3  UNL     1       2.257  51.254 -26.340  1.00  0.00     0.010 C 
ENDBRANCH  29  31
ENDBRANCH  27  29
ENDBRANCH   1  26
BRANCH   1  34
HETATM   34  O2  UNL     1      -4.479  51.994 -25.099  1.00  0.00    -0.386 OA
HETATM   35  H14 UNL     1      -4.277  52.561 -25.871  1.00  0.00     0.210 HD
ENDBRANCH   1  34
BRANCH  25  36
HETATM   36  C32 UNL     1      -5.853  50.450 -23.110  1.00  0.00     0.018 C 
BRANCH  36  37
HETATM   37  C33 UNL     1      -7.110  49.969 -22.381  1.00  0.00     0.039 C 
BRANCH  37  38
HETATM   38  C34 UNL     1      -7.965  49.086 -23.268  1.00  0.00    -0.056 A 
HETATM   39  C35 UNL     1      -8.441  47.852 -22.803  1.00  0.00     0.007 A 
HETATM   40  C36 UNL     1      -9.214  47.034 -23.630  1.00  0.00     0.003 A 
HETATM   41  C37 UNL     1      -9.525  47.443 -24.927  1.00  0.00     0.036 A 
HETATM   42  C38 UNL     1      -9.048  48.664 -25.391  1.00  0.00     0.066 A 
HETATM   43  C39 UNL     1      -8.272  49.483 -24.577  1.00  0.00     0.043 A 
BRANCH  42  44
HETATM   44  O7  UNL     1      -9.324  49.102 -26.652  1.00  0.00    -0.361 OA
HETATM   45  H51 UNL     1      -9.842  48.421 -27.109  1.00  0.00     0.217 HD
ENDBRANCH  42  44
ENDBRANCH  37  38
ENDBRANCH  36  37
ENDBRANCH  25  36
BRANCH  21  46
HETATM   46  O6  UNL     1      -2.663  49.362 -21.096  1.00  0.00    -0.384 OA
HETATM   47  H38 UNL     1      -2.461  49.412 -20.145  1.00  0.00     0.211 HD
ENDBRANCH  21  46
BRANCH  19  48
HETATM   48  O4  UNL     1      -4.023  45.371 -16.545  1.00  0.00    -0.393 OA
HETATM   49  H35 UNL     1      -4.159  44.427 -16.731  1.00  0.00     0.210 HD
ENDBRANCH  19  48
BRANCH  20  50
HETATM   50  O5  UNL     1      -6.315  44.202 -16.820  1.00  0.00    -0.393 OA
HETATM   51  H37 UNL     1      -6.070  44.249 -15.877  1.00  0.00     0.210 HD
ENDBRANCH  20  50
TORSDOF 11
ENDMDL
MODEL 3
REMARK minimizedAffinity -8.13426208
REMARK CNNscore 0.571068168
REMARK CNNaffinity 6.73479891
REMARK  11 active torsions:
REMARK  status: ('A' for Active; 'I' for Inactive)
REMARK    1  A    between atoms: C2_2  and  C4_4 
REMARK    2  A    between atoms: C4_4  and  C6_6 
REMARK    3  A    between atoms: C7_8  and  C8_9 
REMARK    4  A    between atoms: C8_9  and  O2_10 
REMARK    5  A    between atoms: C25_28  and  O4_29 
REMARK    6  A    between atoms: C26_30  and  O5_31 
REMARK    7  A    between atoms: C27_32  and  O6_33 
REMARK    8  A    between atoms: C31_37  and  C32_38 
REMARK    9  A    between atoms: C32_38  and  C33_39 
REMARK   10  A    between atoms: C33_39  and  C34_40 
REMARK   11  A    between atoms: C38_44  and  O7_45 
ROOT
HETATM    1  C8  UNL     1       2.541  56.283  -7.598  1.00  0.00     0.094 C 
HETATM    2  C9  UNL     1       3.586  56.845  -8.607  1.00  0.00     0.067 C 
HETATM    3  C10 UNL     1       3.427  56.579 -10.081  1.00  0.00    -0.027 C 
HETATM    4  C11 UNL     1       3.335  55.387 -10.690  1.00  0.00    -0.025 C 
HETATM    5  C12 UNL     1       3.290  54.047  -9.998  1.00  0.00     0.021 C 
HETATM    6  C13 UNL     1       3.232  52.899 -11.053  1.00  0.00     0.019 C 
HETATM    7  C14 UNL     1       3.143  51.484 -10.423  1.00  0.00     0.028 C 
HETATM    8  C15 UNL     1       2.005  51.449  -9.393  1.00  0.00    -0.037 C 
HETATM    9  C16 UNL     1       0.971  50.596  -9.447  1.00  0.00     0.057 C 
HETATM   10  C17 UNL     1       0.771  49.707 -10.612  1.00  0.00     0.155 C 
HETATM   11  O3  UNL     1      -0.136  48.881 -10.574  1.00  0.00    -0.293 OA
HETATM   12  C18 UNL     1       1.676  49.896 -11.823  1.00  0.00     0.075 C 
HETATM   13  C19 UNL     1       1.697  48.649 -12.735  1.00  0.00     0.029 C 
HETATM   14  C20 UNL     1       2.476  48.978 -14.026  1.00  0.00     0.008 C 
HETATM   15  C21 UNL     1       3.898  49.446 -13.749  1.00  0.00     0.001 C 
HETATM   16  C22 UNL     1       3.922  50.572 -12.714  1.00  0.00     0.011 C 
HETATM   17  C23 UNL     1       3.123  50.253 -11.413  1.00  0.00    -0.019 C 
HETATM   18  C24 UNL     1       3.813  49.025 -10.715  1.00  0.00     0.045 C 
HETATM   19  C25 UNL     1       3.036  47.705 -10.714  1.00  0.00     0.148 C 
HETATM   20  C26 UNL     1       2.222  47.400 -11.987  1.00  0.00     0.151 C 
HETATM   21  C27 UNL     1       2.162  52.494  -8.323  1.00  0.00     0.090 C 
HETATM   22  C28 UNL     1       1.210  52.655  -7.133  1.00  0.00     0.044 C 
HETATM   23  C29 UNL     1       1.560  54.058  -6.573  1.00  0.00     0.012 C 
HETATM   24  C30 UNL     1       2.511  54.730  -7.612  1.00  0.00     0.035 C 
HETATM   25  C31 UNL     1       2.164  53.944  -8.930  1.00  0.00     0.009 C 
ENDROOT
BRANCH   1  26
HETATM   26  C7  UNL     1       2.822  56.745  -6.161  1.00  0.00     0.186 A 
HETATM   27  C6  UNL     1       3.565  58.023  -5.803  1.00  0.00     0.158 A 
HETATM   28  O1  UNL     1       2.128  57.938  -5.763  1.00  0.00    -0.372 OA
BRANCH  27  29
HETATM   29  C4  UNL     1       4.200  58.340  -4.462  1.00  0.00     0.017 C 
HETATM   30  C5  UNL     1       3.767  59.702  -3.909  1.00  0.00     0.013 C 
BRANCH  29  31
HETATM   31  C2  UNL     1       5.754  58.190  -4.523  1.00  0.00    -0.016 C 
HETATM   32  C1  UNL     1       6.473  59.494  -4.138  1.00  0.00     0.010 C 
HETATM   33  C3  UNL     1       6.248  57.757  -5.908  1.00  0.00     0.010 C 
ENDBRANCH  29  31
ENDBRANCH  27  29
ENDBRANCH   1  26
BRANCH   1  34
HETATM   34  O2  UNL     1       1.254  56.812  -7.932  1.00  0.00    -0.386 OA
HETATM   35  H14 UNL     1       1.215  57.720  -7.568  1.00  0.00     0.210 HD
ENDBRANCH   1  34
BRANCH  25  36
HETATM   36  C32 UNL     1       0.757  54.449  -9.481  1.00  0.00     0.018 C 
BRANCH  36  37
HETATM   37  C33 UNL     1       0.315  54.153 -10.916  1.00  0.00     0.039 C 
BRANCH  37  38
HETATM   38  C34 UNL     1      -1.126  53.688 -10.970  1.00  0.00    -0.056 A 
HETATM   39  C35 UNL     1      -2.140  54.425 -10.342  1.00  0.00     0.007 A 
HETATM   40  C36 UNL     1      -3.465  53.984 -10.380  1.00  0.00     0.003 A 
HETATM   41  C37 UNL     1      -3.791  52.805 -11.050  1.00  0.00     0.036 A 
HETATM   42  C38 UNL     1      -2.786  52.070 -11.668  1.00  0.00     0.066 A 
HETATM   43  C39 UNL     1      -1.462  52.497 -11.630  1.00  0.00     0.043 A 
BRANCH  42  44
HETATM   44  O7  UNL     1      -3.057  50.910 -12.331  1.00  0.00    -0.361 OA
HETATM   45  H51 UNL     1      -4.006  50.722 -12.248  1.00  0.00     0.217 HD
ENDBRANCH  42  44
ENDBRANCH  37  38
ENDBRANCH  36  37
ENDBRANCH  25  36
BRANCH  21  46
HETATM   46  O6  UNL     1       3.445  52.185  -7.731  1.00  0.00    -0.384 OA
HETATM   47  H38 UNL     1       3.375  51.295  -7.344  1.00  0.00     0.211 HD
ENDBRANCH  21  46
BRANCH  19  48
HETATM   48  O4  UNL     1       3.947  46.631 -10.450  1.00  0.00    -0.393 OA
HETATM   49  H35 UNL     1       4.463  46.517 -11.266  1.00  0.00     0.210 HD
ENDBRANCH  19  48
BRANCH  20  50
HETATM   50  O5  UNL     1       2.980  46.541 -12.848  1.00  0.00    -0.393 OA
HETATM   51  H37 UNL     1       2.946  45.658 -12.437  1.00  0.00     0.210 HD
ENDBRANCH  20  50
TORSDOF 11
ENDMDL
MODEL 4
REMARK minimizedAffinity -8.7284441
REMARK CNNscore 0.545466721
REMARK CNNaffinity 7.13606405
REMARK  11 active torsions:
REMARK  status: ('A' for Active; 'I' for Inactive)
REMARK    1  A    between atoms: C2_2  and  C4_4 
REMARK    2  A    between atoms: C4_4  and  C6_6 
REMARK    3  A    between atoms: C7_8  and  C8_9 
REMARK    4  A    between atoms: C8_9  and  O2_10 
REMARK    5  A    between atoms: C25_28  and  O4_29 
REMARK    6  A    between atoms: C26_30  and  O5_31 
REMARK    7  A    between atoms: C27_32  and  O6_33 
REMARK    8  A    between atoms: C31_37  and  C32_38 
REMARK    9  A    between atoms: C32_38  and  C33_39 
REMARK   10  A    between atoms: C33_39  and  C34_40 
REMARK   11  A    between atoms: C38_44  and  O7_45 
ROOT
HETATM    1  C8  UNL     1      -3.900  50.857 -10.609  1.00  0.00     0.094 C 
HETATM    2  C9  UNL     1      -4.486  52.299 -10.555  1.00  0.00     0.067 C 
HETATM    3  C10 UNL     1      -3.769  53.429 -11.245  1.00  0.00    -0.027 C 
HETATM    4  C11 UNL     1      -2.503  53.832 -11.053  1.00  0.00    -0.025 C 
HETATM    5  C12 UNL     1      -1.498  53.167 -10.145  1.00  0.00     0.021 C 
HETATM    6  C13 UNL     1      -0.156  53.963 -10.158  1.00  0.00     0.019 C 
HETATM    7  C14 UNL     1       0.950  53.322  -9.278  1.00  0.00     0.028 C 
HETATM    8  C15 UNL     1       1.097  51.836  -9.634  1.00  0.00    -0.037 C 
HETATM    9  C16 UNL     1       2.244  51.274 -10.047  1.00  0.00     0.057 C 
HETATM   10  C17 UNL     1       3.439  52.095 -10.336  1.00  0.00     0.155 C 
HETATM   11  O3  UNL     1       4.488  51.526 -10.621  1.00  0.00    -0.293 OA
HETATM   12  C18 UNL     1       3.292  53.611 -10.311  1.00  0.00     0.075 C 
HETATM   13  C19 UNL     1       4.652  54.326 -10.151  1.00  0.00     0.029 C 
HETATM   14  C20 UNL     1       4.450  55.846 -10.323  1.00  0.00     0.008 C 
HETATM   15  C21 UNL     1       3.441  56.417  -9.337  1.00  0.00     0.001 C 
HETATM   16  C22 UNL     1       2.136  55.619  -9.349  1.00  0.00     0.011 C 
HETATM   17  C23 UNL     1       2.334  54.080  -9.193  1.00  0.00    -0.019 C 
HETATM   18  C24 UNL     1       2.973  53.821  -7.780  1.00  0.00     0.045 C 
HETATM   19  C25 UNL     1       4.424  53.332  -7.758  1.00  0.00     0.148 C 
HETATM   20  C26 UNL     1       5.355  53.932  -8.829  1.00  0.00     0.151 C 
HETATM   21  C27 UNL     1      -0.194  51.078  -9.493  1.00  0.00     0.090 C 
HETATM   22  C28 UNL     1      -0.334  49.570  -9.725  1.00  0.00     0.044 C 
HETATM   23  C29 UNL     1      -1.865  49.360  -9.843  1.00  0.00     0.012 C 
HETATM   24  C30 UNL     1      -2.508  50.780  -9.924  1.00  0.00     0.035 C 
HETATM   25  C31 UNL     1      -1.306  51.653 -10.444  1.00  0.00     0.009 C 
ENDROOT
BRANCH   1  26
HETATM   26  C7  UNL     1      -4.824  49.834  -9.934  1.00  0.00     0.186 A 
HETATM   27  C6  UNL     1      -6.315  49.713 -10.212  1.00  0.00     0.158 A 
HETATM   28  O1  UNL     1      -5.351  48.825 -10.810  1.00  0.00    -0.372 OA
BRANCH  27  29
HETATM   29  C4  UNL     1      -7.332  49.013  -9.331  1.00  0.00     0.017 C 
HETATM   30  C5  UNL     1      -7.002  47.533  -9.105  1.00  0.00     0.013 C 
BRANCH  29  31
HETATM   31  C2  UNL     1      -8.784  49.223  -9.867  1.00  0.00    -0.016 C 
HETATM   32  C1  UNL     1      -9.825  48.474  -9.018  1.00  0.00     0.010 C 
HETATM   33  C3  UNL     1      -8.941  48.778 -11.326  1.00  0.00     0.010 C 
ENDBRANCH  29  31
ENDBRANCH  27  29
ENDBRANCH   1  26
BRANCH   1  34
HETATM   34  O2  UNL     1      -3.807  50.453 -11.978  1.00  0.00    -0.386 OA
HETATM   35  H14 UNL     1      -4.703  50.170 -12.255  1.00  0.00     0.210 HD
ENDBRANCH   1  34
BRANCH  25  36
HETATM   36  C32 UNL     1      -1.086  51.363 -11.995  1.00  0.00     0.018 C 
BRANCH  36  37
HETATM   37  C33 UNL     1       0.014  50.415 -12.477  1.00  0.00     0.039 C 
BRANCH  37  38
HETATM   38  C34 UNL     1       0.322  50.620 -13.947  1.00  0.00    -0.056 A 
HETATM   39  C35 UNL     1       0.188  49.565 -14.860  1.00  0.00     0.007 A 
HETATM   40  C36 UNL     1       0.490  49.754 -16.211  1.00  0.00     0.003 A 
HETATM   41  C37 UNL     1       0.924  51.001 -16.664  1.00  0.00     0.036 A 
HETATM   42  C38 UNL     1       1.063  52.046 -15.757  1.00  0.00     0.066 A 
HETATM   43  C39 UNL     1       0.772  51.866 -14.408  1.00  0.00     0.043 A 
BRANCH  42  44
HETATM   44  O7  UNL     1       1.488  53.279 -16.153  1.00  0.00    -0.361 OA
HETATM   45  H51 UNL     1       1.682  53.248 -17.104  1.00  0.00     0.217 HD
ENDBRANCH  42  44
ENDBRANCH  37  38
ENDBRANCH  36  37
ENDBRANCH  25  36
BRANCH  21  46
HETATM   46  O6  UNL     1      -0.554  51.275  -8.107  1.00  0.00    -0.384 OA
HETATM   47  H38 UNL     1       0.149  50.872  -7.568  1.00  0.00     0.211 HD
ENDBRANCH  21  46
BRANCH  19  48
HETATM   48  O4  UNL     1       4.970  53.562  -6.453  1.00  0.00    -0.393 OA
HETATM   49  H35 UNL     1       5.119  54.521  -6.396  1.00  0.00     0.210 HD
ENDBRANCH  19  48
BRANCH  20  50
HETATM   50  O5  UNL     1       6.090  55.028  -8.269  1.00  0.00    -0.393 OA
HETATM   51  H37 UNL     1       6.767  54.625  -7.695  1.00  0.00     0.210 HD
ENDBRANCH  20  50
TORSDOF 11
ENDMDL
MODEL 5
REMARK minimizedAffinity -8.12200069
REMARK CNNscore 0.489049435
REMARK CNNaffinity 6.61966944
REMARK  11 active torsions:
REMARK  status: ('A' for Active; 'I' for Inactive)
REMARK    1  A    between atoms: C2_2  and  C4_4 
REMARK    2  A    between atoms: C4_4  and  C6_6 
REMARK    3  A    between atoms: C7_8  and  C8_9 
REMARK    4  A    between atoms: C8_9  and  O2_10 
REMARK    5  A    between atoms: C25_28  and  O4_29 
REMARK    6  A    between atoms: C26_30  and  O5_31 
REMARK    7  A    between atoms: C27_32  and  O6_33 
REMARK    8  A    between atoms: C31_37  and  C32_38 
REMARK    9  A    between atoms: C32_38  and  C33_39 
REMARK   10  A    between atoms: C33_39  and  C34_40 
REMARK   11  A    between atoms: C38_44  and  O7_45 
ROOT
HETATM    1  C8  UNL     1      -6.503  48.089 -29.577  1.00  0.00     0.094 C 
HETATM    2  C9  UNL     1      -5.711  48.141 -30.917  1.00  0.00     0.067 C 
HETATM    3  C10 UNL     1      -6.387  47.748 -32.205  1.00  0.00    -0.027 C 
HETATM    4  C11 UNL     1      -6.985  46.582 -32.491  1.00  0.00    -0.025 C 
HETATM    5  C12 UNL     1      -7.178  45.434 -31.531  1.00  0.00     0.021 C 
HETATM    6  C13 UNL     1      -7.872  44.239 -32.255  1.00  0.00     0.019 C 
HETATM    7  C14 UNL     1      -8.145  43.028 -31.326  1.00  0.00     0.028 C 
HETATM    8  C15 UNL     1      -8.870  43.501 -30.058  1.00  0.00    -0.037 C 
HETATM    9  C16 UNL     1     -10.062  43.033 -29.657  1.00  0.00     0.057 C 
HETATM   10  C17 UNL     1     -10.848  42.113 -30.506  1.00  0.00     0.155 C 
HETATM   11  O3  UNL     1     -11.888  41.640 -30.056  1.00  0.00    -0.293 OA
HETATM   12  C18 UNL     1     -10.349  41.834 -31.918  1.00  0.00     0.075 C 
HETATM   13  C19 UNL     1     -10.954  40.540 -32.506  1.00  0.00     0.029 C 
HETATM   14  C20 UNL     1     -10.556  40.423 -33.992  1.00  0.00     0.008 C 
HETATM   15  C21 UNL     1      -9.048  40.434 -34.197  1.00  0.00     0.001 C 
HETATM   16  C22 UNL     1      -8.396  41.617 -33.478  1.00  0.00     0.011 C 
HETATM   17  C23 UNL     1      -8.807  41.751 -31.979  1.00  0.00    -0.019 C 
HETATM   18  C24 UNL     1      -8.298  40.468 -31.226  1.00  0.00     0.045 C 
HETATM   19  C25 UNL     1      -9.365  39.486 -30.735  1.00  0.00     0.148 C 
HETATM   20  C26 UNL     1     -10.585  39.298 -31.658  1.00  0.00     0.151 C 
HETATM   21  C27 UNL     1      -8.109  44.570 -29.323  1.00  0.00     0.090 C 
HETATM   22  C28 UNL     1      -8.562  45.188 -27.996  1.00  0.00     0.044 C 
HETATM   23  C29 UNL     1      -7.687  46.461 -27.869  1.00  0.00     0.012 C 
HETATM   24  C30 UNL     1      -6.959  46.643 -29.238  1.00  0.00     0.035 C 
HETATM   25  C31 UNL     1      -7.899  45.846 -30.216  1.00  0.00     0.009 C 
ENDROOT
BRANCH   1  26
HETATM   26  C7  UNL     1      -5.674  48.619 -28.398  1.00  0.00     0.186 A 
HETATM   27  C6  UNL     1      -4.270  48.143 -28.056  1.00  0.00     0.158 A 
HETATM   28  O1  UNL     1      -4.508  49.371 -28.770  1.00  0.00    -0.372 OA
BRANCH  27  29
HETATM   29  C4  UNL     1      -3.564  48.330 -26.727  1.00  0.00     0.017 C 
HETATM   30  C5  UNL     1      -4.503  48.152 -25.528  1.00  0.00     0.013 C 
BRANCH  29  31
HETATM   31  C2  UNL     1      -2.793  49.688 -26.681  1.00  0.00    -0.016 C 
HETATM   32  C1  UNL     1      -3.414  50.668 -25.672  1.00  0.00     0.010 C 
HETATM   33  C3  UNL     1      -2.736  50.376 -28.050  1.00  0.00     0.010 C 
ENDBRANCH  29  31
ENDBRANCH  27  29
ENDBRANCH   1  26
BRANCH   1  34
HETATM   34  O2  UNL     1      -7.633  48.959 -29.680  1.00  0.00    -0.386 OA
HETATM   35  H14 UNL     1      -7.308  49.870 -29.530  1.00  0.00     0.210 HD
ENDBRANCH   1  34
BRANCH  25  36
HETATM   36  C32 UNL     1      -9.213  46.705 -30.489  1.00  0.00     0.018 C 
BRANCH  36  37
HETATM   37  C33 UNL     1     -10.546  46.031 -30.824  1.00  0.00     0.039 C 
BRANCH  37  38
HETATM   38  C34 UNL     1     -11.590  46.303 -29.760  1.00  0.00    -0.056 A 
HETATM   39  C35 UNL     1     -12.629  45.390 -29.529  1.00  0.00     0.007 A 
HETATM   40  C36 UNL     1     -13.600  45.653 -28.559  1.00  0.00     0.003 A 
HETATM   41  C37 UNL     1     -13.539  46.826 -27.806  1.00  0.00     0.036 A 
HETATM   42  C38 UNL     1     -12.513  47.735 -28.040  1.00  0.00     0.066 A 
HETATM   43  C39 UNL     1     -11.545  47.486 -29.009  1.00  0.00     0.043 A 
BRANCH  42  44
HETATM   44  O7  UNL     1     -12.416  48.896 -27.333  1.00  0.00    -0.361 OA
HETATM   45  H51 UNL     1     -13.168  48.949 -26.722  1.00  0.00     0.217 HD
ENDBRANCH  42  44
ENDBRANCH  37  38
ENDBRANCH  36  37
ENDBRANCH  25  36
BRANCH  21  46
HETATM   46  O6  UNL     1      -6.842  43.940 -29.024  1.00  0.00    -0.384 OA
HETATM   47  H38 UNL     1      -7.028  43.181 -28.444  1.00  0.00     0.211 HD
ENDBRANCH  21  46
BRANCH  19  48
HETATM   48  O4  UNL     1      -8.747  38.219 -30.480  1.00  0.00    -0.393 OA
HETATM   49  H35 UNL     1      -8.562  37.836 -31.355  1.00  0.00     0.210 HD
ENDBRANCH  19  48
BRANCH  20  50
HETATM   50  O5  UNL     1     -10.397  38.133 -32.472  1.00  0.00    -0.393 OA
HETATM   51  H37 UNL     1     -10.542  37.372 -31.880  1.00  0.00     0.210 HD
ENDBRANCH  20  50
TORSDOF 11
ENDMDL
MODEL 6
REMARK minimizedAffinity -9.58527946
REMARK CNNscore 0.488349617
REMARK CNNaffinity 6.62612343
REMARK  11 active torsions:
REMARK  status: ('A' for Active; 'I' for Inactive)
REMARK    1  A    between atoms: C2_2  and  C4_4 
REMARK    2  A    between atoms: C4_4  and  C6_6 
REMARK    3  A    between atoms: C7_8  and  C8_9 
REMARK    4  A    between atoms: C8_9  and  O2_10 
REMARK    5  A    between atoms: C25_28  and  O4_29 
REMARK    6  A    between atoms: C26_30  and  O5_31 
REMARK    7  A    between atoms: C27_32  and  O6_33 
REMARK    8  A    between atoms: C31_37  and  C32_38 
REMARK    9  A    between atoms: C32_38  and  C33_39 
REMARK   10  A    between atoms: C33_39  and  C34_40 
REMARK   11  A    between atoms: C38_44  and  O7_45 
ROOT
HETATM    1  C8  UNL     1     -14.165  44.589 -27.041  1.00  0.00     0.094 C 
HETATM    2  C9  UNL     1     -14.057  43.097 -27.475  1.00  0.00     0.067 C 
HETATM    3  C10 UNL     1     -12.708  42.431 -27.549  1.00  0.00    -0.027 C 
HETATM    4  C11 UNL     1     -11.644  42.820 -28.269  1.00  0.00    -0.025 C 
HETATM    5  C12 UNL     1     -11.558  44.074 -29.104  1.00  0.00     0.021 C 
HETATM    6  C13 UNL     1     -10.176  44.143 -29.825  1.00  0.00     0.019 C 
HETATM    7  C14 UNL     1      -9.988  45.427 -30.677  1.00  0.00     0.028 C 
HETATM    8  C15 UNL     1     -10.317  46.663 -29.827  1.00  0.00    -0.037 C 
HETATM    9  C16 UNL     1      -9.458  47.670 -29.605  1.00  0.00     0.057 C 
HETATM   10  C17 UNL     1      -8.051  47.589 -30.052  1.00  0.00     0.155 C 
HETATM   11  O3  UNL     1      -7.330  48.572 -29.908  1.00  0.00    -0.293 OA
HETATM   12  C18 UNL     1      -7.555  46.269 -30.628  1.00  0.00     0.075 C 
HETATM   13  C19 UNL     1      -6.273  46.446 -31.473  1.00  0.00     0.029 C 
HETATM   14  C20 UNL     1      -5.727  45.057 -31.863  1.00  0.00     0.008 C 
HETATM   15  C21 UNL     1      -6.744  44.220 -32.626  1.00  0.00     0.001 C 
HETATM   16  C22 UNL     1      -8.085  44.168 -31.893  1.00  0.00     0.011 C 
HETATM   17  C23 UNL     1      -8.636  45.568 -31.481  1.00  0.00    -0.019 C 
HETATM   18  C24 UNL     1      -8.907  46.383 -32.798  1.00  0.00     0.045 C 
HETATM   19  C25 UNL     1      -7.984  47.573 -33.076  1.00  0.00     0.148 C 
HETATM   20  C26 UNL     1      -6.507  47.389 -32.678  1.00  0.00     0.151 C 
HETATM   21  C27 UNL     1     -11.703  46.613 -29.247  1.00  0.00     0.090 C 
HETATM   22  C28 UNL     1     -12.323  47.734 -28.406  1.00  0.00     0.044 C 
HETATM   23  C29 UNL     1     -13.550  47.057 -27.744  1.00  0.00     0.012 C 
HETATM   24  C30 UNL     1     -13.431  45.528 -28.036  1.00  0.00     0.035 C 
HETATM   25  C31 UNL     1     -11.889  45.367 -28.306  1.00  0.00     0.009 C 
ENDROOT
BRANCH   1  26
HETATM   26  C7  UNL     1     -15.625  45.052 -26.932  1.00  0.00     0.186 A 
HETATM   27  C6  UNL     1     -16.544  44.719 -25.765  1.00  0.00     0.158 A 
HETATM   28  O1  UNL     1     -15.882  45.994 -25.878  1.00  0.00    -0.372 OA
BRANCH  27  29
HETATM   29  C4  UNL     1     -18.058  44.809 -25.769  1.00  0.00     0.017 C 
HETATM   30  C5  UNL     1     -18.645  44.840 -27.185  1.00  0.00     0.013 C 
BRANCH  29  31
HETATM   31  C2  UNL     1     -18.557  46.002 -24.893  1.00  0.00    -0.016 C 
HETATM   32  C1  UNL     1     -18.108  45.869 -23.429  1.00  0.00     0.010 C 
HETATM   33  C3  UNL     1     -20.083  46.150 -24.919  1.00  0.00     0.010 C 
ENDBRANCH  29  31
ENDBRANCH  27  29
ENDBRANCH   1  26
BRANCH   1  34
HETATM   34  O2  UNL     1     -13.616  44.723 -25.727  1.00  0.00    -0.386 OA
HETATM   35  H14 UNL     1     -14.302  44.420 -25.097  1.00  0.00     0.210 HD
ENDBRANCH   1  34
BRANCH  25  36
HETATM   36  C32 UNL     1     -11.108  45.443 -26.920  1.00  0.00     0.018 C 
BRANCH  36  37
HETATM   37  C33 UNL     1      -9.579  45.386 -26.867  1.00  0.00     0.039 C 
BRANCH  37  38
HETATM   38  C34 UNL     1      -9.005  46.552 -26.088  1.00  0.00    -0.056 A 
HETATM   39  C35 UNL     1      -7.952  46.358 -25.183  1.00  0.00     0.007 A 
HETATM   40  C36 UNL     1      -7.437  47.433 -24.455  1.00  0.00     0.003 A 
HETATM   41  C37 UNL     1      -7.965  48.713 -24.627  1.00  0.00     0.036 A 
HETATM   42  C38 UNL     1      -9.014  48.905 -25.519  1.00  0.00     0.066 A 
HETATM   43  C39 UNL     1      -9.539  47.839 -26.244  1.00  0.00     0.043 A 
BRANCH  42  44
HETATM   44  O7  UNL     1      -9.564  50.136 -25.717  1.00  0.00    -0.361 OA
HETATM   45  H51 UNL     1      -9.124  50.769 -25.127  1.00  0.00     0.217 HD
ENDBRANCH  42  44
ENDBRANCH  37  38
ENDBRANCH  36  37
ENDBRANCH  25  36
BRANCH  21  46
HETATM   46  O6  UNL     1     -12.555  46.508 -30.410  1.00  0.00    -0.384 OA
HETATM   47  H38 UNL     1     -12.424  47.316 -30.935  1.00  0.00     0.211 HD
ENDBRANCH  21  46
BRANCH  19  48
HETATM   48  O4  UNL     1      -8.076  47.916 -34.465  1.00  0.00    -0.393 OA
HETATM   49  H35 UNL     1      -7.592  47.219 -34.940  1.00  0.00     0.210 HD
ENDBRANCH  19  48
BRANCH  20  50
HETATM   50  O5  UNL     1      -5.746  46.988 -33.825  1.00  0.00    -0.393 OA
HETATM   51  H37 UNL     1      -5.652  47.789 -34.372  1.00  0.00     0.210 HD
ENDBRANCH  20  50
TORSDOF 11
ENDMDL
MODEL 7
REMARK minimizedAffinity -8.19105434
REMARK CNNscore 0.487729728
REMARK CNNaffinity 6.67069626
REMARK  11 active torsions:
REMARK  status: ('A' for Active; 'I' for Inactive)
REMARK    1  A    between atoms: C2_2  and  C4_4 
REMARK    2  A    between atoms: C4_4  and  C6_6 
REMARK    3  A    between atoms: C7_8  and  C8_9 
REMARK    4  A    between atoms: C8_9  and  O2_10 
REMARK    5  A    between atoms: C25_28  and  O4_29 
REMARK    6  A    between atoms: C26_30  and  O5_31 
REMARK    7  A    between atoms: C27_32  and  O6_33 
REMARK    8  A    between atoms: C31_37  and  C32_38 
REMARK    9  A    between atoms: C32_38  and  C33_39 
REMARK   10  A    between atoms: C33_39  and  C34_40 
REMARK   11  A    between atoms: C38_44  and  O7_45 
ROOT
HETATM    1  C8  UNL     1      -9.111  46.848 -25.397  1.00  0.00     0.094 C 
HETATM    2  C9  UNL     1      -9.647  48.233 -25.868  1.00  0.00     0.067 C 
HETATM    3  C10 UNL     1     -10.852  48.306 -26.769  1.00  0.00    -0.027 C 
HETATM    4  C11 UNL     1     -11.011  47.727 -27.969  1.00  0.00    -0.025 C 
HETATM    5  C12 UNL     1     -10.025  46.800 -28.635  1.00  0.00     0.021 C 
HETATM    6  C13 UNL     1     -10.552  46.377 -30.041  1.00  0.00     0.019 C 
HETATM    7  C14 UNL     1      -9.613  45.387 -30.781  1.00  0.00     0.028 C 
HETATM    8  C15 UNL     1      -9.273  44.209 -29.856  1.00  0.00    -0.037 C 
HETATM    9  C16 UNL     1      -9.518  42.925 -30.159  1.00  0.00     0.057 C 
HETATM   10  C17 UNL     1     -10.284  42.555 -31.368  1.00  0.00     0.155 C 
HETATM   11  O3  UNL     1     -10.402  41.366 -31.649  1.00  0.00    -0.293 OA
HETATM   12  C18 UNL     1     -10.929  43.671 -32.179  1.00  0.00     0.075 C 
HETATM   13  C19 UNL     1     -11.270  43.224 -33.618  1.00  0.00     0.029 C 
HETATM   14  C20 UNL     1     -12.085  44.334 -34.314  1.00  0.00     0.008 C 
HETATM   15  C21 UNL     1     -11.353  45.669 -34.341  1.00  0.00     0.001 C 
HETATM   16  C22 UNL     1     -10.852  46.057 -32.949  1.00  0.00     0.011 C 
HETATM   17  C23 UNL     1     -10.041  44.934 -32.232  1.00  0.00    -0.019 C 
HETATM   18  C24 UNL     1      -8.749  44.658 -33.084  1.00  0.00     0.045 C 
HETATM   19  C25 UNL     1      -8.677  43.314 -33.815  1.00  0.00     0.148 C 
HETATM   20  C26 UNL     1     -10.005  42.791 -34.398  1.00  0.00     0.151 C 
HETATM   21  C27 UNL     1      -8.656  44.653 -28.559  1.00  0.00     0.090 C 
HETATM   22  C28 UNL     1      -8.163  43.693 -27.471  1.00  0.00     0.044 C 
HETATM   23  C29 UNL     1      -7.994  44.606 -26.229  1.00  0.00     0.012 C 
HETATM   24  C30 UNL     1      -8.633  45.983 -26.595  1.00  0.00     0.035 C 
HETATM   25  C31 UNL     1      -9.627  45.585 -27.748  1.00  0.00     0.009 C 
ENDROOT
BRANCH   1  26
HETATM   26  C7  UNL     1      -7.944  46.988 -24.410  1.00  0.00     0.186 A 
HETATM   27  C6  UNL     1      -6.946  48.136 -24.422  1.00  0.00     0.158 A 
HETATM   28  O1  UNL     1      -8.052  48.095 -23.500  1.00  0.00    -0.372 OA
BRANCH  27  29
HETATM   29  C4  UNL     1      -5.585  48.142 -23.751  1.00  0.00     0.017 C 
HETATM   30  C5  UNL     1      -5.625  48.732 -22.337  1.00  0.00     0.013 C 
BRANCH  29  31
HETATM   31  C2  UNL     1      -4.513  48.833 -24.653  1.00  0.00    -0.016 C 
HETATM   32  C1  UNL     1      -4.575  48.336 -26.106  1.00  0.00     0.010 C 
HETATM   33  C3  UNL     1      -3.086  48.625 -24.132  1.00  0.00     0.010 C 
ENDBRANCH  29  31
ENDBRANCH  27  29
ENDBRANCH   1  26
BRANCH   1  34
HETATM   34  O2  UNL     1     -10.150  46.177 -24.678  1.00  0.00    -0.386 OA
HETATM   35  H14 UNL     1     -10.163  46.555 -23.775  1.00  0.00     0.210 HD
ENDBRANCH   1  34
BRANCH  25  36
HETATM   36  C32 UNL     1     -10.894  44.856 -27.114  1.00  0.00     0.018 C 
BRANCH  36  37
HETATM   37  C33 UNL     1     -11.939  44.171 -27.997  1.00  0.00     0.039 C 
BRANCH  37  38
HETATM   38  C34 UNL     1     -13.338  44.668 -27.692  1.00  0.00    -0.056 A 
HETATM   39  C35 UNL     1     -13.584  45.468 -26.568  1.00  0.00     0.007 A 
HETATM   40  C36 UNL     1     -14.878  45.909 -26.282  1.00  0.00     0.003 A 
HETATM   41  C37 UNL     1     -15.939  45.560 -27.119  1.00  0.00     0.036 A 
HETATM   42  C38 UNL     1     -15.696  44.761 -28.231  1.00  0.00     0.066 A 
HETATM   43  C39 UNL     1     -14.412  44.311 -28.520  1.00  0.00     0.043 A 
BRANCH  42  44
HETATM   44  O7  UNL     1     -16.701  44.392 -29.074  1.00  0.00    -0.361 OA
HETATM   45  H51 UNL     1     -17.537  44.749 -28.732  1.00  0.00     0.217 HD
ENDBRANCH  42  44
ENDBRANCH  37  38
ENDBRANCH  36  37
ENDBRANCH  25  36
BRANCH  21  46
HETATM   46  O6  UNL     1      -7.476  45.379 -28.975  1.00  0.00    -0.384 OA
HETATM   47  H38 UNL     1      -6.900  44.748 -29.439  1.00  0.00     0.211 HD
ENDBRANCH  21  46
BRANCH  19  48
HETATM   48  O4  UNL     1      -7.691  43.402 -34.851  1.00  0.00    -0.393 OA
HETATM   49  H35 UNL     1      -8.091  43.948 -35.549  1.00  0.00     0.210 HD
ENDBRANCH  19  48
BRANCH  20  50
HETATM   50  O5  UNL     1     -10.090  43.138 -35.786  1.00  0.00    -0.393 OA
HETATM   51  H37 UNL     1      -9.479  42.533 -36.247  1.00  0.00     0.210 HD
ENDBRANCH  20  50
TORSDOF 11
ENDMDL
MODEL 8
REMARK minimizedAffinity -7.62465668
REMARK CNNscore 0.460425794
REMARK CNNaffinity 6.62537956
REMARK  11 active torsions:
REMARK  status: ('A' for Active; 'I' for Inactive)
REMARK    1  A    between atoms: C2_2  and  C4_4 
REMARK    2  A    between atoms: C4_4  and  C6_6 
REMARK    3  A    between atoms: C7_8  and  C8_9 
REMARK    4  A    between atoms: C8_9  and  O2_10 
REMARK    5  A    between atoms: C25_28  and  O4_29 
REMARK    6  A    between atoms: C26_30  and  O5_31 
REMARK    7  A    between atoms: C27_32  and  O6_33 
REMARK    8  A    between atoms: C31_37  and  C32_38 
REMARK    9  A    between atoms: C32_38  and  C33_39 
REMARK   10  A    between atoms: C33_39  and  C34_40 
REMARK   11  A    between atoms: C38_44  and  O7_45 
ROOT
HETATM    1  C8  UNL     1       1.920  53.833  -8.835  1.00  0.00     0.094 C 
HETATM    2  C9  UNL     1       1.630  55.274  -9.351  1.00  0.00     0.067 C 
HETATM    3  C10 UNL     1       2.771  56.176  -9.744  1.00  0.00    -0.027 C 
HETATM    4  C11 UNL     1       3.813  56.551  -8.987  1.00  0.00    -0.025 C 
HETATM    5  C12 UNL     1       4.100  56.070  -7.585  1.00  0.00     0.021 C 
HETATM    6  C13 UNL     1       5.375  56.776  -7.027  1.00  0.00     0.019 C 
HETATM    7  C14 UNL     1       5.765  56.307  -5.600  1.00  0.00     0.028 C 
HETATM    8  C15 UNL     1       5.826  54.773  -5.559  1.00  0.00    -0.037 C 
HETATM    9  C16 UNL     1       6.914  54.076  -5.199  1.00  0.00     0.057 C 
HETATM   10  C17 UNL     1       8.208  54.748  -4.953  1.00  0.00     0.155 C 
HETATM   11  O3  UNL     1       9.149  54.079  -4.537  1.00  0.00    -0.293 OA
HETATM   12  C18 UNL     1       8.318  56.233  -5.273  1.00  0.00     0.075 C 
HETATM   13  C19 UNL     1       9.509  56.900  -4.548  1.00  0.00     0.029 C 
HETATM   14  C20 UNL     1       9.671  58.345  -5.062  1.00  0.00     0.008 C 
HETATM   15  C21 UNL     1       8.412  59.179  -4.875  1.00  0.00     0.001 C 
HETATM   16  C22 UNL     1       7.181  58.463  -5.435  1.00  0.00     0.011 C 
HETATM   17  C23 UNL     1       7.019  56.996  -4.931  1.00  0.00    -0.019 C 
HETATM   18  C24 UNL     1       6.807  57.044  -3.375  1.00  0.00     0.045 C 
HETATM   19  C25 UNL     1       7.946  56.506  -2.505  1.00  0.00     0.148 C 
HETATM   20  C26 UNL     1       9.374  56.793  -3.009  1.00  0.00     0.151 C 
HETATM   21  C27 UNL     1       4.536  54.132  -5.991  1.00  0.00     0.090 C 
HETATM   22  C28 UNL     1       4.287  52.620  -5.994  1.00  0.00     0.044 C 
HETATM   23  C29 UNL     1       3.014  52.462  -6.864  1.00  0.00     0.012 C 
HETATM   24  C30 UNL     1       2.742  53.853  -7.518  1.00  0.00     0.035 C 
HETATM   25  C31 UNL     1       4.166  54.520  -7.468  1.00  0.00     0.009 C 
ENDROOT
BRANCH   1  26
HETATM   26  C7  UNL     1       0.628  53.043  -8.583  1.00  0.00     0.186 A 
HETATM   27  C6  UNL     1      -0.496  52.893  -9.597  1.00  0.00     0.158 A 
HETATM   28  O1  UNL     1       0.481  51.856  -9.380  1.00  0.00    -0.372 OA
BRANCH  27  29
HETATM   29  C4  UNL     1      -1.921  52.469  -9.293  1.00  0.00     0.017 C 
HETATM   30  C5  UNL     1      -2.004  51.063  -8.687  1.00  0.00     0.013 C 
BRANCH  29  31
HETATM   31  C2  UNL     1      -2.839  52.631 -10.546  1.00  0.00    -0.016 C 
HETATM   32  C1  UNL     1      -2.041  52.556 -11.859  1.00  0.00     0.010 C 
HETATM   33  C3  UNL     1      -3.623  53.949 -10.533  1.00  0.00     0.010 C 
ENDBRANCH  29  31
ENDBRANCH  27  29
ENDBRANCH   1  26
BRANCH   1  34
HETATM   34  O2  UNL     1       2.622  53.116  -9.854  1.00  0.00    -0.386 OA
HETATM   35  H14 UNL     1       1.955  52.820 -10.507  1.00  0.00     0.210 HD
ENDBRANCH   1  34
BRANCH  25  36
HETATM   36  C32 UNL     1       5.087  53.866  -8.592  1.00  0.00     0.018 C 
BRANCH  36  37
HETATM   37  C33 UNL     1       6.571  53.593  -8.341  1.00  0.00     0.039 C 
BRANCH  37  38
HETATM   38  C34 UNL     1       6.915  52.134  -8.561  1.00  0.00    -0.056 A 
HETATM   39  C35 UNL     1       7.517  51.379  -7.545  1.00  0.00     0.007 A 
HETATM   40  C36 UNL     1       7.847  50.039  -7.758  1.00  0.00     0.003 A 
HETATM   41  C37 UNL     1       7.576  49.438  -8.988  1.00  0.00     0.036 A 
HETATM   42  C38 UNL     1       6.986  50.188  -9.999  1.00  0.00     0.066 A 
HETATM   43  C39 UNL     1       6.659  51.526  -9.798  1.00  0.00     0.043 A 
BRANCH  42  44
HETATM   44  O7  UNL     1       6.706  49.644 -11.217  1.00  0.00    -0.361 OA
HETATM   45  H51 UNL     1       7.015  48.724 -11.223  1.00  0.00     0.217 HD
ENDBRANCH  42  44
ENDBRANCH  37  38
ENDBRANCH  36  37
ENDBRANCH  25  36
BRANCH  21  46
HETATM   46  O6  UNL     1       3.564  54.665  -5.063  1.00  0.00    -0.384 OA
HETATM   47  H38 UNL     1       3.823  54.367  -4.173  1.00  0.00     0.211 HD
ENDBRANCH  21  46
BRANCH  19  48
HETATM   48  O4  UNL     1       7.790  57.008  -1.172  1.00  0.00    -0.393 OA
HETATM   49  H35 UNL     1       8.044  57.946  -1.214  1.00  0.00     0.210 HD
ENDBRANCH  19  48
BRANCH  20  50
HETATM   50  O5  UNL     1       9.894  57.953  -2.347  1.00  0.00    -0.393 OA
HETATM   51  H37 UNL     1      10.113  57.664  -1.442  1.00  0.00     0.210 HD
ENDBRANCH  20  50
TORSDOF 11
ENDMDL
MODEL 9
REMARK minimizedAffinity -10.4058027
REMARK CNNscore 0.415527105
REMARK CNNaffinity 7.17516756
REMARK  11 active torsions:
REMARK  status: ('A' for Active; 'I' for Inactive)
REMARK    1  A    between atoms: C2_2  and  C4_4 
REMARK    2  A    between atoms: C4_4  and  C6_6 
REMARK    3  A    between atoms: C7_8  and  C8_9 
REMARK    4  A    between atoms: C8_9  and  O2_10 
REMARK    5  A    between atoms: C25_28  and  O4_29 
REMARK    6  A    between atoms: C26_30  and  O5_31 
REMARK    7  A    between atoms: C27_32  and  O6_33 
REMARK    8  A    between atoms: C31_37  and  C32_38 
REMARK    9  A    between atoms: C32_38  and  C33_39 
REMARK   10  A    between atoms: C33_39  and  C34_40 
REMARK   11  A    between atoms: C38_44  and  O7_45 
ROOT
HETATM    1  C8  UNL     1      -1.428  50.125 -20.199  1.00  0.00     0.094 C 
HETATM    2  C9  UNL     1      -0.816  48.711 -19.974  1.00  0.00     0.067 C 
HETATM    3  C10 UNL     1      -1.017  47.632 -21.006  1.00  0.00    -0.027 C 
HETATM    4  C11 UNL     1      -2.180  47.160 -21.478  1.00  0.00    -0.025 C 
HETATM    5  C12 UNL     1      -3.550  47.683 -21.123  1.00  0.00     0.021 C 
HETATM    6  C13 UNL     1      -4.649  46.839 -21.840  1.00  0.00     0.019 C 
HETATM    7  C14 UNL     1      -6.092  47.337 -21.559  1.00  0.00     0.028 C 
HETATM    8  C15 UNL     1      -6.179  48.845 -21.832  1.00  0.00    -0.037 C 
HETATM    9  C16 UNL     1      -7.035  49.401 -22.704  1.00  0.00     0.057 C 
HETATM   10  C17 UNL     1      -7.871  48.567 -23.593  1.00  0.00     0.155 C 
HETATM   11  O3  UNL     1      -8.702  49.119 -24.308  1.00  0.00    -0.293 OA
HETATM   12  C18 UNL     1      -7.623  47.064 -23.612  1.00  0.00     0.075 C 
HETATM   13  C19 UNL     1      -8.827  46.281 -24.181  1.00  0.00     0.029 C 
HETATM   14  C20 UNL     1      -8.436  44.798 -24.345  1.00  0.00     0.008 C 
HETATM   15  C21 UNL     1      -7.974  44.167 -23.039  1.00  0.00     0.001 C 
HETATM   16  C22 UNL     1      -6.896  45.014 -22.362  1.00  0.00     0.011 C 
HETATM   17  C23 UNL     1      -7.277  46.519 -22.208  1.00  0.00    -0.019 C 
HETATM   18  C24 UNL     1      -8.532  46.601 -21.265  1.00  0.00     0.045 C 
HETATM   19  C25 UNL     1      -9.855  47.025 -21.910  1.00  0.00     0.148 C 
HETATM   20  C26 UNL     1     -10.106  46.504 -23.338  1.00  0.00     0.151 C 
HETATM   21  C27 UNL     1      -5.183  49.636 -21.030  1.00  0.00     0.090 C 
HETATM   22  C28 UNL     1      -5.081  51.165 -21.054  1.00  0.00     0.044 C 
HETATM   23  C29 UNL     1      -3.703  51.448 -20.402  1.00  0.00     0.012 C 
HETATM   24  C30 UNL     1      -2.979  50.072 -20.267  1.00  0.00     0.035 C 
HETATM   25  C31 UNL     1      -3.707  49.211 -21.365  1.00  0.00     0.009 C 
ENDROOT
BRANCH   1  26
HETATM   26  C7  UNL     1      -1.031  51.108 -19.088  1.00  0.00     0.186 A 
HETATM   27  C6  UNL     1       0.236  50.989 -18.253  1.00  0.00     0.158 A 
HETATM   28  O1  UNL     1       0.138  51.895 -19.368  1.00  0.00    -0.372 OA
BRANCH  27  29
HETATM   29  C4  UNL     1       0.496  51.673 -16.924  1.00  0.00     0.017 C 
HETATM   30  C5  UNL     1       1.798  52.482 -16.920  1.00  0.00     0.013 C 
BRANCH  29  31
HETATM   31  C2  UNL     1       0.424  50.656 -15.741  1.00  0.00    -0.016 C 
HETATM   32  C1  UNL     1       1.680  50.713 -14.856  1.00  0.00     0.010 C 
HETATM   33  C3  UNL     1       0.236  49.211 -16.219  1.00  0.00     0.010 C 
ENDBRANCH  29  31
ENDBRANCH  27  29
ENDBRANCH   1  26
BRANCH   1  34
HETATM   34  O2  UNL     1      -0.892  50.668 -21.408  1.00  0.00    -0.386 OA
HETATM   35  H14 UNL     1      -0.001  51.014 -21.196  1.00  0.00     0.210 HD
ENDBRANCH   1  34
BRANCH  25  36
HETATM   36  C32 UNL     1      -3.185  49.654 -22.803  1.00  0.00     0.018 C 
BRANCH  36  37
HETATM   37  C33 UNL     1      -3.155  48.669 -23.974  1.00  0.00     0.039 C 
BRANCH  37  38
HETATM   38  C34 UNL     1      -3.192  49.388 -25.308  1.00  0.00    -0.056 A 
HETATM   39  C35 UNL     1      -3.425  48.680 -26.495  1.00  0.00     0.007 A 
HETATM   40  C36 UNL     1      -3.441  49.344 -27.724  1.00  0.00     0.003 A 
HETATM   41  C37 UNL     1      -3.230  50.722 -27.779  1.00  0.00     0.036 A 
HETATM   42  C38 UNL     1      -2.992  51.423 -26.602  1.00  0.00     0.066 A 
HETATM   43  C39 UNL     1      -2.967  50.770 -25.374  1.00  0.00     0.043 A 
BRANCH  42  44
HETATM   44  O7  UNL     1      -2.777  52.769 -26.608  1.00  0.00    -0.361 OA
HETATM   45  H51 UNL     1      -2.791  53.080 -27.527  1.00  0.00     0.217 HD
ENDBRANCH  42  44
ENDBRANCH  37  38
ENDBRANCH  36  37
ENDBRANCH  25  36
BRANCH  21  46
HETATM   46  O6  UNL     1      -5.512  49.308 -19.660  1.00  0.00    -0.384 OA
HETATM   47  H38 UNL     1      -6.418  49.623 -19.500  1.00  0.00     0.211 HD
ENDBRANCH  21  46
BRANCH  19  48
HETATM   48  O4  UNL     1     -10.934  46.636 -21.052  1.00  0.00    -0.393 OA
HETATM   49  H35 UNL     1     -11.009  45.671 -21.144  1.00  0.00     0.210 HD
ENDBRANCH  19  48
BRANCH  20  50
HETATM   50  O5  UNL     1     -10.921  45.326 -23.284  1.00  0.00    -0.393 OA
HETATM   51  H37 UNL     1     -11.822  45.638 -23.081  1.00  0.00     0.210 HD
ENDBRANCH  20  50
TORSDOF 11
ENDMDL
