MODEL 1
REMARK minimizedAffinity -11.0728321
REMARK  0 active torsions:
REMARK  status: ('A' for Active; 'I' for Inactive)
ROOT
HETATM    1  C1  UNL     1      -7.424  45.983 -20.677  1.00  0.00     0.023 C 
HETATM    2  C2  UNL     1      -7.787  47.381 -21.227  1.00  0.00     0.017 C 
HETATM    3  C3  UNL     1      -9.009  47.151 -22.155  1.00  0.00     0.023 C 
HETATM    4  C4  UNL     1      -8.195  48.277 -20.050  1.00  0.00     0.135 C 
HETATM    5  O1  UNL     1      -9.375  48.465 -19.748  1.00  0.00    -0.297 OA
HETATM    6  C5  UNL     1      -7.090  48.848 -19.186  1.00  0.00     0.080 C 
HETATM    7  C6  UNL     1      -5.975  49.490 -20.008  1.00  0.00     0.017 C 
HETATM    8  C7  UNL     1      -5.385  48.585 -21.137  1.00  0.00    -0.035 C 
HETATM    9  C8  UNL     1      -4.650  47.408 -20.448  1.00  0.00     0.016 C 
HETATM   10  C9  UNL     1      -6.599  48.087 -22.007  1.00  0.00     0.009 C 
HETATM   11  C10 UNL     1      -7.174  49.220 -22.906  1.00  0.00     0.007 C 
HETATM   12  C11 UNL     1      -6.247  50.370 -23.278  1.00  0.00     0.011 C 
HETATM   13  C12 UNL     1      -4.760  49.993 -23.377  1.00  0.00    -0.032 C 
HETATM   14  C13 UNL     1      -4.638  48.877 -24.461  1.00  0.00     0.016 C 
HETATM   15  C14 UNL     1      -4.311  49.460 -21.974  1.00  0.00     0.003 C 
HETATM   16  C15 UNL     1      -2.880  48.867 -22.095  1.00  0.00     0.006 C 
HETATM   17  C16 UNL     1      -1.921  49.673 -22.986  1.00  0.00     0.006 C 
HETATM   18  C17 UNL     1      -2.365  51.126 -23.166  1.00  0.00    -0.000 C 
HETATM   19  C18 UNL     1      -1.345  52.061 -23.849  1.00  0.00     0.009 C 
HETATM   20  C19 UNL     1       0.150  51.947 -23.526  1.00  0.00     0.067 C 
HETATM   21  C20 UNL     1       0.807  52.832 -24.618  1.00  0.00     0.140 C 
HETATM   22  C21 UNL     1      -0.282  53.131 -25.666  1.00  0.00     0.042 C 
HETATM   23  C22 UNL     1      -1.379  52.088 -25.386  1.00  0.00    -0.037 C 
HETATM   24  C23 UNL     1      -0.979  50.773 -26.091  1.00  0.00     0.015 C 
HETATM   25  C24 UNL     1      -2.778  52.527 -25.826  1.00  0.00     0.010 C 
HETATM   26  C25 UNL     1      -3.849  51.555 -25.309  1.00  0.00     0.011 C 
HETATM   27  C26 UNL     1      -3.835  51.284 -23.762  1.00  0.00    -0.032 C 
HETATM   28  C27 UNL     1      -4.410  52.587 -23.107  1.00  0.00     0.016 C 
HETATM   29  O2  UNL     1       1.234  54.065 -24.008  1.00  0.00    -0.313 OA
HETATM   30  C28 UNL     1       1.135  53.974 -22.649  1.00  0.00     0.297 C 
HETATM   31  O3  UNL     1       1.412  54.856 -21.853  1.00  0.00    -0.262 OA
HETATM   32  C29 UNL     1       0.590  52.653 -22.297  1.00  0.00     0.175 A 
HETATM   33  C30 UNL     1       0.208  52.259 -20.894  1.00  0.00     0.218 A 
HETATM   34  O4  UNL     1       1.455  51.851 -21.467  1.00  0.00    -0.364 OA
ENDROOT
TORSDOF 0
ENDMDL
MODEL 2
REMARK minimizedAffinity -10.9386539
REMARK  0 active torsions:
REMARK  status: ('A' for Active; 'I' for Inactive)
ROOT
HETATM    1  C1  UNL     1       1.493  51.781 -26.104  1.00  0.00     0.023 C 
HETATM    2  C2  UNL     1       0.416  52.654 -25.421  1.00  0.00     0.017 C 
HETATM    3  C3  UNL     1       1.186  53.522 -24.390  1.00  0.00     0.023 C 
HETATM    4  C4  UNL     1      -0.222  53.560 -26.483  1.00  0.00     0.135 C 
HETATM    5  O1  UNL     1       0.134  54.728 -26.647  1.00  0.00    -0.297 OA
HETATM    6  C5  UNL     1      -1.244  52.940 -27.413  1.00  0.00     0.080 C 
HETATM    7  C6  UNL     1      -2.303  52.133 -26.667  1.00  0.00     0.017 C 
HETATM    8  C7  UNL     1      -1.739  51.068 -25.672  1.00  0.00    -0.035 C 
HETATM    9  C8  UNL     1      -1.030  49.979 -26.515  1.00  0.00     0.016 C 
HETATM   10  C9  UNL     1      -0.734  51.816 -24.719  1.00  0.00     0.009 C 
HETATM   11  C10 UNL     1      -1.473  52.717 -23.687  1.00  0.00     0.007 C 
HETATM   12  C11 UNL     1      -2.910  52.358 -23.332  1.00  0.00     0.011 C 
HETATM   13  C12 UNL     1      -3.238  50.858 -23.414  1.00  0.00    -0.032 C 
HETATM   14  C13 UNL     1      -2.277  50.121 -22.431  1.00  0.00     0.016 C 
HETATM   15  C14 UNL     1      -2.988  50.398 -24.890  1.00  0.00     0.003 C 
HETATM   16  C15 UNL     1      -3.099  48.850 -24.960  1.00  0.00     0.006 C 
HETATM   17  C16 UNL     1      -4.234  48.245 -24.117  1.00  0.00     0.006 C 
HETATM   18  C17 UNL     1      -5.329  49.261 -23.789  1.00  0.00    -0.000 C 
HETATM   19  C18 UNL     1      -6.610  48.685 -23.150  1.00  0.00     0.009 C 
HETATM   20  C19 UNL     1      -7.184  47.347 -23.634  1.00  0.00     0.067 C 
HETATM   21  C20 UNL     1      -8.251  47.021 -22.555  1.00  0.00     0.140 C 
HETATM   22  C21 UNL     1      -8.012  47.990 -21.381  1.00  0.00     0.042 C 
HETATM   23  C22 UNL     1      -6.592  48.536 -21.620  1.00  0.00    -0.037 C 
HETATM   24  C23 UNL     1      -5.584  47.511 -21.056  1.00  0.00     0.015 C 
HETATM   25  C24 UNL     1      -6.349  49.919 -21.008  1.00  0.00     0.010 C 
HETATM   26  C25 UNL     1      -5.009  50.502 -21.480  1.00  0.00     0.011 C 
HETATM   27  C26 UNL     1      -4.800  50.562 -23.036  1.00  0.00    -0.032 C 
HETATM   28  C27 UNL     1      -5.718  51.731 -23.533  1.00  0.00     0.016 C 
HETATM   29  O2  UNL     1      -9.555  47.264 -23.116  1.00  0.00    -0.313 OA
HETATM   30  C28 UNL     1      -9.454  47.480 -24.461  1.00  0.00     0.297 C 
HETATM   31  O3  UNL     1     -10.380  47.724 -25.215  1.00  0.00    -0.262 OA
HETATM   32  C29 UNL     1      -8.035  47.422 -24.847  1.00  0.00     0.175 A 
HETATM   33  C30 UNL     1      -7.535  47.761 -26.228  1.00  0.00     0.218 A 
HETATM   34  O4  UNL     1      -7.721  46.402 -25.818  1.00  0.00    -0.364 OA
ENDROOT
TORSDOF 0
ENDMDL
MODEL 3
REMARK minimizedAffinity -10.5889769
REMARK  0 active torsions:
REMARK  status: ('A' for Active; 'I' for Inactive)
ROOT
HETATM    1  C1  UNL     1       0.234  50.756 -26.927  1.00  0.00     0.023 C 
HETATM    2  C2  UNL     1      -0.177  51.703 -25.777  1.00  0.00     0.017 C 
HETATM    3  C3  UNL     1       1.141  52.374 -25.308  1.00  0.00     0.023 C 
HETATM    4  C4  UNL     1      -1.126  52.769 -26.340  1.00  0.00     0.135 C 
HETATM    5  O1  UNL     1      -0.731  53.890 -26.666  1.00  0.00    -0.297 OA
HETATM    6  C5  UNL     1      -2.564  52.368 -26.591  1.00  0.00     0.080 C 
HETATM    7  C6  UNL     1      -3.189  51.648 -25.399  1.00  0.00     0.017 C 
HETATM    8  C7  UNL     1      -2.362  50.439 -24.854  1.00  0.00    -0.035 C 
HETATM    9  C8  UNL     1      -2.376  49.340 -25.945  1.00  0.00     0.016 C 
HETATM   10  C9  UNL     1      -0.905  50.968 -24.574  1.00  0.00     0.009 C 
HETATM   11  C10 UNL     1      -0.847  51.869 -23.307  1.00  0.00     0.007 C 
HETATM   12  C11 UNL     1      -1.923  51.673 -22.247  1.00  0.00     0.011 C 
HETATM   13  C12 UNL     1      -2.474  50.241 -22.145  1.00  0.00    -0.032 C 
HETATM   14  C13 UNL     1      -1.270  49.305 -21.818  1.00  0.00     0.016 C 
HETATM   15  C14 UNL     1      -3.106  49.876 -23.531  1.00  0.00     0.003 C 
HETATM   16  C15 UNL     1      -3.475  48.368 -23.534  1.00  0.00     0.006 C 
HETATM   17  C16 UNL     1      -4.082  47.849 -22.219  1.00  0.00     0.006 C 
HETATM   18  C17 UNL     1      -4.672  48.969 -21.361  1.00  0.00    -0.000 C 
HETATM   19  C18 UNL     1      -5.503  48.515 -20.142  1.00  0.00     0.009 C 
HETATM   20  C19 UNL     1      -6.444  47.309 -20.251  1.00  0.00     0.067 C 
HETATM   21  C20 UNL     1      -6.827  47.037 -18.771  1.00  0.00     0.140 C 
HETATM   22  C21 UNL     1      -5.863  47.866 -17.901  1.00  0.00     0.042 C 
HETATM   23  C22 UNL     1      -4.712  48.239 -18.852  1.00  0.00    -0.037 C 
HETATM   24  C23 UNL     1      -3.731  47.047 -18.907  1.00  0.00     0.015 C 
HETATM   25  C24 UNL     1      -3.974  49.522 -18.459  1.00  0.00     0.010 C 
HETATM   26  C25 UNL     1      -3.006  49.962 -19.568  1.00  0.00     0.011 C 
HETATM   27  C26 UNL     1      -3.633  50.123 -20.999  1.00  0.00    -0.032 C 
HETATM   28  C27 UNL     1      -4.481  51.439 -20.934  1.00  0.00     0.016 C 
HETATM   29  O2  UNL     1      -8.175  47.495 -18.559  1.00  0.00    -0.313 OA
HETATM   30  C28 UNL     1      -8.759  47.807 -19.754  1.00  0.00     0.297 C 
HETATM   31  O3  UNL     1      -9.891  48.232 -19.905  1.00  0.00    -0.262 OA
HETATM   32  C29 UNL     1      -7.779  47.595 -20.832  1.00  0.00     0.175 A 
HETATM   33  C30 UNL     1      -8.028  47.979 -22.267  1.00  0.00     0.218 A 
HETATM   34  O4  UNL     1      -8.181  46.627 -21.823  1.00  0.00    -0.364 OA
ENDROOT
TORSDOF 0
ENDMDL
MODEL 4
REMARK minimizedAffinity -10.0505648
REMARK  0 active torsions:
REMARK  status: ('A' for Active; 'I' for Inactive)
ROOT
HETATM    1  C1  UNL     1      -9.319  47.962 -20.125  1.00  0.00     0.023 C 
HETATM    2  C2  UNL     1      -8.007  47.148 -20.070  1.00  0.00     0.017 C 
HETATM    3  C3  UNL     1      -8.013  46.456 -18.680  1.00  0.00     0.023 C 
HETATM    4  C4  UNL     1      -8.047  46.083 -21.175  1.00  0.00     0.135 C 
HETATM    5  O1  UNL     1      -8.381  44.919 -20.950  1.00  0.00    -0.297 OA
HETATM    6  C5  UNL     1      -7.767  46.533 -22.593  1.00  0.00     0.080 C 
HETATM    7  C6  UNL     1      -6.509  47.391 -22.699  1.00  0.00     0.017 C 
HETATM    8  C7  UNL     1      -6.453  48.601 -21.712  1.00  0.00    -0.035 C 
HETATM    9  C8  UNL     1      -7.564  49.594 -22.134  1.00  0.00     0.016 C 
HETATM   10  C9  UNL     1      -6.701  48.027 -20.267  1.00  0.00     0.009 C 
HETATM   11  C10 UNL     1      -5.466  47.244 -19.732  1.00  0.00     0.007 C 
HETATM   12  C11 UNL     1      -4.101  47.592 -20.311  1.00  0.00     0.011 C 
HETATM   13  C12 UNL     1      -3.946  49.053 -20.763  1.00  0.00    -0.032 C 
HETATM   14  C13 UNL     1      -4.207  49.953 -19.515  1.00  0.00     0.016 C 
HETATM   15  C14 UNL     1      -5.012  49.321 -21.878  1.00  0.00     0.003 C 
HETATM   16  C15 UNL     1      -5.031  50.839 -22.203  1.00  0.00     0.006 C 
HETATM   17  C16 UNL     1      -3.647  51.508 -22.246  1.00  0.00     0.006 C 
HETATM   18  C17 UNL     1      -2.516  50.503 -22.470  1.00  0.00    -0.000 C 
HETATM   19  C18 UNL     1      -1.126  51.109 -22.759  1.00  0.00     0.009 C 
HETATM   20  C19 UNL     1      -0.990  52.346 -23.655  1.00  0.00     0.067 C 
HETATM   21  C20 UNL     1       0.485  52.773 -23.431  1.00  0.00     0.140 C 
HETATM   22  C21 UNL     1       1.001  51.980 -22.215  1.00  0.00     0.042 C 
HETATM   23  C22 UNL     1      -0.276  51.462 -21.527  1.00  0.00    -0.037 C 
HETATM   24  C23 UNL     1      -0.828  52.593 -20.630  1.00  0.00     0.015 C 
HETATM   25  C24 UNL     1      -0.064  50.185 -20.710  1.00  0.00     0.010 C 
HETATM   26  C25 UNL     1      -1.407  49.596 -20.252  1.00  0.00     0.011 C 
HETATM   27  C26 UNL     1      -2.461  49.336 -21.386  1.00  0.00    -0.032 C 
HETATM   28  C27 UNL     1      -1.939  48.076 -22.158  1.00  0.00     0.016 C 
HETATM   29  O2  UNL     1       1.246  52.406 -24.598  1.00  0.00    -0.313 OA
HETATM   30  C28 UNL     1       0.407  52.015 -25.602  1.00  0.00     0.297 C 
HETATM   31  O3  UNL     1       0.748  51.636 -26.710  1.00  0.00    -0.262 OA
HETATM   32  C29 UNL     1      -0.980  52.077 -25.114  1.00  0.00     0.175 A 
HETATM   33  C30 UNL     1      -2.161  51.575 -25.904  1.00  0.00     0.218 A 
HETATM   34  O4  UNL     1      -1.837  52.968 -25.857  1.00  0.00    -0.364 OA
ENDROOT
TORSDOF 0
ENDMDL
MODEL 5
REMARK minimizedAffinity -9.93777752
REMARK  0 active torsions:
REMARK  status: ('A' for Active; 'I' for Inactive)
ROOT
HETATM    1  C1  UNL     1       0.304  54.524 -26.207  1.00  0.00     0.023 C 
HETATM    2  C2  UNL     1      -0.460  53.393 -26.931  1.00  0.00     0.017 C 
HETATM    3  C3  UNL     1      -1.135  54.072 -28.153  1.00  0.00     0.023 C 
HETATM    4  C4  UNL     1       0.557  52.352 -27.417  1.00  0.00     0.135 C 
HETATM    5  O1  UNL     1       0.982  52.342 -28.574  1.00  0.00    -0.297 OA
HETATM    6  C5  UNL     1       1.117  51.386 -26.394  1.00  0.00     0.080 C 
HETATM    7  C6  UNL     1       0.030  50.739 -25.541  1.00  0.00     0.017 C 
HETATM    8  C7  UNL     1      -0.965  51.741 -24.872  1.00  0.00    -0.035 C 
HETATM    9  C8  UNL     1      -0.166  52.555 -23.824  1.00  0.00     0.016 C 
HETATM   10  C9  UNL     1      -1.531  52.661 -26.018  1.00  0.00     0.009 C 
HETATM   11  C10 UNL     1      -2.549  51.904 -26.922  1.00  0.00     0.007 C 
HETATM   12  C11 UNL     1      -3.277  50.708 -26.322  1.00  0.00     0.011 C 
HETATM   13  C12 UNL     1      -3.511  50.790 -24.805  1.00  0.00    -0.032 C 
HETATM   14  C13 UNL     1      -4.352  52.077 -24.537  1.00  0.00     0.016 C 
HETATM   15  C14 UNL     1      -2.110  50.885 -24.113  1.00  0.00     0.003 C 
HETATM   16  C15 UNL     1      -2.314  51.188 -22.603  1.00  0.00     0.006 C 
HETATM   17  C16 UNL     1      -3.479  50.432 -21.944  1.00  0.00     0.006 C 
HETATM   18  C17 UNL     1      -3.884  49.180 -22.725  1.00  0.00    -0.000 C 
HETATM   19  C18 UNL     1      -4.884  48.241 -22.016  1.00  0.00     0.009 C 
HETATM   20  C19 UNL     1      -4.764  47.974 -20.511  1.00  0.00     0.067 C 
HETATM   21  C20 UNL     1      -6.097  47.250 -20.183  1.00  0.00     0.140 C 
HETATM   22  C21 UNL     1      -7.014  47.425 -21.408  1.00  0.00     0.042 C 
HETATM   23  C22 UNL     1      -6.373  48.576 -22.204  1.00  0.00    -0.037 C 
HETATM   24  C23 UNL     1      -6.846  49.909 -21.585  1.00  0.00     0.015 C 
HETATM   25  C24 UNL     1      -6.685  48.541 -23.703  1.00  0.00     0.010 C 
HETATM   26  C25 UNL     1      -5.831  49.563 -24.467  1.00  0.00     0.011 C 
HETATM   27  C26 UNL     1      -4.280  49.462 -24.243  1.00  0.00    -0.032 C 
HETATM   28  C27 UNL     1      -3.828  48.187 -25.033  1.00  0.00     0.016 C 
HETATM   29  O2  UNL     1      -5.818  45.849 -19.992  1.00  0.00    -0.313 OA
HETATM   30  C28 UNL     1      -4.470  45.643 -19.935  1.00  0.00     0.297 C 
HETATM   31  O3  UNL     1      -3.919  44.565 -19.791  1.00  0.00    -0.262 OA
HETATM   32  C29 UNL     1      -3.782  46.930 -20.126  1.00  0.00     0.175 A 
HETATM   33  C30 UNL     1      -2.288  47.060 -20.271  1.00  0.00     0.218 A 
HETATM   34  O4  UNL     1      -2.940  47.328 -19.025  1.00  0.00    -0.364 OA
ENDROOT
TORSDOF 0
ENDMDL
MODEL 6
REMARK minimizedAffinity -9.52221298
REMARK  0 active torsions:
REMARK  status: ('A' for Active; 'I' for Inactive)
ROOT
HETATM    1  C1  UNL     1      -0.057  54.000 -27.411  1.00  0.00     0.023 C 
HETATM    2  C2  UNL     1      -0.111  52.458 -27.338  1.00  0.00     0.017 C 
HETATM    3  C3  UNL     1      -0.475  51.992 -28.773  1.00  0.00     0.023 C 
HETATM    4  C4  UNL     1       1.285  51.938 -26.966  1.00  0.00     0.135 C 
HETATM    5  O1  UNL     1       2.079  51.530 -27.816  1.00  0.00    -0.297 OA
HETATM    6  C5  UNL     1       1.710  52.042 -25.517  1.00  0.00     0.080 C 
HETATM    7  C6  UNL     1       0.651  51.512 -24.555  1.00  0.00     0.017 C 
HETATM    8  C7  UNL     1      -0.779  52.109 -24.758  1.00  0.00    -0.035 C 
HETATM    9  C8  UNL     1      -0.712  53.609 -24.378  1.00  0.00     0.016 C 
HETATM   10  C9  UNL     1      -1.151  51.906 -26.274  1.00  0.00     0.009 C 
HETATM   11  C10 UNL     1      -1.481  50.419 -26.598  1.00  0.00     0.007 C 
HETATM   12  C11 UNL     1      -1.960  49.534 -25.455  1.00  0.00     0.011 C 
HETATM   13  C12 UNL     1      -2.740  50.270 -24.353  1.00  0.00    -0.032 C 
HETATM   14  C13 UNL     1      -3.979  50.934 -25.030  1.00  0.00     0.016 C 
HETATM   15  C14 UNL     1      -1.789  51.354 -23.743  1.00  0.00     0.003 C 
HETATM   16  C15 UNL     1      -2.608  52.258 -22.782  1.00  0.00     0.006 C 
HETATM   17  C16 UNL     1      -3.633  51.513 -21.910  1.00  0.00     0.006 C 
HETATM   18  C17 UNL     1      -3.313  50.023 -21.771  1.00  0.00    -0.000 C 
HETATM   19  C18 UNL     1      -4.152  49.251 -20.730  1.00  0.00     0.009 C 
HETATM   20  C19 UNL     1      -4.506  49.897 -19.385  1.00  0.00     0.067 C 
HETATM   21  C20 UNL     1      -5.568  48.925 -18.805  1.00  0.00     0.140 C 
HETATM   22  C21 UNL     1      -5.986  47.984 -19.951  1.00  0.00     0.042 C 
HETATM   23  C22 UNL     1      -5.496  48.694 -21.226  1.00  0.00    -0.037 C 
HETATM   24  C23 UNL     1      -6.554  49.746 -21.625  1.00  0.00     0.015 C 
HETATM   25  C24 UNL     1      -5.218  47.745 -22.396  1.00  0.00     0.010 C 
HETATM   26  C25 UNL     1      -4.514  48.479 -23.546  1.00  0.00     0.011 C 
HETATM   27  C26 UNL     1      -3.201  49.252 -23.161  1.00  0.00    -0.032 C 
HETATM   28  C27 UNL     1      -2.118  48.142 -22.934  1.00  0.00     0.016 C 
HETATM   29  O2  UNL     1      -4.952  48.154 -17.756  1.00  0.00    -0.313 OA
HETATM   30  C28 UNL     1      -3.724  48.668 -17.454  1.00  0.00     0.297 C 
HETATM   31  O3  UNL     1      -2.953  48.231 -16.616  1.00  0.00    -0.262 OA
HETATM   32  C29 UNL     1      -3.455  49.812 -18.341  1.00  0.00     0.175 A 
HETATM   33  C30 UNL     1      -2.132  50.530 -18.392  1.00  0.00     0.218 A 
HETATM   34  O4  UNL     1      -3.238  51.062 -17.656  1.00  0.00    -0.364 OA
ENDROOT
TORSDOF 0
ENDMDL
MODEL 7
REMARK minimizedAffinity -8.95979404
REMARK  0 active torsions:
REMARK  status: ('A' for Active; 'I' for Inactive)
ROOT
HETATM    1  C1  UNL     1      -7.924  45.429 -24.879  1.00  0.00     0.023 C 
HETATM    2  C2  UNL     1      -7.872  46.967 -24.743  1.00  0.00     0.017 C 
HETATM    3  C3  UNL     1      -7.935  47.509 -26.196  1.00  0.00     0.023 C 
HETATM    4  C4  UNL     1      -9.112  47.430 -23.966  1.00  0.00     0.135 C 
HETATM    5  O1  UNL     1     -10.119  47.855 -24.534  1.00  0.00    -0.297 OA
HETATM    6  C5  UNL     1      -9.108  47.247 -22.463  1.00  0.00     0.080 C 
HETATM    7  C6  UNL     1      -7.827  47.760 -21.812  1.00  0.00     0.017 C 
HETATM    8  C7  UNL     1      -6.505  47.213 -22.442  1.00  0.00    -0.035 C 
HETATM    9  C8  UNL     1      -6.442  45.696 -22.138  1.00  0.00     0.016 C 
HETATM   10  C9  UNL     1      -6.581  47.497 -23.989  1.00  0.00     0.009 C 
HETATM   11  C10 UNL     1      -6.376  49.006 -24.314  1.00  0.00     0.007 C 
HETATM   12  C11 UNL     1      -5.604  49.850 -23.308  1.00  0.00     0.011 C 
HETATM   13  C12 UNL     1      -4.535  49.085 -22.511  1.00  0.00    -0.032 C 
HETATM   14  C13 UNL     1      -3.529  48.488 -23.543  1.00  0.00     0.016 C 
HETATM   15  C14 UNL     1      -5.259  47.948 -21.715  1.00  0.00     0.003 C 
HETATM   16  C15 UNL     1      -4.189  47.023 -21.073  1.00  0.00     0.006 C 
HETATM   17  C16 UNL     1      -2.970  47.755 -20.487  1.00  0.00     0.006 C 
HETATM   18  C17 UNL     1      -3.257  49.226 -20.186  1.00  0.00    -0.000 C 
HETATM   19  C18 UNL     1      -2.168  49.973 -19.384  1.00  0.00     0.009 C 
HETATM   20  C19 UNL     1      -1.439  49.274 -18.230  1.00  0.00     0.067 C 
HETATM   21  C20 UNL     1      -0.270  50.247 -17.923  1.00  0.00     0.140 C 
HETATM   22  C21 UNL     1      -0.205  51.252 -19.089  1.00  0.00     0.042 C 
HETATM   23  C22 UNL     1      -1.027  50.589 -20.210  1.00  0.00    -0.037 C 
HETATM   24  C23 UNL     1      -0.111  49.586 -20.946  1.00  0.00     0.015 C 
HETATM   25  C24 UNL     1      -1.637  51.584 -21.202  1.00  0.00     0.010 C 
HETATM   26  C25 UNL     1      -2.629  50.884 -22.143  1.00  0.00     0.011 C 
HETATM   27  C26 UNL     1      -3.768  50.059 -21.445  1.00  0.00    -0.032 C 
HETATM   28  C27 UNL     1      -4.757  51.126 -20.864  1.00  0.00     0.016 C 
HETATM   29  O2  UNL     1      -0.573  50.951 -16.703  1.00  0.00    -0.313 OA
HETATM   30  C28 UNL     1      -1.659  50.389 -16.095  1.00  0.00     0.297 C 
HETATM   31  O3  UNL     1      -2.166  50.766 -15.052  1.00  0.00    -0.262 OA
HETATM   32  C29 UNL     1      -2.152  49.282 -16.929  1.00  0.00     0.175 A 
HETATM   33  C30 UNL     1      -3.426  48.530 -16.643  1.00  0.00     0.218 A 
HETATM   34  O4  UNL     1      -2.150  47.995 -16.278  1.00  0.00    -0.364 OA
ENDROOT
TORSDOF 0
ENDMDL
MODEL 8
REMARK minimizedAffinity -8.89417839
REMARK  0 active torsions:
REMARK  status: ('A' for Active; 'I' for Inactive)
ROOT
HETATM    1  C1  UNL     1      -2.466  52.935 -26.779  1.00  0.00     0.023 C 
HETATM    2  C2  UNL     1      -2.150  51.431 -26.622  1.00  0.00     0.017 C 
HETATM    3  C3  UNL     1      -2.629  50.771 -27.943  1.00  0.00     0.023 C 
HETATM    4  C4  UNL     1      -0.630  51.264 -26.484  1.00  0.00     0.135 C 
HETATM    5  O1  UNL     1       0.085  50.966 -27.442  1.00  0.00    -0.297 OA
HETATM    6  C5  UNL     1      -0.007  51.586 -25.142  1.00  0.00     0.080 C 
HETATM    7  C6  UNL     1      -0.742  50.925 -23.979  1.00  0.00     0.017 C 
HETATM    8  C7  UNL     1      -2.285  51.174 -23.950  1.00  0.00    -0.035 C 
HETATM    9  C8  UNL     1      -2.504  52.680 -23.663  1.00  0.00     0.016 C 
HETATM   10  C9  UNL     1      -2.844  50.761 -25.362  1.00  0.00     0.009 C 
HETATM   11  C10 UNL     1      -2.870  49.215 -25.548  1.00  0.00     0.007 C 
HETATM   12  C11 UNL     1      -2.937  48.352 -24.295  1.00  0.00     0.011 C 
HETATM   13  C12 UNL     1      -3.673  48.994 -23.108  1.00  0.00    -0.032 C 
HETATM   14  C13 UNL     1      -5.126  49.308 -23.581  1.00  0.00     0.016 C 
HETATM   15  C14 UNL     1      -2.911  50.310 -22.733  1.00  0.00     0.003 C 
HETATM   16  C15 UNL     1      -3.747  51.094 -21.685  1.00  0.00     0.006 C 
HETATM   17  C16 UNL     1      -4.413  50.224 -20.607  1.00  0.00     0.006 C 
HETATM   18  C17 UNL     1      -3.740  48.859 -20.455  1.00  0.00    -0.000 C 
HETATM   19  C18 UNL     1      -4.193  48.017 -19.243  1.00  0.00     0.009 C 
HETATM   20  C19 UNL     1      -4.461  48.687 -17.889  1.00  0.00     0.067 C 
HETATM   21  C20 UNL     1      -5.158  47.561 -17.080  1.00  0.00     0.140 C 
HETATM   22  C21 UNL     1      -5.531  46.454 -18.084  1.00  0.00     0.042 C 
HETATM   23  C22 UNL     1      -5.436  47.138 -19.460  1.00  0.00    -0.037 C 
HETATM   24  C23 UNL     1      -6.760  47.893 -19.712  1.00  0.00     0.015 C 
HETATM   25  C24 UNL     1      -5.143  46.172 -20.612  1.00  0.00     0.010 C 
HETATM   26  C25 UNL     1      -4.827  46.938 -21.906  1.00  0.00     0.011 C 
HETATM   27  C26 UNL     1      -3.684  48.010 -21.803  1.00  0.00    -0.032 C 
HETATM   28  C27 UNL     1      -2.351  47.189 -21.721  1.00  0.00     0.016 C 
HETATM   29  O2  UNL     1      -4.217  47.040 -16.123  1.00  0.00    -0.313 OA
HETATM   30  C28 UNL     1      -3.108  47.836 -16.074  1.00  0.00     0.297 C 
HETATM   31  O3  UNL     1      -2.130  47.654 -15.369  1.00  0.00    -0.262 OA
HETATM   32  C29 UNL     1      -3.261  48.927 -17.050  1.00  0.00     0.175 A 
HETATM   33  C30 UNL     1      -2.166  49.910 -17.375  1.00  0.00     0.218 A 
HETATM   34  O4  UNL     1      -3.229  50.250 -16.478  1.00  0.00    -0.364 OA
ENDROOT
TORSDOF 0
ENDMDL
MODEL 9
REMARK minimizedAffinity -8.7223568
REMARK  0 active torsions:
REMARK  status: ('A' for Active; 'I' for Inactive)
ROOT
HETATM    1  C1  UNL     1       0.065  51.165 -25.969  1.00  0.00     0.023 C 
HETATM    2  C2  UNL     1      -1.156  51.994 -25.512  1.00  0.00     0.017 C 
HETATM    3  C3  UNL     1      -0.565  53.298 -24.913  1.00  0.00     0.023 C 
HETATM    4  C4  UNL     1      -2.005  52.333 -26.745  1.00  0.00     0.135 C 
HETATM    5  O1  UNL     1      -1.915  53.417 -27.324  1.00  0.00    -0.297 OA
HETATM    6  C5  UNL     1      -2.893  51.242 -27.307  1.00  0.00     0.080 C 
HETATM    7  C6  UNL     1      -3.731  50.555 -26.233  1.00  0.00     0.017 C 
HETATM    8  C7  UNL     1      -2.922  50.033 -25.002  1.00  0.00    -0.035 C 
HETATM    9  C8  UNL     1      -2.017  48.879 -25.500  1.00  0.00     0.016 C 
HETATM   10  C9  UNL     1      -2.077  51.246 -24.459  1.00  0.00     0.009 C 
HETATM   11  C10 UNL     1      -2.966  52.287 -23.718  1.00  0.00     0.007 C 
HETATM   12  C11 UNL     1      -4.280  51.802 -23.120  1.00  0.00     0.011 C 
HETATM   13  C12 UNL     1      -4.277  50.333 -22.665  1.00  0.00    -0.032 C 
HETATM   14  C13 UNL     1      -3.153  50.185 -21.594  1.00  0.00     0.016 C 
HETATM   15  C14 UNL     1      -3.974  49.447 -23.920  1.00  0.00     0.003 C 
HETATM   16  C15 UNL     1      -3.748  47.981 -23.458  1.00  0.00     0.006 C 
HETATM   17  C16 UNL     1      -4.701  47.498 -22.352  1.00  0.00     0.006 C 
HETATM   18  C17 UNL     1      -5.981  48.332 -22.274  1.00  0.00    -0.000 C 
HETATM   19  C18 UNL     1      -7.090  47.777 -21.354  1.00  0.00     0.009 C 
HETATM   20  C19 UNL     1      -7.373  46.270 -21.303  1.00  0.00     0.067 C 
HETATM   21  C20 UNL     1      -8.313  46.138 -20.075  1.00  0.00     0.140 C 
HETATM   22  C21 UNL     1      -8.257  47.481 -19.323  1.00  0.00     0.042 C 
HETATM   23  C22 UNL     1      -6.997  48.175 -19.871  1.00  0.00    -0.037 C 
HETATM   24  C23 UNL     1      -5.775  47.626 -19.102  1.00  0.00     0.015 C 
HETATM   25  C24 UNL     1      -7.043  49.703 -19.783  1.00  0.00     0.010 C 
HETATM   26  C25 UNL     1      -5.875  50.335 -20.555  1.00  0.00     0.011 C 
HETATM   27  C26 UNL     1      -5.727  49.890 -22.054  1.00  0.00    -0.032 C 
HETATM   28  C27 UNL     1      -6.890  50.612 -22.817  1.00  0.00     0.016 C 
HETATM   29  O2  UNL     1      -9.654  45.914 -20.552  1.00  0.00    -0.313 OA
HETATM   30  C28 UNL     1      -9.639  45.665 -21.894  1.00  0.00     0.297 C 
HETATM   31  O3  UNL     1     -10.616  45.447 -22.590  1.00  0.00    -0.262 OA
HETATM   32  C29 UNL     1      -8.252  45.752 -22.380  1.00  0.00     0.175 A 
HETATM   33  C30 UNL     1      -7.877  45.681 -23.838  1.00  0.00     0.218 A 
HETATM   34  O4  UNL     1      -7.752  44.541 -22.982  1.00  0.00    -0.364 OA
ENDROOT
TORSDOF 0
ENDMDL
