MODEL 1
REMARK minimizedAffinity -9.1975975
REMARK CNNscore 0.764818609
REMARK CNNaffinity 7.26896858
REMARK  12 active torsions:
REMARK  status: ('A' for Active; 'I' for Inactive)
REMARK    1  A    between atoms: C16_17  and  O2_18 
REMARK    2  A    between atoms: O2_18  and  C17_19 
REMARK    3  A    between atoms: C17_19  and  C18_21 
REMARK    4  A    between atoms: C18_21  and  C19_22 
REMARK    5  A    between atoms: C19_22  and  C20_23 
REMARK       I    between atoms: C20_23  and  N1_25 
REMARK    6  A    between atoms: N1_25  and  C21_26 
REMARK    7  A    between atoms: C21_26  and  C22_27 
REMARK       I    between atoms: C22_27  and  N2_29 
REMARK    8  A    between atoms: N2_29  and  C23_30 
REMARK    9  A    between atoms: C23_30  and  C24_31 
REMARK   10  A    between atoms: C23_30  and  C33_41 
REMARK   11  A    between atoms: C24_31  and  C25_32 
REMARK   12  A    between atoms: C33_41  and  O7_43 
ROOT
HETATM    1  C19 UNL     1       4.166  64.009 -34.249  1.00  0.00     0.112 C 
ENDROOT
BRANCH   1   2
HETATM    2  C18 UNL     1       5.413  64.855 -34.481  1.00  0.00     0.120 C 
BRANCH   2   3
HETATM    3  C17 UNL     1       5.876  64.745 -35.916  1.00  0.00     0.259 C 
HETATM    4  O3  UNL     1       6.878  64.139 -36.274  1.00  0.00    -0.265 OA
BRANCH   3   5
HETATM    5  O2  UNL     1       4.975  65.359 -36.730  1.00  0.00    -0.315 OA
BRANCH   5   6
HETATM    6  C16 UNL     1       4.521  66.670 -36.336  1.00  0.00     0.140 C 
HETATM    7  C14 UNL     1       5.315  67.752 -37.107  1.00  0.00    -0.013 C 
HETATM    8  C13 UNL     1       6.844  67.578 -37.228  1.00  0.00     0.012 C 
HETATM    9  C15 UNL     1       5.062  69.112 -36.397  1.00  0.00     0.018 C 
HETATM   10  C36 UNL     1       4.640  67.615 -38.490  1.00  0.00     0.001 C 
HETATM   11  C12 UNL     1       7.397  67.321 -38.641  1.00  0.00     0.007 C 
HETATM   12  C11 UNL     1       6.660  67.973 -39.850  1.00  0.00     0.002 C 
HETATM   13  C2  UNL     1       7.508  68.928 -40.766  1.00  0.00    -0.016 C 
HETATM   14  C10 UNL     1       5.276  68.576 -39.480  1.00  0.00    -0.004 C 
HETATM   15  C1  UNL     1       7.980  70.175 -39.993  1.00  0.00     0.020 C 
HETATM   16  C3  UNL     1       8.752  68.146 -41.286  1.00  0.00     0.022 C 
HETATM   17  C7  UNL     1       6.634  69.368 -41.957  1.00  0.00    -0.068 C 
HETATM   18  C4  UNL     1       9.440  68.806 -42.473  1.00  0.00     0.084 C 
HETATM   19  C5  UNL     1       8.458  69.033 -43.592  1.00  0.00     0.149 C 
HETATM   20  O1  UNL     1       8.789  69.015 -44.774  1.00  0.00    -0.293 OA
HETATM   21  C6  UNL     1       7.061  69.366 -43.231  1.00  0.00     0.053 C 
HETATM   22  C8  UNL     1       5.214  69.806 -41.655  1.00  0.00     0.035 C 
HETATM   23  C9  UNL     1       4.468  68.821 -40.753  1.00  0.00     0.010 C 
HETATM   24  C35 UNL     1       3.156  67.642 -38.173  1.00  0.00     0.008 C 
HETATM   25  C34 UNL     1       3.067  66.845 -36.853  1.00  0.00     0.034 C 
ENDBRANCH   5   6
ENDBRANCH   3   5
ENDBRANCH   2   3
ENDBRANCH   1   2
BRANCH   1  26
HETATM   26  C20 UNL     1       4.527  62.556 -34.032  1.00  0.00     0.218 C 
HETATM   27  O4  UNL     1       4.019  61.853 -33.163  1.00  0.00    -0.274 OA
HETATM   28  N1  UNL     1       5.486  62.084 -34.895  1.00  0.00    -0.352 N 
HETATM   29  H27 UNL     1       6.035  62.749 -35.427  1.00  0.00     0.162 HD
BRANCH  28  30
HETATM   30  C21 UNL     1       5.996  60.726 -34.785  1.00  0.00     0.225 C 
BRANCH  30  31
HETATM   31  C22 UNL     1       7.524  60.700 -34.683  1.00  0.00     0.236 C 
HETATM   32  O5  UNL     1       8.179  59.694 -34.948  1.00  0.00    -0.272 OA
HETATM   33  N2  UNL     1       8.092  61.868 -34.235  1.00  0.00    -0.345 N 
HETATM   34  H30 UNL     1       7.492  62.673 -34.042  1.00  0.00     0.163 HD
BRANCH  33  35
HETATM   35  C23 UNL     1       9.543  62.046 -34.139  1.00  0.00     0.186 C 
BRANCH  35  36
HETATM   36  C24 UNL     1      10.029  63.169 -35.066  1.00  0.00     0.077 C 
BRANCH  36  37
HETATM   37  C25 UNL     1      11.434  62.973 -35.549  1.00  0.00    -0.028 A 
HETATM   38  C26 UNL     1      12.588  63.396 -34.920  1.00  0.00     0.096 A 
HETATM   39  N3  UNL     1      13.658  63.023 -35.690  1.00  0.00    -0.365 N 
HETATM   40  C27 UNL     1      13.229  62.364 -36.817  1.00  0.00     0.042 A 
HETATM   41  H35 UNL     1      14.627  63.207 -35.470  1.00  0.00     0.165 HD
HETATM   42  C28 UNL     1      13.960  61.813 -37.877  1.00  0.00     0.030 A 
HETATM   43  C32 UNL     1      11.835  62.319 -36.759  1.00  0.00    -0.002 A 
HETATM   44  C29 UNL     1      13.245  61.194 -38.906  1.00  0.00     0.002 A 
HETATM   45  C30 UNL     1      11.854  61.133 -38.877  1.00  0.00     0.001 A 
HETATM   46  C31 UNL     1      11.138  61.691 -37.812  1.00  0.00     0.014 A 
ENDBRANCH  36  37
ENDBRANCH  35  36
BRANCH  35  47
HETATM   47  C33 UNL     1       9.882  62.389 -32.693  1.00  0.00     0.163 C 
HETATM   48  O6  UNL     1      10.000  61.599 -31.768  1.00  0.00    -0.648 OA
BRANCH  47  49
HETATM   49  O7  UNL     1      10.070  63.707 -32.477  1.00  0.00    -0.775 OA
HETATM   50  H40 UNL     1      10.282  63.770 -31.524  1.00  0.00     0.167 HD
ENDBRANCH  47  49
ENDBRANCH  35  47
ENDBRANCH  33  35
ENDBRANCH  30  31
ENDBRANCH  28  30
ENDBRANCH   1  26
TORSDOF 12
ENDMDL
MODEL 2
REMARK minimizedAffinity -9.59169865
REMARK CNNscore 0.605119348
REMARK CNNaffinity 6.79800653
REMARK  12 active torsions:
REMARK  status: ('A' for Active; 'I' for Inactive)
REMARK    1  A    between atoms: C16_17  and  O2_18 
REMARK    2  A    between atoms: O2_18  and  C17_19 
REMARK    3  A    between atoms: C17_19  and  C18_21 
REMARK    4  A    between atoms: C18_21  and  C19_22 
REMARK    5  A    between atoms: C19_22  and  C20_23 
REMARK       I    between atoms: C20_23  and  N1_25 
REMARK    6  A    between atoms: N1_25  and  C21_26 
REMARK    7  A    between atoms: C21_26  and  C22_27 
REMARK       I    between atoms: C22_27  and  N2_29 
REMARK    8  A    between atoms: N2_29  and  C23_30 
REMARK    9  A    between atoms: C23_30  and  C24_31 
REMARK   10  A    between atoms: C23_30  and  C33_41 
REMARK   11  A    between atoms: C24_31  and  C25_32 
REMARK   12  A    between atoms: C33_41  and  O7_43 
ROOT
HETATM    1  C19 UNL     1       4.501  64.413 -34.591  1.00  0.00     0.112 C 
ENDROOT
BRANCH   1   2
HETATM    2  C18 UNL     1       5.659  65.186 -35.214  1.00  0.00     0.120 C 
BRANCH   2   3
HETATM    3  C17 UNL     1       5.569  65.161 -36.723  1.00  0.00     0.259 C 
HETATM    4  O3  UNL     1       6.123  64.331 -37.434  1.00  0.00    -0.265 OA
BRANCH   3   5
HETATM    5  O2  UNL     1       4.734  66.149 -37.143  1.00  0.00    -0.315 OA
BRANCH   5   6
HETATM    6  C16 UNL     1       5.249  67.496 -37.124  1.00  0.00     0.140 C 
HETATM    7  C14 UNL     1       4.470  68.366 -38.140  1.00  0.00    -0.013 C 
HETATM    8  C13 UNL     1       4.191  67.772 -39.538  1.00  0.00     0.012 C 
HETATM    9  C15 UNL     1       5.281  69.676 -38.352  1.00  0.00     0.018 C 
HETATM   10  C36 UNL     1       3.153  68.547 -37.353  1.00  0.00     0.001 C 
HETATM   11  C12 UNL     1       2.718  67.490 -39.882  1.00  0.00     0.007 C 
HETATM   12  C11 UNL     1       1.627  68.427 -39.280  1.00  0.00     0.002 C 
HETATM   13  C2  UNL     1       0.692  69.172 -40.300  1.00  0.00    -0.016 C 
HETATM   14  C10 UNL     1       2.166  69.367 -38.166  1.00  0.00    -0.004 C 
HETATM   15  C1  UNL     1       1.489  70.161 -41.173  1.00  0.00     0.020 C 
HETATM   16  C3  UNL     1       0.008  68.114 -41.217  1.00  0.00     0.022 C 
HETATM   17  C7  UNL     1      -0.379  69.945 -39.506  1.00  0.00    -0.068 C 
HETATM   18  C4  UNL     1      -1.199  68.648 -41.976  1.00  0.00     0.084 C 
HETATM   19  C5  UNL     1      -2.201  69.242 -41.022  1.00  0.00     0.149 C 
HETATM   20  O1  UNL     1      -3.409  69.231 -41.243  1.00  0.00    -0.293 OA
HETATM   21  C6  UNL     1      -1.687  69.930 -39.816  1.00  0.00     0.053 C 
HETATM   22  C8  UNL     1       0.085  70.745 -38.304  1.00  0.00     0.035 C 
HETATM   23  C9  UNL     1       0.994  69.942 -37.372  1.00  0.00     0.010 C 
HETATM   24  C35 UNL     1       3.614  68.973 -35.970  1.00  0.00     0.008 C 
HETATM   25  C34 UNL     1       4.886  68.125 -35.751  1.00  0.00     0.034 C 
ENDBRANCH   5   6
ENDBRANCH   3   5
ENDBRANCH   2   3
ENDBRANCH   1   2
BRANCH   1  26
HETATM   26  C20 UNL     1       4.958  63.061 -34.088  1.00  0.00     0.218 C 
HETATM   27  O4  UNL     1       5.012  62.763 -32.899  1.00  0.00    -0.274 OA
HETATM   28  N1  UNL     1       5.317  62.187 -35.084  1.00  0.00    -0.352 N 
HETATM   29  H27 UNL     1       5.479  62.548 -36.018  1.00  0.00     0.162 HD
BRANCH  28  30
HETATM   30  C21 UNL     1       5.838  60.865 -34.776  1.00  0.00     0.225 C 
BRANCH  30  31
HETATM   31  C22 UNL     1       7.370  60.842 -34.785  1.00  0.00     0.236 C 
HETATM   32  O5  UNL     1       8.007  59.928 -35.304  1.00  0.00    -0.272 OA
HETATM   33  N2  UNL     1       7.966  61.896 -34.133  1.00  0.00    -0.345 N 
HETATM   34  H30 UNL     1       7.379  62.630 -33.731  1.00  0.00     0.163 HD
BRANCH  33  35
HETATM   35  C23 UNL     1       9.420  62.073 -34.100  1.00  0.00     0.186 C 
BRANCH  35  36
HETATM   36  C24 UNL     1       9.870  63.172 -35.072  1.00  0.00     0.077 C 
BRANCH  36  37
HETATM   37  C25 UNL     1      11.287  63.012 -35.533  1.00  0.00    -0.028 A 
HETATM   38  C26 UNL     1      12.420  63.471 -34.889  1.00  0.00     0.096 A 
HETATM   39  N3  UNL     1      13.511  63.123 -35.640  1.00  0.00    -0.365 N 
HETATM   40  C27 UNL     1      13.117  62.445 -36.770  1.00  0.00     0.042 A 
HETATM   41  H35 UNL     1      14.471  63.335 -35.407  1.00  0.00     0.165 HD
HETATM   42  C28 UNL     1      13.879  61.908 -37.815  1.00  0.00     0.030 A 
HETATM   43  C32 UNL     1      11.725  62.362 -36.732  1.00  0.00    -0.002 A 
HETATM   44  C29 UNL     1      13.198  61.263 -38.851  1.00  0.00     0.002 A 
HETATM   45  C30 UNL     1      11.809  61.163 -38.842  1.00  0.00     0.001 A 
HETATM   46  C31 UNL     1      11.061  61.708 -37.791  1.00  0.00     0.014 A 
ENDBRANCH  36  37
ENDBRANCH  35  36
BRANCH  35  47
HETATM   47  C33 UNL     1       9.816  62.450 -32.676  1.00  0.00     0.163 C 
HETATM   48  O6  UNL     1      10.176  63.552 -32.291  1.00  0.00    -0.648 OA
BRANCH  47  49
HETATM   49  O7  UNL     1       9.729  61.428 -31.801  1.00  0.00    -0.775 OA
HETATM   50  H40 UNL     1      10.003  61.816 -30.946  1.00  0.00     0.167 HD
ENDBRANCH  47  49
ENDBRANCH  35  47
ENDBRANCH  33  35
ENDBRANCH  30  31
ENDBRANCH  28  30
ENDBRANCH   1  26
TORSDOF 12
ENDMDL
MODEL 3
REMARK minimizedAffinity -9.4084816
REMARK CNNscore 0.602162778
REMARK CNNaffinity 7.0531559
REMARK  12 active torsions:
REMARK  status: ('A' for Active; 'I' for Inactive)
REMARK    1  A    between atoms: C16_17  and  O2_18 
REMARK    2  A    between atoms: O2_18  and  C17_19 
REMARK    3  A    between atoms: C17_19  and  C18_21 
REMARK    4  A    between atoms: C18_21  and  C19_22 
REMARK    5  A    between atoms: C19_22  and  C20_23 
REMARK       I    between atoms: C20_23  and  N1_25 
REMARK    6  A    between atoms: N1_25  and  C21_26 
REMARK    7  A    between atoms: C21_26  and  C22_27 
REMARK       I    between atoms: C22_27  and  N2_29 
REMARK    8  A    between atoms: N2_29  and  C23_30 
REMARK    9  A    between atoms: C23_30  and  C24_31 
REMARK   10  A    between atoms: C23_30  and  C33_41 
REMARK   11  A    between atoms: C24_31  and  C25_32 
REMARK   12  A    between atoms: C33_41  and  O7_43 
ROOT
HETATM    1  C19 UNL     1       4.412  64.156 -34.300  1.00  0.00     0.112 C 
ENDROOT
BRANCH   1   2
HETATM    2  C18 UNL     1       5.608  64.855 -34.938  1.00  0.00     0.120 C 
BRANCH   2   3
HETATM    3  C17 UNL     1       5.520  64.796 -36.446  1.00  0.00     0.259 C 
HETATM    4  O3  UNL     1       6.333  64.224 -37.163  1.00  0.00    -0.265 OA
BRANCH   3   5
HETATM    5  O2  UNL     1       4.379  65.412 -36.857  1.00  0.00    -0.315 OA
BRANCH   5   6
HETATM    6  C16 UNL     1       3.833  66.428 -35.992  1.00  0.00     0.140 C 
HETATM    7  C14 UNL     1       3.699  67.759 -36.771  1.00  0.00    -0.013 C 
HETATM    8  C13 UNL     1       4.880  68.198 -37.663  1.00  0.00     0.012 C 
HETATM    9  C15 UNL     1       3.466  68.889 -35.729  1.00  0.00     0.018 C 
HETATM   10  C36 UNL     1       2.463  67.417 -37.634  1.00  0.00     0.001 C 
HETATM   11  C12 UNL     1       4.623  68.225 -39.180  1.00  0.00     0.007 C 
HETATM   12  C11 UNL     1       3.190  68.579 -39.679  1.00  0.00     0.002 C 
HETATM   13  C2  UNL     1       3.058  69.819 -40.635  1.00  0.00    -0.016 C 
HETATM   14  C10 UNL     1       2.124  68.583 -38.547  1.00  0.00    -0.004 C 
HETATM   15  C1  UNL     1       3.460  71.125 -39.921  1.00  0.00     0.020 C 
HETATM   16  C3  UNL     1       3.989  69.601 -41.866  1.00  0.00     0.022 C 
HETATM   17  C7  UNL     1       1.593  69.924 -41.102  1.00  0.00    -0.068 C 
HETATM   18  C4  UNL     1       3.676  70.516 -43.043  1.00  0.00     0.084 C 
HETATM   19  C5  UNL     1       2.232  70.381 -43.446  1.00  0.00     0.149 C 
HETATM   20  O1  UNL     1       1.854  70.533 -44.604  1.00  0.00    -0.293 OA
HETATM   21  C6  UNL     1       1.234  70.132 -42.381  1.00  0.00     0.053 C 
HETATM   22  C8  UNL     1       0.513  69.765 -40.049  1.00  0.00     0.035 C 
HETATM   23  C9  UNL     1       0.726  68.537 -39.161  1.00  0.00     0.010 C 
HETATM   24  C35 UNL     1       1.469  66.855 -36.634  1.00  0.00     0.008 C 
HETATM   25  C34 UNL     1       2.363  66.042 -35.673  1.00  0.00     0.034 C 
ENDBRANCH   5   6
ENDBRANCH   3   5
ENDBRANCH   2   3
ENDBRANCH   1   2
BRANCH   1  26
HETATM   26  C20 UNL     1       4.689  62.683 -34.096  1.00  0.00     0.218 C 
HETATM   27  O4  UNL     1       4.155  62.007 -33.220  1.00  0.00    -0.274 OA
HETATM   28  N1  UNL     1       5.601  62.158 -34.978  1.00  0.00    -0.352 N 
HETATM   29  H27 UNL     1       6.180  62.792 -35.517  1.00  0.00     0.162 HD
BRANCH  28  30
HETATM   30  C21 UNL     1       6.030  60.772 -34.884  1.00  0.00     0.225 C 
BRANCH  30  31
HETATM   31  C22 UNL     1       7.552  60.655 -34.758  1.00  0.00     0.236 C 
HETATM   32  O5  UNL     1       8.149  59.606 -34.988  1.00  0.00    -0.272 OA
HETATM   33  N2  UNL     1       8.184  61.798 -34.328  1.00  0.00    -0.345 N 
HETATM   34  H30 UNL     1       7.632  62.642 -34.164  1.00  0.00     0.163 HD
BRANCH  33  35
HETATM   35  C23 UNL     1       9.642  61.890 -34.215  1.00  0.00     0.186 C 
BRANCH  35  36
HETATM   36  C24 UNL     1      10.167  63.200 -34.818  1.00  0.00     0.077 C 
BRANCH  36  37
HETATM   37  C25 UNL     1      11.528  63.069 -35.430  1.00  0.00    -0.028 A 
HETATM   38  C26 UNL     1      12.712  63.563 -34.918  1.00  0.00     0.096 A 
HETATM   39  N3  UNL     1      13.723  63.232 -35.781  1.00  0.00    -0.365 N 
HETATM   40  C27 UNL     1      13.226  62.531 -36.854  1.00  0.00     0.042 A 
HETATM   41  H35 UNL     1      14.698  63.470 -35.657  1.00  0.00     0.165 HD
HETATM   42  C28 UNL     1      13.882  62.000 -37.971  1.00  0.00     0.030 A 
HETATM   43  C32 UNL     1      11.848  62.414 -36.663  1.00  0.00    -0.002 A 
HETATM   44  C29 UNL     1      13.108  61.326 -38.920  1.00  0.00     0.002 A 
HETATM   45  C30 UNL     1      11.731  61.192 -38.757  1.00  0.00     0.001 A 
HETATM   46  C31 UNL     1      11.090  61.732 -37.637  1.00  0.00     0.014 A 
ENDBRANCH  36  37
ENDBRANCH  35  36
BRANCH  35  47
HETATM   47  C33 UNL     1      10.005  61.821 -32.736  1.00  0.00     0.163 C 
HETATM   48  O6  UNL     1      11.078  62.128 -32.237  1.00  0.00    -0.648 OA
BRANCH  47  49
HETATM   49  O7  UNL     1       9.001  61.383 -31.950  1.00  0.00    -0.775 OA
HETATM   50  H40 UNL     1       9.374  61.398 -31.046  1.00  0.00     0.167 HD
ENDBRANCH  47  49
ENDBRANCH  35  47
ENDBRANCH  33  35
ENDBRANCH  30  31
ENDBRANCH  28  30
ENDBRANCH   1  26
TORSDOF 12
ENDMDL
MODEL 4
REMARK minimizedAffinity -9.81074333
REMARK CNNscore 0.589917839
REMARK CNNaffinity 7.16974783
REMARK  12 active torsions:
REMARK  status: ('A' for Active; 'I' for Inactive)
REMARK    1  A    between atoms: C16_17  and  O2_18 
REMARK    2  A    between atoms: O2_18  and  C17_19 
REMARK    3  A    between atoms: C17_19  and  C18_21 
REMARK    4  A    between atoms: C18_21  and  C19_22 
REMARK    5  A    between atoms: C19_22  and  C20_23 
REMARK       I    between atoms: C20_23  and  N1_25 
REMARK    6  A    between atoms: N1_25  and  C21_26 
REMARK    7  A    between atoms: C21_26  and  C22_27 
REMARK       I    between atoms: C22_27  and  N2_29 
REMARK    8  A    between atoms: N2_29  and  C23_30 
REMARK    9  A    between atoms: C23_30  and  C24_31 
REMARK   10  A    between atoms: C23_30  and  C33_41 
REMARK   11  A    between atoms: C24_31  and  C25_32 
REMARK   12  A    between atoms: C33_41  and  O7_43 
ROOT
HETATM    1  C19 UNL     1       4.135  64.087 -34.074  1.00  0.00     0.112 C 
ENDROOT
BRANCH   1   2
HETATM    2  C18 UNL     1       4.748  64.902 -32.940  1.00  0.00     0.120 C 
BRANCH   2   3
HETATM    3  C17 UNL     1       6.014  65.590 -33.399  1.00  0.00     0.259 C 
HETATM    4  O3  UNL     1       7.109  65.045 -33.471  1.00  0.00    -0.265 OA
BRANCH   3   5
HETATM    5  O2  UNL     1       5.726  66.865 -33.775  1.00  0.00    -0.315 OA
BRANCH   5   6
HETATM    6  C16 UNL     1       6.674  67.525 -34.638  1.00  0.00     0.140 C 
HETATM    7  C14 UNL     1       6.103  67.607 -36.074  1.00  0.00    -0.013 C 
HETATM    8  C13 UNL     1       5.425  66.348 -36.656  1.00  0.00     0.012 C 
HETATM    9  C15 UNL     1       7.277  67.978 -37.024  1.00  0.00     0.018 C 
HETATM   10  C36 UNL     1       5.067  68.735 -35.865  1.00  0.00     0.001 C 
HETATM   11  C12 UNL     1       3.912  66.442 -36.920  1.00  0.00     0.007 C 
HETATM   12  C11 UNL     1       3.321  67.822 -37.339  1.00  0.00     0.002 C 
HETATM   13  C2  UNL     1       2.560  67.879 -38.713  1.00  0.00    -0.016 C 
HETATM   14  C10 UNL     1       4.316  69.002 -37.158  1.00  0.00    -0.004 C 
HETATM   15  C1  UNL     1       3.509  67.588 -39.893  1.00  0.00     0.020 C 
HETATM   16  C3  UNL     1       1.420  66.817 -38.698  1.00  0.00     0.022 C 
HETATM   17  C7  UNL     1       1.959  69.288 -38.881  1.00  0.00    -0.068 C 
HETATM   18  C4  UNL     1       0.374  67.024 -39.785  1.00  0.00     0.084 C 
HETATM   19  C5  UNL     1      -0.201  68.413 -39.706  1.00  0.00     0.149 C 
HETATM   20  O1  UNL     1      -1.356  68.668 -40.036  1.00  0.00    -0.293 OA
HETATM   21  C6  UNL     1       0.696  69.513 -39.285  1.00  0.00     0.053 C 
HETATM   22  C8  UNL     1       2.849  70.471 -38.550  1.00  0.00     0.035 C 
HETATM   23  C9  UNL     1       3.552  70.324 -37.200  1.00  0.00     0.010 C 
HETATM   24  C35 UNL     1       5.852  69.817 -35.144  1.00  0.00     0.008 C 
HETATM   25  C34 UNL     1       6.766  69.011 -34.196  1.00  0.00     0.034 C 
ENDBRANCH   5   6
ENDBRANCH   3   5
ENDBRANCH   2   3
ENDBRANCH   1   2
BRANCH   1  26
HETATM   26  C20 UNL     1       4.509  62.626 -33.957  1.00  0.00     0.218 C 
HETATM   27  O4  UNL     1       4.032  61.870 -33.116  1.00  0.00    -0.274 OA
HETATM   28  N1  UNL     1       5.441  62.212 -34.877  1.00  0.00    -0.352 N 
HETATM   29  H27 UNL     1       5.970  62.911 -35.386  1.00  0.00     0.162 HD
BRANCH  28  30
HETATM   30  C21 UNL     1       5.959  60.853 -34.866  1.00  0.00     0.225 C 
BRANCH  30  31
HETATM   31  C22 UNL     1       7.489  60.829 -34.806  1.00  0.00     0.236 C 
HETATM   32  O5  UNL     1       8.143  59.862 -35.190  1.00  0.00    -0.272 OA
HETATM   33  N2  UNL     1       8.062  61.950 -34.254  1.00  0.00    -0.345 N 
HETATM   34  H30 UNL     1       7.462  62.725 -33.964  1.00  0.00     0.163 HD
BRANCH  33  35
HETATM   35  C23 UNL     1       9.514  62.130 -34.177  1.00  0.00     0.186 C 
BRANCH  35  36
HETATM   36  C24 UNL     1       9.996  63.202 -35.164  1.00  0.00     0.077 C 
BRANCH  36  37
HETATM   37  C25 UNL     1      11.417  63.011 -35.600  1.00  0.00    -0.028 A 
HETATM   38  C26 UNL     1      12.546  63.467 -34.949  1.00  0.00     0.096 A 
HETATM   39  N3  UNL     1      13.644  63.087 -35.676  1.00  0.00    -0.365 N 
HETATM   40  C27 UNL     1      13.256  62.391 -36.797  1.00  0.00     0.042 A 
HETATM   41  H35 UNL     1      14.603  63.289 -35.433  1.00  0.00     0.165 HD
HETATM   42  C28 UNL     1      14.026  61.822 -37.819  1.00  0.00     0.030 A 
HETATM   43  C32 UNL     1      11.862  62.330 -36.779  1.00  0.00    -0.002 A 
HETATM   44  C29 UNL     1      13.350  61.165 -38.852  1.00  0.00     0.002 A 
HETATM   45  C30 UNL     1      11.960  61.086 -38.862  1.00  0.00     0.001 A 
HETATM   46  C31 UNL     1      11.205  61.664 -37.835  1.00  0.00     0.014 A 
ENDBRANCH  36  37
ENDBRANCH  35  36
BRANCH  35  47
HETATM   47  C33 UNL     1       9.864  62.546 -32.753  1.00  0.00     0.163 C 
HETATM   48  O6  UNL     1      10.096  63.681 -32.365  1.00  0.00    -0.648 OA
BRANCH  47  49
HETATM   49  O7  UNL     1       9.893  61.519 -31.879  1.00  0.00    -0.775 OA
HETATM   50  H40 UNL     1      10.120  61.934 -31.023  1.00  0.00     0.167 HD
ENDBRANCH  47  49
ENDBRANCH  35  47
ENDBRANCH  33  35
ENDBRANCH  30  31
ENDBRANCH  28  30
ENDBRANCH   1  26
TORSDOF 12
ENDMDL
MODEL 5
REMARK minimizedAffinity -9.39004326
REMARK CNNscore 0.503974736
REMARK CNNaffinity 7.41852331
REMARK  12 active torsions:
REMARK  status: ('A' for Active; 'I' for Inactive)
REMARK    1  A    between atoms: C16_17  and  O2_18 
REMARK    2  A    between atoms: O2_18  and  C17_19 
REMARK    3  A    between atoms: C17_19  and  C18_21 
REMARK    4  A    between atoms: C18_21  and  C19_22 
REMARK    5  A    between atoms: C19_22  and  C20_23 
REMARK       I    between atoms: C20_23  and  N1_25 
REMARK    6  A    between atoms: N1_25  and  C21_26 
REMARK    7  A    between atoms: C21_26  and  C22_27 
REMARK       I    between atoms: C22_27  and  N2_29 
REMARK    8  A    between atoms: N2_29  and  C23_30 
REMARK    9  A    between atoms: C23_30  and  C24_31 
REMARK   10  A    between atoms: C23_30  and  C33_41 
REMARK   11  A    between atoms: C24_31  and  C25_32 
REMARK   12  A    between atoms: C33_41  and  O7_43 
ROOT
HETATM    1  C19 UNL     1       1.733  52.356 -17.322  1.00  0.00     0.112 C 
ENDROOT
BRANCH   1   2
HETATM    2  C18 UNL     1       0.781  52.019 -16.180  1.00  0.00     0.120 C 
BRANCH   2   3
HETATM    3  C17 UNL     1       1.532  51.909 -14.872  1.00  0.00     0.259 C 
HETATM    4  O3  UNL     1       2.665  51.456 -14.763  1.00  0.00    -0.265 OA
BRANCH   3   5
HETATM    5  O2  UNL     1       0.783  52.447 -13.872  1.00  0.00    -0.315 OA
BRANCH   5   6
HETATM    6  C16 UNL     1       0.210  51.533 -12.916  1.00  0.00     0.140 C 
HETATM    7  C14 UNL     1       0.714  51.881 -11.494  1.00  0.00    -0.013 C 
HETATM    8  C13 UNL     1       2.216  52.189 -11.315  1.00  0.00     0.012 C 
HETATM    9  C15 UNL     1       0.379  50.676 -10.571  1.00  0.00     0.018 C 
HETATM   10  C36 UNL     1      -0.136  53.145 -11.233  1.00  0.00     0.001 C 
HETATM   11  C12 UNL     1       2.579  53.631 -10.916  1.00  0.00     0.007 C 
HETATM   12  C11 UNL     1       1.582  54.420 -10.015  1.00  0.00     0.002 C 
HETATM   13  C2  UNL     1       2.135  54.956  -8.646  1.00  0.00    -0.016 C 
HETATM   14  C10 UNL     1       0.198  53.727  -9.870  1.00  0.00    -0.004 C 
HETATM   15  C1  UNL     1       2.534  53.797  -7.710  1.00  0.00     0.020 C 
HETATM   16  C3  UNL     1       3.385  55.843  -8.924  1.00  0.00     0.022 C 
HETATM   17  C7  UNL     1       1.036  55.799  -7.970  1.00  0.00    -0.068 C 
HETATM   18  C4  UNL     1       3.783  56.730  -7.752  1.00  0.00     0.084 C 
HETATM   19  C5  UNL     1       2.620  57.582  -7.317  1.00  0.00     0.149 C 
HETATM   20  O1  UNL     1       2.767  58.699  -6.831  1.00  0.00    -0.293 OA
HETATM   21  C6  UNL     1       1.261  57.003  -7.416  1.00  0.00     0.053 C 
HETATM   22  C8  UNL     1      -0.370  55.231  -7.956  1.00  0.00     0.035 C 
HETATM   23  C9  UNL     1      -0.821  54.729  -9.329  1.00  0.00     0.010 C 
HETATM   24  C35 UNL     1      -1.543  52.718 -11.610  1.00  0.00     0.008 C 
HETATM   25  C34 UNL     1      -1.315  51.815 -12.842  1.00  0.00     0.034 C 
ENDBRANCH   5   6
ENDBRANCH   3   5
ENDBRANCH   2   3
ENDBRANCH   1   2
BRANCH   1  26
HETATM   26  C20 UNL     1       0.993  53.002 -18.473  1.00  0.00     0.218 C 
HETATM   27  O4  UNL     1      -0.231  53.057 -18.546  1.00  0.00    -0.274 OA
HETATM   28  N1  UNL     1       1.813  53.523 -19.443  1.00  0.00    -0.352 N 
HETATM   29  H27 UNL     1       2.790  53.251 -19.456  1.00  0.00     0.162 HD
BRANCH  28  30
HETATM   30  C21 UNL     1       1.268  54.125 -20.649  1.00  0.00     0.225 C 
BRANCH  30  31
HETATM   31  C22 UNL     1       0.902  53.068 -21.696  1.00  0.00     0.236 C 
HETATM   32  O5  UNL     1       0.884  51.868 -21.434  1.00  0.00    -0.272 OA
HETATM   33  N2  UNL     1       0.641  53.566 -22.950  1.00  0.00    -0.345 N 
HETATM   34  H30 UNL     1       0.663  54.577 -23.100  1.00  0.00     0.163 HD
BRANCH  33  35
HETATM   35  C23 UNL     1       0.211  52.709 -24.058  1.00  0.00     0.186 C 
BRANCH  35  36
HETATM   36  C24 UNL     1      -1.312  52.521 -24.057  1.00  0.00     0.077 C 
BRANCH  36  37
HETATM   37  C25 UNL     1      -1.850  52.030 -25.367  1.00  0.00    -0.028 A 
HETATM   38  C26 UNL     1      -1.930  52.747 -26.545  1.00  0.00     0.096 A 
HETATM   39  N3  UNL     1      -2.485  51.939 -27.502  1.00  0.00    -0.365 N 
HETATM   40  C27 UNL     1      -2.774  50.703 -26.975  1.00  0.00     0.042 A 
HETATM   41  H35 UNL     1      -2.663  52.208 -28.460  1.00  0.00     0.165 HD
HETATM   42  C28 UNL     1      -3.346  49.575 -27.575  1.00  0.00     0.030 A 
HETATM   43  C32 UNL     1      -2.389  50.730 -25.634  1.00  0.00    -0.002 A 
HETATM   44  C29 UNL     1      -3.527  48.438 -26.782  1.00  0.00     0.002 A 
HETATM   45  C30 UNL     1      -3.152  48.433 -25.440  1.00  0.00     0.001 A 
HETATM   46  C31 UNL     1      -2.585  49.571 -24.854  1.00  0.00     0.014 A 
ENDBRANCH  36  37
ENDBRANCH  35  36
BRANCH  35  47
HETATM   47  C33 UNL     1       0.648  53.367 -25.361  1.00  0.00     0.163 C 
HETATM   48  O6  UNL     1       1.370  52.875 -26.217  1.00  0.00    -0.648 OA
BRANCH  47  49
HETATM   49  O7  UNL     1       0.150  54.608 -25.537  1.00  0.00    -0.775 OA
HETATM   50  H40 UNL     1       0.506  54.893 -26.402  1.00  0.00     0.167 HD
ENDBRANCH  47  49
ENDBRANCH  35  47
ENDBRANCH  33  35
ENDBRANCH  30  31
ENDBRANCH  28  30
ENDBRANCH   1  26
TORSDOF 12
ENDMDL
MODEL 6
REMARK minimizedAffinity -9.59601307
REMARK CNNscore 0.412475824
REMARK CNNaffinity 7.36229277
REMARK  12 active torsions:
REMARK  status: ('A' for Active; 'I' for Inactive)
REMARK    1  A    between atoms: C16_17  and  O2_18 
REMARK    2  A    between atoms: O2_18  and  C17_19 
REMARK    3  A    between atoms: C17_19  and  C18_21 
REMARK    4  A    between atoms: C18_21  and  C19_22 
REMARK    5  A    between atoms: C19_22  and  C20_23 
REMARK       I    between atoms: C20_23  and  N1_25 
REMARK    6  A    between atoms: N1_25  and  C21_26 
REMARK    7  A    between atoms: C21_26  and  C22_27 
REMARK       I    between atoms: C22_27  and  N2_29 
REMARK    8  A    between atoms: N2_29  and  C23_30 
REMARK    9  A    between atoms: C23_30  and  C24_31 
REMARK   10  A    between atoms: C23_30  and  C33_41 
REMARK   11  A    between atoms: C24_31  and  C25_32 
REMARK   12  A    between atoms: C33_41  and  O7_43 
ROOT
HETATM    1  C19 UNL     1       1.025  53.020 -19.088  1.00  0.00     0.112 C 
ENDROOT
BRANCH   1   2
HETATM    2  C18 UNL     1      -0.333  52.442 -18.702  1.00  0.00     0.120 C 
BRANCH   2   3
HETATM    3  C17 UNL     1      -0.235  50.951 -18.475  1.00  0.00     0.259 C 
HETATM    4  O3  UNL     1      -0.335  50.110 -19.360  1.00  0.00    -0.265 OA
BRANCH   3   5
HETATM    5  O2  UNL     1       0.043  50.709 -17.165  1.00  0.00    -0.315 OA
BRANCH   5   6
HETATM    6  C16 UNL     1      -0.665  49.624 -16.533  1.00  0.00     0.140 C 
HETATM    7  C14 UNL     1      -0.679  49.834 -14.999  1.00  0.00    -0.013 C 
HETATM    8  C13 UNL     1       0.635  50.268 -14.316  1.00  0.00     0.012 C 
HETATM    9  C15 UNL     1      -1.113  48.491 -14.348  1.00  0.00     0.018 C 
HETATM   10  C36 UNL     1      -1.735  50.960 -14.913  1.00  0.00     0.001 C 
HETATM   11  C12 UNL     1       0.654  51.675 -13.693  1.00  0.00     0.007 C 
HETATM   12  C11 UNL     1      -0.673  52.234 -13.095  1.00  0.00     0.002 C 
HETATM   13  C2  UNL     1      -0.651  52.640 -11.577  1.00  0.00    -0.016 C 
HETATM   14  C10 UNL     1      -1.924  51.390 -13.469  1.00  0.00    -0.004 C 
HETATM   15  C1  UNL     1      -0.405  51.417 -10.672  1.00  0.00     0.020 C 
HETATM   16  C3  UNL     1       0.488  53.680 -11.354  1.00  0.00     0.022 C 
HETATM   17  C7  UNL     1      -2.010  53.271 -11.220  1.00  0.00    -0.068 C 
HETATM   18  C4  UNL     1       0.377  54.442 -10.041  1.00  0.00     0.084 C 
HETATM   19  C5  UNL     1      -0.970  55.107  -9.930  1.00  0.00     0.149 C 
HETATM   20  O1  UNL     1      -1.137  56.160  -9.323  1.00  0.00    -0.293 OA
HETATM   21  C6  UNL     1      -2.138  54.410 -10.516  1.00  0.00     0.053 C 
HETATM   22  C8  UNL     1      -3.259  52.565 -11.713  1.00  0.00     0.035 C 
HETATM   23  C9  UNL     1      -3.188  52.203 -13.197  1.00  0.00     0.010 C 
HETATM   24  C35 UNL     1      -2.883  50.444 -15.762  1.00  0.00     0.008 C 
HETATM   25  C34 UNL     1      -2.162  49.737 -16.931  1.00  0.00     0.034 C 
ENDBRANCH   5   6
ENDBRANCH   3   5
ENDBRANCH   2   3
ENDBRANCH   1   2
BRANCH   1  26
HETATM   26  C20 UNL     1       1.053  53.412 -20.548  1.00  0.00     0.218 C 
HETATM   27  O4  UNL     1       1.424  54.512 -20.948  1.00  0.00    -0.274 OA
HETATM   28  N1  UNL     1       0.620  52.426 -21.400  1.00  0.00    -0.352 N 
HETATM   29  H27 UNL     1       0.111  51.637 -21.018  1.00  0.00     0.162 HD
BRANCH  28  30
HETATM   30  C21 UNL     1       0.523  52.656 -22.833  1.00  0.00     0.225 C 
BRANCH  30  31
HETATM   31  C22 UNL     1      -0.839  52.229 -23.386  1.00  0.00     0.236 C 
HETATM   32  O5  UNL     1      -1.600  53.024 -23.935  1.00  0.00    -0.272 OA
HETATM   33  N2  UNL     1      -1.157  50.907 -23.182  1.00  0.00    -0.345 N 
HETATM   34  H30 UNL     1      -0.475  50.296 -22.727  1.00  0.00     0.163 HD
BRANCH  33  35
HETATM   35  C23 UNL     1      -2.388  50.309 -23.702  1.00  0.00     0.186 C 
BRANCH  35  36
HETATM   36  C24 UNL     1      -2.126  49.529 -24.997  1.00  0.00     0.077 C 
BRANCH  36  37
HETATM   37  C25 UNL     1      -1.873  50.412 -26.181  1.00  0.00    -0.028 A 
HETATM   38  C26 UNL     1      -2.822  50.922 -27.045  1.00  0.00     0.096 A 
HETATM   39  N3  UNL     1      -2.179  51.675 -27.992  1.00  0.00    -0.365 N 
HETATM   40  C27 UNL     1      -0.822  51.667 -27.768  1.00  0.00     0.042 A 
HETATM   41  H35 UNL     1      -2.630  52.165 -28.752  1.00  0.00     0.165 HD
HETATM   42  C28 UNL     1       0.215  52.288 -28.475  1.00  0.00     0.030 A 
HETATM   43  C32 UNL     1      -0.598  50.880 -26.638  1.00  0.00    -0.002 A 
HETATM   44  C29 UNL     1       1.520  52.101 -28.011  1.00  0.00     0.002 A 
HETATM   45  C30 UNL     1       1.776  51.320 -26.886  1.00  0.00     0.001 A 
HETATM   46  C31 UNL     1       0.728  50.704 -26.193  1.00  0.00     0.014 A 
ENDBRANCH  36  37
ENDBRANCH  35  36
BRANCH  35  47
HETATM   47  C33 UNL     1      -2.942  49.368 -22.637  1.00  0.00     0.163 C 
HETATM   48  O6  UNL     1      -3.463  48.280 -22.830  1.00  0.00    -0.648 OA
BRANCH  47  49
HETATM   49  O7  UNL     1      -2.804  49.833 -21.378  1.00  0.00    -0.775 OA
HETATM   50  H40 UNL     1      -3.192  49.132 -20.817  1.00  0.00     0.167 HD
ENDBRANCH  47  49
ENDBRANCH  35  47
ENDBRANCH  33  35
ENDBRANCH  30  31
ENDBRANCH  28  30
ENDBRANCH   1  26
TORSDOF 12
ENDMDL
MODEL 7
REMARK minimizedAffinity -8.73911285
REMARK CNNscore 0.398137659
REMARK CNNaffinity 6.54775286
REMARK  12 active torsions:
REMARK  status: ('A' for Active; 'I' for Inactive)
REMARK    1  A    between atoms: C16_17  and  O2_18 
REMARK    2  A    between atoms: O2_18  and  C17_19 
REMARK    3  A    between atoms: C17_19  and  C18_21 
REMARK    4  A    between atoms: C18_21  and  C19_22 
REMARK    5  A    between atoms: C19_22  and  C20_23 
REMARK       I    between atoms: C20_23  and  N1_25 
REMARK    6  A    between atoms: N1_25  and  C21_26 
REMARK    7  A    between atoms: C21_26  and  C22_27 
REMARK       I    between atoms: C22_27  and  N2_29 
REMARK    8  A    between atoms: N2_29  and  C23_30 
REMARK    9  A    between atoms: C23_30  and  C24_31 
REMARK   10  A    between atoms: C23_30  and  C33_41 
REMARK   11  A    between atoms: C24_31  and  C25_32 
REMARK   12  A    between atoms: C33_41  and  O7_43 
ROOT
HETATM    1  C19 UNL     1       4.278  64.160 -34.366  1.00  0.00     0.112 C 
ENDROOT
BRANCH   1   2
HETATM    2  C18 UNL     1       5.345  65.047 -33.732  1.00  0.00     0.120 C 
BRANCH   2   3
HETATM    3  C17 UNL     1       5.429  66.377 -34.445  1.00  0.00     0.259 C 
HETATM    4  O3  UNL     1       6.109  67.323 -34.065  1.00  0.00    -0.265 OA
BRANCH   3   5
HETATM    5  O2  UNL     1       4.694  66.325 -35.589  1.00  0.00    -0.315 OA
BRANCH   5   6
HETATM    6  C16 UNL     1       3.461  67.071 -35.611  1.00  0.00     0.140 C 
HETATM    7  C14 UNL     1       3.600  68.281 -36.567  1.00  0.00    -0.013 C 
HETATM    8  C13 UNL     1       4.893  69.121 -36.487  1.00  0.00     0.012 C 
HETATM    9  C15 UNL     1       2.411  69.241 -36.281  1.00  0.00     0.018 C 
HETATM   10  C36 UNL     1       3.515  67.539 -37.919  1.00  0.00     0.001 C 
HETATM   11  C12 UNL     1       5.817  69.077 -37.717  1.00  0.00     0.007 C 
HETATM   12  C11 UNL     1       5.166  68.912 -39.123  1.00  0.00     0.002 C 
HETATM   13  C2  UNL     1       5.459  70.040 -40.177  1.00  0.00    -0.016 C 
HETATM   14  C10 UNL     1       3.662  68.525 -39.066  1.00  0.00    -0.004 C 
HETATM   15  C1  UNL     1       4.871  71.393 -39.730  1.00  0.00     0.020 C 
HETATM   16  C3  UNL     1       7.002  70.182 -40.341  1.00  0.00     0.022 C 
HETATM   17  C7  UNL     1       4.827  69.630 -41.521  1.00  0.00    -0.068 C 
HETATM   18  C4  UNL     1       7.420  70.945 -41.590  1.00  0.00     0.084 C 
HETATM   19  C5  UNL     1       6.816  70.317 -42.819  1.00  0.00     0.149 C 
HETATM   20  O1  UNL     1       7.371  70.343 -43.913  1.00  0.00    -0.293 OA
HETATM   21  C6  UNL     1       5.468  69.717 -42.700  1.00  0.00     0.053 C 
HETATM   22  C8  UNL     1       3.412  69.086 -41.489  1.00  0.00     0.035 C 
HETATM   23  C9  UNL     1       3.218  67.999 -40.430  1.00  0.00     0.010 C 
HETATM   24  C35 UNL     1       2.296  66.648 -37.767  1.00  0.00     0.008 C 
HETATM   25  C34 UNL     1       2.382  66.187 -36.296  1.00  0.00     0.034 C 
ENDBRANCH   5   6
ENDBRANCH   3   5
ENDBRANCH   2   3
ENDBRANCH   1   2
BRANCH   1  26
HETATM   26  C20 UNL     1       4.578  62.696 -34.131  1.00  0.00     0.218 C 
HETATM   27  O4  UNL     1       4.031  62.022 -33.263  1.00  0.00    -0.274 OA
HETATM   28  N1  UNL     1       5.529  62.178 -34.977  1.00  0.00    -0.352 N 
HETATM   29  H27 UNL     1       6.111  62.816 -35.507  1.00  0.00     0.162 HD
BRANCH  28  30
HETATM   30  C21 UNL     1       5.982  60.803 -34.849  1.00  0.00     0.225 C 
BRANCH  30  31
HETATM   31  C22 UNL     1       7.506  60.717 -34.718  1.00  0.00     0.236 C 
HETATM   32  O5  UNL     1       8.128  59.691 -34.987  1.00  0.00    -0.272 OA
HETATM   33  N2  UNL     1       8.109  61.855 -34.239  1.00  0.00    -0.345 N 
HETATM   34  H30 UNL     1       7.535  62.679 -34.044  1.00  0.00     0.163 HD
BRANCH  33  35
HETATM   35  C23 UNL     1       9.563  61.977 -34.114  1.00  0.00     0.186 C 
BRANCH  35  36
HETATM   36  C24 UNL     1      10.114  63.068 -35.041  1.00  0.00     0.077 C 
BRANCH  36  37
HETATM   37  C25 UNL     1      10.995  62.534 -36.129  1.00  0.00    -0.028 A 
HETATM   38  C26 UNL     1      10.594  61.799 -37.227  1.00  0.00     0.096 A 
HETATM   39  N3  UNL     1      11.703  61.503 -37.974  1.00  0.00    -0.365 N 
HETATM   40  C27 UNL     1      12.830  62.028 -37.385  1.00  0.00     0.042 A 
HETATM   41  H35 UNL     1      11.703  60.971 -38.834  1.00  0.00     0.165 HD
HETATM   42  C28 UNL     1      14.170  61.973 -37.787  1.00  0.00     0.030 A 
HETATM   43  C32 UNL     1      12.417  62.680 -36.222  1.00  0.00    -0.002 A 
HETATM   44  C29 UNL     1      15.117  62.606 -36.978  1.00  0.00     0.002 A 
HETATM   45  C30 UNL     1      14.737  63.265 -35.811  1.00  0.00     0.001 A 
HETATM   46  C31 UNL     1      13.393  63.308 -35.422  1.00  0.00     0.014 A 
ENDBRANCH  36  37
ENDBRANCH  35  36
BRANCH  35  47
HETATM   47  C33 UNL     1       9.884  62.322 -32.664  1.00  0.00     0.163 C 
HETATM   48  O6  UNL     1      10.385  63.361 -32.259  1.00  0.00    -0.648 OA
BRANCH  47  49
HETATM   49  O7  UNL     1       9.549  61.353 -31.788  1.00  0.00    -0.775 OA
HETATM   50  H40 UNL     1       9.804  61.715 -30.916  1.00  0.00     0.167 HD
ENDBRANCH  47  49
ENDBRANCH  35  47
ENDBRANCH  33  35
ENDBRANCH  30  31
ENDBRANCH  28  30
ENDBRANCH   1  26
TORSDOF 12
ENDMDL
MODEL 8
REMARK minimizedAffinity -9.43941307
REMARK CNNscore 0.332499623
REMARK CNNaffinity 6.88707113
REMARK  12 active torsions:
REMARK  status: ('A' for Active; 'I' for Inactive)
REMARK    1  A    between atoms: C16_17  and  O2_18 
REMARK    2  A    between atoms: O2_18  and  C17_19 
REMARK    3  A    between atoms: C17_19  and  C18_21 
REMARK    4  A    between atoms: C18_21  and  C19_22 
REMARK    5  A    between atoms: C19_22  and  C20_23 
REMARK       I    between atoms: C20_23  and  N1_25 
REMARK    6  A    between atoms: N1_25  and  C21_26 
REMARK    7  A    between atoms: C21_26  and  C22_27 
REMARK       I    between atoms: C22_27  and  N2_29 
REMARK    8  A    between atoms: N2_29  and  C23_30 
REMARK    9  A    between atoms: C23_30  and  C24_31 
REMARK   10  A    between atoms: C23_30  and  C33_41 
REMARK   11  A    between atoms: C24_31  and  C25_32 
REMARK   12  A    between atoms: C33_41  and  O7_43 
ROOT
HETATM    1  C19 UNL     1      -4.148  48.526 -25.869  1.00  0.00     0.112 C 
ENDROOT
BRANCH   1   2
HETATM    2  C18 UNL     1      -3.318  48.459 -27.147  1.00  0.00     0.120 C 
BRANCH   2   3
HETATM    3  C17 UNL     1      -4.192  48.654 -28.364  1.00  0.00     0.259 C 
HETATM    4  O3  UNL     1      -4.036  49.546 -29.190  1.00  0.00    -0.265 OA
BRANCH   3   5
HETATM    5  O2  UNL     1      -5.116  47.657 -28.423  1.00  0.00    -0.315 OA
BRANCH   5   6
HETATM    6  C16 UNL     1      -6.473  48.037 -28.728  1.00  0.00     0.140 C 
HETATM    7  C14 UNL     1      -6.989  47.212 -29.932  1.00  0.00    -0.013 C 
HETATM    8  C13 UNL     1      -6.050  47.040 -31.145  1.00  0.00     0.012 C 
HETATM    9  C15 UNL     1      -8.285  47.899 -30.448  1.00  0.00     0.018 C 
HETATM   10  C36 UNL     1      -7.217  45.858 -29.224  1.00  0.00     0.001 C 
HETATM   11  C12 UNL     1      -5.543  45.614 -31.425  1.00  0.00     0.007 C 
HETATM   12  C11 UNL     1      -6.480  44.418 -31.079  1.00  0.00     0.002 C 
HETATM   13  C2  UNL     1      -6.858  43.449 -32.257  1.00  0.00    -0.016 C 
HETATM   14  C10 UNL     1      -7.711  44.824 -30.221  1.00  0.00    -0.004 C 
HETATM   15  C1  UNL     1      -7.684  44.175 -33.337  1.00  0.00     0.020 C 
HETATM   16  C3  UNL     1      -5.546  42.903 -32.896  1.00  0.00     0.022 C 
HETATM   17  C7  UNL     1      -7.684  42.282 -31.685  1.00  0.00    -0.068 C 
HETATM   18  C4  UNL     1      -5.753  41.677 -33.773  1.00  0.00     0.084 C 
HETATM   19  C5  UNL     1      -6.454  40.589 -33.002  1.00  0.00     0.149 C 
HETATM   20  O1  UNL     1      -6.265  39.397 -33.225  1.00  0.00    -0.293 OA
HETATM   21  C6  UNL     1      -7.461  40.992 -31.994  1.00  0.00     0.053 C 
HETATM   22  C8  UNL     1      -8.793  42.624 -30.709  1.00  0.00     0.035 C 
HETATM   23  C9  UNL     1      -8.336  43.575 -29.602  1.00  0.00     0.010 C 
HETATM   24  C35 UNL     1      -8.008  46.229 -27.982  1.00  0.00     0.008 C 
HETATM   25  C34 UNL     1      -7.373  47.569 -27.552  1.00  0.00     0.034 C 
ENDBRANCH   5   6
ENDBRANCH   3   5
ENDBRANCH   2   3
ENDBRANCH   1   2
BRANCH   1  26
HETATM   26  C20 UNL     1      -3.669  49.642 -24.968  1.00  0.00     0.218 C 
HETATM   27  O4  UNL     1      -2.899  50.525 -25.333  1.00  0.00    -0.274 OA
HETATM   28  N1  UNL     1      -4.169  49.582 -23.690  1.00  0.00    -0.352 N 
HETATM   29  H27 UNL     1      -4.602  48.721 -23.374  1.00  0.00     0.162 HD
BRANCH  28  30
HETATM   30  C21 UNL     1      -3.763  50.540 -22.675  1.00  0.00     0.225 C 
BRANCH  30  31
HETATM   31  C22 UNL     1      -2.281  50.395 -22.317  1.00  0.00     0.236 C 
HETATM   32  O5  UNL     1      -1.795  49.321 -21.968  1.00  0.00    -0.272 OA
HETATM   33  N2  UNL     1      -1.556  51.562 -22.375  1.00  0.00    -0.345 N 
HETATM   34  H30 UNL     1      -2.018  52.421 -22.683  1.00  0.00     0.163 HD
BRANCH  33  35
HETATM   35  C23 UNL     1      -0.112  51.600 -22.131  1.00  0.00     0.186 C 
BRANCH  35  36
HETATM   36  C24 UNL     1       0.571  52.673 -22.989  1.00  0.00     0.077 C 
BRANCH  36  37
HETATM   37  C25 UNL     1       0.046  52.735 -24.391  1.00  0.00    -0.028 A 
HETATM   38  C26 UNL     1      -1.196  53.193 -24.786  1.00  0.00     0.096 A 
HETATM   39  N3  UNL     1      -1.282  53.078 -26.148  1.00  0.00    -0.365 N 
HETATM   40  C27 UNL     1      -0.120  52.548 -26.658  1.00  0.00     0.042 A 
HETATM   41  H35 UNL     1      -2.084  53.338 -26.706  1.00  0.00     0.165 HD
HETATM   42  C28 UNL     1       0.237  52.253 -27.979  1.00  0.00     0.030 A 
HETATM   43  C32 UNL     1       0.733  52.320 -25.578  1.00  0.00    -0.002 A 
HETATM   44  C29 UNL     1       1.505  51.711 -28.204  1.00  0.00     0.002 A 
HETATM   45  C30 UNL     1       2.380  51.471 -27.147  1.00  0.00     0.001 A 
HETATM   46  C31 UNL     1       2.007  51.769 -25.831  1.00  0.00     0.014 A 
ENDBRANCH  36  37
ENDBRANCH  35  36
BRANCH  35  47
HETATM   47  C33 UNL     1       0.108  51.903 -20.653  1.00  0.00     0.163 C 
HETATM   48  O6  UNL     1       0.367  52.995 -20.167  1.00  0.00    -0.648 OA
BRANCH  47  49
HETATM   49  O7  UNL     1      -0.018  50.826 -19.853  1.00  0.00    -0.775 OA
HETATM   50  H40 UNL     1       0.141  51.171 -18.952  1.00  0.00     0.167 HD
ENDBRANCH  47  49
ENDBRANCH  35  47
ENDBRANCH  33  35
ENDBRANCH  30  31
ENDBRANCH  28  30
ENDBRANCH   1  26
TORSDOF 12
ENDMDL
MODEL 9
REMARK minimizedAffinity -9.79955578
REMARK CNNscore 0.322605669
REMARK CNNaffinity 6.85082626
REMARK  12 active torsions:
REMARK  status: ('A' for Active; 'I' for Inactive)
REMARK    1  A    between atoms: C16_17  and  O2_18 
REMARK    2  A    between atoms: O2_18  and  C17_19 
REMARK    3  A    between atoms: C17_19  and  C18_21 
REMARK    4  A    between atoms: C18_21  and  C19_22 
REMARK    5  A    between atoms: C19_22  and  C20_23 
REMARK       I    between atoms: C20_23  and  N1_25 
REMARK    6  A    between atoms: N1_25  and  C21_26 
REMARK    7  A    between atoms: C21_26  and  C22_27 
REMARK       I    between atoms: C22_27  and  N2_29 
REMARK    8  A    between atoms: N2_29  and  C23_30 
REMARK    9  A    between atoms: C23_30  and  C24_31 
REMARK   10  A    between atoms: C23_30  and  C33_41 
REMARK   11  A    between atoms: C24_31  and  C25_32 
REMARK   12  A    between atoms: C33_41  and  O7_43 
ROOT
HETATM    1  C19 UNL     1      -0.915  51.035 -17.793  1.00  0.00     0.112 C 
ENDROOT
BRANCH   1   2
HETATM    2  C18 UNL     1      -0.539  49.578 -18.044  1.00  0.00     0.120 C 
BRANCH   2   3
HETATM    3  C17 UNL     1      -1.777  48.717 -18.150  1.00  0.00     0.259 C 
HETATM    4  O3  UNL     1      -2.412  48.299 -17.189  1.00  0.00    -0.265 OA
BRANCH   3   5
HETATM    5  O2  UNL     1      -2.099  48.545 -19.461  1.00  0.00    -0.315 OA
BRANCH   5   6
HETATM    6  C16 UNL     1      -3.442  48.889 -19.858  1.00  0.00     0.140 C 
HETATM    7  C14 UNL     1      -3.397  49.902 -21.028  1.00  0.00    -0.013 C 
HETATM    8  C13 UNL     1      -2.402  51.078 -20.928  1.00  0.00     0.012 C 
HETATM    9  C15 UNL     1      -4.819  50.514 -21.171  1.00  0.00     0.018 C 
HETATM   10  C36 UNL     1      -2.993  48.942 -22.170  1.00  0.00     0.001 C 
HETATM   11  C12 UNL     1      -1.246  51.088 -21.945  1.00  0.00     0.007 C 
HETATM   12  C11 UNL     1      -1.507  50.499 -23.364  1.00  0.00     0.002 C 
HETATM   13  C2  UNL     1      -1.275  51.462 -24.584  1.00  0.00    -0.016 C 
HETATM   14  C10 UNL     1      -2.843  49.712 -23.471  1.00  0.00    -0.004 C 
HETATM   15  C1  UNL     1      -2.263  52.645 -24.563  1.00  0.00     0.020 C 
HETATM   16  C3  UNL     1       0.182  52.010 -24.518  1.00  0.00     0.022 C 
HETATM   17  C7  UNL     1      -1.472  50.659 -25.885  1.00  0.00    -0.068 C 
HETATM   18  C4  UNL     1       0.665  52.631 -25.822  1.00  0.00     0.084 C 
HETATM   19  C5  UNL     1       0.523  51.651 -26.956  1.00  0.00     0.149 C 
HETATM   20  O1  UNL     1       1.284  51.644 -27.920  1.00  0.00    -0.293 OA
HETATM   21  C6  UNL     1      -0.627  50.719 -26.929  1.00  0.00     0.053 C 
HETATM   22  C8  UNL     1      -2.679  49.745 -25.965  1.00  0.00     0.035 C 
HETATM   23  C9  UNL     1      -2.829  48.851 -24.733  1.00  0.00     0.010 C 
HETATM   24  C35 UNL     1      -3.957  47.779 -22.022  1.00  0.00     0.008 C 
HETATM   25  C34 UNL     1      -4.089  47.627 -20.491  1.00  0.00     0.034 C 
ENDBRANCH   5   6
ENDBRANCH   3   5
ENDBRANCH   2   3
ENDBRANCH   1   2
BRANCH   1  26
HETATM   26  C20 UNL     1       0.302  51.931 -17.870  1.00  0.00     0.218 C 
HETATM   27  O4  UNL     1       0.599  52.587 -18.863  1.00  0.00    -0.274 OA
HETATM   28  N1  UNL     1       1.058  51.945 -16.723  1.00  0.00    -0.352 N 
HETATM   29  H27 UNL     1       0.908  51.221 -16.029  1.00  0.00     0.162 HD
BRANCH  28  30
HETATM   30  C21 UNL     1       2.296  52.704 -16.646  1.00  0.00     0.225 C 
BRANCH  30  31
HETATM   31  C22 UNL     1       3.210  52.188 -15.531  1.00  0.00     0.236 C 
HETATM   32  O5  UNL     1       4.423  52.063 -15.686  1.00  0.00    -0.272 OA
HETATM   33  N2  UNL     1       2.563  51.839 -14.370  1.00  0.00    -0.345 N 
HETATM   34  H30 UNL     1       1.552  51.977 -14.301  1.00  0.00     0.163 HD
BRANCH  33  35
HETATM   35  C23 UNL     1       3.284  51.389 -13.177  1.00  0.00     0.186 C 
BRANCH  35  36
HETATM   36  C24 UNL     1       2.381  51.416 -11.936  1.00  0.00     0.077 C 
BRANCH  36  37
HETATM   37  C25 UNL     1       2.058  52.801 -11.466  1.00  0.00    -0.028 A 
HETATM   38  C26 UNL     1       0.854  53.462 -11.615  1.00  0.00     0.096 A 
HETATM   39  N3  UNL     1       0.975  54.706 -11.053  1.00  0.00    -0.365 N 
HETATM   40  C27 UNL     1       2.238  54.877 -10.538  1.00  0.00     0.042 A 
HETATM   41  H35 UNL     1       0.245  55.404 -11.021  1.00  0.00     0.165 HD
HETATM   42  C28 UNL     1       2.807  55.976  -9.884  1.00  0.00     0.030 A 
HETATM   43  C32 UNL     1       2.944  53.698 -10.785  1.00  0.00    -0.002 A 
HETATM   44  C29 UNL     1       4.136  55.866  -9.465  1.00  0.00     0.002 A 
HETATM   45  C30 UNL     1       4.867  54.703  -9.696  1.00  0.00     0.001 A 
HETATM   46  C31 UNL     1       4.284  53.614 -10.355  1.00  0.00     0.014 A 
ENDBRANCH  36  37
ENDBRANCH  35  36
BRANCH  35  47
HETATM   47  C33 UNL     1       3.773  49.967 -13.428  1.00  0.00     0.163 C 
HETATM   48  O6  UNL     1       4.931  49.579 -13.381  1.00  0.00    -0.648 OA
BRANCH  47  49
HETATM   49  O7  UNL     1       2.784  49.097 -13.715  1.00  0.00    -0.775 OA
HETATM   50  H40 UNL     1       3.242  48.242 -13.843  1.00  0.00     0.167 HD
ENDBRANCH  47  49
ENDBRANCH  35  47
ENDBRANCH  33  35
ENDBRANCH  30  31
ENDBRANCH  28  30
ENDBRANCH   1  26
TORSDOF 12
ENDMDL
