MODEL 1
REMARK minimizedAffinity -9.43336296
REMARK  9 active torsions:
REMARK  status: ('A' for Active; 'I' for Inactive)
REMARK    1  A    between atoms: C3_3  and  C4_4 
REMARK    2  A    between atoms: C3_3  and  C27_30 
REMARK    3  A    between atoms: C4_4  and  C5_5 
REMARK    4  A    between atoms: C5_5  and  C6_6 
REMARK    5  A    between atoms: C6_6  and  C8_8 
REMARK    6  A    between atoms: C15_15  and  O1_16 
REMARK    7  A    between atoms: C18_19  and  C19_20 
REMARK    8  A    between atoms: C19_20  and  O2_21 
REMARK    9  A    between atoms: C22_24  and  O3_25 
ROOT
HETATM    1  C8  UNL     1       0.413   6.518  11.554  1.00  0.00     0.001 C 
HETATM    2  C9  UNL     1       0.626   5.047  11.119  1.00  0.00     0.006 C 
HETATM    3  C10 UNL     1      -0.716   4.327  11.345  1.00  0.00     0.010 C 
HETATM    4  C11 UNL     1      -1.699   5.444  11.704  1.00  0.00     0.026 C 
HETATM    5  C12 UNL     1      -3.026   5.142  12.364  1.00  0.00    -0.072 C 
HETATM    6  C13 UNL     1      -3.665   6.108  13.076  1.00  0.00    -0.064 C 
HETATM    7  C14 UNL     1      -3.015   7.482  13.298  1.00  0.00     0.068 C 
HETATM    8  C15 UNL     1      -1.660   7.735  12.593  1.00  0.00     0.131 C 
HETATM    9  C16 UNL     1      -0.821   6.444  12.505  1.00  0.00    -0.006 C 
HETATM   10  C17 UNL     1      -0.441   5.921  13.913  1.00  0.00     0.019 C 
HETATM   11  C18 UNL     1      -5.041   5.843  13.762  1.00  0.00     0.009 C 
HETATM   12  C20 UNL     1      -6.006   7.074  13.685  1.00  0.00     0.019 C 
HETATM   13  C21 UNL     1      -7.470   6.769  13.323  1.00  0.00     0.033 C 
HETATM   14  C22 UNL     1      -8.022   5.473  13.901  1.00  0.00     0.118 C 
HETATM   15  C23 UNL     1      -7.112   4.265  13.653  1.00  0.00     0.037 C 
HETATM   16  C24 UNL     1      -5.752   4.649  13.044  1.00  0.00     0.003 C 
HETATM   17  C25 UNL     1      -4.842   3.428  12.931  1.00  0.00     0.010 C 
HETATM   18  C26 UNL     1      -3.592   3.762  12.121  1.00  0.00     0.035 C 
ENDROOT
BRANCH   1  19
HETATM   19  C6  UNL     1       1.684   7.289  12.022  1.00  0.00    -0.013 C 
HETATM   20  C7  UNL     1       1.467   8.794  11.779  1.00  0.00     0.010 C 
BRANCH  19  21
HETATM   21  C5  UNL     1       3.011   6.850  11.358  1.00  0.00     0.009 C 
BRANCH  21  22
HETATM   22  C4  UNL     1       3.382   7.568  10.046  1.00  0.00     0.034 C 
BRANCH  22  23
HETATM   23  C3  UNL     1       2.892   6.891   8.775  1.00  0.00    -0.081 C 
HETATM   24  C2  UNL     1       3.072   5.573   8.536  1.00  0.00    -0.028 C 
HETATM   25  C1  UNL     1       3.791   4.577   9.392  1.00  0.00     0.036 C 
BRANCH  23  26
HETATM   26  C27 UNL     1       2.095   7.792   7.826  1.00  0.00     0.006 C 
HETATM   27  C28 UNL     1       1.863   7.212   6.425  1.00  0.00     0.014 C 
HETATM   28  C29 UNL     1       0.755   8.183   8.459  1.00  0.00     0.014 C 
ENDBRANCH  23  26
ENDBRANCH  22  23
ENDBRANCH  21  22
ENDBRANCH  19  21
ENDBRANCH   1  19
BRANCH   8  29
HETATM   29  O1  UNL     1      -0.967   8.794  13.250  1.00  0.00    -0.394 OA
HETATM   30  H22 UNL     1      -0.764   8.517  14.157  1.00  0.00     0.210 HD
ENDBRANCH   8  29
BRANCH  11  31
HETATM   31  C19 UNL     1      -4.682   5.547  15.258  1.00  0.00     0.178 C 
BRANCH  31  32
HETATM   32  O2  UNL     1      -5.459   6.285  16.194  1.00  0.00    -0.400 OA
HETATM   33  H28 UNL     1      -5.188   5.977  17.080  1.00  0.00     0.209 HD
ENDBRANCH  31  32
ENDBRANCH  11  31
BRANCH  14  34
HETATM   34  O3  UNL     1      -8.260   5.635  15.297  1.00  0.00    -0.396 OA
HETATM   35  H34 UNL     1      -7.378   5.638  15.727  1.00  0.00     0.210 HD
ENDBRANCH  14  34
TORSDOF 9
ENDMDL
MODEL 2
REMARK minimizedAffinity -9.36159229
REMARK  9 active torsions:
REMARK  status: ('A' for Active; 'I' for Inactive)
REMARK    1  A    between atoms: C3_3  and  C4_4 
REMARK    2  A    between atoms: C3_3  and  C27_30 
REMARK    3  A    between atoms: C4_4  and  C5_5 
REMARK    4  A    between atoms: C5_5  and  C6_6 
REMARK    5  A    between atoms: C6_6  and  C8_8 
REMARK    6  A    between atoms: C15_15  and  O1_16 
REMARK    7  A    between atoms: C18_19  and  C19_20 
REMARK    8  A    between atoms: C19_20  and  O2_21 
REMARK    9  A    between atoms: C22_24  and  O3_25 
ROOT
HETATM    1  C8  UNL     1      -1.978   5.360  12.209  1.00  0.00     0.001 C 
HETATM    2  C9  UNL     1      -2.529   4.084  11.526  1.00  0.00     0.006 C 
HETATM    3  C10 UNL     1      -4.043   4.059  11.805  1.00  0.00     0.010 C 
HETATM    4  C11 UNL     1      -4.339   5.412  12.455  1.00  0.00     0.026 C 
HETATM    5  C12 UNL     1      -5.621   5.654  13.220  1.00  0.00    -0.072 C 
HETATM    6  C13 UNL     1      -5.680   6.644  14.150  1.00  0.00    -0.064 C 
HETATM    7  C14 UNL     1      -4.433   7.470  14.500  1.00  0.00     0.068 C 
HETATM    8  C15 UNL     1      -3.152   7.182  13.679  1.00  0.00     0.131 C 
HETATM    9  C16 UNL     1      -3.058   5.694  13.285  1.00  0.00    -0.006 C 
HETATM   10  C17 UNL     1      -2.936   4.788  14.534  1.00  0.00     0.019 C 
HETATM   11  C18 UNL     1      -6.984   6.935  14.954  1.00  0.00     0.009 C 
HETATM   12  C20 UNL     1      -7.225   8.464  15.192  1.00  0.00     0.019 C 
HETATM   13  C21 UNL     1      -8.661   8.970  14.973  1.00  0.00     0.033 C 
HETATM   14  C22 UNL     1      -9.758   8.006  15.407  1.00  0.00     0.118 C 
HETATM   15  C23 UNL     1      -9.566   6.587  14.861  1.00  0.00     0.037 C 
HETATM   16  C24 UNL     1      -8.213   6.391  14.153  1.00  0.00     0.003 C 
HETATM   17  C25 UNL     1      -8.024   4.934  13.737  1.00  0.00     0.010 C 
HETATM   18  C26 UNL     1      -6.798   4.787  12.838  1.00  0.00     0.035 C 
ENDROOT
BRANCH   1  19
HETATM   19  C6  UNL     1      -0.478   5.325  12.629  1.00  0.00    -0.013 C 
HETATM   20  C7  UNL     1      -0.238   6.405  13.700  1.00  0.00     0.010 C 
BRANCH  19  21
HETATM   21  C5  UNL     1       0.539   5.512  11.477  1.00  0.00     0.009 C 
BRANCH  21  22
HETATM   22  C4  UNL     1       0.816   6.965  11.047  1.00  0.00     0.034 C 
BRANCH  22  23
HETATM   23  C3  UNL     1       1.260   7.141   9.603  1.00  0.00    -0.081 C 
HETATM   24  C2  UNL     1       0.641   7.986   8.749  1.00  0.00    -0.028 C 
HETATM   25  C1  UNL     1      -0.566   8.833   9.012  1.00  0.00     0.036 C 
BRANCH  23  26
HETATM   26  C27 UNL     1       2.519   6.361   9.212  1.00  0.00     0.006 C 
HETATM   27  C28 UNL     1       2.645   6.043   7.716  1.00  0.00     0.014 C 
HETATM   28  C29 UNL     1       3.775   7.094   9.698  1.00  0.00     0.014 C 
ENDBRANCH  23  26
ENDBRANCH  22  23
ENDBRANCH  21  22
ENDBRANCH  19  21
ENDBRANCH   1  19
BRANCH   8  29
HETATM   29  O1  UNL     1      -2.008   7.632  14.401  1.00  0.00    -0.394 OA
HETATM   30  H22 UNL     1      -1.936   7.118  15.220  1.00  0.00     0.210 HD
ENDBRANCH   8  29
BRANCH  11  31
HETATM   31  C19 UNL     1      -6.767   6.215  16.328  1.00  0.00     0.178 C 
BRANCH  31  32
HETATM   32  O2  UNL     1      -7.211   6.968  17.450  1.00  0.00    -0.400 OA
HETATM   33  H28 UNL     1      -7.078   6.400  18.233  1.00  0.00     0.209 HD
ENDBRANCH  31  32
ENDBRANCH  11  31
BRANCH  14  34
HETATM   34  O3  UNL     1      -9.839   7.982  16.829  1.00  0.00    -0.396 OA
HETATM   35  H34 UNL     1      -9.055   7.481  17.141  1.00  0.00     0.210 HD
ENDBRANCH  14  34
TORSDOF 9
ENDMDL
MODEL 3
REMARK minimizedAffinity -9.34010029
REMARK  9 active torsions:
REMARK  status: ('A' for Active; 'I' for Inactive)
REMARK    1  A    between atoms: C3_3  and  C4_4 
REMARK    2  A    between atoms: C3_3  and  C27_30 
REMARK    3  A    between atoms: C4_4  and  C5_5 
REMARK    4  A    between atoms: C5_5  and  C6_6 
REMARK    5  A    between atoms: C6_6  and  C8_8 
REMARK    6  A    between atoms: C15_15  and  O1_16 
REMARK    7  A    between atoms: C18_19  and  C19_20 
REMARK    8  A    between atoms: C19_20  and  O2_21 
REMARK    9  A    between atoms: C22_24  and  O3_25 
ROOT
HETATM    1  C8  UNL     1      -5.630   6.133  13.309  1.00  0.00     0.001 C 
HETATM    2  C9  UNL     1      -5.826   7.598  13.771  1.00  0.00     0.006 C 
HETATM    3  C10 UNL     1      -4.472   8.304  13.567  1.00  0.00     0.010 C 
HETATM    4  C11 UNL     1      -3.614   7.285  12.813  1.00  0.00     0.026 C 
HETATM    5  C12 UNL     1      -2.110   7.423  12.741  1.00  0.00    -0.072 C 
HETATM    6  C13 UNL     1      -1.340   6.331  12.489  1.00  0.00    -0.064 C 
HETATM    7  C14 UNL     1      -1.970   4.936  12.363  1.00  0.00     0.068 C 
HETATM    8  C15 UNL     1      -3.515   4.859  12.439  1.00  0.00     0.131 C 
HETATM    9  C16 UNL     1      -4.087   5.925  13.394  1.00  0.00    -0.006 C 
HETATM   10  C17 UNL     1      -3.609   5.692  14.849  1.00  0.00     0.019 C 
HETATM   11  C18 UNL     1       0.214   6.430  12.395  1.00  0.00     0.009 C 
HETATM   12  C20 UNL     1       0.816   5.509  11.282  1.00  0.00     0.019 C 
HETATM   13  C21 UNL     1       1.910   6.133  10.399  1.00  0.00     0.033 C 
HETATM   14  C22 UNL     1       2.859   7.082  11.122  1.00  0.00     0.118 C 
HETATM   15  C23 UNL     1       2.133   8.139  11.961  1.00  0.00     0.037 C 
HETATM   16  C24 UNL     1       0.615   7.902  12.048  1.00  0.00     0.003 C 
HETATM   17  C25 UNL     1      -0.039   8.909  12.991  1.00  0.00     0.010 C 
HETATM   18  C26 UNL     1      -1.561   8.822  12.898  1.00  0.00     0.035 C 
ENDROOT
BRANCH   1  19
HETATM   19  C6  UNL     1      -6.573   5.075  13.956  1.00  0.00    -0.013 C 
HETATM   20  C7  UNL     1      -6.937   4.020  12.895  1.00  0.00     0.010 C 
BRANCH  19  21
HETATM   21  C5  UNL     1      -7.871   5.636  14.585  1.00  0.00     0.009 C 
BRANCH  21  22
HETATM   22  C4  UNL     1      -8.861   6.305  13.611  1.00  0.00     0.034 C 
BRANCH  22  23
HETATM   23  C3  UNL     1     -10.046   6.998  14.265  1.00  0.00    -0.081 C 
HETATM   24  C2  UNL     1      -9.927   7.745  15.385  1.00  0.00    -0.028 C 
HETATM   25  C1  UNL     1      -8.691   7.991  16.194  1.00  0.00     0.036 C 
BRANCH  23  26
HETATM   26  C27 UNL     1     -11.373   6.864  13.510  1.00  0.00     0.006 C 
HETATM   27  C28 UNL     1     -12.565   6.421  14.368  1.00  0.00     0.014 C 
HETATM   28  C29 UNL     1     -11.709   8.172  12.784  1.00  0.00     0.014 C 
ENDBRANCH  23  26
ENDBRANCH  22  23
ENDBRANCH  21  22
ENDBRANCH  19  21
ENDBRANCH   1  19
BRANCH   8  29
HETATM   29  O1  UNL     1      -3.913   3.536  12.793  1.00  0.00    -0.394 OA
HETATM   30  H22 UNL     1      -3.579   3.339  13.682  1.00  0.00     0.210 HD
ENDBRANCH   8  29
BRANCH  11  31
HETATM   31  C19 UNL     1       0.722   5.960  13.801  1.00  0.00     0.178 C 
BRANCH  31  32
HETATM   32  O2  UNL     1       2.007   6.462  14.146  1.00  0.00    -0.400 OA
HETATM   33  H28 UNL     1       2.189   6.153  15.054  1.00  0.00     0.209 HD
ENDBRANCH  31  32
ENDBRANCH  11  31
BRANCH  14  34
HETATM   34  O3  UNL     1       3.755   6.332  11.937  1.00  0.00    -0.396 OA
HETATM   35  H34 UNL     1       3.231   6.017  12.704  1.00  0.00     0.210 HD
ENDBRANCH  14  34
TORSDOF 9
ENDMDL
MODEL 4
REMARK minimizedAffinity -9.3332119
REMARK  9 active torsions:
REMARK  status: ('A' for Active; 'I' for Inactive)
REMARK    1  A    between atoms: C3_3  and  C4_4 
REMARK    2  A    between atoms: C3_3  and  C27_30 
REMARK    3  A    between atoms: C4_4  and  C5_5 
REMARK    4  A    between atoms: C5_5  and  C6_6 
REMARK    5  A    between atoms: C6_6  and  C8_8 
REMARK    6  A    between atoms: C15_15  and  O1_16 
REMARK    7  A    between atoms: C18_19  and  C19_20 
REMARK    8  A    between atoms: C19_20  and  O2_21 
REMARK    9  A    between atoms: C22_24  and  O3_25 
ROOT
HETATM    1  C8  UNL     1       1.261   6.712  13.045  1.00  0.00     0.001 C 
HETATM    2  C9  UNL     1       0.484   7.854  13.744  1.00  0.00     0.006 C 
HETATM    3  C10 UNL     1      -0.989   7.407  13.800  1.00  0.00     0.010 C 
HETATM    4  C11 UNL     1      -0.971   5.954  13.323  1.00  0.00     0.026 C 
HETATM    5  C12 UNL     1      -2.237   5.258  12.872  1.00  0.00    -0.072 C 
HETATM    6  C13 UNL     1      -2.161   4.180  12.047  1.00  0.00    -0.064 C 
HETATM    7  C14 UNL     1      -0.810   3.709  11.490  1.00  0.00     0.068 C 
HETATM    8  C15 UNL     1       0.451   4.455  11.992  1.00  0.00     0.131 C 
HETATM    9  C16 UNL     1       0.156   5.946  12.255  1.00  0.00    -0.006 C 
HETATM   10  C17 UNL     1      -0.243   6.679  10.950  1.00  0.00     0.019 C 
HETATM   11  C18 UNL     1      -3.439   3.426  11.567  1.00  0.00     0.009 C 
HETATM   12  C20 UNL     1      -3.238   1.875  11.490  1.00  0.00     0.019 C 
HETATM   13  C21 UNL     1      -4.382   1.012  12.049  1.00  0.00     0.033 C 
HETATM   14  C22 UNL     1      -5.783   1.557  11.801  1.00  0.00     0.118 C 
HETATM   15  C23 UNL     1      -5.937   3.029  12.195  1.00  0.00     0.037 C 
HETATM   16  C24 UNL     1      -4.603   3.695  12.577  1.00  0.00     0.003 C 
HETATM   17  C25 UNL     1      -4.796   5.186  12.843  1.00  0.00     0.010 C 
HETATM   18  C26 UNL     1      -3.529   5.793  13.442  1.00  0.00     0.035 C 
ENDROOT
BRANCH   1  19
HETATM   19  C6  UNL     1       2.572   7.120  12.308  1.00  0.00    -0.013 C 
HETATM   20  C7  UNL     1       3.525   7.781  13.321  1.00  0.00     0.010 C 
BRANCH  19  21
HETATM   21  C5  UNL     1       2.386   8.061  11.093  1.00  0.00     0.009 C 
BRANCH  21  22
HETATM   22  C4  UNL     1       3.412   7.906   9.953  1.00  0.00     0.034 C 
BRANCH  22  23
HETATM   23  C3  UNL     1       2.924   7.125   8.743  1.00  0.00    -0.081 C 
HETATM   24  C2  UNL     1       3.105   5.792   8.617  1.00  0.00    -0.028 C 
HETATM   25  C1  UNL     1       3.820   4.871   9.556  1.00  0.00     0.036 C 
BRANCH  23  26
HETATM   26  C27 UNL     1       2.130   7.943   7.719  1.00  0.00     0.006 C 
HETATM   27  C28 UNL     1       1.854   7.225   6.391  1.00  0.00     0.014 C 
HETATM   28  C29 UNL     1       0.814   8.434   8.332  1.00  0.00     0.014 C 
ENDBRANCH  23  26
ENDBRANCH  22  23
ENDBRANCH  21  22
ENDBRANCH  19  21
ENDBRANCH   1  19
BRANCH   8  29
HETATM   29  O1  UNL     1       1.522   4.263  11.070  1.00  0.00    -0.394 OA
HETATM   30  H22 UNL     1       1.278   4.665  10.222  1.00  0.00     0.210 HD
ENDBRANCH   8  29
BRANCH  11  31
HETATM   31  C19 UNL     1      -3.715   3.995  10.133  1.00  0.00     0.178 C 
BRANCH  31  32
HETATM   32  O2  UNL     1      -3.109   3.241   9.089  1.00  0.00    -0.400 OA
HETATM   33  H28 UNL     1      -3.395   3.653   8.251  1.00  0.00     0.209 HD
ENDBRANCH  31  32
ENDBRANCH  11  31
BRANCH  14  34
HETATM   34  O3  UNL     1      -6.132   1.372  10.431  1.00  0.00    -0.396 OA
HETATM   35  H34 UNL     1      -5.612   2.032   9.924  1.00  0.00     0.210 HD
ENDBRANCH  14  34
TORSDOF 9
ENDMDL
MODEL 5
REMARK minimizedAffinity -9.24234295
REMARK  9 active torsions:
REMARK  status: ('A' for Active; 'I' for Inactive)
REMARK    1  A    between atoms: C3_3  and  C4_4 
REMARK    2  A    between atoms: C3_3  and  C27_30 
REMARK    3  A    between atoms: C4_4  and  C5_5 
REMARK    4  A    between atoms: C5_5  and  C6_6 
REMARK    5  A    between atoms: C6_6  and  C8_8 
REMARK    6  A    between atoms: C15_15  and  O1_16 
REMARK    7  A    between atoms: C18_19  and  C19_20 
REMARK    8  A    between atoms: C19_20  and  O2_21 
REMARK    9  A    between atoms: C22_24  and  O3_25 
ROOT
HETATM    1  C8  UNL     1      -1.687   5.798  12.506  1.00  0.00     0.001 C 
HETATM    2  C9  UNL     1      -2.104   4.471  11.825  1.00  0.00     0.006 C 
HETATM    3  C10 UNL     1      -3.623   4.332  12.035  1.00  0.00     0.010 C 
HETATM    4  C11 UNL     1      -4.054   5.669  12.642  1.00  0.00     0.026 C 
HETATM    5  C12 UNL     1      -5.385   5.822  13.343  1.00  0.00    -0.072 C 
HETATM    6  C13 UNL     1      -5.565   6.821  14.247  1.00  0.00    -0.064 C 
HETATM    7  C14 UNL     1      -4.404   7.748  14.637  1.00  0.00     0.068 C 
HETATM    8  C15 UNL     1      -3.067   7.548  13.882  1.00  0.00     0.131 C 
HETATM    9  C16 UNL     1      -2.839   6.066  13.524  1.00  0.00    -0.006 C 
HETATM   10  C17 UNL     1      -2.706   5.193  14.796  1.00  0.00     0.019 C 
HETATM   11  C18 UNL     1      -6.925   7.023  14.985  1.00  0.00     0.009 C 
HETATM   12  C20 UNL     1      -7.294   8.532  15.179  1.00  0.00     0.019 C 
HETATM   13  C21 UNL     1      -8.753   8.919  14.885  1.00  0.00     0.033 C 
HETATM   14  C22 UNL     1      -9.791   7.880  15.287  1.00  0.00     0.118 C 
HETATM   15  C23 UNL     1      -9.464   6.471  14.781  1.00  0.00     0.037 C 
HETATM   16  C24 UNL     1      -8.068   6.370  14.140  1.00  0.00     0.003 C 
HETATM   17  C25 UNL     1      -7.747   4.925  13.764  1.00  0.00     0.010 C 
HETATM   18  C26 UNL     1      -6.472   4.859  12.925  1.00  0.00     0.035 C 
ENDROOT
BRANCH   1  19
HETATM   19  C6  UNL     1      -0.210   5.889  12.995  1.00  0.00    -0.013 C 
HETATM   20  C7  UNL     1      -0.197   6.432  14.436  1.00  0.00     0.010 C 
BRANCH  19  21
HETATM   21  C5  UNL     1       0.730   6.749  12.116  1.00  0.00     0.009 C 
BRANCH  21  22
HETATM   22  C4  UNL     1       1.051   6.189  10.717  1.00  0.00     0.034 C 
BRANCH  22  23
HETATM   23  C3  UNL     1       1.971   7.051   9.867  1.00  0.00    -0.081 C 
HETATM   24  C2  UNL     1       3.282   7.215  10.150  1.00  0.00    -0.028 C 
HETATM   25  C1  UNL     1       4.045   6.659  11.313  1.00  0.00     0.036 C 
BRANCH  23  26
HETATM   26  C27 UNL     1       1.325   7.648   8.612  1.00  0.00     0.006 C 
HETATM   27  C28 UNL     1       0.091   8.522   8.872  1.00  0.00     0.014 C 
HETATM   28  C29 UNL     1       2.361   8.433   7.799  1.00  0.00     0.014 C 
ENDBRANCH  23  26
ENDBRANCH  22  23
ENDBRANCH  21  22
ENDBRANCH  19  21
ENDBRANCH   1  19
BRANCH   8  29
HETATM   29  O1  UNL     1      -1.996   8.099  14.646  1.00  0.00    -0.394 OA
HETATM   30  H22 UNL     1      -1.924   7.606  15.478  1.00  0.00     0.210 HD
ENDBRANCH   8  29
BRANCH  11  31
HETATM   31  C19 UNL     1      -6.717   6.345  16.382  1.00  0.00     0.178 C 
BRANCH  31  32
HETATM   32  O2  UNL     1      -7.306   7.060  17.462  1.00  0.00    -0.400 OA
HETATM   33  H28 UNL     1      -7.162   6.519  18.262  1.00  0.00     0.209 HD
ENDBRANCH  31  32
ENDBRANCH  11  31
BRANCH  14  34
HETATM   34  O3  UNL     1      -9.938   7.874  16.705  1.00  0.00    -0.396 OA
HETATM   35  H34 UNL     1      -9.132   7.442  17.062  1.00  0.00     0.210 HD
ENDBRANCH  14  34
TORSDOF 9
ENDMDL
MODEL 6
REMARK minimizedAffinity -8.93345451
REMARK  9 active torsions:
REMARK  status: ('A' for Active; 'I' for Inactive)
REMARK    1  A    between atoms: C3_3  and  C4_4 
REMARK    2  A    between atoms: C3_3  and  C27_30 
REMARK    3  A    between atoms: C4_4  and  C5_5 
REMARK    4  A    between atoms: C5_5  and  C6_6 
REMARK    5  A    between atoms: C6_6  and  C8_8 
REMARK    6  A    between atoms: C15_15  and  O1_16 
REMARK    7  A    between atoms: C18_19  and  C19_20 
REMARK    8  A    between atoms: C19_20  and  O2_21 
REMARK    9  A    between atoms: C22_24  and  O3_25 
ROOT
HETATM    1  C8  UNL     1      -1.589   5.467  13.085  1.00  0.00     0.001 C 
HETATM    2  C9  UNL     1      -1.639   4.795  11.691  1.00  0.00     0.006 C 
HETATM    3  C10 UNL     1      -0.236   4.960  11.077  1.00  0.00     0.010 C 
HETATM    4  C11 UNL     1       0.617   5.533  12.211  1.00  0.00     0.026 C 
HETATM    5  C12 UNL     1       1.951   6.190  11.936  1.00  0.00    -0.072 C 
HETATM    6  C13 UNL     1       2.469   7.073  12.831  1.00  0.00    -0.064 C 
HETATM    7  C14 UNL     1       1.677   7.483  14.081  1.00  0.00     0.068 C 
HETATM    8  C15 UNL     1       0.321   6.772  14.312  1.00  0.00     0.131 C 
HETATM    9  C16 UNL     1      -0.378   6.445  12.978  1.00  0.00    -0.006 C 
HETATM   10  C17 UNL     1      -0.739   7.734  12.199  1.00  0.00     0.019 C 
HETATM   11  C18 UNL     1       3.847   7.766  12.593  1.00  0.00     0.009 C 
HETATM   12  C20 UNL     1       4.683   7.925  13.907  1.00  0.00     0.019 C 
HETATM   13  C21 UNL     1       6.178   7.581  13.809  1.00  0.00     0.033 C 
HETATM   14  C22 UNL     1       6.845   7.968  12.495  1.00  0.00     0.118 C 
HETATM   15  C23 UNL     1       6.071   7.494  11.261  1.00  0.00     0.037 C 
HETATM   16  C24 UNL     1       4.694   6.897  11.606  1.00  0.00     0.003 C 
HETATM   17  C25 UNL     1       3.918   6.554  10.336  1.00  0.00     0.010 C 
HETATM   18  C26 UNL     1       2.661   5.755  10.675  1.00  0.00     0.035 C 
ENDROOT
BRANCH   1  19
HETATM   19  C6  UNL     1      -2.943   5.998  13.643  1.00  0.00    -0.013 C 
HETATM   20  C7  UNL     1      -3.121   5.486  15.085  1.00  0.00     0.010 C 
BRANCH  19  21
HETATM   21  C5  UNL     1      -4.196   5.629  12.812  1.00  0.00     0.009 C 
BRANCH  21  22
HETATM   22  C4  UNL     1      -4.624   4.150  12.852  1.00  0.00     0.034 C 
BRANCH  22  23
HETATM   23  C3  UNL     1      -6.104   3.895  12.612  1.00  0.00    -0.081 C 
HETATM   24  C2  UNL     1      -6.562   2.777  12.008  1.00  0.00    -0.028 C 
HETATM   25  C1  UNL     1      -5.758   1.648  11.440  1.00  0.00     0.036 C 
BRANCH  23  26
HETATM   26  C27 UNL     1      -7.047   4.957  13.187  1.00  0.00     0.006 C 
HETATM   27  C28 UNL     1      -8.317   5.210  12.364  1.00  0.00     0.014 C 
HETATM   28  C29 UNL     1      -7.421   4.613  14.633  1.00  0.00     0.014 C 
ENDBRANCH  23  26
ENDBRANCH  22  23
ENDBRANCH  21  22
ENDBRANCH  19  21
ENDBRANCH   1  19
BRANCH   8  29
HETATM   29  O1  UNL     1      -0.493   7.559  15.179  1.00  0.00    -0.394 OA
HETATM   30  H22 UNL     1      -0.690   8.401  14.740  1.00  0.00     0.210 HD
ENDBRANCH   8  29
BRANCH  11  31
HETATM   31  C19 UNL     1       3.482   9.179  12.024  1.00  0.00     0.178 C 
BRANCH  31  32
HETATM   32  O2  UNL     1       2.223   9.672  12.469  1.00  0.00    -0.400 OA
HETATM   33  H28 UNL     1       2.134  10.571  12.100  1.00  0.00     0.209 HD
ENDBRANCH  31  32
ENDBRANCH  11  31
BRANCH  14  34
HETATM   34  O3  UNL     1       7.030   9.380  12.451  1.00  0.00    -0.396 OA
HETATM   35  H34 UNL     1       6.142   9.769  12.299  1.00  0.00     0.210 HD
ENDBRANCH  14  34
TORSDOF 9
ENDMDL
MODEL 7
REMARK minimizedAffinity -8.86781883
REMARK  9 active torsions:
REMARK  status: ('A' for Active; 'I' for Inactive)
REMARK    1  A    between atoms: C3_3  and  C4_4 
REMARK    2  A    between atoms: C3_3  and  C27_30 
REMARK    3  A    between atoms: C4_4  and  C5_5 
REMARK    4  A    between atoms: C5_5  and  C6_6 
REMARK    5  A    between atoms: C6_6  and  C8_8 
REMARK    6  A    between atoms: C15_15  and  O1_16 
REMARK    7  A    between atoms: C18_19  and  C19_20 
REMARK    8  A    between atoms: C19_20  and  O2_21 
REMARK    9  A    between atoms: C22_24  and  O3_25 
ROOT
HETATM    1  C8  UNL     1      -5.350   4.467  13.567  1.00  0.00     0.001 C 
HETATM    2  C9  UNL     1      -5.056   3.961  12.133  1.00  0.00     0.006 C 
HETATM    3  C10 UNL     1      -3.614   4.391  11.806  1.00  0.00     0.010 C 
HETATM    4  C11 UNL     1      -3.066   4.941  13.124  1.00  0.00     0.026 C 
HETATM    5  C12 UNL     1      -1.825   5.806  13.161  1.00  0.00    -0.072 C 
HETATM    6  C13 UNL     1      -1.612   6.643  14.211  1.00  0.00    -0.064 C 
HETATM    7  C14 UNL     1      -2.659   6.790  15.325  1.00  0.00     0.068 C 
HETATM    8  C15 UNL     1      -3.905   5.875  15.237  1.00  0.00     0.131 C 
HETATM    9  C16 UNL     1      -4.308   5.610  13.773  1.00  0.00    -0.006 C 
HETATM   10  C17 UNL     1      -4.731   6.919  13.060  1.00  0.00     0.019 C 
HETATM   11  C18 UNL     1      -0.341   7.543  14.295  1.00  0.00     0.009 C 
HETATM   12  C20 UNL     1       0.224   7.664  15.750  1.00  0.00     0.019 C 
HETATM   13  C21 UNL     1       1.751   7.545  15.899  1.00  0.00     0.033 C 
HETATM   14  C22 UNL     1       2.561   8.172  14.771  1.00  0.00     0.118 C 
HETATM   15  C23 UNL     1       2.091   7.741  13.378  1.00  0.00     0.037 C 
HETATM   16  C24 UNL     1       0.788   6.922  13.407  1.00  0.00     0.003 C 
HETATM   17  C25 UNL     1       0.301   6.624  11.991  1.00  0.00     0.010 C 
HETATM   18  C26 UNL     1      -0.853   5.623  12.019  1.00  0.00     0.035 C 
ENDROOT
BRANCH   1  19
HETATM   19  C6  UNL     1      -6.846   4.736  13.910  1.00  0.00    -0.013 C 
HETATM   20  C7  UNL     1      -7.658   3.460  13.623  1.00  0.00     0.010 C 
BRANCH  19  21
HETATM   21  C5  UNL     1      -7.494   5.932  13.171  1.00  0.00     0.009 C 
BRANCH  21  22
HETATM   22  C4  UNL     1      -9.022   6.066  13.309  1.00  0.00     0.034 C 
BRANCH  22  23
HETATM   23  C3  UNL     1      -9.494   7.055  14.363  1.00  0.00    -0.081 C 
HETATM   24  C2  UNL     1     -10.800   7.235  14.661  1.00  0.00    -0.028 C 
HETATM   25  C1  UNL     1     -11.984   6.577  14.022  1.00  0.00     0.036 C 
BRANCH  23  26
HETATM   26  C27 UNL     1      -8.376   7.768  15.131  1.00  0.00     0.006 C 
HETATM   27  C28 UNL     1      -8.531   9.291  15.235  1.00  0.00     0.014 C 
HETATM   28  C29 UNL     1      -8.216   7.162  16.529  1.00  0.00     0.014 C 
ENDBRANCH  23  26
ENDBRANCH  22  23
ENDBRANCH  21  22
ENDBRANCH  19  21
ENDBRANCH   1  19
BRANCH   8  29
HETATM   29  O1  UNL     1      -4.968   6.435  16.006  1.00  0.00    -0.394 OA
HETATM   30  H22 UNL     1      -5.218   7.286  15.615  1.00  0.00     0.210 HD
ENDBRANCH   8  29
BRANCH  11  31
HETATM   31  C19 UNL     1      -0.823   8.948  13.797  1.00  0.00     0.178 C 
BRANCH  31  32
HETATM   32  O2  UNL     1      -1.864   8.891  12.829  1.00  0.00    -0.400 OA
HETATM   33  H28 UNL     1      -2.116   9.815  12.641  1.00  0.00     0.209 HD
ENDBRANCH  31  32
ENDBRANCH  11  31
BRANCH  14  34
HETATM   34  O3  UNL     1       2.525   9.592  14.888  1.00  0.00    -0.396 OA
HETATM   35  H34 UNL     1       1.625   9.867  14.610  1.00  0.00     0.210 HD
ENDBRANCH  14  34
TORSDOF 9
ENDMDL
MODEL 8
REMARK minimizedAffinity -8.85617828
REMARK  9 active torsions:
REMARK  status: ('A' for Active; 'I' for Inactive)
REMARK    1  A    between atoms: C3_3  and  C4_4 
REMARK    2  A    between atoms: C3_3  and  C27_30 
REMARK    3  A    between atoms: C4_4  and  C5_5 
REMARK    4  A    between atoms: C5_5  and  C6_6 
REMARK    5  A    between atoms: C6_6  and  C8_8 
REMARK    6  A    between atoms: C15_15  and  O1_16 
REMARK    7  A    between atoms: C18_19  and  C19_20 
REMARK    8  A    between atoms: C19_20  and  O2_21 
REMARK    9  A    between atoms: C22_24  and  O3_25 
ROOT
HETATM    1  C8  UNL     1      -5.789   6.132  13.279  1.00  0.00     0.001 C 
HETATM    2  C9  UNL     1      -6.151   7.597  13.628  1.00  0.00     0.006 C 
HETATM    3  C10 UNL     1      -4.843   8.404  13.531  1.00  0.00     0.010 C 
HETATM    4  C11 UNL     1      -3.828   7.426  12.935  1.00  0.00     0.026 C 
HETATM    5  C12 UNL     1      -2.341   7.688  13.019  1.00  0.00    -0.072 C 
HETATM    6  C13 UNL     1      -1.463   6.654  12.917  1.00  0.00    -0.064 C 
HETATM    7  C14 UNL     1      -1.962   5.206  12.807  1.00  0.00     0.068 C 
HETATM    8  C15 UNL     1      -3.495   5.001  12.719  1.00  0.00     0.131 C 
HETATM    9  C16 UNL     1      -4.253   6.061  13.542  1.00  0.00    -0.006 C 
HETATM   10  C17 UNL     1      -3.926   5.943  15.051  1.00  0.00     0.019 C 
HETATM   11  C18 UNL     1       0.078   6.880  12.986  1.00  0.00     0.009 C 
HETATM   12  C20 UNL     1       0.874   5.959  12.001  1.00  0.00     0.019 C 
HETATM   13  C21 UNL     1       2.007   6.630  11.206  1.00  0.00     0.033 C 
HETATM   14  C22 UNL     1       2.790   7.691  11.969  1.00  0.00     0.118 C 
HETATM   15  C23 UNL     1       1.893   8.723  12.660  1.00  0.00     0.037 C 
HETATM   16  C24 UNL     1       0.398   8.362  12.597  1.00  0.00     0.003 C 
HETATM   17  C25 UNL     1      -0.436   9.356  13.402  1.00  0.00     0.010 C 
HETATM   18  C26 UNL     1      -1.926   9.134  13.151  1.00  0.00     0.035 C 
ENDROOT
BRANCH   1  19
HETATM   19  C6  UNL     1      -6.712   5.031  13.882  1.00  0.00    -0.013 C 
HETATM   20  C7  UNL     1      -7.237   4.143  12.739  1.00  0.00     0.010 C 
BRANCH  19  21
HETATM   21  C5  UNL     1      -7.908   5.549  14.716  1.00  0.00     0.009 C 
BRANCH  21  22
HETATM   22  C4  UNL     1      -8.912   6.453  13.974  1.00  0.00     0.034 C 
BRANCH  22  23
HETATM   23  C3  UNL     1      -9.829   7.275  14.866  1.00  0.00    -0.081 C 
HETATM   24  C2  UNL     1     -11.175   7.223  14.770  1.00  0.00    -0.028 C 
HETATM   25  C1  UNL     1     -11.995   6.435  13.797  1.00  0.00     0.036 C 
BRANCH  23  26
HETATM   26  C27 UNL     1      -9.117   8.098  15.945  1.00  0.00     0.006 C 
HETATM   27  C28 UNL     1      -8.060   7.332  16.751  1.00  0.00     0.014 C 
HETATM   28  C29 UNL     1      -8.495   9.359  15.333  1.00  0.00     0.014 C 
ENDBRANCH  23  26
ENDBRANCH  22  23
ENDBRANCH  21  22
ENDBRANCH  19  21
ENDBRANCH   1  19
BRANCH   8  29
HETATM   29  O1  UNL     1      -3.824   3.668  13.107  1.00  0.00    -0.394 OA
HETATM   30  H22 UNL     1      -3.577   3.546  14.037  1.00  0.00     0.210 HD
ENDBRANCH   8  29
BRANCH  11  31
HETATM   31  C19 UNL     1       0.461   6.527  14.464  1.00  0.00     0.178 C 
BRANCH  31  32
HETATM   32  O2  UNL     1      -0.578   5.879  15.188  1.00  0.00    -0.400 OA
HETATM   33  H28 UNL     1      -0.207   5.660  16.065  1.00  0.00     0.209 HD
ENDBRANCH  31  32
ENDBRANCH  11  31
BRANCH  14  34
HETATM   34  O3  UNL     1       3.646   7.063  12.920  1.00  0.00    -0.396 OA
HETATM   35  H34 UNL     1       3.064   6.744  13.643  1.00  0.00     0.210 HD
ENDBRANCH  14  34
TORSDOF 9
ENDMDL
MODEL 9
REMARK minimizedAffinity -8.74115849
REMARK  9 active torsions:
REMARK  status: ('A' for Active; 'I' for Inactive)
REMARK    1  A    between atoms: C3_3  and  C4_4 
REMARK    2  A    between atoms: C3_3  and  C27_30 
REMARK    3  A    between atoms: C4_4  and  C5_5 
REMARK    4  A    between atoms: C5_5  and  C6_6 
REMARK    5  A    between atoms: C6_6  and  C8_8 
REMARK    6  A    between atoms: C15_15  and  O1_16 
REMARK    7  A    between atoms: C18_19  and  C19_20 
REMARK    8  A    between atoms: C19_20  and  O2_21 
REMARK    9  A    between atoms: C22_24  and  O3_25 
ROOT
HETATM    1  C8  UNL     1       0.398   5.904  11.894  1.00  0.00     0.001 C 
HETATM    2  C9  UNL     1       0.511   4.415  11.483  1.00  0.00     0.006 C 
HETATM    3  C10 UNL     1      -0.905   3.822  11.601  1.00  0.00     0.010 C 
HETATM    4  C11 UNL     1      -1.808   5.027  11.874  1.00  0.00     0.026 C 
HETATM    5  C12 UNL     1      -3.207   4.853  12.423  1.00  0.00    -0.072 C 
HETATM    6  C13 UNL     1      -3.812   5.881  13.077  1.00  0.00    -0.064 C 
HETATM    7  C14 UNL     1      -3.060   7.193  13.347  1.00  0.00     0.068 C 
HETATM    8  C15 UNL     1      -1.634   7.314  12.755  1.00  0.00     0.131 C 
HETATM    9  C16 UNL     1      -0.912   5.952  12.741  1.00  0.00    -0.006 C 
HETATM   10  C17 UNL     1      -0.697   5.413  14.177  1.00  0.00     0.019 C 
HETATM   11  C18 UNL     1      -5.256   5.749  13.649  1.00  0.00     0.009 C 
HETATM   12  C20 UNL     1      -6.097   7.061  13.488  1.00  0.00     0.019 C 
HETATM   13  C21 UNL     1      -7.547   6.885  13.008  1.00  0.00     0.033 C 
HETATM   14  C22 UNL     1      -8.260   5.650  13.543  1.00  0.00     0.118 C 
HETATM   15  C23 UNL     1      -7.447   4.363  13.376  1.00  0.00     0.037 C 
HETATM   16  C24 UNL     1      -6.012   4.616  12.879  1.00  0.00     0.003 C 
HETATM   17  C25 UNL     1      -5.211   3.316  12.846  1.00  0.00     0.010 C 
HETATM   18  C26 UNL     1      -3.874   3.528  12.140  1.00  0.00     0.035 C 
ENDROOT
BRANCH   1  19
HETATM   19  C6  UNL     1       1.691   6.562  12.463  1.00  0.00    -0.013 C 
HETATM   20  C7  UNL     1       1.541   6.713  13.988  1.00  0.00     0.010 C 
BRANCH  19  21
HETATM   21  C5  UNL     1       2.064   7.933  11.849  1.00  0.00     0.009 C 
BRANCH  21  22
HETATM   22  C4  UNL     1       1.780   8.102  10.344  1.00  0.00     0.034 C 
BRANCH  22  23
HETATM   23  C3  UNL     1       2.944   7.774   9.422  1.00  0.00    -0.081 C 
HETATM   24  C2  UNL     1       2.777   7.484   8.113  1.00  0.00    -0.028 C 
HETATM   25  C1  UNL     1       1.491   7.381   7.354  1.00  0.00     0.036 C 
BRANCH  23  26
HETATM   26  C27 UNL     1       4.331   7.887  10.064  1.00  0.00     0.006 C 
HETATM   27  C28 UNL     1       4.494   9.049  11.053  1.00  0.00     0.014 C 
HETATM   28  C29 UNL     1       4.717   6.567  10.740  1.00  0.00     0.014 C 
ENDBRANCH  23  26
ENDBRANCH  22  23
ENDBRANCH  21  22
ENDBRANCH  19  21
ENDBRANCH   1  19
BRANCH   8  29
HETATM   29  O1  UNL     1      -0.904   8.314  13.463  1.00  0.00    -0.394 OA
HETATM   30  H22 UNL     1      -0.801   8.030  14.385  1.00  0.00     0.210 HD
ENDBRANCH   8  29
BRANCH  11  31
HETATM   31  C19 UNL     1      -5.049   5.438  15.171  1.00  0.00     0.178 C 
BRANCH  31  32
HETATM   32  O2  UNL     1      -5.456   6.493  16.035  1.00  0.00    -0.400 OA
HETATM   33  H28 UNL     1      -5.334   6.164  16.946  1.00  0.00     0.209 HD
ENDBRANCH  31  32
ENDBRANCH  11  31
BRANCH  14  34
HETATM   34  O3  UNL     1      -8.596   5.849  14.914  1.00  0.00    -0.396 OA
HETATM   35  H34 UNL     1      -7.756   5.778  15.416  1.00  0.00     0.210 HD
ENDBRANCH  14  34
TORSDOF 9
ENDMDL
