MODEL 1
REMARK minimizedAffinity -9.11515427
REMARK CNNscore 0.74779135
REMARK CNNaffinity 6.97904205
REMARK  19 active torsions:
REMARK  status: ('A' for Active; 'I' for Inactive)
REMARK    1  A    between atoms: C3_3  and  C4_4 
REMARK    2  A    between atoms: C5_5  and  C6_6 
REMARK    3  A    between atoms: C7_8  and  O2_9 
REMARK    4  A    between atoms: C7_8  and  C8_10 
REMARK    5  A    between atoms: C8_10  and  C10_12 
REMARK       I    between atoms: C10_12  and  N1_14 
REMARK    6  A    between atoms: N1_14  and  C11_15 
REMARK    7  A    between atoms: C11_15  and  C12_16 
REMARK    8  A    between atoms: C13_17  and  C14_18 
REMARK    9  A    between atoms: C15_19  and  C17_21 
REMARK   10  A    between atoms: C17_21  and  O4_22 
REMARK   11  A    between atoms: C17_21  and  C19_24 
REMARK   12  A    between atoms: C19_24  and  C21_26 
REMARK   13  A    between atoms: C23_28  and  O5_29 
REMARK   14  A    between atoms: C24_30  and  C25_31 
REMARK   15  A    between atoms: C26_32  and  C27_33 
REMARK   16  A    between atoms: C28_34  and  C29_35 
REMARK   17  A    between atoms: C30_36  and  C31_37 
REMARK   18  A    between atoms: C31_37  and  O7_39 
REMARK   19  A    between atoms: C33_42  and  O9_43 
ROOT
HETATM    1  C12 UNL     1      -6.208  47.692 -28.029  1.00  0.00    -0.007 C 
HETATM    2  C13 UNL     1      -6.725  47.249 -29.187  1.00  0.00    -0.002 C 
ENDROOT
BRANCH   2   3
HETATM    3  C14 UNL     1      -8.014  46.605 -29.273  1.00  0.00     0.005 C 
HETATM    4  C15 UNL     1      -8.834  46.561 -30.343  1.00  0.00    -0.055 C 
HETATM    5  C16 UNL     1      -8.584  47.289 -31.644  1.00  0.00     0.046 C 
BRANCH   4   6
HETATM    6  C17 UNL     1     -10.096  45.689 -30.363  1.00  0.00     0.155 C 
BRANCH   6   7
HETATM    7  O4  UNL     1      -9.849  44.422 -29.718  1.00  0.00    -0.386 OA
HETATM    8  C18 UNL     1      -9.167  43.503 -30.563  1.00  0.00     0.202 C 
ENDBRANCH   6   7
BRANCH   6   9
HETATM    9  C19 UNL     1     -11.327  46.347 -29.671  1.00  0.00     0.044 C 
HETATM   10  C20 UNL     1     -11.450  47.839 -30.008  1.00  0.00     0.015 C 
BRANCH   9  11
HETATM   11  C21 UNL     1     -11.235  46.133 -28.145  1.00  0.00     0.131 C 
HETATM   12  C22 UNL     1     -10.449  47.198 -27.368  1.00  0.00     0.067 C 
HETATM   13  C23 UNL     1     -11.391  47.660 -26.272  1.00  0.00     0.153 C 
HETATM   14  C24 UNL     1     -12.446  46.552 -26.225  1.00  0.00     0.173 C 
HETATM   15  O8  UNL     1     -12.559  46.099 -27.580  1.00  0.00    -0.374 OA
BRANCH  13  16
HETATM   16  O5  UNL     1     -11.916  48.932 -26.668  1.00  0.00    -0.393 OA
HETATM   17  H35 UNL     1     -12.518  49.219 -25.959  1.00  0.00     0.210 HD
ENDBRANCH  13  16
BRANCH  14  18
HETATM   18  C25 UNL     1     -13.812  46.965 -25.761  1.00  0.00     0.007 C 
HETATM   19  C26 UNL     1     -14.312  46.706 -24.542  1.00  0.00    -0.001 C 
BRANCH  19  20
HETATM   20  C27 UNL     1     -15.652  47.085 -24.150  1.00  0.00    -0.000 C 
HETATM   21  C28 UNL     1     -16.741  46.765 -24.867  1.00  0.00     0.000 C 
BRANCH  21  22
HETATM   22  C29 UNL     1     -18.075  47.164 -24.474  1.00  0.00     0.007 C 
HETATM   23  C30 UNL     1     -19.235  46.556 -24.766  1.00  0.00     0.081 C 
BRANCH  23  24
HETATM   24  C31 UNL     1     -19.413  45.335 -25.566  1.00  0.00     0.165 C 
HETATM   25  O6  UNL     1     -19.330  45.195 -26.769  1.00  0.00    -0.647 OA
BRANCH  24  26
HETATM   26  O7  UNL     1     -19.698  44.303 -24.753  1.00  0.00    -0.773 OA
HETATM   27  H43 UNL     1     -19.805  43.547 -25.366  1.00  0.00     0.167 HD
ENDBRANCH  24  26
ENDBRANCH  23  24
ENDBRANCH  21  22
ENDBRANCH  19  20
ENDBRANCH  14  18
ENDBRANCH   9  11
ENDBRANCH   6   9
ENDBRANCH   4   6
ENDBRANCH   2   3
BRANCH   1  28
HETATM   28  C11 UNL     1      -4.816  48.224 -27.897  1.00  0.00     0.149 C 
BRANCH  28  29
HETATM   29  N1  UNL     1      -4.667  48.839 -26.604  1.00  0.00    -0.357 N 
HETATM   30  C10 UNL     1      -3.480  48.827 -25.914  1.00  0.00     0.227 C 
HETATM   31  O3  UNL     1      -2.474  48.259 -26.331  1.00  0.00    -0.273 OA
HETATM   32  H14 UNL     1      -5.370  49.508 -26.295  1.00  0.00     0.162 HD
BRANCH  30  33
HETATM   33  C8  UNL     1      -3.531  49.543 -24.569  1.00  0.00     0.136 C 
HETATM   34  C9  UNL     1      -2.833  48.695 -23.500  1.00  0.00     0.026 C 
BRANCH  33  35
HETATM   35  C7  UNL     1      -3.014  51.003 -24.660  1.00  0.00     0.176 C 
HETATM   36  O1  UNL     1      -1.726  51.005 -24.030  1.00  0.00    -0.344 OA
HETATM   37  C6  UNL     1      -0.928  52.144 -24.344  1.00  0.00     0.158 C 
HETATM   38  C34 UNL     1      -0.429  52.043 -25.817  1.00  0.00     0.008 C 
HETATM   39  C33 UNL     1      -1.556  51.420 -26.697  1.00  0.00     0.134 C 
HETATM   40  C35 UNL     1      -0.017  53.449 -26.302  1.00  0.00     0.020 C 
HETATM   41  C36 UNL     1       0.809  51.125 -25.955  1.00  0.00     0.020 C 
HETATM   42  C32 UNL     1      -2.945  51.583 -26.086  1.00  0.00     0.101 C 
BRANCH  37  43
HETATM   43  C5  UNL     1       0.148  52.201 -23.292  1.00  0.00     0.006 C 
HETATM   44  C4  UNL     1       0.452  53.290 -22.566  1.00  0.00    -0.002 C 
BRANCH  44  45
HETATM   45  C3  UNL     1       1.469  53.277 -21.542  1.00  0.00    -0.005 C 
HETATM   46  C2  UNL     1       1.269  53.264 -20.216  1.00  0.00    -0.031 C 
HETATM   47  C1  UNL     1      -0.023  53.279 -19.467  1.00  0.00     0.036 C 
ENDBRANCH  44  45
ENDBRANCH  37  43
BRANCH  39  48
HETATM   48  O9  UNL     1      -1.578  51.980 -28.010  1.00  0.00    -0.395 OA
HETATM   49  H47 UNL     1      -0.768  51.695 -28.468  1.00  0.00     0.210 HD
ENDBRANCH  39  48
BRANCH  35  50
HETATM   50  O2  UNL     1      -3.886  51.801 -23.844  1.00  0.00    -0.364 OA
HETATM   51  H9  UNL     1      -3.742  52.732 -24.084  1.00  0.00     0.213 HD
ENDBRANCH  35  50
ENDBRANCH  33  35
ENDBRANCH  30  33
ENDBRANCH  28  29
ENDBRANCH   1  28
TORSDOF 19
ENDMDL
MODEL 2
REMARK minimizedAffinity -8.53998852
REMARK CNNscore 0.579310656
REMARK CNNaffinity 7.14562464
REMARK  19 active torsions:
REMARK  status: ('A' for Active; 'I' for Inactive)
REMARK    1  A    between atoms: C3_3  and  C4_4 
REMARK    2  A    between atoms: C5_5  and  C6_6 
REMARK    3  A    between atoms: C7_8  and  O2_9 
REMARK    4  A    between atoms: C7_8  and  C8_10 
REMARK    5  A    between atoms: C8_10  and  C10_12 
REMARK       I    between atoms: C10_12  and  N1_14 
REMARK    6  A    between atoms: N1_14  and  C11_15 
REMARK    7  A    between atoms: C11_15  and  C12_16 
REMARK    8  A    between atoms: C13_17  and  C14_18 
REMARK    9  A    between atoms: C15_19  and  C17_21 
REMARK   10  A    between atoms: C17_21  and  O4_22 
REMARK   11  A    between atoms: C17_21  and  C19_24 
REMARK   12  A    between atoms: C19_24  and  C21_26 
REMARK   13  A    between atoms: C23_28  and  O5_29 
REMARK   14  A    between atoms: C24_30  and  C25_31 
REMARK   15  A    between atoms: C26_32  and  C27_33 
REMARK   16  A    between atoms: C28_34  and  C29_35 
REMARK   17  A    between atoms: C30_36  and  C31_37 
REMARK   18  A    between atoms: C31_37  and  O7_39 
REMARK   19  A    between atoms: C33_42  and  O9_43 
ROOT
HETATM    1  C12 UNL     1      -7.216  47.883 -24.528  1.00  0.00    -0.007 C 
HETATM    2  C13 UNL     1      -7.427  47.505 -25.800  1.00  0.00    -0.002 C 
ENDROOT
BRANCH   2   3
HETATM    3  C14 UNL     1      -8.734  47.151 -26.304  1.00  0.00     0.005 C 
HETATM    4  C15 UNL     1      -9.261  47.477 -27.502  1.00  0.00    -0.055 C 
HETATM    5  C16 UNL     1      -8.597  48.384 -28.511  1.00  0.00     0.046 C 
BRANCH   4   6
HETATM    6  C17 UNL     1     -10.590  46.886 -27.990  1.00  0.00     0.155 C 
BRANCH   6   7
HETATM    7  O4  UNL     1     -11.494  47.934 -28.398  1.00  0.00    -0.386 OA
HETATM    8  C18 UNL     1     -12.804  47.760 -27.870  1.00  0.00     0.202 C 
ENDBRANCH   6   7
BRANCH   6   9
HETATM    9  C19 UNL     1     -10.437  45.893 -29.181  1.00  0.00     0.044 C 
HETATM   10  C20 UNL     1     -11.234  46.344 -30.413  1.00  0.00     0.015 C 
BRANCH   9  11
HETATM   11  C21 UNL     1     -10.870  44.481 -28.732  1.00  0.00     0.131 C 
HETATM   12  C22 UNL     1     -10.681  44.167 -27.242  1.00  0.00     0.067 C 
HETATM   13  C23 UNL     1     -12.037  43.681 -26.767  1.00  0.00     0.153 C 
HETATM   14  C24 UNL     1     -12.764  43.341 -28.070  1.00  0.00     0.173 C 
HETATM   15  O8  UNL     1     -12.267  44.287 -29.023  1.00  0.00    -0.374 OA
BRANCH  13  16
HETATM   16  O5  UNL     1     -12.644  44.754 -26.038  1.00  0.00    -0.393 OA
HETATM   17  H35 UNL     1     -13.512  44.432 -25.738  1.00  0.00     0.210 HD
ENDBRANCH  13  16
BRANCH  14  18
HETATM   18  C25 UNL     1     -14.260  43.459 -28.037  1.00  0.00     0.007 C 
HETATM   19  C26 UNL     1     -14.945  44.555 -28.403  1.00  0.00    -0.001 C 
BRANCH  19  20
HETATM   20  C27 UNL     1     -16.386  44.642 -28.314  1.00  0.00    -0.000 C 
HETATM   21  C28 UNL     1     -17.042  44.740 -27.147  1.00  0.00     0.000 C 
BRANCH  21  22
HETATM   22  C29 UNL     1     -18.485  44.809 -27.070  1.00  0.00     0.007 C 
HETATM   23  C30 UNL     1     -19.231  45.345 -26.093  1.00  0.00     0.081 C 
BRANCH  23  24
HETATM   24  C31 UNL     1     -18.744  45.988 -24.864  1.00  0.00     0.165 C 
HETATM   25  O6  UNL     1     -18.246  45.474 -23.883  1.00  0.00    -0.647 OA
BRANCH  24  26
HETATM   26  O7  UNL     1     -18.921  47.317 -24.951  1.00  0.00    -0.773 OA
HETATM   27  H43 UNL     1     -18.580  47.654 -24.097  1.00  0.00     0.167 HD
ENDBRANCH  24  26
ENDBRANCH  23  24
ENDBRANCH  21  22
ENDBRANCH  19  20
ENDBRANCH  14  18
ENDBRANCH   9  11
ENDBRANCH   6   9
ENDBRANCH   4   6
ENDBRANCH   2   3
BRANCH   1  28
HETATM   28  C11 UNL     1      -5.854  48.108 -23.951  1.00  0.00     0.149 C 
BRANCH  28  29
HETATM   29  N1  UNL     1      -4.966  48.550 -24.994  1.00  0.00    -0.357 N 
HETATM   30  C10 UNL     1      -3.607  48.623 -24.823  1.00  0.00     0.227 C 
HETATM   31  O3  UNL     1      -3.054  48.356 -23.759  1.00  0.00    -0.273 OA
HETATM   32  H14 UNL     1      -5.310  48.575 -25.953  1.00  0.00     0.162 HD
BRANCH  30  33
HETATM   33  C8  UNL     1      -2.847  49.105 -26.054  1.00  0.00     0.136 C 
HETATM   34  C9  UNL     1      -3.493  48.536 -27.322  1.00  0.00     0.026 C 
BRANCH  33  35
HETATM   35  C7  UNL     1      -2.667  50.646 -26.069  1.00  0.00     0.176 C 
HETATM   36  O1  UNL     1      -1.731  50.944 -25.023  1.00  0.00    -0.344 OA
HETATM   37  C6  UNL     1      -1.146  52.240 -25.121  1.00  0.00     0.158 C 
HETATM   38  C34 UNL     1      -0.134  52.268 -26.306  1.00  0.00     0.008 C 
HETATM   39  C33 UNL     1      -0.695  51.406 -27.479  1.00  0.00     0.134 C 
HETATM   40  C35 UNL     1       0.107  53.735 -26.722  1.00  0.00     0.020 C 
HETATM   41  C36 UNL     1       1.238  51.665 -25.921  1.00  0.00     0.020 C 
HETATM   42  C32 UNL     1      -2.211  51.236 -27.418  1.00  0.00     0.101 C 
BRANCH  37  43
HETATM   43  C5  UNL     1      -0.569  52.539 -23.763  1.00  0.00     0.006 C 
HETATM   44  C4  UNL     1      -0.333  51.620 -22.811  1.00  0.00    -0.002 C 
BRANCH  44  45
HETATM   45  C3  UNL     1       0.259  51.959 -21.539  1.00  0.00    -0.005 C 
HETATM   46  C2  UNL     1      -0.327  51.869 -20.336  1.00  0.00    -0.031 C 
HETATM   47  C1  UNL     1      -1.714  51.428 -20.003  1.00  0.00     0.036 C 
ENDBRANCH  44  45
ENDBRANCH  37  43
BRANCH  39  48
HETATM   48  O9  UNL     1      -0.359  51.954 -28.753  1.00  0.00    -0.395 OA
HETATM   49  H47 UNL     1       0.604  51.869 -28.868  1.00  0.00     0.210 HD
ENDBRANCH  39  48
BRANCH  35  50
HETATM   50  O2  UNL     1      -3.929  51.213 -25.684  1.00  0.00    -0.364 OA
HETATM   51  H9  UNL     1      -3.916  52.153 -25.929  1.00  0.00     0.213 HD
ENDBRANCH  35  50
ENDBRANCH  33  35
ENDBRANCH  30  33
ENDBRANCH  28  29
ENDBRANCH   1  28
TORSDOF 19
ENDMDL
MODEL 3
REMARK minimizedAffinity -8.91979694
REMARK CNNscore 0.535913885
REMARK CNNaffinity 7.23812532
REMARK  19 active torsions:
REMARK  status: ('A' for Active; 'I' for Inactive)
REMARK    1  A    between atoms: C3_3  and  C4_4 
REMARK    2  A    between atoms: C5_5  and  C6_6 
REMARK    3  A    between atoms: C7_8  and  O2_9 
REMARK    4  A    between atoms: C7_8  and  C8_10 
REMARK    5  A    between atoms: C8_10  and  C10_12 
REMARK       I    between atoms: C10_12  and  N1_14 
REMARK    6  A    between atoms: N1_14  and  C11_15 
REMARK    7  A    between atoms: C11_15  and  C12_16 
REMARK    8  A    between atoms: C13_17  and  C14_18 
REMARK    9  A    between atoms: C15_19  and  C17_21 
REMARK   10  A    between atoms: C17_21  and  O4_22 
REMARK   11  A    between atoms: C17_21  and  C19_24 
REMARK   12  A    between atoms: C19_24  and  C21_26 
REMARK   13  A    between atoms: C23_28  and  O5_29 
REMARK   14  A    between atoms: C24_30  and  C25_31 
REMARK   15  A    between atoms: C26_32  and  C27_33 
REMARK   16  A    between atoms: C28_34  and  C29_35 
REMARK   17  A    between atoms: C30_36  and  C31_37 
REMARK   18  A    between atoms: C31_37  and  O7_39 
REMARK   19  A    between atoms: C33_42  and  O9_43 
ROOT
HETATM    1  C12 UNL     1      -7.499  47.635 -25.917  1.00  0.00    -0.007 C 
HETATM    2  C13 UNL     1      -7.121  47.162 -27.115  1.00  0.00    -0.002 C 
ENDROOT
BRANCH   2   3
HETATM    3  C14 UNL     1      -8.051  46.579 -28.055  1.00  0.00     0.005 C 
HETATM    4  C15 UNL     1      -8.729  45.421 -27.918  1.00  0.00    -0.055 C 
HETATM    5  C16 UNL     1      -8.550  44.454 -26.771  1.00  0.00     0.046 C 
BRANCH   4   6
HETATM    6  C17 UNL     1      -9.825  45.003 -28.907  1.00  0.00     0.155 C 
BRANCH   6   7
HETATM    7  O4  UNL     1     -10.772  46.074 -29.102  1.00  0.00    -0.386 OA
HETATM    8  C18 UNL     1     -10.169  47.360 -29.005  1.00  0.00     0.202 C 
ENDBRANCH   6   7
BRANCH   6   9
HETATM    9  C19 UNL     1      -9.284  44.581 -30.306  1.00  0.00     0.044 C 
HETATM   10  C20 UNL     1      -8.202  43.498 -30.203  1.00  0.00     0.015 C 
BRANCH   9  11
HETATM   11  C21 UNL     1      -8.749  45.826 -31.046  1.00  0.00     0.131 C 
HETATM   12  C22 UNL     1      -7.291  45.746 -31.519  1.00  0.00     0.067 C 
HETATM   13  C23 UNL     1      -7.338  46.080 -32.998  1.00  0.00     0.153 C 
HETATM   14  C24 UNL     1      -8.709  46.740 -33.165  1.00  0.00     0.173 C 
HETATM   15  O8  UNL     1      -9.551  46.076 -32.215  1.00  0.00    -0.374 OA
BRANCH  13  16
HETATM   16  O5  UNL     1      -7.204  44.851 -33.719  1.00  0.00    -0.393 OA
HETATM   17  H35 UNL     1      -7.236  45.076 -34.666  1.00  0.00     0.210 HD
ENDBRANCH  13  16
BRANCH  14  18
HETATM   18  C25 UNL     1      -9.343  46.604 -34.519  1.00  0.00     0.007 C 
HETATM   19  C26 UNL     1      -8.996  47.325 -35.597  1.00  0.00    -0.001 C 
BRANCH  19  20
HETATM   20  C27 UNL     1      -9.664  47.193 -36.874  1.00  0.00    -0.000 C 
HETATM   21  C28 UNL     1      -9.910  48.236 -37.682  1.00  0.00     0.000 C 
BRANCH  21  22
HETATM   22  C29 UNL     1     -10.595  48.093 -38.949  1.00  0.00     0.007 C 
HETATM   23  C30 UNL     1     -11.827  48.515 -39.269  1.00  0.00     0.081 C 
BRANCH  23  24
HETATM   24  C31 UNL     1     -12.773  49.222 -38.392  1.00  0.00     0.165 C 
HETATM   25  O6  UNL     1     -13.183  48.896 -37.297  1.00  0.00    -0.647 OA
BRANCH  24  26
HETATM   26  O7  UNL     1     -13.164  50.364 -38.982  1.00  0.00    -0.773 OA
HETATM   27  H43 UNL     1     -13.788  50.757 -38.337  1.00  0.00     0.167 HD
ENDBRANCH  24  26
ENDBRANCH  23  24
ENDBRANCH  21  22
ENDBRANCH  19  20
ENDBRANCH  14  18
ENDBRANCH   9  11
ENDBRANCH   6   9
ENDBRANCH   4   6
ENDBRANCH   2   3
BRANCH   1  28
HETATM   28  C11 UNL     1      -6.534  48.104 -24.873  1.00  0.00     0.149 C 
BRANCH  28  29
HETATM   29  N1  UNL     1      -5.307  48.501 -25.511  1.00  0.00    -0.357 N 
HETATM   30  C10 UNL     1      -4.140  48.688 -24.813  1.00  0.00     0.227 C 
HETATM   31  O3  UNL     1      -4.068  48.569 -23.592  1.00  0.00    -0.273 OA
HETATM   32  H14 UNL     1      -5.226  48.405 -26.522  1.00  0.00     0.162 HD
BRANCH  30  33
HETATM   33  C8  UNL     1      -2.953  49.097 -25.677  1.00  0.00     0.136 C 
HETATM   34  C9  UNL     1      -3.062  48.441 -27.058  1.00  0.00     0.026 C 
BRANCH  33  35
HETATM   35  C7  UNL     1      -2.756  50.636 -25.718  1.00  0.00     0.176 C 
HETATM   36  O1  UNL     1      -1.775  50.935 -24.716  1.00  0.00    -0.344 OA
HETATM   37  C6  UNL     1      -1.179  52.223 -24.853  1.00  0.00     0.158 C 
HETATM   38  C34 UNL     1      -0.218  52.225 -26.080  1.00  0.00     0.008 C 
HETATM   39  C33 UNL     1      -0.837  51.356 -27.218  1.00  0.00     0.134 C 
HETATM   40  C35 UNL     1       0.022  53.685 -26.523  1.00  0.00     0.020 C 
HETATM   41  C36 UNL     1       1.162  51.611 -25.745  1.00  0.00     0.020 C 
HETATM   42  C32 UNL     1      -2.351  51.205 -27.092  1.00  0.00     0.101 C 
BRANCH  37  43
HETATM   43  C5  UNL     1      -0.544  52.531 -23.524  1.00  0.00     0.006 C 
HETATM   44  C4  UNL     1      -0.523  51.695 -22.472  1.00  0.00    -0.002 C 
BRANCH  44  45
HETATM   45  C3  UNL     1       0.136  52.029 -21.232  1.00  0.00    -0.005 C 
HETATM   46  C2  UNL     1       0.925  53.089 -21.006  1.00  0.00    -0.031 C 
HETATM   47  C1  UNL     1       1.336  54.166 -21.955  1.00  0.00     0.036 C 
ENDBRANCH  44  45
ENDBRANCH  37  43
BRANCH  39  48
HETATM   48  O9  UNL     1      -0.548  51.886 -28.512  1.00  0.00    -0.395 OA
HETATM   49  H47 UNL     1       0.408  51.788 -28.665  1.00  0.00     0.210 HD
ENDBRANCH  39  48
BRANCH  35  50
HETATM   50  O2  UNL     1      -3.995  51.222 -25.288  1.00  0.00    -0.364 OA
HETATM   51  H9  UNL     1      -3.982  52.159 -25.544  1.00  0.00     0.213 HD
ENDBRANCH  35  50
ENDBRANCH  33  35
ENDBRANCH  30  33
ENDBRANCH  28  29
ENDBRANCH   1  28
TORSDOF 19
ENDMDL
MODEL 4
REMARK minimizedAffinity -8.50181103
REMARK CNNscore 0.530108392
REMARK CNNaffinity 7.02500391
REMARK  19 active torsions:
REMARK  status: ('A' for Active; 'I' for Inactive)
REMARK    1  A    between atoms: C3_3  and  C4_4 
REMARK    2  A    between atoms: C5_5  and  C6_6 
REMARK    3  A    between atoms: C7_8  and  O2_9 
REMARK    4  A    between atoms: C7_8  and  C8_10 
REMARK    5  A    between atoms: C8_10  and  C10_12 
REMARK       I    between atoms: C10_12  and  N1_14 
REMARK    6  A    between atoms: N1_14  and  C11_15 
REMARK    7  A    between atoms: C11_15  and  C12_16 
REMARK    8  A    between atoms: C13_17  and  C14_18 
REMARK    9  A    between atoms: C15_19  and  C17_21 
REMARK   10  A    between atoms: C17_21  and  O4_22 
REMARK   11  A    between atoms: C17_21  and  C19_24 
REMARK   12  A    between atoms: C19_24  and  C21_26 
REMARK   13  A    between atoms: C23_28  and  O5_29 
REMARK   14  A    between atoms: C24_30  and  C25_31 
REMARK   15  A    between atoms: C26_32  and  C27_33 
REMARK   16  A    between atoms: C28_34  and  C29_35 
REMARK   17  A    between atoms: C30_36  and  C31_37 
REMARK   18  A    between atoms: C31_37  and  O7_39 
REMARK   19  A    between atoms: C33_42  and  O9_43 
ROOT
HETATM    1  C12 UNL     1      -0.445  51.090 -16.260  1.00  0.00    -0.007 C 
HETATM    2  C13 UNL     1      -0.146  51.037 -14.952  1.00  0.00    -0.002 C 
ENDROOT
BRANCH   2   3
HETATM    3  C14 UNL     1      -1.155  51.013 -13.920  1.00  0.00     0.005 C 
HETATM    4  C15 UNL     1      -0.999  50.626 -12.637  1.00  0.00    -0.055 C 
HETATM    5  C16 UNL     1       0.270  50.035 -12.068  1.00  0.00     0.046 C 
BRANCH   4   6
HETATM    6  C17 UNL     1      -2.106  50.821 -11.592  1.00  0.00     0.155 C 
BRANCH   6   7
HETATM    7  O4  UNL     1      -2.480  49.556 -11.005  1.00  0.00    -0.386 OA
HETATM    8  C18 UNL     1      -3.255  49.712  -9.822  1.00  0.00     0.202 C 
ENDBRANCH   6   7
BRANCH   6   9
HETATM    9  C19 UNL     1      -1.718  51.789 -10.435  1.00  0.00     0.044 C 
HETATM   10  C20 UNL     1      -2.849  51.947  -9.411  1.00  0.00     0.015 C 
BRANCH   9  11
HETATM   11  C21 UNL     1      -1.313  53.157 -11.024  1.00  0.00     0.131 C 
HETATM   12  C22 UNL     1      -1.906  54.387 -10.324  1.00  0.00     0.067 C 
HETATM   13  C23 UNL     1      -0.714  55.264  -9.992  1.00  0.00     0.153 C 
HETATM   14  C24 UNL     1       0.394  54.705 -10.888  1.00  0.00     0.173 C 
HETATM   15  O8  UNL     1       0.119  53.302 -10.975  1.00  0.00    -0.374 OA
BRANCH  13  16
HETATM   16  O5  UNL     1      -0.447  55.112  -8.593  1.00  0.00    -0.393 OA
HETATM   17  H35 UNL     1       0.319  55.677  -8.391  1.00  0.00     0.210 HD
ENDBRANCH  13  16
BRANCH  14  18
HETATM   18  C25 UNL     1       1.796  54.870 -10.381  1.00  0.00     0.007 C 
HETATM   19  C26 UNL     1       2.624  55.864 -10.741  1.00  0.00    -0.001 C 
BRANCH  19  20
HETATM   20  C27 UNL     1       3.986  55.961 -10.260  1.00  0.00    -0.000 C 
HETATM   21  C28 UNL     1       4.781  54.892 -10.099  1.00  0.00     0.000 C 
BRANCH  21  22
HETATM   22  C29 UNL     1       6.136  55.000  -9.601  1.00  0.00     0.007 C 
HETATM   23  C30 UNL     1       6.890  54.033  -9.057  1.00  0.00     0.081 C 
BRANCH  23  24
HETATM   24  C31 UNL     1       6.504  52.631  -8.837  1.00  0.00     0.165 C 
HETATM   25  O6  UNL     1       5.603  52.189  -8.155  1.00  0.00    -0.647 OA
BRANCH  24  26
HETATM   26  O7  UNL     1       7.323  51.826  -9.534  1.00  0.00    -0.773 OA
HETATM   27  H43 UNL     1       6.999  50.926  -9.323  1.00  0.00     0.167 HD
ENDBRANCH  24  26
ENDBRANCH  23  24
ENDBRANCH  21  22
ENDBRANCH  19  20
ENDBRANCH  14  18
ENDBRANCH   9  11
ENDBRANCH   6   9
ENDBRANCH   4   6
ENDBRANCH   2   3
BRANCH   1  28
HETATM   28  C11 UNL     1       0.583  51.266 -17.335  1.00  0.00     0.149 C 
BRANCH  28  29
HETATM   29  N1  UNL     1       0.128  50.614 -18.534  1.00  0.00    -0.357 N 
HETATM   30  C10 UNL     1       0.124  51.238 -19.756  1.00  0.00     0.227 C 
HETATM   31  O3  UNL     1       0.471  52.407 -19.908  1.00  0.00    -0.273 OA
HETATM   32  H14 UNL     1       0.038  49.599 -18.536  1.00  0.00     0.162 HD
BRANCH  30  33
HETATM   33  C8  UNL     1      -0.386  50.369 -20.900  1.00  0.00     0.136 C 
HETATM   34  C9  UNL     1      -1.052  49.107 -20.340  1.00  0.00     0.026 C 
BRANCH  33  35
HETATM   35  C7  UNL     1      -1.271  51.166 -21.896  1.00  0.00     0.176 C 
HETATM   36  O1  UNL     1      -0.929  50.681 -23.202  1.00  0.00    -0.344 OA
HETATM   37  C6  UNL     1      -1.887  51.002 -24.208  1.00  0.00     0.158 C 
HETATM   38  C34 UNL     1      -3.169  50.139 -24.004  1.00  0.00     0.008 C 
HETATM   39  C33 UNL     1      -3.438  49.976 -22.476  1.00  0.00     0.134 C 
HETATM   40  C35 UNL     1      -4.347  50.815 -24.738  1.00  0.00     0.020 C 
HETATM   41  C36 UNL     1      -3.016  48.715 -24.589  1.00  0.00     0.020 C 
HETATM   42  C32 UNL     1      -2.787  51.074 -21.639  1.00  0.00     0.101 C 
BRANCH  37  43
HETATM   43  C5  UNL     1      -1.181  50.822 -25.526  1.00  0.00     0.006 C 
HETATM   44  C4  UNL     1       0.075  51.225 -25.784  1.00  0.00    -0.002 C 
BRANCH  44  45
HETATM   45  C3  UNL     1       0.716  50.992 -27.055  1.00  0.00    -0.005 C 
HETATM   46  C2  UNL     1       0.687  51.800 -28.125  1.00  0.00    -0.031 C 
HETATM   47  C1  UNL     1      -0.012  53.109 -28.289  1.00  0.00     0.036 C 
ENDBRANCH  44  45
ENDBRANCH  37  43
BRANCH  39  48
HETATM   48  O9  UNL     1      -4.835  49.958 -22.180  1.00  0.00    -0.395 OA
HETATM   49  H47 UNL     1      -5.206  49.138 -22.550  1.00  0.00     0.210 HD
ENDBRANCH  39  48
BRANCH  35  50
HETATM   50  O2  UNL     1      -0.841  52.534 -21.826  1.00  0.00    -0.364 OA
HETATM   51  H9  UNL     1      -1.531  53.081 -22.237  1.00  0.00     0.213 HD
ENDBRANCH  35  50
ENDBRANCH  33  35
ENDBRANCH  30  33
ENDBRANCH  28  29
ENDBRANCH   1  28
TORSDOF 19
ENDMDL
MODEL 5
REMARK minimizedAffinity -9.17496872
REMARK CNNscore 0.516465366
REMARK CNNaffinity 6.95294333
REMARK  19 active torsions:
REMARK  status: ('A' for Active; 'I' for Inactive)
REMARK    1  A    between atoms: C3_3  and  C4_4 
REMARK    2  A    between atoms: C5_5  and  C6_6 
REMARK    3  A    between atoms: C7_8  and  O2_9 
REMARK    4  A    between atoms: C7_8  and  C8_10 
REMARK    5  A    between atoms: C8_10  and  C10_12 
REMARK       I    between atoms: C10_12  and  N1_14 
REMARK    6  A    between atoms: N1_14  and  C11_15 
REMARK    7  A    between atoms: C11_15  and  C12_16 
REMARK    8  A    between atoms: C13_17  and  C14_18 
REMARK    9  A    between atoms: C15_19  and  C17_21 
REMARK   10  A    between atoms: C17_21  and  O4_22 
REMARK   11  A    between atoms: C17_21  and  C19_24 
REMARK   12  A    between atoms: C19_24  and  C21_26 
REMARK   13  A    between atoms: C23_28  and  O5_29 
REMARK   14  A    between atoms: C24_30  and  C25_31 
REMARK   15  A    between atoms: C26_32  and  C27_33 
REMARK   16  A    between atoms: C28_34  and  C29_35 
REMARK   17  A    between atoms: C30_36  and  C31_37 
REMARK   18  A    between atoms: C31_37  and  O7_39 
REMARK   19  A    between atoms: C33_42  and  O9_43 
ROOT
HETATM    1  C12 UNL     1      -7.271  47.690 -26.292  1.00  0.00    -0.007 C 
HETATM    2  C13 UNL     1      -6.810  47.231 -27.467  1.00  0.00    -0.002 C 
ENDROOT
BRANCH   2   3
HETATM    3  C14 UNL     1      -7.678  46.725 -28.505  1.00  0.00     0.005 C 
HETATM    4  C15 UNL     1      -8.277  45.517 -28.549  1.00  0.00    -0.055 C 
HETATM    5  C16 UNL     1      -8.053  44.413 -27.543  1.00  0.00     0.046 C 
BRANCH   4   6
HETATM    6  C17 UNL     1      -9.321  45.170 -29.618  1.00  0.00     0.155 C 
BRANCH   6   7
HETATM    7  O4  UNL     1      -9.594  43.753 -29.621  1.00  0.00    -0.386 OA
HETATM    8  C18 UNL     1      -9.062  43.097 -30.767  1.00  0.00     0.202 C 
ENDBRANCH   6   7
BRANCH   6   9
HETATM    9  C19 UNL     1     -10.676  45.918 -29.442  1.00  0.00     0.044 C 
HETATM   10  C20 UNL     1     -10.756  47.179 -30.312  1.00  0.00     0.015 C 
BRANCH   9  11
HETATM   11  C21 UNL     1     -10.883  46.263 -27.951  1.00  0.00     0.131 C 
HETATM   12  C22 UNL     1     -10.713  47.742 -27.579  1.00  0.00     0.067 C 
HETATM   13  C23 UNL     1     -11.987  48.112 -26.844  1.00  0.00     0.153 C 
HETATM   14  C24 UNL     1     -12.585  46.753 -26.471  1.00  0.00     0.173 C 
HETATM   15  O8  UNL     1     -12.212  45.883 -27.546  1.00  0.00    -0.374 OA
BRANCH  13  16
HETATM   16  O5  UNL     1     -12.801  48.864 -27.751  1.00  0.00    -0.393 OA
HETATM   17  H35 UNL     1     -13.615  49.095 -27.271  1.00  0.00     0.210 HD
ENDBRANCH  13  16
BRANCH  14  18
HETATM   18  C25 UNL     1     -14.078  46.707 -26.336  1.00  0.00     0.007 C 
HETATM   19  C26 UNL     1     -14.732  46.186 -25.284  1.00  0.00    -0.001 C 
BRANCH  19  20
HETATM   20  C27 UNL     1     -16.176  46.122 -25.215  1.00  0.00    -0.000 C 
HETATM   21  C28 UNL     1     -16.885  46.679 -24.221  1.00  0.00     0.000 C 
BRANCH  21  22
HETATM   22  C29 UNL     1     -18.328  46.594 -24.153  1.00  0.00     0.007 C 
HETATM   23  C30 UNL     1     -19.086  46.325 -23.079  1.00  0.00     0.081 C 
BRANCH  23  24
HETATM   24  C31 UNL     1     -18.615  46.050 -21.714  1.00  0.00     0.165 C 
HETATM   25  O6  UNL     1     -17.572  46.380 -21.189  1.00  0.00    -0.647 OA
BRANCH  24  26
HETATM   26  O7  UNL     1     -19.542  45.335 -21.055  1.00  0.00    -0.773 OA
HETATM   27  H43 UNL     1     -19.143  45.195 -20.171  1.00  0.00     0.167 HD
ENDBRANCH  24  26
ENDBRANCH  23  24
ENDBRANCH  21  22
ENDBRANCH  19  20
ENDBRANCH  14  18
ENDBRANCH   9  11
ENDBRANCH   6   9
ENDBRANCH   4   6
ENDBRANCH   2   3
BRANCH   1  28
HETATM   28  C11 UNL     1      -6.382  48.077 -25.152  1.00  0.00     0.149 C 
BRANCH  28  29
HETATM   29  N1  UNL     1      -5.097  48.470 -25.667  1.00  0.00    -0.357 N 
HETATM   30  C10 UNL     1      -4.019  48.713 -24.854  1.00  0.00     0.227 C 
HETATM   31  O3  UNL     1      -4.083  48.651 -23.628  1.00  0.00    -0.273 OA
HETATM   32  H14 UNL     1      -4.902  48.329 -26.658  1.00  0.00     0.162 HD
BRANCH  30  33
HETATM   33  C8  UNL     1      -2.749  49.106 -25.600  1.00  0.00     0.136 C 
HETATM   34  C9  UNL     1      -2.758  48.492 -27.005  1.00  0.00     0.026 C 
BRANCH  33  35
HETATM   35  C7  UNL     1      -2.502  50.637 -25.577  1.00  0.00     0.176 C 
HETATM   36  O1  UNL     1      -1.408  50.847 -24.674  1.00  0.00    -0.344 OA
HETATM   37  C6  UNL     1      -0.784  52.123 -24.804  1.00  0.00     0.158 C 
HETATM   38  C34 UNL     1       0.038  52.169 -26.127  1.00  0.00     0.008 C 
HETATM   39  C33 UNL     1      -0.732  51.387 -27.236  1.00  0.00     0.134 C 
HETATM   40  C35 UNL     1       0.281  53.644 -26.513  1.00  0.00     0.020 C 
HETATM   41  C36 UNL     1       1.423  51.495 -25.981  1.00  0.00     0.020 C 
HETATM   42  C32 UNL     1      -2.228  51.275 -26.953  1.00  0.00     0.101 C 
BRANCH  37  43
HETATM   43  C5  UNL     1       0.003  52.332 -23.538  1.00  0.00     0.006 C 
HETATM   44  C4  UNL     1      -0.409  51.970 -22.312  1.00  0.00    -0.002 C 
BRANCH  44  45
HETATM   45  C3  UNL     1       0.406  52.161 -21.135  1.00  0.00    -0.005 C 
HETATM   46  C2  UNL     1       1.219  53.197 -20.885  1.00  0.00    -0.031 C 
HETATM   47  C1  UNL     1       1.506  54.386 -21.742  1.00  0.00     0.036 C 
ENDBRANCH  44  45
ENDBRANCH  37  43
BRANCH  39  48
HETATM   48  O9  UNL     1      -0.566  51.984 -28.523  1.00  0.00    -0.395 OA
HETATM   49  H47 UNL     1       0.363  51.867 -28.787  1.00  0.00     0.210 HD
ENDBRANCH  39  48
BRANCH  35  50
HETATM   50  O2  UNL     1      -3.665  51.234 -24.980  1.00  0.00    -0.364 OA
HETATM   51  H9  UNL     1      -3.646  52.184 -25.184  1.00  0.00     0.213 HD
ENDBRANCH  35  50
ENDBRANCH  33  35
ENDBRANCH  30  33
ENDBRANCH  28  29
ENDBRANCH   1  28
TORSDOF 19
ENDMDL
MODEL 6
REMARK minimizedAffinity -8.17816734
REMARK CNNscore 0.446036518
REMARK CNNaffinity 6.74158859
REMARK  19 active torsions:
REMARK  status: ('A' for Active; 'I' for Inactive)
REMARK    1  A    between atoms: C3_3  and  C4_4 
REMARK    2  A    between atoms: C5_5  and  C6_6 
REMARK    3  A    between atoms: C7_8  and  O2_9 
REMARK    4  A    between atoms: C7_8  and  C8_10 
REMARK    5  A    between atoms: C8_10  and  C10_12 
REMARK       I    between atoms: C10_12  and  N1_14 
REMARK    6  A    between atoms: N1_14  and  C11_15 
REMARK    7  A    between atoms: C11_15  and  C12_16 
REMARK    8  A    between atoms: C13_17  and  C14_18 
REMARK    9  A    between atoms: C15_19  and  C17_21 
REMARK   10  A    between atoms: C17_21  and  O4_22 
REMARK   11  A    between atoms: C17_21  and  C19_24 
REMARK   12  A    between atoms: C19_24  and  C21_26 
REMARK   13  A    between atoms: C23_28  and  O5_29 
REMARK   14  A    between atoms: C24_30  and  C25_31 
REMARK   15  A    between atoms: C26_32  and  C27_33 
REMARK   16  A    between atoms: C28_34  and  C29_35 
REMARK   17  A    between atoms: C30_36  and  C31_37 
REMARK   18  A    between atoms: C31_37  and  O7_39 
REMARK   19  A    between atoms: C33_42  and  O9_43 
ROOT
HETATM    1  C12 UNL     1      -4.016  47.279 -21.259  1.00  0.00    -0.007 C 
HETATM    2  C13 UNL     1      -4.856  47.854 -20.384  1.00  0.00    -0.002 C 
ENDROOT
BRANCH   2   3
HETATM    3  C14 UNL     1      -6.249  47.485 -20.278  1.00  0.00     0.005 C 
HETATM    4  C15 UNL     1      -7.310  48.316 -20.225  1.00  0.00    -0.055 C 
HETATM    5  C16 UNL     1      -7.217  49.822 -20.162  1.00  0.00     0.046 C 
BRANCH   4   6
HETATM    6  C17 UNL     1      -8.752  47.794 -20.297  1.00  0.00     0.155 C 
BRANCH   6   7
HETATM    7  O4  UNL     1      -8.782  46.454 -20.831  1.00  0.00    -0.386 OA
HETATM    8  C18 UNL     1      -7.765  45.624 -20.282  1.00  0.00     0.202 C 
ENDBRANCH   6   7
BRANCH   6   9
HETATM    9  C19 UNL     1      -9.485  47.779 -18.923  1.00  0.00     0.044 C 
HETATM   10  C20 UNL     1      -8.513  47.953 -17.748  1.00  0.00     0.015 C 
BRANCH   9  11
HETATM   11  C21 UNL     1     -10.288  46.468 -18.783  1.00  0.00     0.131 C 
HETATM   12  C22 UNL     1     -10.292  45.833 -17.387  1.00  0.00     0.067 C 
HETATM   13  C23 UNL     1     -11.757  45.632 -17.049  1.00  0.00     0.153 C 
HETATM   14  C24 UNL     1     -12.450  45.751 -18.409  1.00  0.00     0.173 C 
HETATM   15  O8  UNL     1     -11.664  46.703 -19.136  1.00  0.00    -0.374 OA
BRANCH  13  16
HETATM   16  O5  UNL     1     -12.129  46.663 -16.127  1.00  0.00    -0.393 OA
HETATM   17  H35 UNL     1     -13.069  46.526 -15.918  1.00  0.00     0.210 HD
ENDBRANCH  13  16
BRANCH  14  18
HETATM   18  C25 UNL     1     -13.867  46.245 -18.383  1.00  0.00     0.007 C 
HETATM   19  C26 UNL     1     -14.243  47.495 -18.698  1.00  0.00    -0.001 C 
BRANCH  19  20
HETATM   20  C27 UNL     1     -15.617  47.942 -18.617  1.00  0.00    -0.000 C 
HETATM   21  C28 UNL     1     -16.638  47.271 -19.174  1.00  0.00     0.000 C 
BRANCH  21  22
HETATM   22  C29 UNL     1     -18.006  47.737 -19.100  1.00  0.00     0.007 C 
HETATM   23  C30 UNL     1     -19.107  47.128 -19.566  1.00  0.00     0.081 C 
BRANCH  23  24
HETATM   24  C31 UNL     1     -19.171  45.838 -20.269  1.00  0.00     0.165 C 
HETATM   25  O6  UNL     1     -19.839  44.860 -20.003  1.00  0.00    -0.647 OA
BRANCH  24  26
HETATM   26  O7  UNL     1     -18.342  45.861 -21.326  1.00  0.00    -0.773 OA
HETATM   27  H43 UNL     1     -18.445  44.971 -21.722  1.00  0.00     0.167 HD
ENDBRANCH  24  26
ENDBRANCH  23  24
ENDBRANCH  21  22
ENDBRANCH  19  20
ENDBRANCH  14  18
ENDBRANCH   9  11
ENDBRANCH   6   9
ENDBRANCH   4   6
ENDBRANCH   2   3
BRANCH   1  28
HETATM   28  C11 UNL     1      -2.614  47.750 -21.487  1.00  0.00     0.149 C 
BRANCH  28  29
HETATM   29  N1  UNL     1      -2.460  48.123 -22.868  1.00  0.00    -0.357 N 
HETATM   30  C10 UNL     1      -3.060  49.236 -23.402  1.00  0.00     0.227 C 
HETATM   31  O3  UNL     1      -3.801  49.969 -22.752  1.00  0.00    -0.273 OA
HETATM   32  H14 UNL     1      -1.701  47.708 -23.407  1.00  0.00     0.162 HD
BRANCH  30  33
HETATM   33  C8  UNL     1      -2.761  49.460 -24.880  1.00  0.00     0.136 C 
HETATM   34  C9  UNL     1      -3.857  48.815 -25.737  1.00  0.00     0.026 C 
BRANCH  33  35
HETATM   35  C7  UNL     1      -2.494  50.953 -25.207  1.00  0.00     0.176 C 
HETATM   36  O1  UNL     1      -1.328  51.318 -24.456  1.00  0.00    -0.344 OA
HETATM   37  C6  UNL     1      -0.701  52.517 -24.905  1.00  0.00     0.158 C 
HETATM   38  C34 UNL     1       0.014  52.254 -26.265  1.00  0.00     0.008 C 
HETATM   39  C33 UNL     1      -0.852  51.276 -27.118  1.00  0.00     0.134 C 
HETATM   40  C35 UNL     1       0.244  53.604 -26.977  1.00  0.00     0.020 C 
HETATM   41  C36 UNL     1       1.398  51.586 -26.081  1.00  0.00     0.020 C 
HETATM   42  C32 UNL     1      -2.322  51.271 -26.705  1.00  0.00     0.101 C 
BRANCH  37  43
HETATM   43  C5  UNL     1       0.187  52.970 -23.777  1.00  0.00     0.006 C 
HETATM   44  C4  UNL     1       0.067  52.571 -22.500  1.00  0.00    -0.002 C 
BRANCH  44  45
HETATM   45  C3  UNL     1       0.973  53.008 -21.465  1.00  0.00    -0.005 C 
HETATM   46  C2  UNL     1       0.802  52.868 -20.142  1.00  0.00    -0.031 C 
HETATM   47  C1  UNL     1      -0.347  52.259 -19.408  1.00  0.00     0.036 C 
ENDBRANCH  44  45
ENDBRANCH  37  43
BRANCH  39  48
HETATM   48  O9  UNL     1      -0.782  51.577 -28.512  1.00  0.00    -0.395 OA
HETATM   49  H47 UNL     1       0.122  51.379 -28.813  1.00  0.00     0.210 HD
ENDBRANCH  39  48
BRANCH  35  50
HETATM   50  O2  UNL     1      -3.597  51.697 -24.668  1.00  0.00    -0.364 OA
HETATM   51  H9  UNL     1      -3.582  52.580 -25.073  1.00  0.00     0.213 HD
ENDBRANCH  35  50
ENDBRANCH  33  35
ENDBRANCH  30  33
ENDBRANCH  28  29
ENDBRANCH   1  28
TORSDOF 19
ENDMDL
MODEL 7
REMARK minimizedAffinity -8.61258698
REMARK CNNscore 0.426402509
REMARK CNNaffinity 6.76993942
REMARK  19 active torsions:
REMARK  status: ('A' for Active; 'I' for Inactive)
REMARK    1  A    between atoms: C3_3  and  C4_4 
REMARK    2  A    between atoms: C5_5  and  C6_6 
REMARK    3  A    between atoms: C7_8  and  O2_9 
REMARK    4  A    between atoms: C7_8  and  C8_10 
REMARK    5  A    between atoms: C8_10  and  C10_12 
REMARK       I    between atoms: C10_12  and  N1_14 
REMARK    6  A    between atoms: N1_14  and  C11_15 
REMARK    7  A    between atoms: C11_15  and  C12_16 
REMARK    8  A    between atoms: C13_17  and  C14_18 
REMARK    9  A    between atoms: C15_19  and  C17_21 
REMARK   10  A    between atoms: C17_21  and  O4_22 
REMARK   11  A    between atoms: C17_21  and  C19_24 
REMARK   12  A    between atoms: C19_24  and  C21_26 
REMARK   13  A    between atoms: C23_28  and  O5_29 
REMARK   14  A    between atoms: C24_30  and  C25_31 
REMARK   15  A    between atoms: C26_32  and  C27_33 
REMARK   16  A    between atoms: C28_34  and  C29_35 
REMARK   17  A    between atoms: C30_36  and  C31_37 
REMARK   18  A    between atoms: C31_37  and  O7_39 
REMARK   19  A    between atoms: C33_42  and  O9_43 
ROOT
HETATM    1  C12 UNL     1       0.270  50.708 -15.665  1.00  0.00    -0.007 C 
HETATM    2  C13 UNL     1       0.156  51.655 -14.720  1.00  0.00    -0.002 C 
ENDROOT
BRANCH   2   3
HETATM    3  C14 UNL     1      -0.429  51.402 -13.424  1.00  0.00     0.005 C 
HETATM    4  C15 UNL     1      -1.731  51.495 -13.085  1.00  0.00    -0.055 C 
HETATM    5  C16 UNL     1      -2.821  51.997 -14.003  1.00  0.00     0.046 C 
BRANCH   4   6
HETATM    6  C17 UNL     1      -2.249  51.023 -11.720  1.00  0.00     0.155 C 
BRANCH   6   7
HETATM    7  O4  UNL     1      -1.972  49.619 -11.529  1.00  0.00    -0.386 OA
HETATM    8  C18 UNL     1      -3.077  48.793 -11.876  1.00  0.00     0.202 C 
ENDBRANCH   6   7
BRANCH   6   9
HETATM    9  C19 UNL     1      -1.644  51.800 -10.513  1.00  0.00     0.044 C 
HETATM   10  C20 UNL     1      -2.554  51.746  -9.279  1.00  0.00     0.015 C 
BRANCH   9  11
HETATM   11  C21 UNL     1      -1.366  53.260 -10.929  1.00  0.00     0.131 C 
HETATM   12  C22 UNL     1      -1.995  54.340 -10.039  1.00  0.00     0.067 C 
HETATM   13  C23 UNL     1      -0.846  55.249  -9.650  1.00  0.00     0.153 C 
HETATM   14  C24 UNL     1       0.242  54.896 -10.667  1.00  0.00     0.173 C 
HETATM   15  O8  UNL     1       0.054  53.500 -10.931  1.00  0.00    -0.374 OA
BRANCH  13  16
HETATM   16  O5  UNL     1      -0.488  54.932  -8.300  1.00  0.00    -0.393 OA
HETATM   17  H35 UNL     1       0.249  55.520  -8.060  1.00  0.00     0.210 HD
ENDBRANCH  13  16
BRANCH  14  18
HETATM   18  C25 UNL     1       1.658  55.094 -10.211  1.00  0.00     0.007 C 
HETATM   19  C26 UNL     1       2.548  55.893 -10.820  1.00  0.00    -0.001 C 
BRANCH  19  20
HETATM   20  C27 UNL     1       3.918  56.021 -10.372  1.00  0.00    -0.000 C 
HETATM   21  C28 UNL     1       4.719  54.965 -10.157  1.00  0.00     0.000 C 
BRANCH  21  22
HETATM   22  C29 UNL     1       6.082  55.105  -9.693  1.00  0.00     0.007 C 
HETATM   23  C30 UNL     1       6.842  54.181  -9.086  1.00  0.00     0.081 C 
BRANCH  23  24
HETATM   24  C31 UNL     1       6.454  52.803  -8.748  1.00  0.00     0.165 C 
HETATM   25  O6  UNL     1       5.644  52.420  -7.930  1.00  0.00    -0.647 OA
BRANCH  24  26
HETATM   26  O7  UNL     1       7.150  51.942  -9.510  1.00  0.00    -0.773 OA
HETATM   27  H43 UNL     1       6.835  51.063  -9.213  1.00  0.00     0.167 HD
ENDBRANCH  24  26
ENDBRANCH  23  24
ENDBRANCH  21  22
ENDBRANCH  19  20
ENDBRANCH  14  18
ENDBRANCH   9  11
ENDBRANCH   6   9
ENDBRANCH   4   6
ENDBRANCH   2   3
BRANCH   1  28
HETATM   28  C11 UNL     1       0.733  50.986 -17.060  1.00  0.00     0.149 C 
BRANCH  28  29
HETATM   29  N1  UNL     1      -0.193  50.398 -17.991  1.00  0.00    -0.357 N 
HETATM   30  C10 UNL     1      -1.091  51.146 -18.710  1.00  0.00     0.227 C 
HETATM   31  O3  UNL     1      -1.196  52.364 -18.583  1.00  0.00    -0.273 OA
HETATM   32  H14 UNL     1      -0.025  49.446 -18.315  1.00  0.00     0.162 HD
BRANCH  30  33
HETATM   33  C8  UNL     1      -1.975  50.331 -19.649  1.00  0.00     0.136 C 
HETATM   34  C9  UNL     1      -3.341  51.010 -19.800  1.00  0.00     0.026 C 
BRANCH  33  35
HETATM   35  C7  UNL     1      -1.270  50.015 -20.994  1.00  0.00     0.176 C 
HETATM   36  O1  UNL     1      -2.308  49.976 -21.983  1.00  0.00    -0.344 OA
HETATM   37  C6  UNL     1      -1.835  50.081 -23.324  1.00  0.00     0.158 C 
HETATM   38  C34 UNL     1      -1.356  51.539 -23.596  1.00  0.00     0.008 C 
HETATM   39  C33 UNL     1      -0.663  52.097 -22.315  1.00  0.00     0.134 C 
HETATM   40  C35 UNL     1      -0.411  51.534 -24.818  1.00  0.00     0.020 C 
HETATM   41  C36 UNL     1      -2.530  52.491 -23.925  1.00  0.00     0.020 C 
HETATM   42  C32 UNL     1      -0.150  50.997 -21.390  1.00  0.00     0.101 C 
BRANCH  37  43
HETATM   43  C5  UNL     1      -2.956  49.588 -24.200  1.00  0.00     0.006 C 
HETATM   44  C4  UNL     1      -2.789  48.894 -25.339  1.00  0.00    -0.002 C 
BRANCH  44  45
HETATM   45  C3  UNL     1      -3.903  48.412 -26.120  1.00  0.00    -0.005 C 
HETATM   46  C2  UNL     1      -5.163  48.240 -25.695  1.00  0.00    -0.031 C 
HETATM   47  C1  UNL     1      -5.729  48.475 -24.333  1.00  0.00     0.036 C 
ENDBRANCH  44  45
ENDBRANCH  37  43
BRANCH  39  48
HETATM   48  O9  UNL     1       0.431  52.959 -22.632  1.00  0.00    -0.395 OA
HETATM   49  H47 UNL     1       0.067  53.762 -23.044  1.00  0.00     0.210 HD
ENDBRANCH  39  48
BRANCH  35  50
HETATM   50  O2  UNL     1      -0.741  48.684 -20.881  1.00  0.00    -0.364 OA
HETATM   51  H9  UNL     1      -0.092  48.564 -21.594  1.00  0.00     0.213 HD
ENDBRANCH  35  50
ENDBRANCH  33  35
ENDBRANCH  30  33
ENDBRANCH  28  29
ENDBRANCH   1  28
TORSDOF 19
ENDMDL
MODEL 8
REMARK minimizedAffinity -9.24642658
REMARK CNNscore 0.411588669
REMARK CNNaffinity 6.99590492
REMARK  19 active torsions:
REMARK  status: ('A' for Active; 'I' for Inactive)
REMARK    1  A    between atoms: C3_3  and  C4_4 
REMARK    2  A    between atoms: C5_5  and  C6_6 
REMARK    3  A    between atoms: C7_8  and  O2_9 
REMARK    4  A    between atoms: C7_8  and  C8_10 
REMARK    5  A    between atoms: C8_10  and  C10_12 
REMARK       I    between atoms: C10_12  and  N1_14 
REMARK    6  A    between atoms: N1_14  and  C11_15 
REMARK    7  A    between atoms: C11_15  and  C12_16 
REMARK    8  A    between atoms: C13_17  and  C14_18 
REMARK    9  A    between atoms: C15_19  and  C17_21 
REMARK   10  A    between atoms: C17_21  and  O4_22 
REMARK   11  A    between atoms: C17_21  and  C19_24 
REMARK   12  A    between atoms: C19_24  and  C21_26 
REMARK   13  A    between atoms: C23_28  and  O5_29 
REMARK   14  A    between atoms: C24_30  and  C25_31 
REMARK   15  A    between atoms: C26_32  and  C27_33 
REMARK   16  A    between atoms: C28_34  and  C29_35 
REMARK   17  A    between atoms: C30_36  and  C31_37 
REMARK   18  A    between atoms: C31_37  and  O7_39 
REMARK   19  A    between atoms: C33_42  and  O9_43 
ROOT
HETATM    1  C12 UNL     1      -7.428  47.365 -25.842  1.00  0.00    -0.007 C 
HETATM    2  C13 UNL     1      -7.081  47.143 -27.121  1.00  0.00    -0.002 C 
ENDROOT
BRANCH   2   3
HETATM    3  C14 UNL     1      -7.860  46.314 -28.010  1.00  0.00     0.005 C 
HETATM    4  C15 UNL     1      -8.363  46.657 -29.213  1.00  0.00    -0.055 C 
HETATM    5  C16 UNL     1      -8.284  48.043 -29.811  1.00  0.00     0.046 C 
BRANCH   4   6
HETATM    6  C17 UNL     1      -9.019  45.627 -30.142  1.00  0.00     0.155 C 
BRANCH   6   7
HETATM    7  O4  UNL     1      -9.883  44.745 -29.394  1.00  0.00    -0.386 OA
HETATM    8  C18 UNL     1      -9.518  43.377 -29.533  1.00  0.00     0.202 C 
ENDBRANCH   6   7
BRANCH   6   9
HETATM    9  C19 UNL     1      -9.858  46.259 -31.292  1.00  0.00     0.044 C 
HETATM   10  C20 UNL     1     -11.350  46.334 -30.943  1.00  0.00     0.015 C 
BRANCH   9  11
HETATM   11  C21 UNL     1      -9.636  45.455 -32.591  1.00  0.00     0.131 C 
HETATM   12  C22 UNL     1     -10.640  44.326 -32.858  1.00  0.00     0.067 C 
HETATM   13  C23 UNL     1     -11.168  44.590 -34.255  1.00  0.00     0.153 C 
HETATM   14  C24 UNL     1     -10.139  45.560 -34.842  1.00  0.00     0.173 C 
HETATM   15  O8  UNL     1      -9.697  46.341 -33.725  1.00  0.00    -0.374 OA
BRANCH  13  16
HETATM   16  O5  UNL     1     -12.475  45.159 -34.119  1.00  0.00    -0.393 OA
HETATM   17  H35 UNL     1     -12.804  45.324 -35.019  1.00  0.00     0.210 HD
ENDBRANCH  13  16
BRANCH  14  18
HETATM   18  C25 UNL     1     -10.649  46.503 -35.892  1.00  0.00     0.007 C 
HETATM   19  C26 UNL     1     -10.556  46.291 -37.215  1.00  0.00    -0.001 C 
BRANCH  19  20
HETATM   20  C27 UNL     1     -11.022  47.248 -38.194  1.00  0.00    -0.000 C 
HETATM   21  C28 UNL     1     -11.790  48.303 -37.878  1.00  0.00     0.000 C 
BRANCH  21  22
HETATM   22  C29 UNL     1     -12.264  49.244 -38.870  1.00  0.00     0.007 C 
HETATM   23  C30 UNL     1     -13.515  49.390 -39.332  1.00  0.00     0.081 C 
BRANCH  23  24
HETATM   24  C31 UNL     1     -14.699  48.614 -38.933  1.00  0.00     0.165 C 
HETATM   25  O6  UNL     1     -15.276  48.603 -37.865  1.00  0.00    -0.647 OA
BRANCH  24  26
HETATM   26  O7  UNL     1     -15.107  47.857 -39.965  1.00  0.00    -0.773 OA
HETATM   27  H43 UNL     1     -15.884  47.377 -39.608  1.00  0.00     0.167 HD
ENDBRANCH  24  26
ENDBRANCH  23  24
ENDBRANCH  21  22
ENDBRANCH  19  20
ENDBRANCH  14  18
ENDBRANCH   9  11
ENDBRANCH   6   9
ENDBRANCH   4   6
ENDBRANCH   2   3
BRANCH   1  28
HETATM   28  C11 UNL     1      -6.559  48.096 -24.867  1.00  0.00     0.149 C 
BRANCH  28  29
HETATM   29  N1  UNL     1      -5.343  48.495 -25.525  1.00  0.00    -0.357 N 
HETATM   30  C10 UNL     1      -4.165  48.684 -24.847  1.00  0.00     0.227 C 
HETATM   31  O3  UNL     1      -4.073  48.566 -23.627  1.00  0.00    -0.273 OA
HETATM   32  H14 UNL     1      -5.279  48.398 -26.538  1.00  0.00     0.162 HD
BRANCH  30  33
HETATM   33  C8  UNL     1      -2.993  49.094 -25.731  1.00  0.00     0.136 C 
HETATM   34  C9  UNL     1      -3.117  48.425 -27.105  1.00  0.00     0.026 C 
BRANCH  33  35
HETATM   35  C7  UNL     1      -2.808  50.633 -25.788  1.00  0.00     0.176 C 
HETATM   36  O1  UNL     1      -1.872  50.956 -24.751  1.00  0.00    -0.344 OA
HETATM   37  C6  UNL     1      -1.282  52.248 -24.884  1.00  0.00     0.158 C 
HETATM   38  C34 UNL     1      -0.270  52.240 -26.069  1.00  0.00     0.008 C 
HETATM   39  C33 UNL     1      -0.834  51.348 -27.218  1.00  0.00     0.134 C 
HETATM   40  C35 UNL     1      -0.024  53.695 -26.525  1.00  0.00     0.020 C 
HETATM   41  C36 UNL     1       1.100  51.644 -25.667  1.00  0.00     0.020 C 
HETATM   42  C32 UNL     1      -2.350  51.185 -27.153  1.00  0.00     0.101 C 
BRANCH  37  43
HETATM   43  C5  UNL     1      -0.705  52.582 -23.534  1.00  0.00     0.006 C 
HETATM   44  C4  UNL     1      -0.750  51.775 -22.460  1.00  0.00    -0.002 C 
BRANCH  44  45
HETATM   45  C3  UNL     1      -0.145  52.132 -21.199  1.00  0.00    -0.005 C 
HETATM   46  C2  UNL     1       0.757  53.102 -20.991  1.00  0.00    -0.031 C 
HETATM   47  C1  UNL     1       1.372  54.033 -21.983  1.00  0.00     0.036 C 
ENDBRANCH  44  45
ENDBRANCH  37  43
BRANCH  39  48
HETATM   48  O9  UNL     1      -0.496  51.860 -28.507  1.00  0.00    -0.395 OA
HETATM   49  H47 UNL     1       0.467  51.769 -28.619  1.00  0.00     0.210 HD
ENDBRANCH  39  48
BRANCH  35  50
HETATM   50  O2  UNL     1      -4.068  51.214 -25.419  1.00  0.00    -0.364 OA
HETATM   51  H9  UNL     1      -4.052  52.147 -25.689  1.00  0.00     0.213 HD
ENDBRANCH  35  50
ENDBRANCH  33  35
ENDBRANCH  30  33
ENDBRANCH  28  29
ENDBRANCH   1  28
TORSDOF 19
ENDMDL
MODEL 9
REMARK minimizedAffinity -7.69984102
REMARK CNNscore 0.397462487
REMARK CNNaffinity 6.93323851
REMARK  19 active torsions:
REMARK  status: ('A' for Active; 'I' for Inactive)
REMARK    1  A    between atoms: C3_3  and  C4_4 
REMARK    2  A    between atoms: C5_5  and  C6_6 
REMARK    3  A    between atoms: C7_8  and  O2_9 
REMARK    4  A    between atoms: C7_8  and  C8_10 
REMARK    5  A    between atoms: C8_10  and  C10_12 
REMARK       I    between atoms: C10_12  and  N1_14 
REMARK    6  A    between atoms: N1_14  and  C11_15 
REMARK    7  A    between atoms: C11_15  and  C12_16 
REMARK    8  A    between atoms: C13_17  and  C14_18 
REMARK    9  A    between atoms: C15_19  and  C17_21 
REMARK   10  A    between atoms: C17_21  and  O4_22 
REMARK   11  A    between atoms: C17_21  and  C19_24 
REMARK   12  A    between atoms: C19_24  and  C21_26 
REMARK   13  A    between atoms: C23_28  and  O5_29 
REMARK   14  A    between atoms: C24_30  and  C25_31 
REMARK   15  A    between atoms: C26_32  and  C27_33 
REMARK   16  A    between atoms: C28_34  and  C29_35 
REMARK   17  A    between atoms: C30_36  and  C31_37 
REMARK   18  A    between atoms: C31_37  and  O7_39 
REMARK   19  A    between atoms: C33_42  and  O9_43 
ROOT
HETATM    1  C12 UNL     1      -7.067  47.344 -23.674  1.00  0.00    -0.007 C 
HETATM    2  C13 UNL     1      -7.154  47.919 -22.464  1.00  0.00    -0.002 C 
ENDROOT
BRANCH   2   3
HETATM    3  C14 UNL     1      -7.601  47.207 -21.289  1.00  0.00     0.005 C 
HETATM    4  C15 UNL     1      -7.722  47.694 -20.037  1.00  0.00    -0.055 C 
HETATM    5  C16 UNL     1      -7.302  49.083 -19.614  1.00  0.00     0.046 C 
BRANCH   4   6
HETATM    6  C17 UNL     1      -8.381  46.885 -18.913  1.00  0.00     0.155 C 
BRANCH   6   7
HETATM    7  O4  UNL     1      -7.519  46.823 -17.757  1.00  0.00    -0.386 OA
HETATM    8  C18 UNL     1      -6.846  45.574 -17.645  1.00  0.00     0.202 C 
ENDBRANCH   6   7
BRANCH   6   9
HETATM    9  C19 UNL     1      -9.758  47.450 -18.453  1.00  0.00     0.044 C 
HETATM   10  C20 UNL     1      -9.613  48.470 -17.317  1.00  0.00     0.015 C 
BRANCH   9  11
HETATM   11  C21 UNL     1     -10.678  46.283 -18.032  1.00  0.00     0.131 C 
HETATM   12  C22 UNL     1     -11.296  46.392 -16.633  1.00  0.00     0.067 C 
HETATM   13  C23 UNL     1     -12.787  46.216 -16.846  1.00  0.00     0.153 C 
HETATM   14  C24 UNL     1     -12.872  45.598 -18.243  1.00  0.00     0.173 C 
HETATM   15  O8  UNL     1     -11.772  46.169 -18.962  1.00  0.00    -0.374 OA
BRANCH  13  16
HETATM   16  O5  UNL     1     -13.388  47.514 -16.759  1.00  0.00    -0.393 OA
HETATM   17  H35 UNL     1     -14.343  47.390 -16.897  1.00  0.00     0.210 HD
ENDBRANCH  13  16
BRANCH  14  18
HETATM   18  C25 UNL     1     -14.127  45.885 -19.014  1.00  0.00     0.007 C 
HETATM   19  C26 UNL     1     -14.182  46.635 -20.127  1.00  0.00    -0.001 C 
BRANCH  19  20
HETATM   20  C27 UNL     1     -15.422  46.923 -20.815  1.00  0.00    -0.000 C 
HETATM   21  C28 UNL     1     -16.258  45.966 -21.245  1.00  0.00     0.000 C 
BRANCH  21  22
HETATM   22  C29 UNL     1     -17.488  46.266 -21.947  1.00  0.00     0.007 C 
HETATM   23  C30 UNL     1     -18.676  46.595 -21.419  1.00  0.00     0.081 C 
BRANCH  23  24
HETATM   24  C31 UNL     1     -19.002  46.721 -19.990  1.00  0.00     0.165 C 
HETATM   25  O6  UNL     1     -18.827  47.667 -19.251  1.00  0.00    -0.647 OA
BRANCH  24  26
HETATM   26  O7  UNL     1     -19.562  45.579 -19.556  1.00  0.00    -0.773 OA
HETATM   27  H43 UNL     1     -19.735  45.752 -18.607  1.00  0.00     0.167 HD
ENDBRANCH  24  26
ENDBRANCH  23  24
ENDBRANCH  21  22
ENDBRANCH  19  20
ENDBRANCH  14  18
ENDBRANCH   9  11
ENDBRANCH   6   9
ENDBRANCH   4   6
ENDBRANCH   2   3
BRANCH   1  28
HETATM   28  C11 UNL     1      -6.752  48.101 -24.926  1.00  0.00     0.149 C 
BRANCH  28  29
HETATM   29  N1  UNL     1      -5.370  48.504 -24.899  1.00  0.00    -0.357 N 
HETATM   30  C10 UNL     1      -4.592  48.546 -26.028  1.00  0.00     0.227 C 
HETATM   31  O3  UNL     1      -5.005  48.207 -27.134  1.00  0.00    -0.273 OA
HETATM   32  H14 UNL     1      -5.021  49.003 -24.081  1.00  0.00     0.162 HD
BRANCH  30  33
HETATM   33  C8  UNL     1      -3.160  49.010 -25.784  1.00  0.00     0.136 C 
HETATM   34  C9  UNL     1      -2.209  48.300 -26.754  1.00  0.00     0.026 C 
BRANCH  33  35
HETATM   35  C7  UNL     1      -3.034  50.556 -25.788  1.00  0.00     0.176 C 
HETATM   36  O1  UNL     1      -2.230  50.889 -24.647  1.00  0.00    -0.344 OA
HETATM   37  C6  UNL     1      -1.683  52.205 -24.687  1.00  0.00     0.158 C 
HETATM   38  C34 UNL     1      -0.549  52.267 -25.755  1.00  0.00     0.008 C 
HETATM   39  C33 UNL     1      -0.948  51.383 -26.977  1.00  0.00     0.134 C 
HETATM   40  C35 UNL     1      -0.316  53.741 -26.150  1.00  0.00     0.020 C 
HETATM   41  C36 UNL     1       0.793  51.714 -25.218  1.00  0.00     0.020 C 
HETATM   42  C32 UNL     1      -2.454  51.160 -27.082  1.00  0.00     0.101 C 
BRANCH  37  43
HETATM   43  C5  UNL     1      -1.270  52.527 -23.276  1.00  0.00     0.006 C 
HETATM   44  C4  UNL     1      -0.451  51.770 -22.526  1.00  0.00    -0.002 C 
BRANCH  44  45
HETATM   45  C3  UNL     1      -0.057  52.147 -21.190  1.00  0.00    -0.005 C 
HETATM   46  C2  UNL     1       0.776  53.143 -20.853  1.00  0.00    -0.031 C 
HETATM   47  C1  UNL     1       1.512  54.087 -21.746  1.00  0.00     0.036 C 
ENDBRANCH  44  45
ENDBRANCH  37  43
BRANCH  39  48
HETATM   48  O9  UNL     1      -0.494  51.942 -28.210  1.00  0.00    -0.395 OA
HETATM   49  H47 UNL     1       0.479  51.891 -28.218  1.00  0.00     0.210 HD
ENDBRANCH  39  48
BRANCH  35  50
HETATM   50  O2  UNL     1      -4.350  51.079 -25.546  1.00  0.00    -0.364 OA
HETATM   51  H9  UNL     1      -4.343  52.018 -25.793  1.00  0.00     0.213 HD
ENDBRANCH  35  50
ENDBRANCH  33  35
ENDBRANCH  30  33
ENDBRANCH  28  29
ENDBRANCH   1  28
TORSDOF 19
ENDMDL
