MODEL 1
REMARK minimizedAffinity -8.87757301
REMARK CNNscore 0.652177095
REMARK CNNaffinity 7.20188379
REMARK  11 active torsions:
REMARK  status: ('A' for Active; 'I' for Inactive)
REMARK    1  A    between atoms: C2_2  and  O2_4 
REMARK    2  A    between atoms: O2_4  and  C3_5 
REMARK    3  A    between atoms: C4_6  and  O3_7 
REMARK    4  A    between atoms: O3_7  and  C5_8 
REMARK    5  A    between atoms: C15_18  and  C16_19 
REMARK    6  A    between atoms: C20_23  and  C21_24 
REMARK    7  A    between atoms: C21_24  and  O4_27 
REMARK    8  A    between atoms: C24_29  and  O6_30 
REMARK    9  A    between atoms: C30_36  and  O7_37 
REMARK   10  A    between atoms: C36_44  and  O9_45 
REMARK   11  A    between atoms: C37_46  and  O10_47 
ROOT
HETATM    1  C5  UNL     1      -1.907  51.067 -12.684  1.00  0.00     0.133 C 
HETATM    2  C6  UNL     1      -0.493  50.628 -12.282  1.00  0.00     0.034 C 
HETATM    3  C7  UNL     1       0.045  51.264 -11.012  1.00  0.00     0.013 C 
HETATM    4  C8  UNL     1      -0.242  52.754 -10.956  1.00  0.00    -0.025 A 
HETATM    5  C9  UNL     1       0.808  53.642 -11.582  1.00  0.00     0.021 A 
HETATM    6  C10 UNL     1       0.652  53.678 -10.072  1.00  0.00    -0.027 A 
HETATM    7  C11 UNL     1       1.787  52.989  -9.280  1.00  0.00     0.011 C 
HETATM    8  C12 UNL     1       2.467  53.718  -8.116  1.00  0.00     0.011 C 
HETATM    9  C13 UNL     1       2.169  55.210  -8.052  1.00  0.00    -0.028 C 
HETATM   10  C14 UNL     1       2.942  55.894  -9.203  1.00  0.00     0.016 C 
HETATM   11  C15 UNL     1       2.514  55.915  -6.694  1.00  0.00     0.057 C 
HETATM   12  C24 UNL     1       1.487  57.091  -6.614  1.00  0.00     0.126 C 
HETATM   13  C25 UNL     1       0.446  56.842  -7.723  1.00  0.00     0.042 C 
HETATM   14  C26 UNL     1       0.605  55.368  -8.121  1.00  0.00    -0.029 C 
HETATM   15  C27 UNL     1      -0.165  54.517  -7.069  1.00  0.00     0.016 C 
HETATM   16  C28 UNL     1       0.106  55.029  -9.549  1.00  0.00     0.006 C 
HETATM   17  C29 UNL     1      -1.408  55.236  -9.760  1.00  0.00     0.038 C 
HETATM   18  C30 UNL     1      -2.243  53.972  -9.987  1.00  0.00     0.124 C 
HETATM   19  C31 UNL     1      -1.715  53.142 -11.176  1.00  0.00     0.034 C 
HETATM   20  C32 UNL     1      -2.641  51.945 -11.618  1.00  0.00    -0.015 C 
HETATM   21  C33 UNL     1      -3.124  51.041 -10.456  1.00  0.00     0.018 C 
HETATM   22  C34 UNL     1      -3.934  52.527 -12.265  1.00  0.00     0.018 C 
ENDROOT
BRANCH   1  23
HETATM   23  O3  UNL     1      -1.833  51.814 -13.911  1.00  0.00    -0.352 OA
BRANCH  23  24
HETATM   24  C4  UNL     1      -1.851  51.002 -15.091  1.00  0.00     0.292 C 
HETATM   25  C3  UNL     1      -0.518  50.221 -15.139  1.00  0.00     0.218 C 
HETATM   26  C37 UNL     1      -0.553  49.155 -16.256  1.00  0.00     0.183 C 
HETATM   27  C36 UNL     1      -1.871  48.375 -16.290  1.00  0.00     0.173 C 
HETATM   28  C35 UNL     1      -3.058  49.326 -16.234  1.00  0.00     0.205 C 
HETATM   29  O8  UNL     1      -2.981  50.141 -15.071  1.00  0.00    -0.356 OA
BRANCH  25  30
HETATM   30  O2  UNL     1       0.518  51.215 -15.435  1.00  0.00    -0.309 OA
BRANCH  30  31
HETATM   31  C2  UNL     1       0.758  51.519 -16.733  1.00  0.00     0.255 C 
HETATM   32  C1  UNL     1       1.801  52.586 -16.823  1.00  0.00     0.126 C 
HETATM   33  O1  UNL     1       0.191  51.009 -17.690  1.00  0.00    -0.266 OA
ENDBRANCH  30  31
ENDBRANCH  25  30
BRANCH  26  34
HETATM   34  O10 UNL     1       0.513  48.188 -16.147  1.00  0.00    -0.390 OA
HETATM   35  H60 UNL     1       1.242  48.587 -15.631  1.00  0.00     0.210 HD
ENDBRANCH  26  34
BRANCH  27  36
HETATM   36  O9  UNL     1      -1.939  47.620 -17.504  1.00  0.00    -0.391 OA
HETATM   37  H58 UNL     1      -1.354  46.841 -17.374  1.00  0.00     0.210 HD
ENDBRANCH  27  36
ENDBRANCH  23  24
ENDBRANCH   1  23
BRANCH  18  38
HETATM   38  O7  UNL     1      -2.314  53.214  -8.787  1.00  0.00    -0.395 OA
HETATM   39  H47 UNL     1      -2.909  53.697  -8.195  1.00  0.00     0.210 HD
ENDBRANCH  18  38
BRANCH  11  40
HETATM   40  C16 UNL     1       3.982  56.210  -6.259  1.00  0.00     0.065 C 
HETATM   41  C17 UNL     1       4.241  56.538  -4.775  1.00  0.00     0.046 C 
HETATM   42  C18 UNL     1       4.635  57.280  -7.146  1.00  0.00     0.041 C 
HETATM   43  C19 UNL     1       6.100  56.911  -7.118  1.00  0.00     0.038 C 
HETATM   44  C20 UNL     1       6.085  55.383  -7.025  1.00  0.00     0.156 C 
HETATM   45  O5  UNL     1       4.753  55.013  -6.583  1.00  0.00    -0.372 OA
BRANCH  44  46
HETATM   46  C21 UNL     1       6.418  54.632  -8.343  1.00  0.00     0.076 C 
HETATM   47  C22 UNL     1       6.137  53.126  -8.245  1.00  0.00     0.048 C 
HETATM   48  C23 UNL     1       5.628  55.216  -9.524  1.00  0.00     0.048 C 
BRANCH  46  49
HETATM   49  O4  UNL     1       7.811  54.788  -8.646  1.00  0.00    -0.388 OA
HETATM   50  H35 UNL     1       7.959  55.754  -8.734  1.00  0.00     0.210 HD
ENDBRANCH  46  49
ENDBRANCH  44  46
ENDBRANCH  11  40
BRANCH  12  51
HETATM   51  O6  UNL     1       2.037  58.383  -6.796  1.00  0.00    -0.395 OA
HETATM   52  H37 UNL     1       1.376  59.045  -6.521  1.00  0.00     0.210 HD
ENDBRANCH  12  51
TORSDOF 11
ENDMDL
MODEL 2
REMARK minimizedAffinity -9.42967033
REMARK CNNscore 0.616948307
REMARK CNNaffinity 7.61540651
REMARK  11 active torsions:
REMARK  status: ('A' for Active; 'I' for Inactive)
REMARK    1  A    between atoms: C2_2  and  O2_4 
REMARK    2  A    between atoms: O2_4  and  C3_5 
REMARK    3  A    between atoms: C4_6  and  O3_7 
REMARK    4  A    between atoms: O3_7  and  C5_8 
REMARK    5  A    between atoms: C15_18  and  C16_19 
REMARK    6  A    between atoms: C20_23  and  C21_24 
REMARK    7  A    between atoms: C21_24  and  O4_27 
REMARK    8  A    between atoms: C24_29  and  O6_30 
REMARK    9  A    between atoms: C30_36  and  O7_37 
REMARK   10  A    between atoms: C36_44  and  O9_45 
REMARK   11  A    between atoms: C37_46  and  O10_47 
ROOT
HETATM    1  C5  UNL     1      -1.897  49.646 -21.672  1.00  0.00     0.133 C 
HETATM    2  C6  UNL     1      -0.486  49.406 -21.122  1.00  0.00     0.034 C 
HETATM    3  C7  UNL     1      -0.414  49.101 -19.635  1.00  0.00     0.013 C 
HETATM    4  C8  UNL     1      -1.309  50.019 -18.822  1.00  0.00    -0.025 A 
HETATM    5  C9  UNL     1      -0.671  51.309 -18.364  1.00  0.00     0.021 A 
HETATM    6  C10 UNL     1      -0.996  50.262 -17.312  1.00  0.00    -0.027 A 
HETATM    7  C11 UNL     1       0.227  49.516 -16.733  1.00  0.00     0.011 C 
HETATM    8  C12 UNL     1       0.399  49.382 -15.215  1.00  0.00     0.011 C 
HETATM    9  C13 UNL     1      -0.508  50.294 -14.399  1.00  0.00    -0.028 C 
HETATM   10  C14 UNL     1       0.026  51.737 -14.540  1.00  0.00     0.016 C 
HETATM   11  C15 UNL     1      -0.649  49.930 -12.880  1.00  0.00     0.057 C 
HETATM   12  C24 UNL     1      -2.079  50.440 -12.507  1.00  0.00     0.126 C 
HETATM   13  C25 UNL     1      -2.785  50.780 -13.833  1.00  0.00     0.042 C 
HETATM   14  C26 UNL     1      -1.973  50.076 -14.931  1.00  0.00    -0.029 C 
HETATM   15  C27 UNL     1      -2.424  48.586 -14.958  1.00  0.00     0.016 C 
HETATM   16  C28 UNL     1      -2.117  50.703 -16.341  1.00  0.00     0.006 C 
HETATM   17  C29 UNL     1      -3.543  50.630 -16.927  1.00  0.00     0.038 C 
HETATM   18  C30 UNL     1      -3.733  49.716 -18.142  1.00  0.00     0.124 C 
HETATM   19  C31 UNL     1      -2.773  50.086 -19.293  1.00  0.00     0.034 C 
HETATM   20  C32 UNL     1      -3.049  49.344 -20.657  1.00  0.00    -0.015 C 
HETATM   21  C33 UNL     1      -3.231  47.811 -20.531  1.00  0.00     0.018 C 
HETATM   22  C34 UNL     1      -4.385  49.880 -21.254  1.00  0.00     0.018 C 
ENDROOT
BRANCH   1  23
HETATM   23  O3  UNL     1      -2.010  51.019 -22.087  1.00  0.00    -0.352 OA
BRANCH  23  24
HETATM   24  C4  UNL     1      -1.241  51.341 -23.252  1.00  0.00     0.292 C 
HETATM   25  C3  UNL     1      -2.230  51.784 -24.354  1.00  0.00     0.218 C 
HETATM   26  C37 UNL     1      -1.467  52.363 -25.566  1.00  0.00     0.183 C 
HETATM   27  C36 UNL     1      -0.338  53.314 -25.157  1.00  0.00     0.173 C 
HETATM   28  C35 UNL     1       0.517  52.691 -24.062  1.00  0.00     0.205 C 
HETATM   29  O8  UNL     1      -0.290  52.350 -22.942  1.00  0.00    -0.356 OA
BRANCH  25  30
HETATM   30  O2  UNL     1      -2.951  50.573 -24.755  1.00  0.00    -0.309 OA
BRANCH  30  31
HETATM   31  C2  UNL     1      -2.400  49.790 -25.714  1.00  0.00     0.255 C 
HETATM   32  C1  UNL     1      -3.173  48.517 -25.841  1.00  0.00     0.126 C 
HETATM   33  O1  UNL     1      -1.405  50.075 -26.366  1.00  0.00    -0.266 OA
ENDBRANCH  30  31
ENDBRANCH  25  30
BRANCH  26  34
HETATM   34  O10 UNL     1      -2.322  53.083 -26.479  1.00  0.00    -0.390 OA
HETATM   35  H60 UNL     1      -3.240  52.766 -26.361  1.00  0.00     0.210 HD
ENDBRANCH  26  34
BRANCH  27  36
HETATM   36  O9  UNL     1       0.488  53.581 -26.295  1.00  0.00    -0.391 OA
HETATM   37  H58 UNL     1      -0.007  54.227 -26.845  1.00  0.00     0.210 HD
ENDBRANCH  27  36
ENDBRANCH  23  24
ENDBRANCH   1  23
BRANCH  18  38
HETATM   38  O7  UNL     1      -3.611  48.355 -17.752  1.00  0.00    -0.395 OA
HETATM   39  H47 UNL     1      -4.416  48.140 -17.260  1.00  0.00     0.210 HD
ENDBRANCH  18  38
BRANCH  11  40
HETATM   40  C16 UNL     1       0.497  50.184 -11.854  1.00  0.00     0.065 C 
HETATM   41  C17 UNL     1       0.180  49.990 -10.358  1.00  0.00     0.046 C 
HETATM   42  C18 UNL     1       1.160  51.554 -12.068  1.00  0.00     0.041 C 
HETATM   43  C19 UNL     1       2.578  51.332 -11.595  1.00  0.00     0.038 C 
HETATM   44  C20 UNL     1       2.860  49.876 -11.970  1.00  0.00     0.156 C 
HETATM   45  O5  UNL     1       1.569  49.254 -12.198  1.00  0.00    -0.372 OA
BRANCH  44  46
HETATM   46  C21 UNL     1       3.758  49.671 -13.220  1.00  0.00     0.076 C 
HETATM   47  C22 UNL     1       3.445  48.361 -13.957  1.00  0.00     0.048 C 
HETATM   48  C23 UNL     1       3.615  50.846 -14.199  1.00  0.00     0.048 C 
BRANCH  46  49
HETATM   49  O4  UNL     1       5.135  49.618 -12.820  1.00  0.00    -0.388 OA
HETATM   50  H35 UNL     1       5.318  50.476 -12.380  1.00  0.00     0.210 HD
ENDBRANCH  46  49
ENDBRANCH  44  46
ENDBRANCH  11  40
BRANCH  12  51
HETATM   51  O6  UNL     1      -2.111  51.583 -11.674  1.00  0.00    -0.395 OA
HETATM   52  H37 UNL     1      -3.017  51.693 -11.329  1.00  0.00     0.210 HD
ENDBRANCH  12  51
TORSDOF 11
ENDMDL
MODEL 3
REMARK minimizedAffinity -8.91513824
REMARK CNNscore 0.444001824
REMARK CNNaffinity 7.48027658
REMARK  11 active torsions:
REMARK  status: ('A' for Active; 'I' for Inactive)
REMARK    1  A    between atoms: C2_2  and  O2_4 
REMARK    2  A    between atoms: O2_4  and  C3_5 
REMARK    3  A    between atoms: C4_6  and  O3_7 
REMARK    4  A    between atoms: O3_7  and  C5_8 
REMARK    5  A    between atoms: C15_18  and  C16_19 
REMARK    6  A    between atoms: C20_23  and  C21_24 
REMARK    7  A    between atoms: C21_24  and  O4_27 
REMARK    8  A    between atoms: C24_29  and  O6_30 
REMARK    9  A    between atoms: C30_36  and  O7_37 
REMARK   10  A    between atoms: C36_44  and  O9_45 
REMARK   11  A    between atoms: C37_46  and  O10_47 
ROOT
HETATM    1  C5  UNL     1      -2.222  49.588 -21.584  1.00  0.00     0.133 C 
HETATM    2  C6  UNL     1      -0.777  49.296 -21.162  1.00  0.00     0.034 C 
HETATM    3  C7  UNL     1      -0.583  48.989 -19.687  1.00  0.00     0.013 C 
HETATM    4  C8  UNL     1      -1.368  49.939 -18.800  1.00  0.00    -0.025 A 
HETATM    5  C9  UNL     1      -0.645  51.205 -18.405  1.00  0.00     0.021 A 
HETATM    6  C10 UNL     1      -0.912  50.170 -17.325  1.00  0.00    -0.027 A 
HETATM    7  C11 UNL     1       0.330  49.380 -16.855  1.00  0.00     0.011 C 
HETATM    8  C12 UNL     1       0.632  49.240 -15.358  1.00  0.00     0.011 C 
HETATM    9  C13 UNL     1      -0.165  50.184 -14.467  1.00  0.00    -0.028 C 
HETATM   10  C14 UNL     1       0.407  51.606 -14.660  1.00  0.00     0.016 C 
HETATM   11  C15 UNL     1      -0.182  49.825 -12.941  1.00  0.00     0.057 C 
HETATM   12  C24 UNL     1      -1.554  50.387 -12.443  1.00  0.00     0.126 C 
HETATM   13  C25 UNL     1      -2.363  50.753 -13.702  1.00  0.00     0.042 C 
HETATM   14  C26 UNL     1      -1.678  50.020 -14.865  1.00  0.00    -0.029 C 
HETATM   15  C27 UNL     1      -2.184  48.548 -14.847  1.00  0.00     0.016 C 
HETATM   16  C28 UNL     1      -1.925  50.652 -16.259  1.00  0.00     0.006 C 
HETATM   17  C29 UNL     1      -3.399  50.631 -16.715  1.00  0.00     0.038 C 
HETATM   18  C30 UNL     1      -3.731  49.725 -17.905  1.00  0.00     0.124 C 
HETATM   19  C31 UNL     1      -2.865  50.059 -19.138  1.00  0.00     0.034 C 
HETATM   20  C32 UNL     1      -3.288  49.329 -20.470  1.00  0.00    -0.015 C 
HETATM   21  C33 UNL     1      -3.514  47.803 -20.323  1.00  0.00     0.018 C 
HETATM   22  C34 UNL     1      -4.652  49.913 -20.947  1.00  0.00     0.018 C 
ENDROOT
BRANCH   1  23
HETATM   23  O3  UNL     1      -2.321  50.965 -21.992  1.00  0.00    -0.352 OA
BRANCH  23  24
HETATM   24  C4  UNL     1      -1.485  51.305 -23.105  1.00  0.00     0.292 C 
HETATM   25  C3  UNL     1      -2.409  51.741 -24.265  1.00  0.00     0.218 C 
HETATM   26  C37 UNL     1      -1.580  52.339 -25.422  1.00  0.00     0.183 C 
HETATM   27  C36 UNL     1      -0.492  53.303 -24.938  1.00  0.00     0.173 C 
HETATM   28  C35 UNL     1       0.301  52.684 -23.795  1.00  0.00     0.205 C 
HETATM   29  O8  UNL     1      -0.570  52.324 -22.730  1.00  0.00    -0.356 OA
BRANCH  25  30
HETATM   30  O2  UNL     1      -3.086  50.523 -24.717  1.00  0.00    -0.309 OA
BRANCH  30  31
HETATM   31  C2  UNL     1      -2.474  49.764 -25.658  1.00  0.00     0.255 C 
HETATM   32  C1  UNL     1      -3.282  48.537 -25.930  1.00  0.00     0.126 C 
HETATM   33  O1  UNL     1      -1.407  50.035 -26.192  1.00  0.00    -0.266 OA
ENDBRANCH  30  31
ENDBRANCH  25  30
BRANCH  26  34
HETATM   34  O10 UNL     1      -2.386  53.053 -26.383  1.00  0.00    -0.390 OA
HETATM   35  H60 UNL     1      -3.305  52.722 -26.325  1.00  0.00     0.210 HD
ENDBRANCH  26  34
BRANCH  27  36
HETATM   36  O9  UNL     1       0.400  53.588 -26.021  1.00  0.00    -0.391 OA
HETATM   37  H58 UNL     1      -0.069  54.232 -26.597  1.00  0.00     0.210 HD
ENDBRANCH  27  36
ENDBRANCH  23  24
ENDBRANCH   1  23
BRANCH  18  38
HETATM   38  O7  UNL     1      -3.624  48.360 -17.523  1.00  0.00    -0.395 OA
HETATM   39  H47 UNL     1      -4.389  48.175 -16.961  1.00  0.00     0.210 HD
ENDBRANCH  18  38
BRANCH  11  40
HETATM   40  C16 UNL     1       1.059  50.038 -12.022  1.00  0.00     0.065 C 
HETATM   41  C17 UNL     1       2.385  49.368 -12.435  1.00  0.00     0.046 C 
HETATM   42  C18 UNL     1       0.747  49.702 -10.556  1.00  0.00     0.041 C 
HETATM   43  C19 UNL     1       1.674  50.613  -9.784  1.00  0.00     0.038 C 
HETATM   44  C20 UNL     1       1.758  51.866 -10.658  1.00  0.00     0.156 C 
HETATM   45  O5  UNL     1       1.293  51.479 -11.977  1.00  0.00    -0.372 OA
BRANCH  44  46
HETATM   46  C21 UNL     1       0.932  53.083 -10.158  1.00  0.00     0.076 C 
HETATM   47  C22 UNL     1       1.722  53.963  -9.178  1.00  0.00     0.048 C 
HETATM   48  C23 UNL     1       0.454  53.945 -11.336  1.00  0.00     0.048 C 
BRANCH  46  49
HETATM   49  O4  UNL     1      -0.238  52.620  -9.470  1.00  0.00    -0.388 OA
HETATM   50  H35 UNL     1      -0.740  52.088 -10.124  1.00  0.00     0.210 HD
ENDBRANCH  46  49
ENDBRANCH  44  46
ENDBRANCH  11  40
BRANCH  12  51
HETATM   51  O6  UNL     1      -1.469  51.531 -11.614  1.00  0.00    -0.395 OA
HETATM   52  H37 UNL     1      -2.336  51.674 -11.189  1.00  0.00     0.210 HD
ENDBRANCH  12  51
TORSDOF 11
ENDMDL
MODEL 4
REMARK minimizedAffinity -8.79427433
REMARK CNNscore 0.409844995
REMARK CNNaffinity 6.62000513
REMARK  11 active torsions:
REMARK  status: ('A' for Active; 'I' for Inactive)
REMARK    1  A    between atoms: C2_2  and  O2_4 
REMARK    2  A    between atoms: O2_4  and  C3_5 
REMARK    3  A    between atoms: C4_6  and  O3_7 
REMARK    4  A    between atoms: O3_7  and  C5_8 
REMARK    5  A    between atoms: C15_18  and  C16_19 
REMARK    6  A    between atoms: C20_23  and  C21_24 
REMARK    7  A    between atoms: C21_24  and  O4_27 
REMARK    8  A    between atoms: C24_29  and  O6_30 
REMARK    9  A    between atoms: C30_36  and  O7_37 
REMARK   10  A    between atoms: C36_44  and  O9_45 
REMARK   11  A    between atoms: C37_46  and  O10_47 
ROOT
HETATM    1  C5  UNL     1     -13.969  45.924 -24.348  1.00  0.00     0.133 C 
HETATM    2  C6  UNL     1     -14.235  45.787 -25.852  1.00  0.00     0.034 C 
HETATM    3  C7  UNL     1     -12.998  45.596 -26.713  1.00  0.00     0.013 C 
HETATM    4  C8  UNL     1     -11.873  46.532 -26.308  1.00  0.00    -0.025 A 
HETATM    5  C9  UNL     1     -11.870  47.879 -26.991  1.00  0.00     0.021 A 
HETATM    6  C10 UNL     1     -10.765  46.899 -27.344  1.00  0.00    -0.027 A 
HETATM    7  C11 UNL     1     -10.886  46.252 -28.742  1.00  0.00     0.011 C 
HETATM    8  C12 UNL     1      -9.682  46.239 -29.692  1.00  0.00     0.011 C 
HETATM    9  C13 UNL     1      -8.548  47.167 -29.278  1.00  0.00    -0.028 C 
HETATM   10  C14 UNL     1      -9.007  48.618 -29.549  1.00  0.00     0.016 C 
HETATM   11  C15 UNL     1      -7.170  46.911 -29.980  1.00  0.00     0.057 C 
HETATM   12  C24 UNL     1      -6.120  47.384 -28.922  1.00  0.00     0.126 C 
HETATM   13  C25 UNL     1      -6.889  47.594 -27.603  1.00  0.00     0.042 C 
HETATM   14  C26 UNL     1      -8.220  46.847 -27.773  1.00  0.00    -0.029 C 
HETATM   15  C27 UNL     1      -7.947  45.341 -27.489  1.00  0.00     0.016 C 
HETATM   16  C28 UNL     1      -9.367  47.361 -26.866  1.00  0.00     0.006 C 
HETATM   17  C29 UNL     1      -9.112  47.182 -25.355  1.00  0.00     0.038 C 
HETATM   18  C30 UNL     1     -10.008  46.174 -24.628  1.00  0.00     0.124 C 
HETATM   19  C31 UNL     1     -11.505  46.499 -24.813  1.00  0.00     0.034 C 
HETATM   20  C32 UNL     1     -12.489  45.648 -23.923  1.00  0.00    -0.015 C 
HETATM   21  C33 UNL     1     -12.225  44.122 -23.951  1.00  0.00     0.018 C 
HETATM   22  C34 UNL     1     -12.314  46.079 -22.435  1.00  0.00     0.018 C 
ENDROOT
BRANCH   1  23
HETATM   23  O3  UNL     1     -14.317  47.256 -23.931  1.00  0.00    -0.352 OA
BRANCH  23  24
HETATM   24  C4  UNL     1     -15.327  47.305 -22.916  1.00  0.00     0.292 C 
HETATM   25  C3  UNL     1     -16.506  46.423 -23.391  1.00  0.00     0.218 C 
HETATM   26  C37 UNL     1     -17.537  46.240 -22.256  1.00  0.00     0.183 C 
HETATM   27  C36 UNL     1     -16.884  45.940 -20.903  1.00  0.00     0.173 C 
HETATM   28  C35 UNL     1     -15.750  46.917 -20.627  1.00  0.00     0.205 C 
HETATM   29  O8  UNL     1     -14.791  46.867 -21.676  1.00  0.00    -0.356 OA
BRANCH  25  30
HETATM   30  O2  UNL     1     -17.120  47.146 -24.508  1.00  0.00    -0.309 OA
BRANCH  30  31
HETATM   31  C2  UNL     1     -18.220  46.608 -25.087  1.00  0.00     0.255 C 
HETATM   32  C1  UNL     1     -17.833  45.433 -25.927  1.00  0.00     0.126 C 
HETATM   33  O1  UNL     1     -19.361  47.032 -24.957  1.00  0.00    -0.266 OA
ENDBRANCH  30  31
ENDBRANCH  25  30
BRANCH  26  34
HETATM   34  O10 UNL     1     -18.482  45.182 -22.519  1.00  0.00    -0.390 OA
HETATM   35  H60 UNL     1     -18.523  45.035 -23.485  1.00  0.00     0.210 HD
ENDBRANCH  26  34
BRANCH  27  36
HETATM   36  O9  UNL     1     -17.866  46.064 -19.869  1.00  0.00    -0.391 OA
HETATM   37  H58 UNL     1     -18.411  45.248 -19.912  1.00  0.00     0.210 HD
ENDBRANCH  27  36
ENDBRANCH  23  24
ENDBRANCH   1  23
BRANCH  18  38
HETATM   38  O7  UNL     1      -9.686  44.852 -25.039  1.00  0.00    -0.395 OA
HETATM   39  H47 UNL     1      -8.836  44.639 -24.629  1.00  0.00     0.210 HD
ENDBRANCH  18  38
BRANCH  11  40
HETATM   40  C16 UNL     1      -6.911  47.291 -31.470  1.00  0.00     0.065 C 
HETATM   41  C17 UNL     1      -5.559  47.944 -31.822  1.00  0.00     0.046 C 
HETATM   42  C18 UNL     1      -8.058  48.131 -32.051  1.00  0.00     0.041 C 
HETATM   43  C19 UNL     1      -8.044  47.771 -33.520  1.00  0.00     0.038 C 
HETATM   44  C20 UNL     1      -7.609  46.304 -33.527  1.00  0.00     0.156 C 
HETATM   45  O5  UNL     1      -7.007  46.048 -32.232  1.00  0.00    -0.372 OA
BRANCH  44  46
HETATM   46  C21 UNL     1      -8.743  45.274 -33.781  1.00  0.00     0.076 C 
HETATM   47  C22 UNL     1      -8.833  44.218 -32.670  1.00  0.00     0.048 C 
HETATM   48  C23 UNL     1     -10.102  45.975 -33.922  1.00  0.00     0.048 C 
BRANCH  46  49
HETATM   49  O4  UNL     1      -8.495  44.579 -35.011  1.00  0.00    -0.388 OA
HETATM   50  H35 UNL     1      -8.472  45.270 -35.709  1.00  0.00     0.210 HD
ENDBRANCH  46  49
ENDBRANCH  44  46
ENDBRANCH  11  40
BRANCH  12  51
HETATM   51  O6  UNL     1      -5.441  48.584 -29.243  1.00  0.00    -0.395 OA
HETATM   52  H37 UNL     1      -4.676  48.678 -28.646  1.00  0.00     0.210 HD
ENDBRANCH  12  51
TORSDOF 11
ENDMDL
MODEL 5
REMARK minimizedAffinity -9.20168877
REMARK CNNscore 0.356825918
REMARK CNNaffinity 6.51035452
REMARK  11 active torsions:
REMARK  status: ('A' for Active; 'I' for Inactive)
REMARK    1  A    between atoms: C2_2  and  O2_4 
REMARK    2  A    between atoms: O2_4  and  C3_5 
REMARK    3  A    between atoms: C4_6  and  O3_7 
REMARK    4  A    between atoms: O3_7  and  C5_8 
REMARK    5  A    between atoms: C15_18  and  C16_19 
REMARK    6  A    between atoms: C20_23  and  C21_24 
REMARK    7  A    between atoms: C21_24  and  O4_27 
REMARK    8  A    between atoms: C24_29  and  O6_30 
REMARK    9  A    between atoms: C30_36  and  O7_37 
REMARK   10  A    between atoms: C36_44  and  O9_45 
REMARK   11  A    between atoms: C37_46  and  O10_47 
ROOT
HETATM    1  C5  UNL     1      -0.316  50.427 -18.471  1.00  0.00     0.133 C 
HETATM    2  C6  UNL     1      -0.892  49.025 -18.237  1.00  0.00     0.034 C 
HETATM    3  C7  UNL     1      -1.774  48.493 -19.355  1.00  0.00     0.013 C 
HETATM    4  C8  UNL     1      -2.741  49.546 -19.866  1.00  0.00    -0.025 A 
HETATM    5  C9  UNL     1      -4.069  49.610 -19.149  1.00  0.00     0.021 A 
HETATM    6  C10 UNL     1      -4.056  49.102 -20.580  1.00  0.00    -0.027 A 
HETATM    7  C11 UNL     1      -4.277  47.580 -20.735  1.00  0.00     0.011 C 
HETATM    8  C12 UNL     1      -5.317  47.050 -21.730  1.00  0.00     0.011 C 
HETATM    9  C13 UNL     1      -6.279  48.108 -22.253  1.00  0.00    -0.028 C 
HETATM   10  C14 UNL     1      -7.253  48.464 -21.107  1.00  0.00     0.016 C 
HETATM   11  C15 UNL     1      -7.093  47.713 -23.533  1.00  0.00     0.057 C 
HETATM   12  C24 UNL     1      -7.350  49.080 -24.247  1.00  0.00     0.126 C 
HETATM   13  C25 UNL     1      -6.453  50.118 -23.545  1.00  0.00     0.042 C 
HETATM   14  C26 UNL     1      -5.403  49.307 -22.772  1.00  0.00    -0.029 C 
HETATM   15  C27 UNL     1      -4.298  48.893 -23.787  1.00  0.00     0.016 C 
HETATM   16  C28 UNL     1      -4.770  50.053 -21.570  1.00  0.00     0.006 C 
HETATM   17  C29 UNL     1      -3.959  51.308 -21.955  1.00  0.00     0.038 C 
HETATM   18  C30 UNL     1      -2.445  51.234 -21.734  1.00  0.00     0.124 C 
HETATM   19  C31 UNL     1      -2.095  50.882 -20.273  1.00  0.00     0.034 C 
HETATM   20  C32 UNL     1      -0.566  51.001 -19.904  1.00  0.00    -0.015 C 
HETATM   21  C33 UNL     1       0.393  50.311 -20.906  1.00  0.00     0.018 C 
HETATM   22  C34 UNL     1      -0.168  52.508 -19.909  1.00  0.00     0.018 C 
ENDROOT
BRANCH   1  23
HETATM   23  O3  UNL     1      -0.892  51.335 -17.515  1.00  0.00    -0.352 OA
BRANCH  23  24
HETATM   24  C4  UNL     1      -0.789  50.893 -16.156  1.00  0.00     0.292 C 
HETATM   25  C3  UNL     1       0.311  51.738 -15.474  1.00  0.00     0.218 C 
HETATM   26  C37 UNL     1       0.327  51.480 -13.951  1.00  0.00     0.183 C 
HETATM   27  C36 UNL     1      -1.077  51.457 -13.338  1.00  0.00     0.173 C 
HETATM   28  C35 UNL     1      -2.005  50.571 -14.159  1.00  0.00     0.205 C 
HETATM   29  O8  UNL     1      -2.047  51.019 -15.508  1.00  0.00    -0.356 OA
BRANCH  25  30
HETATM   30  O2  UNL     1       1.578  51.296 -16.064  1.00  0.00    -0.309 OA
BRANCH  30  31
HETATM   31  C2  UNL     1       2.420  52.240 -16.549  1.00  0.00     0.255 C 
HETATM   32  C1  UNL     1       3.665  52.287 -15.723  1.00  0.00     0.126 C 
HETATM   33  O1  UNL     1       2.187  52.961 -17.510  1.00  0.00    -0.266 OA
ENDBRANCH  30  31
ENDBRANCH  25  30
BRANCH  26  34
HETATM   34  O10 UNL     1       1.095  52.459 -13.221  1.00  0.00    -0.390 OA
HETATM   35  H60 UNL     1       1.740  52.866 -13.833  1.00  0.00     0.210 HD
ENDBRANCH  26  34
BRANCH  27  36
HETATM   36  O9  UNL     1      -1.001  50.940 -12.006  1.00  0.00    -0.391 OA
HETATM   37  H58 UNL     1      -0.650  51.670 -11.450  1.00  0.00     0.210 HD
ENDBRANCH  27  36
ENDBRANCH  23  24
ENDBRANCH   1  23
BRANCH  18  38
HETATM   38  O7  UNL     1      -1.861  50.330 -22.663  1.00  0.00    -0.395 OA
HETATM   39  H47 UNL     1      -1.878  50.774 -23.522  1.00  0.00     0.210 HD
ENDBRANCH  18  38
BRANCH  11  40
HETATM   40  C16 UNL     1      -8.271  46.692 -23.489  1.00  0.00     0.065 C 
HETATM   41  C17 UNL     1      -9.375  46.912 -22.436  1.00  0.00     0.046 C 
HETATM   42  C18 UNL     1      -7.767  45.243 -23.413  1.00  0.00     0.041 C 
HETATM   43  C19 UNL     1      -8.857  44.458 -24.106  1.00  0.00     0.038 C 
HETATM   44  C20 UNL     1      -9.362  45.418 -25.185  1.00  0.00     0.156 C 
HETATM   45  O5  UNL     1      -8.905  46.741 -24.803  1.00  0.00    -0.372 OA
BRANCH  44  46
HETATM   46  C21 UNL     1      -8.886  45.107 -26.631  1.00  0.00     0.076 C 
HETATM   47  C22 UNL     1      -7.950  46.190 -27.185  1.00  0.00     0.048 C 
HETATM   48  C23 UNL     1      -8.177  43.746 -26.695  1.00  0.00     0.048 C 
BRANCH  46  49
HETATM   49  O4  UNL     1     -10.021  45.035 -27.505  1.00  0.00    -0.388 OA
HETATM   50  H35 UNL     1     -10.588  44.317 -27.149  1.00  0.00     0.210 HD
ENDBRANCH  46  49
ENDBRANCH  44  46
ENDBRANCH  11  40
BRANCH  12  51
HETATM   51  O6  UNL     1      -8.688  49.539 -24.204  1.00  0.00    -0.395 OA
HETATM   52  H37 UNL     1      -8.788  50.269 -24.844  1.00  0.00     0.210 HD
ENDBRANCH  12  51
TORSDOF 11
ENDMDL
MODEL 6
REMARK minimizedAffinity -8.76437092
REMARK CNNscore 0.345323682
REMARK CNNaffinity 6.7156601
REMARK  11 active torsions:
REMARK  status: ('A' for Active; 'I' for Inactive)
REMARK    1  A    between atoms: C2_2  and  O2_4 
REMARK    2  A    between atoms: O2_4  and  C3_5 
REMARK    3  A    between atoms: C4_6  and  O3_7 
REMARK    4  A    between atoms: O3_7  and  C5_8 
REMARK    5  A    between atoms: C15_18  and  C16_19 
REMARK    6  A    between atoms: C20_23  and  C21_24 
REMARK    7  A    between atoms: C21_24  and  O4_27 
REMARK    8  A    between atoms: C24_29  and  O6_30 
REMARK    9  A    between atoms: C30_36  and  O7_37 
REMARK   10  A    between atoms: C36_44  and  O9_45 
REMARK   11  A    between atoms: C37_46  and  O10_47 
ROOT
HETATM    1  C5  UNL     1      -2.680  50.285 -24.355  1.00  0.00     0.133 C 
HETATM    2  C6  UNL     1      -2.933  48.781 -24.515  1.00  0.00     0.034 C 
HETATM    3  C7  UNL     1      -4.107  48.234 -23.720  1.00  0.00     0.013 C 
HETATM    4  C8  UNL     1      -4.137  48.778 -22.303  1.00  0.00    -0.025 A 
HETATM    5  C9  UNL     1      -3.360  47.979 -21.283  1.00  0.00     0.021 A 
HETATM    6  C10 UNL     1      -4.875  47.977 -21.185  1.00  0.00    -0.027 A 
HETATM    7  C11 UNL     1      -5.557  46.658 -21.617  1.00  0.00     0.011 C 
HETATM    8  C12 UNL     1      -6.605  46.001 -20.712  1.00  0.00     0.011 C 
HETATM    9  C13 UNL     1      -6.645  46.555 -19.294  1.00  0.00    -0.028 C 
HETATM   10  C14 UNL     1      -5.387  46.046 -18.555  1.00  0.00     0.016 C 
HETATM   11  C15 UNL     1      -7.925  46.201 -18.461  1.00  0.00     0.057 C 
HETATM   12  C24 UNL     1      -8.077  47.409 -17.481  1.00  0.00     0.126 C 
HETATM   13  C25 UNL     1      -7.107  48.500 -17.973  1.00  0.00     0.042 C 
HETATM   14  C26 UNL     1      -6.751  48.120 -19.418  1.00  0.00    -0.029 C 
HETATM   15  C27 UNL     1      -7.917  48.608 -20.327  1.00  0.00     0.016 C 
HETATM   16  C28 UNL     1      -5.405  48.699 -19.923  1.00  0.00     0.006 C 
HETATM   17  C29 UNL     1      -5.362  50.240 -19.997  1.00  0.00     0.038 C 
HETATM   18  C30 UNL     1      -5.282  50.852 -21.399  1.00  0.00     0.124 C 
HETATM   19  C31 UNL     1      -4.074  50.312 -22.193  1.00  0.00     0.034 C 
HETATM   20  C32 UNL     1      -3.788  51.048 -23.558  1.00  0.00    -0.015 C 
HETATM   21  C33 UNL     1      -5.033  51.232 -24.462  1.00  0.00     0.018 C 
HETATM   22  C34 UNL     1      -3.273  52.486 -23.250  1.00  0.00     0.018 C 
ENDROOT
BRANCH   1  23
HETATM   23  O3  UNL     1      -1.424  50.479 -23.680  1.00  0.00    -0.352 OA
BRANCH  23  24
HETATM   24  C4  UNL     1      -0.990  51.844 -23.638  1.00  0.00     0.292 C 
HETATM   25  C3  UNL     1      -0.047  51.995 -22.422  1.00  0.00     0.218 C 
HETATM   26  C37 UNL     1       0.642  53.377 -22.440  1.00  0.00     0.183 C 
HETATM   27  C36 UNL     1       1.155  53.768 -23.829  1.00  0.00     0.173 C 
HETATM   28  C35 UNL     1       0.077  53.543 -24.881  1.00  0.00     0.205 C 
HETATM   29  O8  UNL     1      -0.355  52.188 -24.861  1.00  0.00    -0.356 OA
BRANCH  25  30
HETATM   30  O2  UNL     1      -0.901  51.882 -21.237  1.00  0.00    -0.309 OA
BRANCH  30  31
HETATM   31  C2  UNL     1      -0.413  51.222 -20.159  1.00  0.00     0.255 C 
HETATM   32  C1  UNL     1      -0.366  49.754 -20.436  1.00  0.00     0.126 C 
HETATM   33  O1  UNL     1      -0.076  51.749 -19.107  1.00  0.00    -0.266 OA
ENDBRANCH  30  31
ENDBRANCH  25  30
BRANCH  26  34
HETATM   34  O10 UNL     1       1.761  53.461 -21.533  1.00  0.00    -0.390 OA
HETATM   35  H60 UNL     1       1.648  52.783 -20.837  1.00  0.00     0.210 HD
ENDBRANCH  26  34
BRANCH  27  36
HETATM   36  O9  UNL     1       1.518  55.153 -23.825  1.00  0.00    -0.391 OA
HETATM   37  H58 UNL     1       2.386  55.206 -23.369  1.00  0.00     0.210 HD
ENDBRANCH  27  36
ENDBRANCH  23  24
ENDBRANCH   1  23
BRANCH  18  38
HETATM   38  O7  UNL     1      -6.512  50.656 -22.086  1.00  0.00    -0.395 OA
HETATM   39  H47 UNL     1      -7.148  51.261 -21.681  1.00  0.00     0.210 HD
ENDBRANCH  18  38
BRANCH  11  40
HETATM   40  C16 UNL     1      -8.176  44.773 -17.888  1.00  0.00     0.065 C 
HETATM   41  C17 UNL     1      -6.979  44.024 -17.271  1.00  0.00     0.046 C 
HETATM   42  C18 UNL     1      -8.883  43.866 -18.907  1.00  0.00     0.041 C 
HETATM   43  C19 UNL     1      -9.674  42.915 -18.038  1.00  0.00     0.038 C 
HETATM   44  C20 UNL     1     -10.067  43.772 -16.832  1.00  0.00     0.156 C 
HETATM   45  O5  UNL     1      -9.184  44.923 -16.842  1.00  0.00    -0.372 OA
BRANCH  44  46
HETATM   46  C21 UNL     1     -11.543  44.255 -16.810  1.00  0.00     0.076 C 
HETATM   47  C22 UNL     1     -12.268  43.859 -15.516  1.00  0.00     0.048 C 
HETATM   48  C23 UNL     1     -11.626  45.778 -16.989  1.00  0.00     0.048 C 
BRANCH  46  49
HETATM   49  O4  UNL     1     -12.260  43.660 -17.901  1.00  0.00    -0.388 OA
HETATM   50  H35 UNL     1     -11.797  43.952 -18.716  1.00  0.00     0.210 HD
ENDBRANCH  46  49
ENDBRANCH  44  46
ENDBRANCH  11  40
BRANCH  12  51
HETATM   51  O6  UNL     1      -7.783  47.125 -16.126  1.00  0.00    -0.395 OA
HETATM   52  H37 UNL     1      -8.107  47.862 -15.575  1.00  0.00     0.210 HD
ENDBRANCH  12  51
TORSDOF 11
ENDMDL
MODEL 7
REMARK minimizedAffinity -9.22786713
REMARK CNNscore 0.3428137
REMARK CNNaffinity 7.02819443
REMARK  11 active torsions:
REMARK  status: ('A' for Active; 'I' for Inactive)
REMARK    1  A    between atoms: C2_2  and  O2_4 
REMARK    2  A    between atoms: O2_4  and  C3_5 
REMARK    3  A    between atoms: C4_6  and  O3_7 
REMARK    4  A    between atoms: O3_7  and  C5_8 
REMARK    5  A    between atoms: C15_18  and  C16_19 
REMARK    6  A    between atoms: C20_23  and  C21_24 
REMARK    7  A    between atoms: C21_24  and  O4_27 
REMARK    8  A    between atoms: C24_29  and  O6_30 
REMARK    9  A    between atoms: C30_36  and  O7_37 
REMARK   10  A    between atoms: C36_44  and  O9_45 
REMARK   11  A    between atoms: C37_46  and  O10_47 
ROOT
HETATM    1  C5  UNL     1       0.189  50.859 -13.303  1.00  0.00     0.133 C 
HETATM    2  C6  UNL     1       1.023  51.750 -14.233  1.00  0.00     0.034 C 
HETATM    3  C7  UNL     1       0.382  52.065 -15.574  1.00  0.00     0.013 C 
HETATM    4  C8  UNL     1      -0.252  50.838 -16.203  1.00  0.00    -0.025 A 
HETATM    5  C9  UNL     1       0.659  50.014 -17.082  1.00  0.00     0.021 A 
HETATM    6  C10 UNL     1      -0.465  50.788 -17.749  1.00  0.00    -0.027 A 
HETATM    7  C11 UNL     1      -0.018  52.033 -18.548  1.00  0.00     0.011 C 
HETATM    8  C12 UNL     1      -0.514  52.246 -19.983  1.00  0.00     0.011 C 
HETATM    9  C13 UNL     1      -1.162  51.019 -20.610  1.00  0.00    -0.028 C 
HETATM   10  C14 UNL     1      -0.040  50.006 -20.929  1.00  0.00     0.016 C 
HETATM   11  C15 UNL     1      -2.015  51.285 -21.900  1.00  0.00     0.057 C 
HETATM   12  C24 UNL     1      -3.097  50.157 -21.869  1.00  0.00     0.126 C 
HETATM   13  C25 UNL     1      -3.018  49.509 -20.473  1.00  0.00     0.042 C 
HETATM   14  C26 UNL     1      -2.248  50.505 -19.594  1.00  0.00    -0.029 C 
HETATM   15  C27 UNL     1      -3.259  51.598 -19.138  1.00  0.00     0.016 C 
HETATM   16  C28 UNL     1      -1.554  49.873 -18.360  1.00  0.00     0.006 C 
HETATM   17  C29 UNL     1      -2.524  49.251 -17.334  1.00  0.00     0.038 C 
HETATM   18  C30 UNL     1      -2.617  49.952 -15.975  1.00  0.00     0.124 C 
HETATM   19  C31 UNL     1      -1.236  50.075 -15.297  1.00  0.00     0.034 C 
HETATM   20  C32 UNL     1      -1.267  50.583 -13.805  1.00  0.00    -0.015 C 
HETATM   21  C33 UNL     1      -2.136  51.843 -13.571  1.00  0.00     0.018 C 
HETATM   22  C34 UNL     1      -1.892  49.468 -12.912  1.00  0.00     0.018 C 
ENDROOT
BRANCH   1  23
HETATM   23  O3  UNL     1       0.858  49.595 -13.142  1.00  0.00    -0.352 OA
BRANCH  23  24
HETATM   24  C4  UNL     1       1.692  49.521 -11.980  1.00  0.00     0.292 C 
HETATM   25  C3  UNL     1       3.150  49.351 -12.463  1.00  0.00     0.218 C 
HETATM   26  C37 UNL     1       4.133  49.491 -11.281  1.00  0.00     0.183 C 
HETATM   27  C36 UNL     1       3.790  50.666 -10.359  1.00  0.00     0.173 C 
HETATM   28  C35 UNL     1       2.310  50.652 -10.002  1.00  0.00     0.205 C 
HETATM   29  O8  UNL     1       1.519  50.685 -11.184  1.00  0.00    -0.356 OA
BRANCH  25  30
HETATM   30  O2  UNL     1       3.232  47.997 -13.018  1.00  0.00    -0.309 OA
BRANCH  30  31
HETATM   31  C2  UNL     1       2.516  47.017 -12.417  1.00  0.00     0.255 C 
HETATM   32  C1  UNL     1       3.183  46.604 -11.144  1.00  0.00     0.126 C 
HETATM   33  O1  UNL     1       1.485  46.529 -12.859  1.00  0.00    -0.266 OA
ENDBRANCH  30  31
ENDBRANCH  25  30
BRANCH  26  34
HETATM   34  O10 UNL     1       5.502  49.665 -11.703  1.00  0.00    -0.390 OA
HETATM   35  H60 UNL     1       5.597  49.304 -12.607  1.00  0.00     0.210 HD
ENDBRANCH  26  34
BRANCH  27  36
HETATM   36  O9  UNL     1       4.558  50.560  -9.156  1.00  0.00    -0.391 OA
HETATM   37  H58 UNL     1       5.465  50.861  -9.385  1.00  0.00     0.210 HD
ENDBRANCH  27  36
ENDBRANCH  23  24
ENDBRANCH   1  23
BRANCH  18  38
HETATM   38  O7  UNL     1      -3.264  51.209 -16.118  1.00  0.00    -0.395 OA
HETATM   39  H47 UNL     1      -4.200  51.018 -16.267  1.00  0.00     0.210 HD
ENDBRANCH  18  38
BRANCH  11  40
HETATM   40  C16 UNL     1      -1.361  51.618 -23.275  1.00  0.00     0.065 C 
HETATM   41  C17 UNL     1       0.140  51.970 -23.293  1.00  0.00     0.046 C 
HETATM   42  C18 UNL     1      -2.152  52.692 -24.037  1.00  0.00     0.041 C 
HETATM   43  C19 UNL     1      -1.890  52.355 -25.487  1.00  0.00     0.038 C 
HETATM   44  C20 UNL     1      -1.777  50.829 -25.488  1.00  0.00     0.156 C 
HETATM   45  O5  UNL     1      -1.542  50.435 -24.112  1.00  0.00    -0.372 OA
BRANCH  44  46
HETATM   46  C21 UNL     1      -3.015  50.069 -26.037  1.00  0.00     0.076 C 
HETATM   47  C22 UNL     1      -3.324  50.433 -27.497  1.00  0.00     0.048 C 
HETATM   48  C23 UNL     1      -2.822  48.549 -25.926  1.00  0.00     0.048 C 
BRANCH  46  49
HETATM   49  O4  UNL     1      -4.171  50.407 -25.258  1.00  0.00    -0.388 OA
HETATM   50  H35 UNL     1      -3.962  50.138 -24.338  1.00  0.00     0.210 HD
ENDBRANCH  46  49
ENDBRANCH  44  46
ENDBRANCH  11  40
BRANCH  12  51
HETATM   51  O6  UNL     1      -2.938  49.145 -22.845  1.00  0.00    -0.395 OA
HETATM   52  H37 UNL     1      -3.758  48.619 -22.886  1.00  0.00     0.210 HD
ENDBRANCH  12  51
TORSDOF 11
ENDMDL
MODEL 8
REMARK minimizedAffinity -8.91166401
REMARK CNNscore 0.328555763
REMARK CNNaffinity 6.55751657
REMARK  11 active torsions:
REMARK  status: ('A' for Active; 'I' for Inactive)
REMARK    1  A    between atoms: C2_2  and  O2_4 
REMARK    2  A    between atoms: O2_4  and  C3_5 
REMARK    3  A    between atoms: C4_6  and  O3_7 
REMARK    4  A    between atoms: O3_7  and  C5_8 
REMARK    5  A    between atoms: C15_18  and  C16_19 
REMARK    6  A    between atoms: C20_23  and  C21_24 
REMARK    7  A    between atoms: C21_24  and  O4_27 
REMARK    8  A    between atoms: C24_29  and  O6_30 
REMARK    9  A    between atoms: C30_36  and  O7_37 
REMARK   10  A    between atoms: C36_44  and  O9_45 
REMARK   11  A    between atoms: C37_46  and  O10_47 
ROOT
HETATM    1  C5  UNL     1      -0.306  50.464 -18.494  1.00  0.00     0.133 C 
HETATM    2  C6  UNL     1      -0.827  49.034 -18.296  1.00  0.00     0.034 C 
HETATM    3  C7  UNL     1      -1.690  48.497 -19.425  1.00  0.00     0.013 C 
HETATM    4  C8  UNL     1      -2.699  49.523 -19.907  1.00  0.00    -0.025 A 
HETATM    5  C9  UNL     1      -4.026  49.517 -19.186  1.00  0.00     0.021 A 
HETATM    6  C10 UNL     1      -3.998  49.046 -20.630  1.00  0.00    -0.027 A 
HETATM    7  C11 UNL     1      -4.159  47.521 -20.824  1.00  0.00     0.011 C 
HETATM    8  C12 UNL     1      -5.180  46.977 -21.830  1.00  0.00     0.011 C 
HETATM    9  C13 UNL     1      -6.185  48.009 -22.324  1.00  0.00    -0.028 C 
HETATM   10  C14 UNL     1      -7.169  48.297 -21.168  1.00  0.00     0.016 C 
HETATM   11  C15 UNL     1      -6.986  47.615 -23.613  1.00  0.00     0.057 C 
HETATM   12  C24 UNL     1      -7.298  48.989 -24.291  1.00  0.00     0.126 C 
HETATM   13  C25 UNL     1      -6.441  50.044 -23.564  1.00  0.00     0.042 C 
HETATM   14  C26 UNL     1      -5.358  49.255 -22.814  1.00  0.00    -0.029 C 
HETATM   15  C27 UNL     1      -4.240  48.911 -23.841  1.00  0.00     0.016 C 
HETATM   16  C28 UNL     1      -4.751  49.994 -21.594  1.00  0.00     0.006 C 
HETATM   17  C29 UNL     1      -3.991  51.289 -21.948  1.00  0.00     0.038 C 
HETATM   18  C30 UNL     1      -2.474  51.269 -21.732  1.00  0.00     0.124 C 
HETATM   19  C31 UNL     1      -2.107  50.895 -20.281  1.00  0.00     0.034 C 
HETATM   20  C32 UNL     1      -0.583  51.063 -19.912  1.00  0.00    -0.015 C 
HETATM   21  C33 UNL     1       0.399  50.437 -20.933  1.00  0.00     0.018 C 
HETATM   22  C34 UNL     1      -0.245  52.585 -19.878  1.00  0.00     0.018 C 
ENDROOT
BRANCH   1  23
HETATM   23  O3  UNL     1      -0.915  51.323 -17.514  1.00  0.00    -0.352 OA
BRANCH  23  24
HETATM   24  C4  UNL     1      -0.777  50.859 -16.165  1.00  0.00     0.292 C 
HETATM   25  C3  UNL     1       0.320  51.713 -15.489  1.00  0.00     0.218 C 
HETATM   26  C37 UNL     1       0.370  51.429 -13.972  1.00  0.00     0.183 C 
HETATM   27  C36 UNL     1      -1.020  51.367 -13.333  1.00  0.00     0.173 C 
HETATM   28  C35 UNL     1      -1.947  50.478 -14.151  1.00  0.00     0.205 C 
HETATM   29  O8  UNL     1      -2.024  50.949 -15.491  1.00  0.00    -0.356 OA
BRANCH  25  30
HETATM   30  O2  UNL     1       1.583  51.308 -16.112  1.00  0.00    -0.309 OA
BRANCH  30  31
HETATM   31  C2  UNL     1       2.402  52.278 -16.584  1.00  0.00     0.255 C 
HETATM   32  C1  UNL     1       3.651  52.336 -15.764  1.00  0.00     0.126 C 
HETATM   33  O1  UNL     1       2.150  53.010 -17.532  1.00  0.00    -0.266 OA
ENDBRANCH  30  31
ENDBRANCH  25  30
BRANCH  26  34
HETATM   34  O10 UNL     1       1.134  52.410 -13.240  1.00  0.00    -0.390 OA
HETATM   35  H60 UNL     1       1.758  52.841 -13.856  1.00  0.00     0.210 HD
ENDBRANCH  26  34
BRANCH  27  36
HETATM   36  O9  UNL     1      -0.908  50.828 -12.012  1.00  0.00    -0.391 OA
HETATM   37  H58 UNL     1      -0.561  51.555 -11.450  1.00  0.00     0.210 HD
ENDBRANCH  27  36
ENDBRANCH  23  24
ENDBRANCH   1  23
BRANCH  18  38
HETATM   38  O7  UNL     1      -1.858  50.413 -22.684  1.00  0.00    -0.395 OA
HETATM   39  H47 UNL     1      -1.895  50.878 -23.532  1.00  0.00     0.210 HD
ENDBRANCH  18  38
BRANCH  11  40
HETATM   40  C16 UNL     1      -8.123  46.548 -23.592  1.00  0.00     0.065 C 
HETATM   41  C17 UNL     1      -9.035  46.445 -24.830  1.00  0.00     0.046 C 
HETATM   42  C18 UNL     1      -8.982  46.656 -22.324  1.00  0.00     0.041 C 
HETATM   43  C19 UNL     1      -9.454  45.237 -22.101  1.00  0.00     0.038 C 
HETATM   44  C20 UNL     1      -8.282  44.386 -22.597  1.00  0.00     0.156 C 
HETATM   45  O5  UNL     1      -7.466  45.254 -23.424  1.00  0.00    -0.372 OA
BRANCH  44  46
HETATM   46  C21 UNL     1      -7.400  43.755 -21.486  1.00  0.00     0.076 C 
HETATM   47  C22 UNL     1      -7.379  44.600 -20.204  1.00  0.00     0.048 C 
HETATM   48  C23 UNL     1      -7.876  42.334 -21.145  1.00  0.00     0.048 C 
BRANCH  46  49
HETATM   49  O4  UNL     1      -6.046  43.648 -21.949  1.00  0.00    -0.388 OA
HETATM   50  H35 UNL     1      -6.081  43.080 -22.749  1.00  0.00     0.210 HD
ENDBRANCH  46  49
ENDBRANCH  44  46
ENDBRANCH  11  40
BRANCH  12  51
HETATM   51  O6  UNL     1      -8.653  49.394 -24.234  1.00  0.00    -0.395 OA
HETATM   52  H37 UNL     1      -8.784  50.136 -24.854  1.00  0.00     0.210 HD
ENDBRANCH  12  51
TORSDOF 11
ENDMDL
MODEL 9
REMARK minimizedAffinity -10.1590319
REMARK CNNscore 0.314534485
REMARK CNNaffinity 7.0295825
REMARK  11 active torsions:
REMARK  status: ('A' for Active; 'I' for Inactive)
REMARK    1  A    between atoms: C2_2  and  O2_4 
REMARK    2  A    between atoms: O2_4  and  C3_5 
REMARK    3  A    between atoms: C4_6  and  O3_7 
REMARK    4  A    between atoms: O3_7  and  C5_8 
REMARK    5  A    between atoms: C15_18  and  C16_19 
REMARK    6  A    between atoms: C20_23  and  C21_24 
REMARK    7  A    between atoms: C21_24  and  O4_27 
REMARK    8  A    between atoms: C24_29  and  O6_30 
REMARK    9  A    between atoms: C30_36  and  O7_37 
REMARK   10  A    between atoms: C36_44  and  O9_45 
REMARK   11  A    between atoms: C37_46  and  O10_47 
ROOT
HETATM    1  C5  UNL     1      -2.903  51.124 -23.056  1.00  0.00     0.133 C 
HETATM    2  C6  UNL     1      -4.027  51.523 -24.020  1.00  0.00     0.034 C 
HETATM    3  C7  UNL     1      -5.367  50.855 -23.763  1.00  0.00     0.013 C 
HETATM    4  C8  UNL     1      -5.218  49.372 -23.474  1.00  0.00    -0.025 A 
HETATM    5  C9  UNL     1      -5.250  48.468 -24.683  1.00  0.00     0.021 A 
HETATM    6  C10 UNL     1      -6.424  48.413 -23.722  1.00  0.00    -0.027 A 
HETATM    7  C11 UNL     1      -7.726  49.063 -24.242  1.00  0.00     0.011 C 
HETATM    8  C12 UNL     1      -9.054  48.300 -24.160  1.00  0.00     0.011 C 
HETATM    9  C13 UNL     1      -8.905  46.815 -23.857  1.00  0.00    -0.028 C 
HETATM   10  C14 UNL     1      -8.352  46.129 -25.127  1.00  0.00     0.016 C 
HETATM   11  C15 UNL     1     -10.210  46.082 -23.389  1.00  0.00     0.057 C 
HETATM   12  C24 UNL     1      -9.682  44.930 -22.473  1.00  0.00     0.126 C 
HETATM   13  C25 UNL     1      -8.190  45.221 -22.217  1.00  0.00     0.042 C 
HETATM   14  C26 UNL     1      -7.983  46.697 -22.588  1.00  0.00    -0.029 C 
HETATM   15  C27 UNL     1      -8.459  47.551 -21.376  1.00  0.00     0.016 C 
HETATM   16  C28 UNL     1      -6.526  47.069 -22.961  1.00  0.00     0.006 C 
HETATM   17  C29 UNL     1      -5.511  46.901 -21.811  1.00  0.00     0.038 C 
HETATM   18  C30 UNL     1      -4.895  48.189 -21.254  1.00  0.00     0.124 C 
HETATM   19  C31 UNL     1      -4.214  49.023 -22.360  1.00  0.00     0.034 C 
HETATM   20  C32 UNL     1      -3.366  50.249 -21.845  1.00  0.00    -0.015 C 
HETATM   21  C33 UNL     1      -4.094  51.148 -20.814  1.00  0.00     0.018 C 
HETATM   22  C34 UNL     1      -2.100  49.708 -21.115  1.00  0.00     0.018 C 
ENDROOT
BRANCH   1  23
HETATM   23  O3  UNL     1      -1.900  50.393 -23.783  1.00  0.00    -0.352 OA
BRANCH  23  24
HETATM   24  C4  UNL     1      -0.987  51.223 -24.513  1.00  0.00     0.292 C 
HETATM   25  C3  UNL     1      -1.642  51.549 -25.875  1.00  0.00     0.218 C 
HETATM   26  C37 UNL     1      -0.824  52.622 -26.626  1.00  0.00     0.183 C 
HETATM   27  C36 UNL     1      -0.383  53.776 -25.720  1.00  0.00     0.173 C 
HETATM   28  C35 UNL     1       0.233  53.241 -24.434  1.00  0.00     0.205 C 
HETATM   29  O8  UNL     1      -0.689  52.391 -23.762  1.00  0.00    -0.356 OA
BRANCH  25  30
HETATM   30  O2  UNL     1      -1.632  50.295 -26.634  1.00  0.00    -0.309 OA
BRANCH  30  31
HETATM   31  C2  UNL     1      -2.751  49.953 -27.315  1.00  0.00     0.255 C 
HETATM   32  C1  UNL     1      -3.106  48.529 -27.032  1.00  0.00     0.126 C 
HETATM   33  O1  UNL     1      -3.370  50.695 -28.066  1.00  0.00    -0.266 OA
ENDBRANCH  30  31
ENDBRANCH  25  30
BRANCH  26  34
HETATM   34  O10 UNL     1      -1.539  53.201 -27.737  1.00  0.00    -0.390 OA
HETATM   35  H60 UNL     1      -2.232  52.572 -28.022  1.00  0.00     0.210 HD
ENDBRANCH  26  34
BRANCH  27  36
HETATM   36  O9  UNL     1       0.591  54.568 -26.406  1.00  0.00    -0.391 OA
HETATM   37  H58 UNL     1       0.091  55.118 -27.049  1.00  0.00     0.210 HD
ENDBRANCH  27  36
ENDBRANCH  23  24
ENDBRANCH   1  23
BRANCH  18  38
HETATM   38  O7  UNL     1      -5.877  48.931 -20.544  1.00  0.00    -0.395 OA
HETATM   39  H47 UNL     1      -6.032  48.455 -19.716  1.00  0.00     0.210 HD
ENDBRANCH  18  38
BRANCH  11  40
HETATM   40  C16 UNL     1     -11.373  45.745 -24.371  1.00  0.00     0.065 C 
HETATM   41  C17 UNL     1     -12.625  45.054 -23.795  1.00  0.00     0.046 C 
HETATM   42  C18 UNL     1     -10.874  44.969 -25.600  1.00  0.00     0.041 C 
HETATM   43  C19 UNL     1     -11.841  45.379 -26.687  1.00  0.00     0.038 C 
HETATM   44  C20 UNL     1     -12.186  46.828 -26.335  1.00  0.00     0.156 C 
HETATM   45  O5  UNL     1     -11.803  47.016 -24.949  1.00  0.00    -0.372 OA
BRANCH  44  46
HETATM   46  C21 UNL     1     -11.496  47.908 -27.212  1.00  0.00     0.076 C 
HETATM   47  C22 UNL     1     -10.026  47.573 -27.504  1.00  0.00     0.048 C 
HETATM   48  C23 UNL     1     -12.244  48.100 -28.539  1.00  0.00     0.048 C 
BRANCH  46  49
HETATM   49  O4  UNL     1     -11.518  49.169 -26.527  1.00  0.00    -0.388 OA
HETATM   50  H35 UNL     1     -12.466  49.376 -26.379  1.00  0.00     0.210 HD
ENDBRANCH  46  49
ENDBRANCH  44  46
ENDBRANCH  11  40
BRANCH  12  51
HETATM   51  O6  UNL     1      -9.800  43.629 -23.016  1.00  0.00    -0.395 OA
HETATM   52  H37 UNL     1      -9.649  42.979 -22.304  1.00  0.00     0.210 HD
ENDBRANCH  12  51
TORSDOF 11
ENDMDL
