MODEL 1
REMARK minimizedAffinity -9.78518295
REMARK  11 active torsions:
REMARK  status: ('A' for Active; 'I' for Inactive)
REMARK    1  A    between atoms: C2_2  and  C4_4 
REMARK    2  A    between atoms: C12_13  and  C13_14 
REMARK    3  A    between atoms: C13_14  and  C15_16 
REMARK    4  A    between atoms: C15_16  and  C16_17 
REMARK    5  A    between atoms: C16_17  and  C17_18 
REMARK    6  A    between atoms: C18_19  and  C20_21 
REMARK    7  A    between atoms: C20_21  and  O3_23 
REMARK    8  A    between atoms: C27_30  and  C28_31 
REMARK    9  A    between atoms: C28_31  and  C29_32 
REMARK   10  A    between atoms: C29_32  and  C30_33 
REMARK   11  A    between atoms: C30_33  and  O5_35 
ROOT
HETATM    1  C4  UNL     1       0.572  52.155 -22.103  1.00  0.00     0.054 C 
HETATM    2  C5  UNL     1       0.702  52.642 -23.522  1.00  0.00     0.160 A 
HETATM    3  O1  UNL     1      -0.411  53.373 -24.056  1.00  0.00    -0.374 OA
HETATM    4  C6  UNL     1      -0.136  52.090 -24.635  1.00  0.00     0.157 A 
HETATM    5  C7  UNL     1      -1.128  50.987 -24.388  1.00  0.00     0.035 C 
HETATM    6  C8  UNL     1      -2.362  51.024 -25.370  1.00  0.00    -0.029 C 
HETATM    7  C9  UNL     1      -2.955  52.447 -25.495  1.00  0.00     0.016 C 
HETATM    8  C10 UNL     1      -1.890  50.598 -26.804  1.00  0.00     0.011 C 
HETATM    9  C11 UNL     1      -2.616  49.309 -27.163  1.00  0.00     0.006 C 
HETATM   10  C12 UNL     1      -3.921  49.394 -26.379  1.00  0.00    -0.002 C 
HETATM   11  C21 UNL     1      -3.473  49.944 -24.983  1.00  0.00    -0.032 C 
HETATM   12  C22 UNL     1      -4.711  50.527 -24.259  1.00  0.00     0.016 C 
HETATM   13  C23 UNL     1      -2.853  48.862 -24.071  1.00  0.00     0.011 C 
HETATM   14  C24 UNL     1      -2.282  49.418 -22.762  1.00  0.00     0.011 C 
HETATM   15  C25 UNL     1      -1.559  50.752 -22.936  1.00  0.00    -0.024 A 
HETATM   16  C26 UNL     1      -2.068  51.903 -22.097  1.00  0.00     0.022 A 
HETATM   17  C27 UNL     1      -0.701  51.327 -21.766  1.00  0.00    -0.021 A 
ENDROOT
BRANCH  10  18
HETATM   18  C13 UNL     1      -4.812  48.115 -26.423  1.00  0.00    -0.014 C 
HETATM   19  C14 UNL     1      -5.388  47.788 -27.804  1.00  0.00     0.010 C 
BRANCH  18  20
HETATM   20  C15 UNL     1      -5.943  48.262 -25.367  1.00  0.00     0.008 C 
BRANCH  20  21
HETATM   21  C16 UNL     1      -7.142  47.311 -25.531  1.00  0.00     0.028 C 
BRANCH  21  22
HETATM   22  C17 UNL     1      -7.832  47.433 -26.864  1.00  0.00    -0.013 C 
HETATM   23  C18 UNL     1      -9.004  48.041 -27.138  1.00  0.00     0.008 C 
HETATM   24  C19 UNL     1      -9.611  48.016 -28.510  1.00  0.00     0.055 C 
BRANCH  23  25
HETATM   25  C20 UNL     1      -9.819  48.766 -26.138  1.00  0.00     0.171 C 
HETATM   26  O2  UNL     1     -10.720  48.283 -25.476  1.00  0.00    -0.646 OA
BRANCH  25  27
HETATM   27  O3  UNL     1      -9.541  50.079 -26.086  1.00  0.00    -0.773 OA
HETATM   28  H30 UNL     1     -10.180  50.425 -25.430  1.00  0.00     0.167 HD
ENDBRANCH  25  27
ENDBRANCH  23  25
ENDBRANCH  21  22
ENDBRANCH  20  21
ENDBRANCH  18  20
ENDBRANCH  10  18
BRANCH  17  29
HETATM   29  C28 UNL     1      -0.502  50.459 -20.506  1.00  0.00     0.021 C 
BRANCH  29  30
HETATM   30  C29 UNL     1      -1.749  50.099 -19.708  1.00  0.00     0.111 C 
BRANCH  30  31
HETATM   31  C30 UNL     1      -1.883  50.896 -18.442  1.00  0.00     0.139 C 
HETATM   32  O4  UNL     1      -1.241  50.732 -17.418  1.00  0.00    -0.650 OA
BRANCH  31  33
HETATM   33  O5  UNL     1      -2.779  51.897 -18.538  1.00  0.00    -0.776 OA
HETATM   34  H44 UNL     1      -2.789  52.284 -17.639  1.00  0.00     0.167 HD
ENDBRANCH  31  33
ENDBRANCH  30  31
ENDBRANCH  29  30
ENDBRANCH  17  29
BRANCH   1  35
HETATM   35  C2  UNL     1       0.907  53.259 -21.091  1.00  0.00    -0.086 C 
HETATM   36  C1  UNL     1       1.724  54.289 -21.366  1.00  0.00     0.014 C 
HETATM   37  C3  UNL     1       0.284  53.112 -19.728  1.00  0.00     0.043 C 
ENDBRANCH   1  35
TORSDOF 11
ENDMDL
MODEL 2
REMARK minimizedAffinity -9.76241016
REMARK  11 active torsions:
REMARK  status: ('A' for Active; 'I' for Inactive)
REMARK    1  A    between atoms: C2_2  and  C4_4 
REMARK    2  A    between atoms: C12_13  and  C13_14 
REMARK    3  A    between atoms: C13_14  and  C15_16 
REMARK    4  A    between atoms: C15_16  and  C16_17 
REMARK    5  A    between atoms: C16_17  and  C17_18 
REMARK    6  A    between atoms: C18_19  and  C20_21 
REMARK    7  A    between atoms: C20_21  and  O3_23 
REMARK    8  A    between atoms: C27_30  and  C28_31 
REMARK    9  A    between atoms: C28_31  and  C29_32 
REMARK   10  A    between atoms: C29_32  and  C30_33 
REMARK   11  A    between atoms: C30_33  and  O5_35 
ROOT
HETATM    1  C4  UNL     1      -0.848  51.621 -18.759  1.00  0.00     0.054 C 
HETATM    2  C5  UNL     1      -2.227  51.359 -18.214  1.00  0.00     0.160 A 
HETATM    3  O1  UNL     1      -2.652  49.990 -18.170  1.00  0.00    -0.374 OA
HETATM    4  C6  UNL     1      -3.344  50.857 -19.078  1.00  0.00     0.157 A 
HETATM    5  C7  UNL     1      -3.144  50.626 -20.551  1.00  0.00     0.035 C 
HETATM    6  C8  UNL     1      -4.067  49.487 -21.136  1.00  0.00    -0.029 C 
HETATM    7  C9  UNL     1      -4.051  48.221 -20.248  1.00  0.00     0.016 C 
HETATM    8  C10 UNL     1      -5.549  49.997 -21.177  1.00  0.00     0.011 C 
HETATM    9  C11 UNL     1      -5.979  50.041 -22.637  1.00  0.00     0.006 C 
HETATM   10  C12 UNL     1      -5.135  48.958 -23.300  1.00  0.00    -0.002 C 
HETATM   11  C21 UNL     1      -3.720  49.154 -22.659  1.00  0.00    -0.032 C 
HETATM   12  C22 UNL     1      -2.898  47.859 -22.863  1.00  0.00     0.016 C 
HETATM   13  C23 UNL     1      -2.927  50.325 -23.281  1.00  0.00     0.011 C 
HETATM   14  C24 UNL     1      -1.602  50.615 -22.566  1.00  0.00     0.011 C 
HETATM   15  C25 UNL     1      -1.699  50.502 -21.045  1.00  0.00    -0.024 A 
HETATM   16  C26 UNL     1      -0.748  49.529 -20.386  1.00  0.00     0.022 A 
HETATM   17  C27 UNL     1      -0.524  51.014 -20.154  1.00  0.00    -0.021 A 
ENDROOT
BRANCH  10  18
HETATM   18  C13 UNL     1      -5.244  48.882 -24.853  1.00  0.00    -0.014 C 
HETATM   19  C14 UNL     1      -6.354  47.961 -25.369  1.00  0.00     0.010 C 
BRANCH  18  20
HETATM   20  C15 UNL     1      -3.861  48.466 -25.429  1.00  0.00     0.008 C 
BRANCH  20  21
HETATM   21  C16 UNL     1      -3.386  49.248 -26.665  1.00  0.00     0.028 C 
BRANCH  21  22
HETATM   22  C17 UNL     1      -1.948  49.689 -26.586  1.00  0.00    -0.013 C 
HETATM   23  C18 UNL     1      -1.455  50.937 -26.719  1.00  0.00     0.008 C 
HETATM   24  C19 UNL     1       0.019  51.217 -26.693  1.00  0.00     0.055 C 
BRANCH  23  25
HETATM   25  C20 UNL     1      -2.288  52.144 -26.923  1.00  0.00     0.171 C 
HETATM   26  O2  UNL     1      -3.102  52.582 -26.129  1.00  0.00    -0.646 OA
BRANCH  25  27
HETATM   27  O3  UNL     1      -2.140  52.685 -28.142  1.00  0.00    -0.773 OA
HETATM   28  H30 UNL     1      -2.777  53.428 -28.145  1.00  0.00     0.167 HD
ENDBRANCH  25  27
ENDBRANCH  23  25
ENDBRANCH  21  22
ENDBRANCH  20  21
ENDBRANCH  18  20
ENDBRANCH  10  18
BRANCH  17  29
HETATM   29  C28 UNL     1       0.652  51.743 -20.836  1.00  0.00     0.021 C 
BRANCH  29  30
HETATM   30  C29 UNL     1       0.347  53.082 -21.499  1.00  0.00     0.111 C 
BRANCH  30  31
HETATM   31  C30 UNL     1       1.349  54.146 -21.154  1.00  0.00     0.139 C 
HETATM   32  O4  UNL     1       1.923  54.876 -21.945  1.00  0.00    -0.650 OA
BRANCH  31  33
HETATM   33  O5  UNL     1       1.543  54.281 -19.828  1.00  0.00    -0.776 OA
HETATM   34  H44 UNL     1       2.242  54.963 -19.767  1.00  0.00     0.167 HD
ENDBRANCH  31  33
ENDBRANCH  30  31
ENDBRANCH  29  30
ENDBRANCH  17  29
BRANCH   1  35
HETATM   35  C2  UNL     1       0.235  51.398 -17.695  1.00  0.00    -0.086 C 
HETATM   36  C1  UNL     1       1.118  52.342 -17.331  1.00  0.00     0.014 C 
HETATM   37  C3  UNL     1       0.282  50.023 -17.083  1.00  0.00     0.043 C 
ENDBRANCH   1  35
TORSDOF 11
ENDMDL
MODEL 3
REMARK minimizedAffinity -9.62536716
REMARK  11 active torsions:
REMARK  status: ('A' for Active; 'I' for Inactive)
REMARK    1  A    between atoms: C2_2  and  C4_4 
REMARK    2  A    between atoms: C12_13  and  C13_14 
REMARK    3  A    between atoms: C13_14  and  C15_16 
REMARK    4  A    between atoms: C15_16  and  C16_17 
REMARK    5  A    between atoms: C16_17  and  C17_18 
REMARK    6  A    between atoms: C18_19  and  C20_21 
REMARK    7  A    between atoms: C20_21  and  O3_23 
REMARK    8  A    between atoms: C27_30  and  C28_31 
REMARK    9  A    between atoms: C28_31  and  C29_32 
REMARK   10  A    between atoms: C29_32  and  C30_33 
REMARK   11  A    between atoms: C30_33  and  O5_35 
ROOT
HETATM    1  C4  UNL     1      -6.224  47.366 -23.900  1.00  0.00     0.054 C 
HETATM    2  C5  UNL     1      -5.948  47.227 -22.426  1.00  0.00     0.160 A 
HETATM    3  O1  UNL     1      -6.105  48.408 -21.628  1.00  0.00    -0.374 OA
HETATM    4  C6  UNL     1      -4.776  47.889 -21.768  1.00  0.00     0.157 A 
HETATM    5  C7  UNL     1      -3.792  48.700 -22.567  1.00  0.00     0.035 C 
HETATM    6  C8  UNL     1      -3.116  49.857 -21.735  1.00  0.00    -0.029 C 
HETATM    7  C9  UNL     1      -4.155  50.667 -20.925  1.00  0.00     0.016 C 
HETATM    8  C10 UNL     1      -2.118  49.231 -20.699  1.00  0.00     0.011 C 
HETATM    9  C11 UNL     1      -0.719  49.710 -21.062  1.00  0.00     0.006 C 
HETATM   10  C12 UNL     1      -0.957  51.059 -21.732  1.00  0.00    -0.002 C 
HETATM   11  C21 UNL     1      -2.201  50.799 -22.646  1.00  0.00    -0.032 C 
HETATM   12  C22 UNL     1      -2.842  52.159 -23.011  1.00  0.00     0.016 C 
HETATM   13  C23 UNL     1      -1.850  50.068 -23.961  1.00  0.00     0.011 C 
HETATM   14  C24 UNL     1      -3.077  49.682 -24.794  1.00  0.00     0.011 C 
HETATM   15  C25 UNL     1      -4.246  49.179 -23.950  1.00  0.00    -0.024 A 
HETATM   16  C26 UNL     1      -5.553  49.923 -24.107  1.00  0.00     0.022 A 
HETATM   17  C27 UNL     1      -5.470  48.504 -24.645  1.00  0.00    -0.021 A 
ENDROOT
BRANCH  10  18
HETATM   18  C13 UNL     1       0.304  51.723 -22.364  1.00  0.00    -0.014 C 
HETATM   19  C14 UNL     1       1.245  52.392 -21.357  1.00  0.00     0.010 C 
BRANCH  18  20
HETATM   20  C15 UNL     1      -0.159  52.732 -23.452  1.00  0.00     0.008 C 
BRANCH  20  21
HETATM   21  C16 UNL     1       0.862  53.037 -24.563  1.00  0.00     0.028 C 
BRANCH  21  22
HETATM   22  C17 UNL     1       0.396  52.637 -25.938  1.00  0.00    -0.013 C 
HETATM   23  C18 UNL     1       1.095  51.994 -26.896  1.00  0.00     0.008 C 
HETATM   24  C19 UNL     1       0.520  51.729 -28.256  1.00  0.00     0.055 C 
BRANCH  23  25
HETATM   25  C20 UNL     1       2.482  51.507 -26.729  1.00  0.00     0.171 C 
HETATM   26  O2  UNL     1       2.835  50.630 -25.961  1.00  0.00    -0.646 OA
BRANCH  25  27
HETATM   27  O3  UNL     1       3.374  52.205 -27.450  1.00  0.00    -0.773 OA
HETATM   28  H30 UNL     1       4.234  51.807 -27.202  1.00  0.00     0.167 HD
ENDBRANCH  25  27
ENDBRANCH  23  25
ENDBRANCH  21  22
ENDBRANCH  20  21
ENDBRANCH  18  20
ENDBRANCH  10  18
BRANCH  17  29
HETATM   29  C28 UNL     1      -5.401  48.246 -26.164  1.00  0.00     0.021 C 
BRANCH  29  30
HETATM   30  C29 UNL     1      -4.029  48.329 -26.821  1.00  0.00     0.111 C 
BRANCH  30  31
HETATM   31  C30 UNL     1      -4.095  48.724 -28.268  1.00  0.00     0.139 C 
HETATM   32  O4  UNL     1      -4.568  48.057 -29.174  1.00  0.00    -0.650 OA
BRANCH  31  33
HETATM   33  O5  UNL     1      -3.614  49.960 -28.502  1.00  0.00    -0.776 OA
HETATM   34  H44 UNL     1      -3.680  50.051 -29.475  1.00  0.00     0.167 HD
ENDBRANCH  31  33
ENDBRANCH  30  31
ENDBRANCH  29  30
ENDBRANCH  17  29
BRANCH   1  35
HETATM   35  C2  UNL     1      -7.726  47.283 -24.207  1.00  0.00    -0.086 C 
HETATM   36  C1  UNL     1      -8.564  48.324 -24.075  1.00  0.00     0.014 C 
HETATM   37  C3  UNL     1      -8.235  45.935 -24.644  1.00  0.00     0.043 C 
ENDBRANCH   1  35
TORSDOF 11
ENDMDL
MODEL 4
REMARK minimizedAffinity -9.22375965
REMARK  11 active torsions:
REMARK  status: ('A' for Active; 'I' for Inactive)
REMARK    1  A    between atoms: C2_2  and  C4_4 
REMARK    2  A    between atoms: C12_13  and  C13_14 
REMARK    3  A    between atoms: C13_14  and  C15_16 
REMARK    4  A    between atoms: C15_16  and  C16_17 
REMARK    5  A    between atoms: C16_17  and  C17_18 
REMARK    6  A    between atoms: C18_19  and  C20_21 
REMARK    7  A    between atoms: C20_21  and  O3_23 
REMARK    8  A    between atoms: C27_30  and  C28_31 
REMARK    9  A    between atoms: C28_31  and  C29_32 
REMARK   10  A    between atoms: C29_32  and  C30_33 
REMARK   11  A    between atoms: C30_33  and  O5_35 
ROOT
HETATM    1  C4  UNL     1      -1.829  50.401 -25.773  1.00  0.00     0.054 C 
HETATM    2  C5  UNL     1      -2.729  49.319 -25.239  1.00  0.00     0.160 A 
HETATM    3  O1  UNL     1      -3.783  49.734 -24.360  1.00  0.00    -0.374 OA
HETATM    4  C6  UNL     1      -2.740  48.931 -23.792  1.00  0.00     0.157 A 
HETATM    5  C7  UNL     1      -1.814  49.588 -22.805  1.00  0.00     0.035 C 
HETATM    6  C8  UNL     1      -2.397  49.640 -21.339  1.00  0.00    -0.029 C 
HETATM    7  C9  UNL     1      -3.863  50.135 -21.321  1.00  0.00     0.016 C 
HETATM    8  C10 UNL     1      -2.397  48.193 -20.735  1.00  0.00     0.011 C 
HETATM    9  C11 UNL     1      -1.453  48.195 -19.540  1.00  0.00     0.006 C 
HETATM   10  C12 UNL     1      -1.505  49.633 -19.036  1.00  0.00    -0.002 C 
HETATM   11  C21 UNL     1      -1.469  50.483 -20.350  1.00  0.00    -0.032 C 
HETATM   12  C22 UNL     1      -1.989  51.906 -20.036  1.00  0.00     0.016 C 
HETATM   13  C23 UNL     1      -0.052  50.614 -20.952  1.00  0.00     0.011 C 
HETATM   14  C24 UNL     1      -0.028  51.321 -22.312  1.00  0.00     0.011 C 
HETATM   15  C25 UNL     1      -1.191  50.925 -23.219  1.00  0.00    -0.024 A 
HETATM   16  C26 UNL     1      -2.067  52.055 -23.713  1.00  0.00     0.022 A 
HETATM   17  C27 UNL     1      -1.179  51.346 -24.723  1.00  0.00    -0.021 A 
ENDROOT
BRANCH  10  18
HETATM   18  C13 UNL     1      -0.496  49.979 -17.898  1.00  0.00    -0.014 C 
HETATM   19  C14 UNL     1      -1.113  50.041 -16.497  1.00  0.00     0.010 C 
BRANCH  18  20
HETATM   20  C15 UNL     1       0.215  51.315 -18.255  1.00  0.00     0.008 C 
BRANCH  20  21
HETATM   21  C16 UNL     1       0.653  52.181 -17.061  1.00  0.00     0.028 C 
BRANCH  21  22
HETATM   22  C17 UNL     1       2.137  52.428 -17.005  1.00  0.00    -0.013 C 
HETATM   23  C18 UNL     1       2.984  52.162 -15.989  1.00  0.00     0.008 C 
HETATM   24  C19 UNL     1       4.436  52.535 -16.046  1.00  0.00     0.055 C 
BRANCH  23  25
HETATM   25  C20 UNL     1       2.585  51.507 -14.723  1.00  0.00     0.171 C 
HETATM   26  O2  UNL     1       2.147  50.375 -14.621  1.00  0.00    -0.646 OA
BRANCH  25  27
HETATM   27  O3  UNL     1       2.656  52.328 -13.662  1.00  0.00    -0.773 OA
HETATM   28  H30 UNL     1       2.322  51.780 -12.923  1.00  0.00     0.167 HD
ENDBRANCH  25  27
ENDBRANCH  23  25
ENDBRANCH  21  22
ENDBRANCH  20  21
ENDBRANCH  18  20
ENDBRANCH  10  18
BRANCH  17  29
HETATM   29  C28 UNL     1       0.080  52.042 -25.281  1.00  0.00     0.021 C 
BRANCH  29  30
HETATM   30  C29 UNL     1       1.116  51.157 -25.963  1.00  0.00     0.111 C 
BRANCH  30  31
HETATM   31  C30 UNL     1       1.702  51.786 -27.195  1.00  0.00     0.139 C 
HETATM   32  O4  UNL     1       1.075  52.225 -28.145  1.00  0.00    -0.650 OA
BRANCH  31  33
HETATM   33  O5  UNL     1       3.044  51.884 -27.152  1.00  0.00    -0.776 OA
HETATM   34  H44 UNL     1       3.275  52.261 -28.026  1.00  0.00     0.167 HD
ENDBRANCH  31  33
ENDBRANCH  30  31
ENDBRANCH  29  30
ENDBRANCH  17  29
BRANCH   1  35
HETATM   35  C2  UNL     1      -2.453  51.115 -26.980  1.00  0.00    -0.086 C 
HETATM   36  C1  UNL     1      -3.121  50.473 -27.953  1.00  0.00     0.014 C 
HETATM   37  C3  UNL     1      -2.250  52.605 -27.040  1.00  0.00     0.043 C 
ENDBRANCH   1  35
TORSDOF 11
ENDMDL
MODEL 5
REMARK minimizedAffinity -9.10650158
REMARK  11 active torsions:
REMARK  status: ('A' for Active; 'I' for Inactive)
REMARK    1  A    between atoms: C2_2  and  C4_4 
REMARK    2  A    between atoms: C12_13  and  C13_14 
REMARK    3  A    between atoms: C13_14  and  C15_16 
REMARK    4  A    between atoms: C15_16  and  C16_17 
REMARK    5  A    between atoms: C16_17  and  C17_18 
REMARK    6  A    between atoms: C18_19  and  C20_21 
REMARK    7  A    between atoms: C20_21  and  O3_23 
REMARK    8  A    between atoms: C27_30  and  C28_31 
REMARK    9  A    between atoms: C28_31  and  C29_32 
REMARK   10  A    between atoms: C29_32  and  C30_33 
REMARK   11  A    between atoms: C30_33  and  O5_35 
ROOT
HETATM    1  C4  UNL     1      -0.788  53.204 -25.914  1.00  0.00     0.054 C 
HETATM    2  C5  UNL     1       0.308  53.873 -25.127  1.00  0.00     0.160 A 
HETATM    3  O1  UNL     1       1.331  53.021 -24.595  1.00  0.00    -0.374 OA
HETATM    4  C6  UNL     1       0.469  53.670 -23.651  1.00  0.00     0.157 A 
HETATM    5  C7  UNL     1      -0.490  52.808 -22.876  1.00  0.00     0.035 C 
HETATM    6  C8  UNL     1       0.164  52.123 -21.614  1.00  0.00    -0.029 C 
HETATM    7  C9  UNL     1       1.528  51.476 -21.953  1.00  0.00     0.016 C 
HETATM    8  C10 UNL     1       0.436  53.213 -20.520  1.00  0.00     0.011 C 
HETATM    9  C11 UNL     1      -0.422  52.873 -19.309  1.00  0.00     0.006 C 
HETATM   10  C12 UNL     1      -0.574  51.358 -19.384  1.00  0.00    -0.002 C 
HETATM   11  C21 UNL     1      -0.828  51.090 -20.906  1.00  0.00    -0.032 C 
HETATM   12  C22 UNL     1      -0.528  49.602 -21.206  1.00  0.00     0.016 C 
HETATM   13  C23 UNL     1      -2.281  51.382 -21.343  1.00  0.00     0.011 C 
HETATM   14  C24 UNL     1      -2.502  51.262 -22.855  1.00  0.00     0.011 C 
HETATM   15  C25 UNL     1      -1.347  51.824 -23.681  1.00  0.00    -0.024 A 
HETATM   16  C26 UNL     1      -0.697  50.870 -24.658  1.00  0.00     0.022 A 
HETATM   17  C27 UNL     1      -1.518  52.019 -25.220  1.00  0.00    -0.021 A 
ENDROOT
BRANCH  10  18
HETATM   18  C13 UNL     1      -1.555  50.732 -18.347  1.00  0.00    -0.014 C 
HETATM   19  C14 UNL     1      -2.963  51.336 -18.357  1.00  0.00     0.010 C 
BRANCH  18  20
HETATM   20  C15 UNL     1      -0.915  50.833 -16.933  1.00  0.00     0.008 C 
BRANCH  20  21
HETATM   21  C16 UNL     1       0.423  50.096 -16.749  1.00  0.00     0.028 C 
BRANCH  21  22
HETATM   22  C17 UNL     1       1.100  50.392 -15.437  1.00  0.00    -0.013 C 
HETATM   23  C18 UNL     1       1.985  51.373 -15.163  1.00  0.00     0.008 C 
HETATM   24  C19 UNL     1       2.641  51.500 -13.820  1.00  0.00     0.055 C 
BRANCH  23  25
HETATM   25  C20 UNL     1       2.417  52.399 -16.138  1.00  0.00     0.171 C 
HETATM   26  O2  UNL     1       3.502  52.436 -16.690  1.00  0.00    -0.646 OA
BRANCH  25  27
HETATM   27  O3  UNL     1       1.517  53.383 -16.298  1.00  0.00    -0.773 OA
HETATM   28  H30 UNL     1       1.956  53.999 -16.920  1.00  0.00     0.167 HD
ENDBRANCH  25  27
ENDBRANCH  23  25
ENDBRANCH  21  22
ENDBRANCH  20  21
ENDBRANCH  18  20
ENDBRANCH  10  18
BRANCH  17  29
HETATM   29  C28 UNL     1      -2.905  51.758 -25.844  1.00  0.00     0.021 C 
BRANCH  29  30
HETATM   30  C29 UNL     1      -3.230  50.321 -26.234  1.00  0.00     0.111 C 
BRANCH  30  31
HETATM   31  C30 UNL     1      -3.325  50.126 -27.720  1.00  0.00     0.139 C 
HETATM   32  O4  UNL     1      -3.588  49.082 -28.293  1.00  0.00    -0.650 OA
BRANCH  31  33
HETATM   33  O5  UNL     1      -3.140  51.264 -28.416  1.00  0.00    -0.776 OA
HETATM   34  H44 UNL     1      -3.182  50.972 -29.350  1.00  0.00     0.167 HD
ENDBRANCH  31  33
ENDBRANCH  30  31
ENDBRANCH  29  30
ENDBRANCH  17  29
BRANCH   1  35
HETATM   35  C2  UNL     1      -0.362  52.935 -27.364  1.00  0.00    -0.086 C 
HETATM   36  C1  UNL     1      -0.630  53.773 -28.379  1.00  0.00     0.014 C 
HETATM   37  C3  UNL     1       0.363  51.639 -27.607  1.00  0.00     0.043 C 
ENDBRANCH   1  35
TORSDOF 11
ENDMDL
MODEL 6
REMARK minimizedAffinity -9.05016804
REMARK  11 active torsions:
REMARK  status: ('A' for Active; 'I' for Inactive)
REMARK    1  A    between atoms: C2_2  and  C4_4 
REMARK    2  A    between atoms: C12_13  and  C13_14 
REMARK    3  A    between atoms: C13_14  and  C15_16 
REMARK    4  A    between atoms: C15_16  and  C16_17 
REMARK    5  A    between atoms: C16_17  and  C17_18 
REMARK    6  A    between atoms: C18_19  and  C20_21 
REMARK    7  A    between atoms: C20_21  and  O3_23 
REMARK    8  A    between atoms: C27_30  and  C28_31 
REMARK    9  A    between atoms: C28_31  and  C29_32 
REMARK   10  A    between atoms: C29_32  and  C30_33 
REMARK   11  A    between atoms: C30_33  and  O5_35 
ROOT
HETATM    1  C4  UNL     1      -2.137  50.128 -25.046  1.00  0.00     0.054 C 
HETATM    2  C5  UNL     1      -3.068  49.055 -24.544  1.00  0.00     0.160 A 
HETATM    3  O1  UNL     1      -4.132  49.479 -23.680  1.00  0.00    -0.374 OA
HETATM    4  C6  UNL     1      -3.115  48.650 -23.102  1.00  0.00     0.157 A 
HETATM    5  C7  UNL     1      -2.197  49.277 -22.088  1.00  0.00     0.035 C 
HETATM    6  C8  UNL     1      -2.809  49.321 -20.634  1.00  0.00    -0.029 C 
HETATM    7  C9  UNL     1      -4.266  49.842 -20.639  1.00  0.00     0.016 C 
HETATM    8  C10 UNL     1      -2.847  47.866 -20.049  1.00  0.00     0.011 C 
HETATM    9  C11 UNL     1      -1.928  47.836 -18.835  1.00  0.00     0.006 C 
HETATM   10  C12 UNL     1      -1.964  49.268 -18.314  1.00  0.00    -0.002 C 
HETATM   11  C21 UNL     1      -1.886  50.134 -19.616  1.00  0.00    -0.032 C 
HETATM   12  C22 UNL     1      -2.386  51.562 -19.294  1.00  0.00     0.016 C 
HETATM   13  C23 UNL     1      -0.455  50.247 -20.188  1.00  0.00     0.011 C 
HETATM   14  C24 UNL     1      -0.390  50.971 -21.537  1.00  0.00     0.011 C 
HETATM   15  C25 UNL     1      -1.542  50.608 -22.473  1.00  0.00    -0.024 A 
HETATM   16  C26 UNL     1      -2.387  51.759 -22.970  1.00  0.00     0.022 A 
HETATM   17  C27 UNL     1      -1.492  51.047 -23.970  1.00  0.00    -0.021 A 
ENDROOT
BRANCH  10  18
HETATM   18  C13 UNL     1      -0.972  49.582 -17.152  1.00  0.00    -0.014 C 
HETATM   19  C14 UNL     1      -1.624  50.187 -15.905  1.00  0.00     0.010 C 
BRANCH  18  20
HETATM   20  C15 UNL     1       0.155  50.503 -17.696  1.00  0.00     0.008 C 
BRANCH  20  21
HETATM   21  C16 UNL     1       0.442  51.771 -16.873  1.00  0.00     0.028 C 
BRANCH  21  22
HETATM   22  C17 UNL     1       1.886  52.197 -16.900  1.00  0.00    -0.013 C 
HETATM   23  C18 UNL     1       2.803  52.085 -15.918  1.00  0.00     0.008 C 
HETATM   24  C19 UNL     1       4.194  52.627 -16.062  1.00  0.00     0.055 C 
BRANCH  23  25
HETATM   25  C20 UNL     1       2.544  51.449 -14.606  1.00  0.00     0.171 C 
HETATM   26  O2  UNL     1       2.275  50.274 -14.432  1.00  0.00    -0.646 OA
BRANCH  25  27
HETATM   27  O3  UNL     1       2.532  52.327 -13.590  1.00  0.00    -0.773 OA
HETATM   28  H30 UNL     1       2.304  51.777 -12.813  1.00  0.00     0.167 HD
ENDBRANCH  25  27
ENDBRANCH  23  25
ENDBRANCH  21  22
ENDBRANCH  20  21
ENDBRANCH  18  20
ENDBRANCH  10  18
BRANCH  17  29
HETATM   29  C28 UNL     1      -0.209  51.727 -24.494  1.00  0.00     0.021 C 
BRANCH  29  30
HETATM   30  C29 UNL     1      -0.179  53.251 -24.484  1.00  0.00     0.111 C 
BRANCH  30  31
HETATM   31  C30 UNL     1       0.268  53.835 -25.793  1.00  0.00     0.139 C 
HETATM   32  O4  UNL     1       0.627  53.207 -26.775  1.00  0.00    -0.650 OA
BRANCH  31  33
HETATM   33  O5  UNL     1       0.191  55.179 -25.827  1.00  0.00    -0.776 OA
HETATM   34  H44 UNL     1       0.553  55.407 -26.707  1.00  0.00     0.167 HD
ENDBRANCH  31  33
ENDBRANCH  30  31
ENDBRANCH  29  30
ENDBRANCH  17  29
BRANCH   1  35
HETATM   35  C2  UNL     1      -2.724  50.868 -26.255  1.00  0.00    -0.086 C 
HETATM   36  C1  UNL     1      -3.112  52.154 -26.216  1.00  0.00     0.014 C 
HETATM   37  C3  UNL     1      -2.878  50.056 -27.513  1.00  0.00     0.043 C 
ENDBRANCH   1  35
TORSDOF 11
ENDMDL
MODEL 7
REMARK minimizedAffinity -9.01860428
REMARK  11 active torsions:
REMARK  status: ('A' for Active; 'I' for Inactive)
REMARK    1  A    between atoms: C2_2  and  C4_4 
REMARK    2  A    between atoms: C12_13  and  C13_14 
REMARK    3  A    between atoms: C13_14  and  C15_16 
REMARK    4  A    between atoms: C15_16  and  C16_17 
REMARK    5  A    between atoms: C16_17  and  C17_18 
REMARK    6  A    between atoms: C18_19  and  C20_21 
REMARK    7  A    between atoms: C20_21  and  O3_23 
REMARK    8  A    between atoms: C27_30  and  C28_31 
REMARK    9  A    between atoms: C28_31  and  C29_32 
REMARK   10  A    between atoms: C29_32  and  C30_33 
REMARK   11  A    between atoms: C30_33  and  O5_35 
ROOT
HETATM    1  C4  UNL     1      -1.015  50.855 -25.913  1.00  0.00     0.054 C 
HETATM    2  C5  UNL     1      -2.041  49.753 -25.871  1.00  0.00     0.160 A 
HETATM    3  O1  UNL     1      -3.315  50.082 -25.299  1.00  0.00    -0.374 OA
HETATM    4  C6  UNL     1      -2.503  49.142 -24.583  1.00  0.00     0.157 A 
HETATM    5  C7  UNL     1      -1.928  49.580 -23.264  1.00  0.00     0.035 C 
HETATM    6  C8  UNL     1      -2.938  49.431 -22.061  1.00  0.00    -0.029 C 
HETATM    7  C9  UNL     1      -4.334  49.997 -22.409  1.00  0.00     0.016 C 
HETATM    8  C10 UNL     1      -3.130  47.908 -21.738  1.00  0.00     0.011 C 
HETATM    9  C11 UNL     1      -2.605  47.667 -20.330  1.00  0.00     0.006 C 
HETATM   10  C12 UNL     1      -2.806  49.007 -19.631  1.00  0.00    -0.002 C 
HETATM   11  C21 UNL     1      -2.359  50.052 -20.708  1.00  0.00    -0.032 C 
HETATM   12  C22 UNL     1      -2.946  51.434 -20.333  1.00  0.00     0.016 C 
HETATM   13  C23 UNL     1      -0.825  50.199 -20.816  1.00  0.00     0.011 C 
HETATM   14  C24 UNL     1      -0.377  51.110 -21.964  1.00  0.00     0.011 C 
HETATM   15  C25 UNL     1      -1.202  50.930 -23.237  1.00  0.00    -0.024 A 
HETATM   16  C26 UNL     1      -1.877  52.170 -23.777  1.00  0.00     0.022 A 
HETATM   17  C27 UNL     1      -0.721  51.583 -24.571  1.00  0.00    -0.021 A 
ENDROOT
BRANCH  10  18
HETATM   18  C13 UNL     1      -2.200  49.112 -18.198  1.00  0.00    -0.014 C 
HETATM   19  C14 UNL     1      -3.111  49.788 -17.169  1.00  0.00     0.010 C 
BRANCH  18  20
HETATM   20  C15 UNL     1      -0.827  49.836 -18.291  1.00  0.00     0.008 C 
BRANCH  20  21
HETATM   21  C16 UNL     1      -0.698  51.135 -17.476  1.00  0.00     0.028 C 
BRANCH  21  22
HETATM   22  C17 UNL     1       0.692  51.713 -17.475  1.00  0.00    -0.013 C 
HETATM   23  C18 UNL     1       1.475  51.990 -16.412  1.00  0.00     0.008 C 
HETATM   24  C19 UNL     1       2.818  52.640 -16.562  1.00  0.00     0.055 C 
BRANCH  23  25
HETATM   25  C20 UNL     1       1.099  51.712 -15.008  1.00  0.00     0.171 C 
HETATM   26  O2  UNL     1       0.963  50.605 -14.519  1.00  0.00    -0.646 OA
BRANCH  25  27
HETATM   27  O3  UNL     1       0.814  52.824 -14.310  1.00  0.00    -0.773 OA
HETATM   28  H30 UNL     1       0.541  52.483 -13.434  1.00  0.00     0.167 HD
ENDBRANCH  25  27
ENDBRANCH  23  25
ENDBRANCH  21  22
ENDBRANCH  20  21
ENDBRANCH  18  20
ENDBRANCH  10  18
BRANCH  17  29
HETATM   29  C28 UNL     1       0.651  52.287 -24.591  1.00  0.00     0.021 C 
BRANCH  29  30
HETATM   30  C29 UNL     1       0.735  53.662 -23.939  1.00  0.00     0.111 C 
BRANCH  30  31
HETATM   31  C30 UNL     1       0.636  54.786 -24.929  1.00  0.00     0.139 C 
HETATM   32  O4  UNL     1       0.126  54.726 -26.036  1.00  0.00    -0.650 OA
BRANCH  31  33
HETATM   33  O5  UNL     1       1.133  55.948 -24.463  1.00  0.00    -0.776 OA
HETATM   34  H44 UNL     1       1.043  56.558 -25.224  1.00  0.00     0.167 HD
ENDBRANCH  31  33
ENDBRANCH  30  31
ENDBRANCH  29  30
ENDBRANCH  17  29
BRANCH   1  35
HETATM   35  C2  UNL     1      -1.231  51.785 -27.114  1.00  0.00    -0.086 C 
HETATM   36  C1  UNL     1      -2.356  52.495 -27.306  1.00  0.00     0.014 C 
HETATM   37  C3  UNL     1      -0.105  51.844 -28.112  1.00  0.00     0.043 C 
ENDBRANCH   1  35
TORSDOF 11
ENDMDL
MODEL 8
REMARK minimizedAffinity -8.90664196
REMARK  11 active torsions:
REMARK  status: ('A' for Active; 'I' for Inactive)
REMARK    1  A    between atoms: C2_2  and  C4_4 
REMARK    2  A    between atoms: C12_13  and  C13_14 
REMARK    3  A    between atoms: C13_14  and  C15_16 
REMARK    4  A    between atoms: C15_16  and  C16_17 
REMARK    5  A    between atoms: C16_17  and  C17_18 
REMARK    6  A    between atoms: C18_19  and  C20_21 
REMARK    7  A    between atoms: C20_21  and  O3_23 
REMARK    8  A    between atoms: C27_30  and  C28_31 
REMARK    9  A    between atoms: C28_31  and  C29_32 
REMARK   10  A    between atoms: C29_32  and  C30_33 
REMARK   11  A    between atoms: C30_33  and  O5_35 
ROOT
HETATM    1  C4  UNL     1       0.639  52.167 -22.068  1.00  0.00     0.054 C 
HETATM    2  C5  UNL     1       0.850  52.496 -23.523  1.00  0.00     0.160 A 
HETATM    3  O1  UNL     1      -0.194  53.234 -24.173  1.00  0.00    -0.374 OA
HETATM    4  C6  UNL     1       0.017  51.884 -24.608  1.00  0.00     0.157 A 
HETATM    5  C7  UNL     1      -1.052  50.875 -24.292  1.00  0.00     0.035 C 
HETATM    6  C8  UNL     1      -2.246  50.886 -25.324  1.00  0.00    -0.029 C 
HETATM    7  C9  UNL     1      -2.741  52.322 -25.616  1.00  0.00     0.016 C 
HETATM    8  C10 UNL     1      -1.753  50.286 -26.687  1.00  0.00     0.011 C 
HETATM    9  C11 UNL     1      -2.548  49.014 -26.943  1.00  0.00     0.006 C 
HETATM   10  C12 UNL     1      -3.872  49.259 -26.227  1.00  0.00    -0.002 C 
HETATM   11  C21 UNL     1      -3.439  49.922 -24.876  1.00  0.00    -0.032 C 
HETATM   12  C22 UNL     1      -4.660  50.650 -24.266  1.00  0.00     0.016 C 
HETATM   13  C23 UNL     1      -2.922  48.904 -23.835  1.00  0.00     0.011 C 
HETATM   14  C24 UNL     1      -2.362  49.556 -22.566  1.00  0.00     0.011 C 
HETATM   15  C25 UNL     1      -1.549  50.819 -22.843  1.00  0.00    -0.024 A 
HETATM   16  C26 UNL     1      -2.011  52.078 -22.146  1.00  0.00     0.022 A 
HETATM   17  C27 UNL     1      -0.696  51.458 -21.703  1.00  0.00    -0.021 A 
ENDROOT
BRANCH  10  18
HETATM   18  C13 UNL     1      -4.842  48.039 -26.178  1.00  0.00    -0.014 C 
HETATM   19  C14 UNL     1      -5.837  47.971 -27.341  1.00  0.00     0.010 C 
BRANCH  18  20
HETATM   20  C15 UNL     1      -5.582  48.046 -24.811  1.00  0.00     0.008 C 
BRANCH  20  21
HETATM   21  C16 UNL     1      -7.093  48.330 -24.867  1.00  0.00     0.028 C 
BRANCH  21  22
HETATM   22  C17 UNL     1      -7.853  47.791 -23.684  1.00  0.00    -0.013 C 
HETATM   23  C18 UNL     1      -7.994  48.350 -22.464  1.00  0.00     0.008 C 
HETATM   24  C19 UNL     1      -8.722  47.656 -21.351  1.00  0.00     0.055 C 
BRANCH  23  25
HETATM   25  C20 UNL     1      -7.442  49.669 -22.084  1.00  0.00     0.171 C 
HETATM   26  O2  UNL     1      -6.862  49.919 -21.043  1.00  0.00    -0.646 OA
BRANCH  25  27
HETATM   27  O3  UNL     1      -7.728  50.634 -22.973  1.00  0.00    -0.773 OA
HETATM   28  H30 UNL     1      -7.349  51.441 -22.569  1.00  0.00     0.167 HD
ENDBRANCH  25  27
ENDBRANCH  23  25
ENDBRANCH  21  22
ENDBRANCH  20  21
ENDBRANCH  18  20
ENDBRANCH  10  18
BRANCH  17  29
HETATM   29  C28 UNL     1      -0.598  50.714 -20.354  1.00  0.00     0.021 C 
BRANCH  29  30
HETATM   30  C29 UNL     1      -1.856  50.665 -19.496  1.00  0.00     0.111 C 
BRANCH  30  31
HETATM   31  C30 UNL     1      -1.568  50.793 -18.028  1.00  0.00     0.139 C 
HETATM   32  O4  UNL     1      -2.302  51.294 -17.193  1.00  0.00    -0.650 OA
BRANCH  31  33
HETATM   33  O5  UNL     1      -0.396  50.237 -17.668  1.00  0.00    -0.776 OA
HETATM   34  H44 UNL     1      -0.329  50.439 -16.713  1.00  0.00     0.167 HD
ENDBRANCH  31  33
ENDBRANCH  30  31
ENDBRANCH  29  30
ENDBRANCH  17  29
BRANCH   1  35
HETATM   35  C2  UNL     1       1.009  53.347 -21.160  1.00  0.00    -0.086 C 
HETATM   36  C1  UNL     1       1.685  54.425 -21.590  1.00  0.00     0.014 C 
HETATM   37  C3  UNL     1       0.596  53.222 -19.718  1.00  0.00     0.043 C 
ENDBRANCH   1  35
TORSDOF 11
ENDMDL
MODEL 9
REMARK minimizedAffinity -8.72446632
REMARK  11 active torsions:
REMARK  status: ('A' for Active; 'I' for Inactive)
REMARK    1  A    between atoms: C2_2  and  C4_4 
REMARK    2  A    between atoms: C12_13  and  C13_14 
REMARK    3  A    between atoms: C13_14  and  C15_16 
REMARK    4  A    between atoms: C15_16  and  C16_17 
REMARK    5  A    between atoms: C16_17  and  C17_18 
REMARK    6  A    between atoms: C18_19  and  C20_21 
REMARK    7  A    between atoms: C20_21  and  O3_23 
REMARK    8  A    between atoms: C27_30  and  C28_31 
REMARK    9  A    between atoms: C28_31  and  C29_32 
REMARK   10  A    between atoms: C29_32  and  C30_33 
REMARK   11  A    between atoms: C30_33  and  O5_35 
ROOT
HETATM    1  C4  UNL     1      -1.086  50.920 -15.077  1.00  0.00     0.054 C 
HETATM    2  C5  UNL     1      -2.421  50.336 -15.457  1.00  0.00     0.160 A 
HETATM    3  O1  UNL     1      -2.398  49.137 -16.245  1.00  0.00    -0.374 OA
HETATM    4  C6  UNL     1      -2.912  50.320 -16.872  1.00  0.00     0.157 A 
HETATM    5  C7  UNL     1      -2.099  50.928 -17.983  1.00  0.00     0.035 C 
HETATM    6  C8  UNL     1      -2.337  50.236 -19.382  1.00  0.00    -0.029 C 
HETATM    7  C9  UNL     1      -2.287  48.694 -19.276  1.00  0.00     0.016 C 
HETATM    8  C10 UNL     1      -3.768  50.612 -19.904  1.00  0.00     0.011 C 
HETATM    9  C11 UNL     1      -3.592  51.411 -21.188  1.00  0.00     0.006 C 
HETATM   10  C12 UNL     1      -2.276  50.899 -21.761  1.00  0.00    -0.002 C 
HETATM   11  C21 UNL     1      -1.347  50.792 -20.505  1.00  0.00    -0.032 C 
HETATM   12  C22 UNL     1      -0.163  49.854 -20.841  1.00  0.00     0.016 C 
HETATM   13  C23 UNL     1      -0.766  52.152 -20.060  1.00  0.00     0.011 C 
HETATM   14  C24 UNL     1       0.027  52.080 -18.749  1.00  0.00     0.011 C 
HETATM   15  C25 UNL     1      -0.610  51.163 -17.708  1.00  0.00    -0.024 A 
HETATM   16  C26 UNL     1       0.256  50.038 -17.188  1.00  0.00     0.022 A 
HETATM   17  C27 UNL     1      -0.083  51.175 -16.238  1.00  0.00    -0.021 A 
ENDROOT
BRANCH  10  18
HETATM   18  C13 UNL     1      -1.748  51.664 -23.013  1.00  0.00    -0.014 C 
HETATM   19  C14 UNL     1      -2.748  52.652 -23.623  1.00  0.00     0.010 C 
BRANCH  18  20
HETATM   20  C15 UNL     1      -1.275  50.625 -24.068  1.00  0.00     0.008 C 
BRANCH  20  21
HETATM   21  C16 UNL     1      -1.596  50.963 -25.534  1.00  0.00     0.028 C 
BRANCH  21  22
HETATM   22  C17 UNL     1      -0.397  50.916 -26.442  1.00  0.00    -0.013 C 
HETATM   23  C18 UNL     1       0.173  51.936 -27.117  1.00  0.00     0.008 C 
HETATM   24  C19 UNL     1       1.327  51.724 -28.052  1.00  0.00     0.055 C 
BRANCH  23  25
HETATM   25  C20 UNL     1      -0.276  53.343 -27.032  1.00  0.00     0.171 C 
HETATM   26  O2  UNL     1      -1.197  53.830 -27.664  1.00  0.00    -0.646 OA
BRANCH  25  27
HETATM   27  O3  UNL     1       0.507  54.098 -26.245  1.00  0.00    -0.773 OA
HETATM   28  H30 UNL     1       0.122  54.994 -26.327  1.00  0.00     0.167 HD
ENDBRANCH  25  27
ENDBRANCH  23  25
ENDBRANCH  21  22
ENDBRANCH  20  21
ENDBRANCH  18  20
ENDBRANCH  10  18
BRANCH  17  29
HETATM   29  C28 UNL     1       0.988  52.216 -15.851  1.00  0.00     0.021 C 
BRANCH  29  30
HETATM   30  C29 UNL     1       2.372  51.687 -15.495  1.00  0.00     0.111 C 
BRANCH  30  31
HETATM   31  C30 UNL     1       3.477  52.428 -16.191  1.00  0.00     0.139 C 
HETATM   32  O4  UNL     1       4.593  51.996 -16.430  1.00  0.00    -0.650 OA
BRANCH  31  33
HETATM   33  O5  UNL     1       3.114  53.658 -16.603  1.00  0.00    -0.776 OA
HETATM   34  H44 UNL     1       3.937  54.024 -16.986  1.00  0.00     0.167 HD
ENDBRANCH  31  33
ENDBRANCH  30  31
ENDBRANCH  29  30
ENDBRANCH  17  29
BRANCH   1  35
HETATM   35  C2  UNL     1      -0.485  50.215 -13.853  1.00  0.00    -0.086 C 
HETATM   36  C1  UNL     1      -0.061  48.940 -13.870  1.00  0.00     0.014 C 
HETATM   37  C3  UNL     1      -0.419  51.032 -12.590  1.00  0.00     0.043 C 
ENDBRANCH   1  35
TORSDOF 11
ENDMDL
