MODEL 1
REMARK minimizedAffinity -7.43316555
REMARK CNNscore 0.697023809
REMARK CNNaffinity 6.60646963
REMARK  4 active torsions:
REMARK  status: ('A' for Active; 'I' for Inactive)
REMARK    1  A    between atoms: C4_4  and  C5_5 
REMARK    2  A    between atoms: C5_5  and  C6_6 
REMARK    3  A    between atoms: C6_6  and  C7_7 
REMARK    4  A    between atoms: C7_7  and  C9_9 
ROOT
HETATM    1  C9  UNL     1       4.542  54.493  -7.900  1.00  0.00    -0.002 C 
HETATM    2  C10 UNL     1       4.049  54.376  -6.420  1.00  0.00     0.006 C 
HETATM    3  C11 UNL     1       2.516  54.541  -6.415  1.00  0.00     0.011 C 
HETATM    4  C12 UNL     1       2.111  54.399  -7.887  1.00  0.00    -0.032 C 
HETATM    5  C13 UNL     1       2.065  52.865  -8.176  1.00  0.00     0.016 C 
HETATM    6  C14 UNL     1       0.761  55.055  -8.300  1.00  0.00     0.004 C 
HETATM    7  C15 UNL     1      -0.476  54.619  -7.507  1.00  0.00     0.007 C 
HETATM    8  C16 UNL     1      -1.247  53.391  -7.979  1.00  0.00     0.007 C 
HETATM    9  C17 UNL     1      -1.090  52.931  -9.441  1.00  0.00     0.010 C 
HETATM   10  C18 UNL     1      -2.415  52.400 -10.094  1.00  0.00     0.018 C 
HETATM   11  C19 UNL     1      -2.923  51.160  -9.339  1.00  0.00     0.023 C 
HETATM   12  C20 UNL     1      -3.537  53.455 -10.156  1.00  0.00     0.023 C 
HETATM   13  C21 UNL     1      -2.130  51.963 -11.541  1.00  0.00     0.135 C 
HETATM   14  O1  UNL     1      -3.031  51.626 -12.313  1.00  0.00    -0.297 OA
HETATM   15  C22 UNL     1      -0.687  51.903 -11.973  1.00  0.00     0.080 C 
HETATM   16  C23 UNL     1      -0.014  53.245 -11.735  1.00  0.00     0.018 C 
HETATM   17  C24 UNL     1      -0.366  53.886 -10.391  1.00  0.00    -0.026 A 
HETATM   18  C25 UNL     1      -0.761  55.348 -10.407  1.00  0.00     0.021 A 
HETATM   19  C26 UNL     1       0.579  54.959  -9.822  1.00  0.00    -0.027 A 
HETATM   20  C27 UNL     1       1.787  55.465 -10.623  1.00  0.00     0.011 C 
HETATM   21  C28 UNL     1       3.146  54.941 -10.119  1.00  0.00     0.011 C 
HETATM   22  C29 UNL     1       3.311  55.154  -8.601  1.00  0.00    -0.032 C 
HETATM   23  C30 UNL     1       3.361  56.691  -8.323  1.00  0.00     0.016 C 
ENDROOT
BRANCH   1  24
HETATM   24  C7  UNL     1       5.957  55.149  -7.986  1.00  0.00    -0.014 C 
HETATM   25  C8  UNL     1       6.803  54.553  -9.116  1.00  0.00     0.010 C 
BRANCH  24  26
HETATM   26  C6  UNL     1       6.692  54.988  -6.623  1.00  0.00     0.008 C 
BRANCH  26  27
HETATM   27  C5  UNL     1       7.405  56.231  -6.072  1.00  0.00     0.028 C 
BRANCH  27  28
HETATM   28  C4  UNL     1       8.845  55.996  -5.707  1.00  0.00    -0.025 C 
HETATM   29  C2  UNL     1       9.706  56.892  -5.184  1.00  0.00    -0.091 C 
HETATM   30  C1  UNL     1       9.389  58.340  -4.937  1.00  0.00     0.042 C 
HETATM   31  C3  UNL     1      11.108  56.487  -4.809  1.00  0.00     0.042 C 
ENDBRANCH  27  28
ENDBRANCH  26  27
ENDBRANCH  24  26
ENDBRANCH   1  24
TORSDOF 4
ENDMDL
MODEL 2
REMARK minimizedAffinity -7.25081015
REMARK CNNscore 0.573989868
REMARK CNNaffinity 6.81009102
REMARK  4 active torsions:
REMARK  status: ('A' for Active; 'I' for Inactive)
REMARK    1  A    between atoms: C4_4  and  C5_5 
REMARK    2  A    between atoms: C5_5  and  C6_6 
REMARK    3  A    between atoms: C6_6  and  C7_7 
REMARK    4  A    between atoms: C7_7  and  C9_9 
ROOT
HETATM    1  C9  UNL     1       3.347  55.185  -8.009  1.00  0.00    -0.002 C 
HETATM    2  C10 UNL     1       2.318  56.223  -7.450  1.00  0.00     0.006 C 
HETATM    3  C11 UNL     1       1.030  56.114  -8.290  1.00  0.00     0.011 C 
HETATM    4  C12 UNL     1       1.193  54.805  -9.074  1.00  0.00    -0.032 C 
HETATM    5  C13 UNL     1       0.792  53.661  -8.091  1.00  0.00     0.016 C 
HETATM    6  C14 UNL     1       0.373  54.681 -10.392  1.00  0.00     0.004 C 
HETATM    7  C15 UNL     1      -1.141  54.882 -10.270  1.00  0.00     0.007 C 
HETATM    8  C16 UNL     1      -2.011  53.673  -9.942  1.00  0.00     0.007 C 
HETATM    9  C17 UNL     1      -1.459  52.262 -10.220  1.00  0.00     0.010 C 
HETATM   10  C18 UNL     1      -2.529  51.246 -10.757  1.00  0.00     0.018 C 
HETATM   11  C19 UNL     1      -3.640  51.041  -9.713  1.00  0.00     0.023 C 
HETATM   12  C20 UNL     1      -3.160  51.668 -12.098  1.00  0.00     0.023 C 
HETATM   13  C21 UNL     1      -1.864  49.879 -10.985  1.00  0.00     0.135 C 
HETATM   14  O1  UNL     1      -2.460  48.942 -11.522  1.00  0.00    -0.297 OA
HETATM   15  C22 UNL     1      -0.460  49.698 -10.468  1.00  0.00     0.080 C 
HETATM   16  C23 UNL     1       0.449  50.776 -11.038  1.00  0.00     0.018 C 
HETATM   17  C24 UNL     1      -0.173  52.173 -11.043  1.00  0.00    -0.026 A 
HETATM   18  C25 UNL     1      -0.062  52.973 -12.324  1.00  0.00     0.021 A 
HETATM   19  C26 UNL     1       0.765  53.391 -11.128  1.00  0.00    -0.027 A 
HETATM   20  C27 UNL     1       2.279  53.222 -11.318  1.00  0.00     0.011 C 
HETATM   21  C28 UNL     1       3.112  53.499 -10.051  1.00  0.00     0.011 C 
HETATM   22  C29 UNL     1       2.743  54.852  -9.412  1.00  0.00    -0.032 C 
HETATM   23  C30 UNL     1       3.153  55.990 -10.400  1.00  0.00     0.016 C 
ENDROOT
BRANCH   1  24
HETATM   24  C7  UNL     1       4.815  55.701  -7.874  1.00  0.00    -0.014 C 
HETATM   25  C8  UNL     1       4.875  57.179  -7.472  1.00  0.00     0.010 C 
BRANCH  24  26
HETATM   26  C6  UNL     1       5.574  55.480  -9.215  1.00  0.00     0.008 C 
BRANCH  26  27
HETATM   27  C5  UNL     1       6.723  54.462  -9.199  1.00  0.00     0.028 C 
BRANCH  27  28
HETATM   28  C4  UNL     1       6.593  53.413  -8.128  1.00  0.00    -0.025 C 
HETATM   29  C2  UNL     1       6.648  52.076  -8.290  1.00  0.00    -0.091 C 
HETATM   30  C1  UNL     1       6.781  51.380  -9.616  1.00  0.00     0.042 C 
HETATM   31  C3  UNL     1       6.565  51.151  -7.105  1.00  0.00     0.042 C 
ENDBRANCH  27  28
ENDBRANCH  26  27
ENDBRANCH  24  26
ENDBRANCH   1  24
TORSDOF 4
ENDMDL
MODEL 3
REMARK minimizedAffinity -6.83050585
REMARK CNNscore 0.509012938
REMARK CNNaffinity 6.66922951
REMARK  4 active torsions:
REMARK  status: ('A' for Active; 'I' for Inactive)
REMARK    1  A    between atoms: C4_4  and  C5_5 
REMARK    2  A    between atoms: C5_5  and  C6_6 
REMARK    3  A    between atoms: C6_6  and  C7_7 
REMARK    4  A    between atoms: C7_7  and  C9_9 
ROOT
HETATM    1  C9  UNL     1       3.741  55.154  -8.354  1.00  0.00    -0.002 C 
HETATM    2  C10 UNL     1       2.759  56.194  -7.719  1.00  0.00     0.006 C 
HETATM    3  C11 UNL     1       1.410  56.085  -8.459  1.00  0.00     0.011 C 
HETATM    4  C12 UNL     1       1.512  54.776  -9.251  1.00  0.00    -0.032 C 
HETATM    5  C13 UNL     1       1.185  53.633  -8.240  1.00  0.00     0.016 C 
HETATM    6  C14 UNL     1       0.594  54.652 -10.503  1.00  0.00     0.004 C 
HETATM    7  C15 UNL     1      -0.906  54.854 -10.267  1.00  0.00     0.007 C 
HETATM    8  C16 UNL     1      -1.750  53.647  -9.873  1.00  0.00     0.007 C 
HETATM    9  C17 UNL     1      -1.222  52.235 -10.190  1.00  0.00     0.010 C 
HETATM   10  C18 UNL     1      -2.332  51.221 -10.643  1.00  0.00     0.018 C 
HETATM   11  C19 UNL     1      -3.361  51.017  -9.518  1.00  0.00     0.023 C 
HETATM   12  C20 UNL     1      -3.063  51.642 -11.933  1.00  0.00     0.023 C 
HETATM   13  C21 UNL     1      -1.688  49.852 -10.920  1.00  0.00     0.135 C 
HETATM   14  O1  UNL     1      -2.323  48.915 -11.410  1.00  0.00    -0.297 OA
HETATM   15  C22 UNL     1      -0.248  49.670 -10.511  1.00  0.00     0.080 C 
HETATM   16  C23 UNL     1       0.616  50.746 -11.150  1.00  0.00     0.018 C 
HETATM   17  C24 UNL     1      -0.003  52.144 -11.109  1.00  0.00    -0.026 A 
HETATM   18  C25 UNL     1       0.011  52.942 -12.395  1.00  0.00     0.021 A 
HETATM   19  C26 UNL     1       0.927  53.361 -11.266  1.00  0.00    -0.027 A 
HETATM   20  C27 UNL     1       2.422  53.189 -11.570  1.00  0.00     0.011 C 
HETATM   21  C28 UNL     1       3.349  53.466 -10.371  1.00  0.00     0.011 C 
HETATM   22  C29 UNL     1       3.032  54.820  -9.707  1.00  0.00    -0.032 C 
HETATM   23  C30 UNL     1       3.367  55.957 -10.724  1.00  0.00     0.016 C 
ENDROOT
BRANCH   1  24
HETATM   24  C7  UNL     1       5.216  55.668  -8.332  1.00  0.00    -0.014 C 
HETATM   25  C8  UNL     1       6.199  54.630  -8.886  1.00  0.00     0.010 C 
BRANCH  24  26
HETATM   26  C6  UNL     1       5.613  56.059  -6.878  1.00  0.00     0.008 C 
BRANCH  26  27
HETATM   27  C5  UNL     1       5.882  57.546  -6.612  1.00  0.00     0.028 C 
BRANCH  27  28
HETATM   28  C4  UNL     1       5.821  57.927  -5.158  1.00  0.00    -0.025 C 
HETATM   29  C2  UNL     1       4.745  58.375  -4.482  1.00  0.00    -0.091 C 
HETATM   30  C1  UNL     1       3.401  58.650  -5.096  1.00  0.00     0.042 C 
HETATM   31  C3  UNL     1       4.824  58.655  -3.004  1.00  0.00     0.042 C 
ENDBRANCH  27  28
ENDBRANCH  26  27
ENDBRANCH  24  26
ENDBRANCH   1  24
TORSDOF 4
ENDMDL
MODEL 4
REMARK minimizedAffinity -7.23318672
REMARK CNNscore 0.481394887
REMARK CNNaffinity 6.26034403
REMARK  4 active torsions:
REMARK  status: ('A' for Active; 'I' for Inactive)
REMARK    1  A    between atoms: C4_4  and  C5_5 
REMARK    2  A    between atoms: C5_5  and  C6_6 
REMARK    3  A    between atoms: C6_6  and  C7_7 
REMARK    4  A    between atoms: C7_7  and  C9_9 
ROOT
HETATM    1  C9  UNL     1       0.324  54.383  -9.113  1.00  0.00    -0.002 C 
HETATM    2  C10 UNL     1      -0.681  55.459  -9.641  1.00  0.00     0.006 C 
HETATM    3  C11 UNL     1      -1.729  54.741 -10.515  1.00  0.00     0.011 C 
HETATM    4  C12 UNL     1      -1.534  53.252 -10.203  1.00  0.00    -0.032 C 
HETATM    5  C13 UNL     1      -2.294  52.989  -8.865  1.00  0.00     0.016 C 
HETATM    6  C14 UNL     1      -2.015  52.248 -11.291  1.00  0.00     0.004 C 
HETATM    7  C15 UNL     1      -3.479  52.371 -11.727  1.00  0.00     0.007 C 
HETATM    8  C16 UNL     1      -4.538  51.603 -10.945  1.00  0.00     0.007 C 
HETATM    9  C17 UNL     1      -4.104  50.390 -10.099  1.00  0.00     0.010 C 
HETATM   10  C18 UNL     1      -5.123  49.195 -10.118  1.00  0.00     0.018 C 
HETATM   11  C19 UNL     1      -6.472  49.634  -9.522  1.00  0.00     0.023 C 
HETATM   12  C20 UNL     1      -5.353  48.604 -11.522  1.00  0.00     0.023 C 
HETATM   13  C21 UNL     1      -4.587  48.056  -9.235  1.00  0.00     0.135 C 
HETATM   14  O1  UNL     1      -5.139  46.954  -9.180  1.00  0.00    -0.297 OA
HETATM   15  C22 UNL     1      -3.383  48.353  -8.378  1.00  0.00     0.080 C 
HETATM   16  C23 UNL     1      -2.243  48.868  -9.242  1.00  0.00     0.018 C 
HETATM   17  C24 UNL     1      -2.675  49.883 -10.301  1.00  0.00    -0.026 A 
HETATM   18  C25 UNL     1      -2.162  49.670 -11.710  1.00  0.00     0.021 A 
HETATM   19  C26 UNL     1      -1.610  50.820 -10.896  1.00  0.00    -0.027 A 
HETATM   20  C27 UNL     1      -0.126  50.677 -10.530  1.00  0.00     0.011 C 
HETATM   21  C28 UNL     1       0.399  51.765  -9.573  1.00  0.00     0.011 C 
HETATM   22  C29 UNL     1       0.047  53.180 -10.072  1.00  0.00    -0.032 C 
HETATM   23  C30 UNL     1       0.816  53.435 -11.407  1.00  0.00     0.016 C 
ENDROOT
BRANCH   1  24
HETATM   24  C7  UNL     1       1.765  54.967  -8.961  1.00  0.00    -0.014 C 
HETATM   25  C8  UNL     1       1.881  55.918  -7.765  1.00  0.00     0.010 C 
BRANCH  24  26
HETATM   26  C6  UNL     1       2.175  55.701 -10.271  1.00  0.00     0.008 C 
BRANCH  26  27
HETATM   27  C5  UNL     1       3.563  56.355 -10.291  1.00  0.00     0.028 C 
BRANCH  27  28
HETATM   28  C4  UNL     1       4.701  55.372 -10.266  1.00  0.00    -0.025 C 
HETATM   29  C2  UNL     1       5.547  55.136  -9.244  1.00  0.00    -0.091 C 
HETATM   30  C1  UNL     1       5.546  55.886  -7.942  1.00  0.00     0.042 C 
HETATM   31  C3  UNL     1       6.604  54.068  -9.348  1.00  0.00     0.042 C 
ENDBRANCH  27  28
ENDBRANCH  26  27
ENDBRANCH  24  26
ENDBRANCH   1  24
TORSDOF 4
ENDMDL
MODEL 5
REMARK minimizedAffinity -6.68802214
REMARK CNNscore 0.470088929
REMARK CNNaffinity 6.42489481
REMARK  4 active torsions:
REMARK  status: ('A' for Active; 'I' for Inactive)
REMARK    1  A    between atoms: C4_4  and  C5_5 
REMARK    2  A    between atoms: C5_5  and  C6_6 
REMARK    3  A    between atoms: C6_6  and  C7_7 
REMARK    4  A    between atoms: C7_7  and  C9_9 
ROOT
HETATM    1  C9  UNL     1       1.953  54.145  -9.962  1.00  0.00    -0.002 C 
HETATM    2  C10 UNL     1       2.990  53.170 -10.610  1.00  0.00     0.006 C 
HETATM    3  C11 UNL     1       4.398  53.598 -10.148  1.00  0.00     0.011 C 
HETATM    4  C12 UNL     1       4.141  54.568  -8.987  1.00  0.00    -0.032 C 
HETATM    5  C13 UNL     1       3.870  53.678  -7.733  1.00  0.00     0.016 C 
HETATM    6  C14 UNL     1       5.275  55.589  -8.675  1.00  0.00     0.004 C 
HETATM    7  C15 UNL     1       6.661  54.999  -8.397  1.00  0.00     0.007 C 
HETATM    8  C16 UNL     1       7.009  54.598  -6.967  1.00  0.00     0.007 C 
HETATM    9  C17 UNL     1       6.207  55.219  -5.806  1.00  0.00     0.010 C 
HETATM   10  C18 UNL     1       7.069  55.550  -4.536  1.00  0.00     0.018 C 
HETATM   11  C19 UNL     1       7.680  54.263  -3.955  1.00  0.00     0.023 C 
HETATM   12  C20 UNL     1       8.190  56.573  -4.802  1.00  0.00     0.023 C 
HETATM   13  C21 UNL     1       6.162  56.151  -3.448  1.00  0.00     0.135 C 
HETATM   14  O1  UNL     1       6.616  56.612  -2.399  1.00  0.00    -0.297 OA
HETATM   15  C22 UNL     1       4.674  56.102  -3.685  1.00  0.00     0.080 C 
HETATM   16  C23 UNL     1       4.334  56.761  -5.012  1.00  0.00     0.018 C 
HETATM   17  C24 UNL     1       5.285  56.389  -6.151  1.00  0.00    -0.026 A 
HETATM   18  C25 UNL     1       5.820  57.523  -7.000  1.00  0.00     0.021 A 
HETATM   19  C26 UNL     1       4.801  56.578  -7.600  1.00  0.00    -0.027 A 
HETATM   20  C27 UNL     1       3.446  57.228  -7.910  1.00  0.00     0.011 C 
HETATM   21  C28 UNL     1       2.359  56.239  -8.374  1.00  0.00     0.011 C 
HETATM   22  C29 UNL     1       2.861  55.339  -9.520  1.00  0.00    -0.032 C 
HETATM   23  C30 UNL     1       3.124  56.237 -10.771  1.00  0.00     0.016 C 
ENDROOT
BRANCH   1  24
HETATM   24  C7  UNL     1       0.723  54.380 -10.896  1.00  0.00    -0.014 C 
HETATM   25  C8  UNL     1      -0.366  55.219 -10.219  1.00  0.00     0.010 C 
BRANCH  24  26
HETATM   26  C6  UNL     1       0.140  53.010 -11.350  1.00  0.00     0.008 C 
BRANCH  26  27
HETATM   27  C5  UNL     1       0.413  52.589 -12.800  1.00  0.00     0.028 C 
BRANCH  27  28
HETATM   28  C4  UNL     1       1.278  51.365 -12.928  1.00  0.00    -0.025 C 
HETATM   29  C2  UNL     1       2.110  51.062 -13.943  1.00  0.00    -0.091 C 
HETATM   30  C1  UNL     1       2.269  51.881 -15.194  1.00  0.00     0.042 C 
HETATM   31  C3  UNL     1       2.964  49.822 -13.897  1.00  0.00     0.042 C 
ENDBRANCH  27  28
ENDBRANCH  26  27
ENDBRANCH  24  26
ENDBRANCH   1  24
TORSDOF 4
ENDMDL
MODEL 6
REMARK minimizedAffinity -7.08719349
REMARK CNNscore 0.467076153
REMARK CNNaffinity 6.18857002
REMARK  4 active torsions:
REMARK  status: ('A' for Active; 'I' for Inactive)
REMARK    1  A    between atoms: C4_4  and  C5_5 
REMARK    2  A    between atoms: C5_5  and  C6_6 
REMARK    3  A    between atoms: C6_6  and  C7_7 
REMARK    4  A    between atoms: C7_7  and  C9_9 
ROOT
HETATM    1  C9  UNL     1       1.974  54.285  -9.956  1.00  0.00    -0.002 C 
HETATM    2  C10 UNL     1       2.981  53.281 -10.608  1.00  0.00     0.006 C 
HETATM    3  C11 UNL     1       4.399  53.653 -10.130  1.00  0.00     0.011 C 
HETATM    4  C12 UNL     1       4.168  54.616  -8.959  1.00  0.00    -0.032 C 
HETATM    5  C13 UNL     1       3.855  53.721  -7.719  1.00  0.00     0.016 C 
HETATM    6  C14 UNL     1       5.334  55.593  -8.626  1.00  0.00     0.004 C 
HETATM    7  C15 UNL     1       6.697  54.950  -8.345  1.00  0.00     0.007 C 
HETATM    8  C16 UNL     1       7.018  54.519  -6.918  1.00  0.00     0.007 C 
HETATM    9  C17 UNL     1       6.231  55.154  -5.755  1.00  0.00     0.010 C 
HETATM   10  C18 UNL     1       7.093  55.438  -4.474  1.00  0.00     0.018 C 
HETATM   11  C19 UNL     1       7.654  54.123  -3.905  1.00  0.00     0.023 C 
HETATM   12  C20 UNL     1       8.252  56.424  -4.718  1.00  0.00     0.023 C 
HETATM   13  C21 UNL     1       6.200  56.057  -3.386  1.00  0.00     0.135 C 
HETATM   14  O1  UNL     1       6.661  56.489  -2.327  1.00  0.00    -0.297 OA
HETATM   15  C22 UNL     1       4.713  56.064  -3.634  1.00  0.00     0.080 C 
HETATM   16  C23 UNL     1       4.408  56.751  -4.955  1.00  0.00     0.018 C 
HETATM   17  C24 UNL     1       5.353  56.360  -6.092  1.00  0.00    -0.026 A 
HETATM   18  C25 UNL     1       5.935  57.484  -6.922  1.00  0.00     0.021 A 
HETATM   19  C26 UNL     1       4.888  56.585  -7.542  1.00  0.00    -0.027 A 
HETATM   20  C27 UNL     1       3.559  57.287  -7.854  1.00  0.00     0.011 C 
HETATM   21  C28 UNL     1       2.441  56.342  -8.338  1.00  0.00     0.011 C 
HETATM   22  C29 UNL     1       2.920  55.440  -9.492  1.00  0.00    -0.032 C 
HETATM   23  C30 UNL     1       3.225  56.344 -10.729  1.00  0.00     0.016 C 
ENDROOT
BRANCH   1  24
HETATM   24  C7  UNL     1       0.761  54.575 -10.896  1.00  0.00    -0.014 C 
HETATM   25  C8  UNL     1      -0.414  55.211 -10.145  1.00  0.00     0.010 C 
BRANCH  24  26
HETATM   26  C6  UNL     1       0.304  53.256 -11.586  1.00  0.00     0.008 C 
BRANCH  26  27
HETATM   27  C5  UNL     1      -1.209  53.023 -11.698  1.00  0.00     0.028 C 
BRANCH  27  28
HETATM   28  C4  UNL     1      -1.746  52.020 -10.714  1.00  0.00    -0.025 C 
HETATM   29  C2  UNL     1      -3.037  51.822 -10.381  1.00  0.00    -0.091 C 
HETATM   30  C1  UNL     1      -4.189  52.639 -10.896  1.00  0.00     0.042 C 
HETATM   31  C3  UNL     1      -3.427  50.729  -9.421  1.00  0.00     0.042 C 
ENDBRANCH  27  28
ENDBRANCH  26  27
ENDBRANCH  24  26
ENDBRANCH   1  24
TORSDOF 4
ENDMDL
MODEL 7
REMARK minimizedAffinity -7.73434401
REMARK CNNscore 0.446725368
REMARK CNNaffinity 5.80268288
REMARK  4 active torsions:
REMARK  status: ('A' for Active; 'I' for Inactive)
REMARK    1  A    between atoms: C4_4  and  C5_5 
REMARK    2  A    between atoms: C5_5  and  C6_6 
REMARK    3  A    between atoms: C6_6  and  C7_7 
REMARK    4  A    between atoms: C7_7  and  C9_9 
ROOT
HETATM    1  C9  UNL     1       6.015  67.343 -35.990  1.00  0.00    -0.002 C 
HETATM    2  C10 UNL     1       6.884  67.891 -37.170  1.00  0.00     0.006 C 
HETATM    3  C11 UNL     1       6.001  67.926 -38.434  1.00  0.00     0.011 C 
HETATM    4  C12 UNL     1       4.572  67.741 -37.908  1.00  0.00    -0.032 C 
HETATM    5  C13 UNL     1       4.113  69.146 -37.404  1.00  0.00     0.016 C 
HETATM    6  C14 UNL     1       3.530  67.177 -38.918  1.00  0.00     0.004 C 
HETATM    7  C15 UNL     1       3.371  67.951 -40.231  1.00  0.00     0.007 C 
HETATM    8  C16 UNL     1       2.377  69.106 -40.279  1.00  0.00     0.007 C 
HETATM    9  C17 UNL     1       1.248  69.160 -39.232  1.00  0.00     0.010 C 
HETATM   10  C18 UNL     1      -0.126  69.670 -39.794  1.00  0.00     0.018 C 
HETATM   11  C19 UNL     1       0.010  71.114 -40.306  1.00  0.00     0.023 C 
HETATM   12  C20 UNL     1      -0.701  68.783 -40.915  1.00  0.00     0.023 C 
HETATM   13  C21 UNL     1      -1.165  69.689 -38.659  1.00  0.00     0.135 C 
HETATM   14  O1  UNL     1      -2.356  69.931 -38.866  1.00  0.00    -0.297 OA
HETATM   15  C22 UNL     1      -0.661  69.457 -37.258  1.00  0.00     0.080 C 
HETATM   16  C23 UNL     1       0.104  68.145 -37.188  1.00  0.00     0.018 C 
HETATM   17  C24 UNL     1       1.047  67.912 -38.369  1.00  0.00    -0.026 A 
HETATM   18  C25 UNL     1       0.992  66.555 -39.038  1.00  0.00     0.021 A 
HETATM   19  C26 UNL     1       2.201  66.908 -38.198  1.00  0.00    -0.027 A 
HETATM   20  C27 UNL     1       2.346  66.070 -36.921  1.00  0.00     0.011 C 
HETATM   21  C28 UNL     1       3.484  66.529 -35.987  1.00  0.00     0.011 C 
HETATM   22  C29 UNL     1       4.815  66.686 -36.747  1.00  0.00    -0.032 C 
HETATM   23  C30 UNL     1       5.268  65.276 -37.243  1.00  0.00     0.016 C 
ENDROOT
BRANCH   1  24
HETATM   24  C7  UNL     1       6.871  66.516 -34.980  1.00  0.00    -0.014 C 
HETATM   25  C8  UNL     1       7.261  65.143 -35.541  1.00  0.00     0.010 C 
BRANCH  24  26
HETATM   26  C6  UNL     1       6.090  66.347 -33.645  1.00  0.00     0.008 C 
BRANCH  26  27
HETATM   27  C5  UNL     1       5.135  65.149 -33.550  1.00  0.00     0.028 C 
BRANCH  27  28
HETATM   28  C4  UNL     1       5.722  63.859 -34.055  1.00  0.00    -0.025 C 
HETATM   29  C2  UNL     1       5.165  62.634 -33.992  1.00  0.00    -0.091 C 
HETATM   30  C1  UNL     1       3.856  62.323 -33.321  1.00  0.00     0.042 C 
HETATM   31  C3  UNL     1       5.852  61.441 -34.603  1.00  0.00     0.042 C 
ENDBRANCH  27  28
ENDBRANCH  26  27
ENDBRANCH  24  26
ENDBRANCH   1  24
TORSDOF 4
ENDMDL
MODEL 8
REMARK minimizedAffinity -7.07825184
REMARK CNNscore 0.424874306
REMARK CNNaffinity 6.49526024
REMARK  4 active torsions:
REMARK  status: ('A' for Active; 'I' for Inactive)
REMARK    1  A    between atoms: C4_4  and  C5_5 
REMARK    2  A    between atoms: C5_5  and  C6_6 
REMARK    3  A    between atoms: C6_6  and  C7_7 
REMARK    4  A    between atoms: C7_7  and  C9_9 
ROOT
HETATM    1  C9  UNL     1      -0.072  52.670 -10.081  1.00  0.00    -0.002 C 
HETATM    2  C10 UNL     1       0.403  51.265  -9.584  1.00  0.00     0.006 C 
HETATM    3  C11 UNL     1       1.923  51.338  -9.335  1.00  0.00     0.011 C 
HETATM    4  C12 UNL     1       2.241  52.839  -9.347  1.00  0.00    -0.032 C 
HETATM    5  C13 UNL     1       1.862  53.372  -7.930  1.00  0.00     0.016 C 
HETATM    6  C14 UNL     1       3.710  53.232  -9.685  1.00  0.00     0.004 C 
HETATM    7  C15 UNL     1       4.798  52.605  -8.807  1.00  0.00     0.007 C 
HETATM    8  C16 UNL     1       5.196  53.320  -7.520  1.00  0.00     0.007 C 
HETATM    9  C17 UNL     1       4.886  54.822  -7.377  1.00  0.00     0.010 C 
HETATM   10  C18 UNL     1       6.003  55.641  -6.637  1.00  0.00     0.018 C 
HETATM   11  C19 UNL     1       6.171  55.131  -5.195  1.00  0.00     0.023 C 
HETATM   12  C20 UNL     1       7.367  55.609  -7.352  1.00  0.00     0.023 C 
HETATM   13  C21 UNL     1       5.577  57.117  -6.548  1.00  0.00     0.135 C 
HETATM   14  O1  UNL     1       6.335  57.992  -6.123  1.00  0.00    -0.297 OA
HETATM   15  C22 UNL     1       4.163  57.453  -6.946  1.00  0.00     0.080 C 
HETATM   16  C23 UNL     1       3.886  56.957  -8.356  1.00  0.00     0.018 C 
HETATM   17  C24 UNL     1       4.429  55.556  -8.639  1.00  0.00    -0.026 A 
HETATM   18  C25 UNL     1       5.206  55.364  -9.925  1.00  0.00     0.021 A 
HETATM   19  C26 UNL     1       3.824  54.758  -9.809  1.00  0.00    -0.027 A 
HETATM   20  C27 UNL     1       2.781  55.383 -10.746  1.00  0.00     0.011 C 
HETATM   21  C28 UNL     1       1.343  54.878 -10.521  1.00  0.00     0.011 C 
HETATM   22  C29 UNL     1       1.276  53.338 -10.504  1.00  0.00    -0.032 C 
HETATM   23  C30 UNL     1       1.652  52.815 -11.927  1.00  0.00     0.016 C 
ENDROOT
BRANCH   1  24
HETATM   24  C7  UNL     1      -1.257  52.553 -11.092  1.00  0.00    -0.014 C 
HETATM   25  C8  UNL     1      -0.776  52.529 -12.547  1.00  0.00     0.010 C 
BRANCH  24  26
HETATM   26  C6  UNL     1      -2.250  53.731 -10.875  1.00  0.00     0.008 C 
BRANCH  26  27
HETATM   27  C5  UNL     1      -3.653  53.368 -10.368  1.00  0.00     0.028 C 
BRANCH  27  28
HETATM   28  C4  UNL     1      -4.205  52.100 -10.959  1.00  0.00    -0.025 C 
HETATM   29  C2  UNL     1      -4.139  50.862 -10.429  1.00  0.00    -0.091 C 
HETATM   30  C1  UNL     1      -3.418  50.513  -9.157  1.00  0.00     0.042 C 
HETATM   31  C3  UNL     1      -4.800  49.694 -11.113  1.00  0.00     0.042 C 
ENDBRANCH  27  28
ENDBRANCH  26  27
ENDBRANCH  24  26
ENDBRANCH   1  24
TORSDOF 4
ENDMDL
MODEL 9
REMARK minimizedAffinity -7.23258924
REMARK CNNscore 0.365031362
REMARK CNNaffinity 5.80951738
REMARK  4 active torsions:
REMARK  status: ('A' for Active; 'I' for Inactive)
REMARK    1  A    between atoms: C4_4  and  C5_5 
REMARK    2  A    between atoms: C5_5  and  C6_6 
REMARK    3  A    between atoms: C6_6  and  C7_7 
REMARK    4  A    between atoms: C7_7  and  C9_9 
ROOT
HETATM    1  C9  UNL     1      -7.479  47.990 -29.199  1.00  0.00    -0.002 C 
HETATM    2  C10 UNL     1      -8.303  49.063 -29.984  1.00  0.00     0.006 C 
HETATM    3  C11 UNL     1      -9.682  48.456 -30.314  1.00  0.00     0.011 C 
HETATM    4  C12 UNL     1      -9.770  47.204 -29.432  1.00  0.00    -0.032 C 
HETATM    5  C13 UNL     1     -10.196  47.704 -28.015  1.00  0.00     0.016 C 
HETATM    6  C14 UNL     1     -10.741  46.086 -29.912  1.00  0.00     0.004 C 
HETATM    7  C15 UNL     1     -12.196  46.507 -30.146  1.00  0.00     0.007 C 
HETATM    8  C16 UNL     1     -13.166  46.459 -28.970  1.00  0.00     0.007 C 
HETATM    9  C17 UNL     1     -12.826  45.566 -27.761  1.00  0.00     0.010 C 
HETATM   10  C18 UNL     1     -14.067  44.842 -27.128  1.00  0.00     0.018 C 
HETATM   11  C19 UNL     1     -15.070  45.876 -26.589  1.00  0.00     0.023 C 
HETATM   12  C20 UNL     1     -14.788  43.890 -28.101  1.00  0.00     0.023 C 
HETATM   13  C21 UNL     1     -13.605  43.994 -25.931  1.00  0.00     0.135 C 
HETATM   14  O1  UNL     1     -14.368  43.228 -25.337  1.00  0.00    -0.297 OA
HETATM   15  C22 UNL     1     -12.184  44.177 -25.462  1.00  0.00     0.080 C 
HETATM   16  C23 UNL     1     -11.220  43.947 -26.615  1.00  0.00     0.018 C 
HETATM   17  C24 UNL     1     -11.661  44.589 -27.931  1.00  0.00    -0.026 A 
HETATM   18  C25 UNL     1     -11.598  43.727 -29.174  1.00  0.00     0.021 A 
HETATM   19  C26 UNL     1     -10.597  44.850 -29.011  1.00  0.00    -0.027 A 
HETATM   20  C27 UNL     1      -9.147  44.380 -28.833  1.00  0.00     0.011 C 
HETATM   21  C28 UNL     1      -8.148  45.510 -28.512  1.00  0.00     0.011 C 
HETATM   22  C29 UNL     1      -8.274  46.679 -29.508  1.00  0.00    -0.032 C 
HETATM   23  C30 UNL     1      -7.841  46.171 -30.920  1.00  0.00     0.016 C 
ENDROOT
BRANCH   1  24
HETATM   24  C7  UNL     1      -5.953  48.092 -29.515  1.00  0.00    -0.014 C 
HETATM   25  C8  UNL     1      -5.488  46.998 -30.483  1.00  0.00     0.010 C 
BRANCH  24  26
HETATM   26  C6  UNL     1      -5.138  48.018 -28.191  1.00  0.00     0.008 C 
BRANCH  26  27
HETATM   27  C5  UNL     1      -5.940  47.849 -26.894  1.00  0.00     0.028 C 
BRANCH  27  28
HETATM   28  C4  UNL     1      -5.179  48.227 -25.653  1.00  0.00    -0.025 C 
HETATM   29  C2  UNL     1      -3.870  48.535 -25.566  1.00  0.00    -0.091 C 
HETATM   30  C1  UNL     1      -2.900  48.481 -26.713  1.00  0.00     0.042 C 
HETATM   31  C3  UNL     1      -3.262  48.958 -24.255  1.00  0.00     0.042 C 
ENDBRANCH  27  28
ENDBRANCH  26  27
ENDBRANCH  24  26
ENDBRANCH   1  24
TORSDOF 4
ENDMDL
