MODEL 1
REMARK minimizedAffinity -8.20847702
REMARK CNNscore 0.72401756
REMARK CNNaffinity 6.78895235
REMARK  9 active torsions:
REMARK  status: ('A' for Active; 'I' for Inactive)
REMARK    1  A    between atoms: C11_11  and  C13_13 
REMARK    2  A    between atoms: C13_13  and  O2_15 
REMARK    3  A    between atoms: C15_17  and  C16_18 
REMARK    4  A    between atoms: C16_18  and  C17_19 
REMARK    5  A    between atoms: C17_19  and  C18_20 
REMARK    6  A    between atoms: C19_21  and  C20_22 
REMARK    7  A    between atoms: C20_22  and  O3_23 
REMARK    8  A    between atoms: O3_23  and  C21_24 
REMARK    9  A    between atoms: C21_24  and  C22_26 
ROOT
HETATM    1  C16 UNL     1     -11.219   7.647  15.220  1.00  0.00     0.014 C 
ENDROOT
BRANCH   1   2
HETATM    2  C15 UNL     1     -12.358   8.587  14.738  1.00  0.00     0.022 C 
HETATM    3  C2  UNL     1     -12.079  10.081  14.893  1.00  0.00    -0.084 C 
HETATM    4  C1  UNL     1     -10.896  10.655  15.170  1.00  0.00     0.014 C 
HETATM    5  C3  UNL     1     -13.296  10.931  14.639  1.00  0.00     0.034 C 
HETATM    6  C4  UNL     1     -13.762  10.727  13.205  1.00  0.00     0.011 C 
HETATM    7  C5  UNL     1     -14.048   9.249  12.836  1.00  0.00     0.012 C 
HETATM    8  C6  UNL     1     -12.852   8.294  13.261  1.00  0.00    -0.032 C 
HETATM    9  C11 UNL     1     -15.502   8.706  13.191  1.00  0.00     0.049 C 
HETATM   10  C7  UNL     1     -11.675   8.499  12.266  1.00  0.00     0.016 C 
HETATM   11  C8  UNL     1     -13.334   6.836  13.078  1.00  0.00     0.010 C 
HETATM   12  C9  UNL     1     -14.472   6.457  14.013  1.00  0.00     0.002 C 
HETATM   13  C10 UNL     1     -15.482   7.579  14.251  1.00  0.00     0.020 C 
HETATM   14  C12 UNL     1     -16.485   9.779  13.720  1.00  0.00     0.026 C 
BRANCH   9  15
HETATM   15  C13 UNL     1     -16.155   8.250  11.862  1.00  0.00     0.267 C 
HETATM   16  O1  UNL     1     -15.896   8.757  10.773  1.00  0.00    -0.264 OA
BRANCH  15  17
HETATM   17  O2  UNL     1     -17.025   7.218  12.028  1.00  0.00    -0.326 OA
HETATM   18  C14 UNL     1     -18.403   7.582  11.950  1.00  0.00     0.213 C 
ENDBRANCH  15  17
ENDBRANCH   9  15
ENDBRANCH   1   2
BRANCH   1  19
HETATM   19  C17 UNL     1      -9.823   8.192  14.875  1.00  0.00     0.042 C 
BRANCH  19  20
HETATM   20  C18 UNL     1      -8.733   7.248  15.271  1.00  0.00    -0.024 A 
HETATM   21  C19 UNL     1      -8.224   6.180  14.546  1.00  0.00     0.083 A 
HETATM   22  O5  UNL     1      -7.231   5.565  15.254  1.00  0.00    -0.324 OA
HETATM   23  C28 UNL     1      -7.095   6.236  16.423  1.00  0.00     0.143 A 
HETATM   24  C29 UNL     1      -7.991   7.275  16.487  1.00  0.00     0.034 A 
BRANCH  21  25
HETATM   25  C20 UNL     1      -8.541   5.582  13.221  1.00  0.00     0.244 C 
BRANCH  25  26
HETATM   26  O3  UNL     1      -7.334   4.982  12.729  1.00  0.00    -0.311 OA
BRANCH  26  27
HETATM   27  C21 UNL     1      -7.334   3.634  12.614  1.00  0.00     0.293 C 
HETATM   28  O4  UNL     1      -8.297   2.893  12.737  1.00  0.00    -0.259 OA
BRANCH  27  29
HETATM   29  C22 UNL     1      -5.965   3.149  12.281  1.00  0.00     0.039 A 
HETATM   30  C23 UNL     1      -5.828   1.856  11.753  1.00  0.00     0.019 A 
HETATM   31  C24 UNL     1      -4.565   1.362  11.412  1.00  0.00     0.025 A 
HETATM   32  C25 UNL     1      -3.434   2.157  11.600  1.00  0.00     0.034 A 
HETATM   33 CL1  UNL     1      -1.880   1.548  11.187  1.00  0.00    -0.084 Cl
HETATM   34  C26 UNL     1      -3.555   3.442  12.128  1.00  0.00     0.025 A 
HETATM   35  C27 UNL     1      -4.818   3.938  12.467  1.00  0.00     0.019 A 
ENDBRANCH  27  29
ENDBRANCH  26  27
ENDBRANCH  25  26
ENDBRANCH  21  25
ENDBRANCH  19  20
ENDBRANCH   1  19
TORSDOF 9
ENDMDL
MODEL 2
REMARK minimizedAffinity -8.92519569
REMARK CNNscore 0.711576343
REMARK CNNaffinity 7.2998848
REMARK  9 active torsions:
REMARK  status: ('A' for Active; 'I' for Inactive)
REMARK    1  A    between atoms: C11_11  and  C13_13 
REMARK    2  A    between atoms: C13_13  and  O2_15 
REMARK    3  A    between atoms: C15_17  and  C16_18 
REMARK    4  A    between atoms: C16_18  and  C17_19 
REMARK    5  A    between atoms: C17_19  and  C18_20 
REMARK    6  A    between atoms: C19_21  and  C20_22 
REMARK    7  A    between atoms: C20_22  and  O3_23 
REMARK    8  A    between atoms: O3_23  and  C21_24 
REMARK    9  A    between atoms: C21_24  and  C22_26 
ROOT
HETATM    1  C16 UNL     1      -3.543   6.266  13.962  1.00  0.00     0.014 C 
ENDROOT
BRANCH   1   2
HETATM    2  C15 UNL     1      -2.457   7.017  13.143  1.00  0.00     0.022 C 
HETATM    3  C2  UNL     1      -2.577   8.540  13.145  1.00  0.00    -0.084 C 
HETATM    4  C1  UNL     1      -3.354   9.286  13.950  1.00  0.00     0.014 C 
HETATM    5  C3  UNL     1      -1.658   9.199  12.151  1.00  0.00     0.034 C 
HETATM    6  C4  UNL     1      -0.214   8.880  12.514  1.00  0.00     0.011 C 
HETATM    7  C5  UNL     1       0.094   7.365  12.614  1.00  0.00     0.012 C 
HETATM    8  C6  UNL     1      -0.972   6.605  13.512  1.00  0.00    -0.032 C 
HETATM    9  C11 UNL     1       0.469   6.634  11.250  1.00  0.00     0.049 C 
HETATM   10  C7  UNL     1      -0.693   6.940  15.005  1.00  0.00     0.016 C 
HETATM   11  C8  UNL     1      -0.722   5.088  13.349  1.00  0.00     0.010 C 
HETATM   12  C9  UNL     1      -0.987   4.584  11.938  1.00  0.00     0.002 C 
HETATM   13  C10 UNL     1      -0.566   5.559  10.839  1.00  0.00     0.020 C 
HETATM   14  C12 UNL     1       0.622   7.574  10.029  1.00  0.00     0.026 C 
BRANCH   9  15
HETATM   15  C13 UNL     1       1.891   6.043  11.426  1.00  0.00     0.267 C 
HETATM   16  O1  UNL     1       2.732   6.521  12.182  1.00  0.00    -0.264 OA
BRANCH  15  17
HETATM   17  O2  UNL     1       2.098   4.931  10.671  1.00  0.00    -0.326 OA
HETATM   18  C14 UNL     1       3.164   5.040   9.727  1.00  0.00     0.213 C 
ENDBRANCH  15  17
ENDBRANCH   9  15
ENDBRANCH   1   2
BRANCH   1  19
HETATM   19  C17 UNL     1      -4.956   6.470  13.390  1.00  0.00     0.042 C 
BRANCH  19  20
HETATM   20  C18 UNL     1      -6.019   6.257  14.418  1.00  0.00    -0.024 A 
HETATM   21  C19 UNL     1      -7.364   5.986  14.210  1.00  0.00     0.083 A 
HETATM   22  O5  UNL     1      -8.006   5.855  15.408  1.00  0.00    -0.324 OA
HETATM   23  C28 UNL     1      -7.081   6.031  16.382  1.00  0.00     0.143 A 
HETATM   24  C29 UNL     1      -5.848   6.281  15.832  1.00  0.00     0.034 A 
BRANCH  21  25
HETATM   25  C20 UNL     1      -8.217   5.840  12.999  1.00  0.00     0.244 C 
BRANCH  25  26
HETATM   26  O3  UNL     1      -7.553   4.916  12.125  1.00  0.00    -0.311 OA
BRANCH  26  27
HETATM   27  C21 UNL     1      -7.645   3.606  12.450  1.00  0.00     0.293 C 
HETATM   28  O4  UNL     1      -8.623   3.037  12.910  1.00  0.00    -0.259 OA
BRANCH  27  29
HETATM   29  C22 UNL     1      -6.363   2.910  12.143  1.00  0.00     0.039 A 
HETATM   30  C23 UNL     1      -5.162   3.585  12.409  1.00  0.00     0.019 A 
HETATM   31  C24 UNL     1      -3.934   2.967  12.152  1.00  0.00     0.025 A 
HETATM   32  C25 UNL     1      -3.902   1.676  11.626  1.00  0.00     0.034 A 
HETATM   33 CL1  UNL     1      -2.392   0.919  11.302  1.00  0.00    -0.084 Cl
HETATM   34  C26 UNL     1      -5.088   0.997  11.352  1.00  0.00     0.025 A 
HETATM   35  C27 UNL     1      -6.317   1.611  11.611  1.00  0.00     0.019 A 
ENDBRANCH  27  29
ENDBRANCH  26  27
ENDBRANCH  25  26
ENDBRANCH  21  25
ENDBRANCH  19  20
ENDBRANCH   1  19
TORSDOF 9
ENDMDL
MODEL 3
REMARK minimizedAffinity -8.37757015
REMARK CNNscore 0.573791265
REMARK CNNaffinity 6.92200232
REMARK  9 active torsions:
REMARK  status: ('A' for Active; 'I' for Inactive)
REMARK    1  A    between atoms: C11_11  and  C13_13 
REMARK    2  A    between atoms: C13_13  and  O2_15 
REMARK    3  A    between atoms: C15_17  and  C16_18 
REMARK    4  A    between atoms: C16_18  and  C17_19 
REMARK    5  A    between atoms: C17_19  and  C18_20 
REMARK    6  A    between atoms: C19_21  and  C20_22 
REMARK    7  A    between atoms: C20_22  and  O3_23 
REMARK    8  A    between atoms: O3_23  and  C21_24 
REMARK    9  A    between atoms: C21_24  and  C22_26 
ROOT
HETATM    1  C16 UNL     1      -3.137   5.659  14.348  1.00  0.00     0.014 C 
ENDROOT
BRANCH   1   2
HETATM    2  C15 UNL     1      -2.367   6.790  13.611  1.00  0.00     0.022 C 
HETATM    3  C2  UNL     1      -3.225   7.963  13.142  1.00  0.00    -0.084 C 
HETATM    4  C1  UNL     1      -4.495   8.226  13.497  1.00  0.00     0.014 C 
HETATM    5  C3  UNL     1      -2.480   8.904  12.232  1.00  0.00     0.034 C 
HETATM    6  C4  UNL     1      -1.304   9.506  12.987  1.00  0.00     0.011 C 
HETATM    7  C5  UNL     1      -0.335   8.458  13.592  1.00  0.00     0.012 C 
HETATM    8  C6  UNL     1      -1.114   7.340  14.409  1.00  0.00    -0.032 C 
HETATM    9  C11 UNL     1       0.803   7.912  12.622  1.00  0.00     0.049 C 
HETATM   10  C7  UNL     1      -1.581   7.949  15.762  1.00  0.00     0.016 C 
HETATM   11  C8  UNL     1      -0.099   6.226  14.756  1.00  0.00     0.010 C 
HETATM   12  C9  UNL     1       0.435   5.497  13.532  1.00  0.00     0.002 C 
HETATM   13  C10 UNL     1       0.664   6.401  12.321  1.00  0.00     0.020 C 
HETATM   14  C12 UNL     1       0.880   8.621  11.247  1.00  0.00     0.026 C 
BRANCH   9  15
HETATM   15  C13 UNL     1       2.164   8.258  13.277  1.00  0.00     0.267 C 
HETATM   16  O1  UNL     1       2.335   8.310  14.492  1.00  0.00    -0.264 OA
BRANCH  15  17
HETATM   17  O2  UNL     1       3.149   8.477  12.365  1.00  0.00    -0.326 OA
HETATM   18  C14 UNL     1       4.338   7.715  12.577  1.00  0.00     0.213 C 
ENDBRANCH  15  17
ENDBRANCH   9  15
ENDBRANCH   1   2
BRANCH   1  19
HETATM   19  C17 UNL     1      -4.227   5.023  13.469  1.00  0.00     0.042 C 
BRANCH  19  20
HETATM   20  C18 UNL     1      -3.653   4.254  12.323  1.00  0.00    -0.024 A 
HETATM   21  C19 UNL     1      -4.263   3.257  11.574  1.00  0.00     0.083 A 
HETATM   22  O5  UNL     1      -3.407   2.805  10.612  1.00  0.00    -0.324 OA
HETATM   23  C28 UNL     1      -2.256   3.510  10.733  1.00  0.00     0.143 A 
HETATM   24  C29 UNL     1      -2.351   4.410  11.766  1.00  0.00     0.034 A 
BRANCH  21  25
HETATM   25  C20 UNL     1      -5.595   2.594  11.620  1.00  0.00     0.244 C 
BRANCH  25  26
HETATM   26  O3  UNL     1      -6.568   3.618  11.870  1.00  0.00    -0.311 OA
BRANCH  26  27
HETATM   27  C21 UNL     1      -7.586   3.293  12.699  1.00  0.00     0.293 C 
HETATM   28  O4  UNL     1      -8.160   2.217  12.759  1.00  0.00    -0.259 OA
BRANCH  27  29
HETATM   29  C22 UNL     1      -7.917   4.449  13.581  1.00  0.00     0.039 A 
HETATM   30  C23 UNL     1      -7.436   4.437  14.899  1.00  0.00     0.019 A 
HETATM   31  C24 UNL     1      -7.707   5.506  15.759  1.00  0.00     0.025 A 
HETATM   32  C25 UNL     1      -8.463   6.588  15.306  1.00  0.00     0.034 A 
HETATM   33 CL1  UNL     1      -8.804   7.899  16.365  1.00  0.00    -0.084 Cl
HETATM   34  C26 UNL     1      -8.952   6.609  14.001  1.00  0.00     0.025 A 
HETATM   35  C27 UNL     1      -8.678   5.543  13.138  1.00  0.00     0.019 A 
ENDBRANCH  27  29
ENDBRANCH  26  27
ENDBRANCH  25  26
ENDBRANCH  21  25
ENDBRANCH  19  20
ENDBRANCH   1  19
TORSDOF 9
ENDMDL
MODEL 4
REMARK minimizedAffinity -8.79491615
REMARK CNNscore 0.526513815
REMARK CNNaffinity 7.1687355
REMARK  9 active torsions:
REMARK  status: ('A' for Active; 'I' for Inactive)
REMARK    1  A    between atoms: C11_11  and  C13_13 
REMARK    2  A    between atoms: C13_13  and  O2_15 
REMARK    3  A    between atoms: C15_17  and  C16_18 
REMARK    4  A    between atoms: C16_18  and  C17_19 
REMARK    5  A    between atoms: C17_19  and  C18_20 
REMARK    6  A    between atoms: C19_21  and  C20_22 
REMARK    7  A    between atoms: C20_22  and  O3_23 
REMARK    8  A    between atoms: O3_23  and  C21_24 
REMARK    9  A    between atoms: C21_24  and  C22_26 
ROOT
HETATM    1  C16 UNL     1      -3.383   5.763  14.030  1.00  0.00     0.014 C 
ENDROOT
BRANCH   1   2
HETATM    2  C15 UNL     1      -2.432   6.665  13.196  1.00  0.00     0.022 C 
HETATM    3  C2  UNL     1      -2.803   8.146  13.162  1.00  0.00    -0.084 C 
HETATM    4  C1  UNL     1      -3.697   8.771  13.948  1.00  0.00     0.014 C 
HETATM    5  C3  UNL     1      -2.001   8.926  12.154  1.00  0.00     0.034 C 
HETATM    6  C4  UNL     1      -0.526   8.860  12.526  1.00  0.00     0.011 C 
HETATM    7  C5  UNL     1       0.029   7.419  12.662  1.00  0.00     0.012 C 
HETATM    8  C6  UNL     1      -0.902   6.513  13.577  1.00  0.00    -0.032 C 
HETATM    9  C11 UNL     1       0.527   6.729  11.317  1.00  0.00     0.049 C 
HETATM   10  C7  UNL     1      -0.690   6.924  15.062  1.00  0.00     0.016 C 
HETATM   11  C8  UNL     1      -0.403   5.055  13.449  1.00  0.00     0.010 C 
HETATM   12  C9  UNL     1      -0.573   4.482  12.050  1.00  0.00     0.002 C 
HETATM   13  C10 UNL     1      -0.313   5.489  10.929  1.00  0.00     0.020 C 
HETATM   14  C12 UNL     1       0.528   7.654  10.074  1.00  0.00     0.026 C 
BRANCH   9  15
HETATM   15  C13 UNL     1       2.026   6.387  11.508  1.00  0.00     0.267 C 
HETATM   16  O1  UNL     1       2.738   6.920  12.355  1.00  0.00    -0.264 OA
BRANCH  15  17
HETATM   17  O2  UNL     1       2.460   5.421  10.654  1.00  0.00    -0.326 OA
HETATM   18  C14 UNL     1       3.736   5.676  10.065  1.00  0.00     0.213 C 
ENDBRANCH  15  17
ENDBRANCH   9  15
ENDBRANCH   1   2
BRANCH   1  19
HETATM   19  C17 UNL     1      -4.818   5.752  13.477  1.00  0.00     0.042 C 
BRANCH  19  20
HETATM   20  C18 UNL     1      -5.144   4.472  12.776  1.00  0.00    -0.024 A 
HETATM   21  C19 UNL     1      -6.278   3.685  12.923  1.00  0.00     0.083 A 
HETATM   22  O5  UNL     1      -6.201   2.597  12.102  1.00  0.00    -0.324 OA
HETATM   23  C28 UNL     1      -5.030   2.685  11.425  1.00  0.00     0.143 A 
HETATM   24  C29 UNL     1      -4.343   3.813  11.800  1.00  0.00     0.034 A 
BRANCH  21  25
HETATM   25  C20 UNL     1      -7.497   3.771  13.772  1.00  0.00     0.244 C 
BRANCH  25  26
HETATM   26  O3  UNL     1      -8.591   4.104  12.907  1.00  0.00    -0.311 OA
BRANCH  26  27
HETATM   27  C21 UNL     1      -8.636   5.378  12.454  1.00  0.00     0.293 C 
HETATM   28  O4  UNL     1      -8.430   5.751  11.310  1.00  0.00    -0.259 OA
BRANCH  27  29
HETATM   29  C22 UNL     1      -9.004   6.304  13.563  1.00  0.00     0.039 A 
HETATM   30  C23 UNL     1     -10.364   6.587  13.768  1.00  0.00     0.019 A 
HETATM   31  C24 UNL     1     -10.759   7.437  14.805  1.00  0.00     0.025 A 
HETATM   32  C25 UNL     1      -9.798   8.009  15.639  1.00  0.00     0.034 A 
HETATM   33 CL1  UNL     1     -10.283   9.061  16.911  1.00  0.00    -0.084 Cl
HETATM   34  C26 UNL     1      -8.445   7.740  15.443  1.00  0.00     0.025 A 
HETATM   35  C27 UNL     1      -8.047   6.888  14.409  1.00  0.00     0.019 A 
ENDBRANCH  27  29
ENDBRANCH  26  27
ENDBRANCH  25  26
ENDBRANCH  21  25
ENDBRANCH  19  20
ENDBRANCH   1  19
TORSDOF 9
ENDMDL
MODEL 5
REMARK minimizedAffinity -7.93689966
REMARK CNNscore 0.430024892
REMARK CNNaffinity 7.08712578
REMARK  9 active torsions:
REMARK  status: ('A' for Active; 'I' for Inactive)
REMARK    1  A    between atoms: C11_11  and  C13_13 
REMARK    2  A    between atoms: C13_13  and  O2_15 
REMARK    3  A    between atoms: C15_17  and  C16_18 
REMARK    4  A    between atoms: C16_18  and  C17_19 
REMARK    5  A    between atoms: C17_19  and  C18_20 
REMARK    6  A    between atoms: C19_21  and  C20_22 
REMARK    7  A    between atoms: C20_22  and  O3_23 
REMARK    8  A    between atoms: O3_23  and  C21_24 
REMARK    9  A    between atoms: C21_24  and  C22_26 
ROOT
HETATM    1  C16 UNL     1      -3.033   5.947  12.554  1.00  0.00     0.014 C 
ENDROOT
BRANCH   1   2
HETATM    2  C15 UNL     1      -2.537   6.851  13.716  1.00  0.00     0.022 C 
HETATM    3  C2  UNL     1      -1.137   6.532  14.237  1.00  0.00    -0.084 C 
HETATM    4  C1  UNL     1      -0.223   5.735  13.656  1.00  0.00     0.014 C 
HETATM    5  C3  UNL     1      -0.805   7.269  15.507  1.00  0.00     0.034 C 
HETATM    6  C4  UNL     1      -0.835   8.767  15.241  1.00  0.00     0.011 C 
HETATM    7  C5  UNL     1      -2.173   9.280  14.653  1.00  0.00     0.012 C 
HETATM    8  C6  UNL     1      -2.647   8.403  13.416  1.00  0.00    -0.032 C 
HETATM    9  C11 UNL     1      -3.314   9.631  15.706  1.00  0.00     0.049 C 
HETATM   10  C7  UNL     1      -1.765   8.761  12.186  1.00  0.00     0.016 C 
HETATM   11  C8  UNL     1      -4.089   8.835  13.064  1.00  0.00     0.010 C 
HETATM   12  C9  UNL     1      -5.096   8.520  14.160  1.00  0.00     0.002 C 
HETATM   13  C10 UNL     1      -4.555   8.715  15.576  1.00  0.00     0.020 C 
HETATM   14  C12 UNL     1      -2.875   9.555  17.189  1.00  0.00     0.026 C 
BRANCH   9  15
HETATM   15  C13 UNL     1      -3.666  11.128  15.515  1.00  0.00     0.267 C 
HETATM   16  O1  UNL     1      -4.645  11.662  16.030  1.00  0.00    -0.264 OA
BRANCH  15  17
HETATM   17  O2  UNL     1      -2.767  11.786  14.736  1.00  0.00    -0.326 OA
HETATM   18  C14 UNL     1      -2.521  13.139  15.121  1.00  0.00     0.213 C 
ENDBRANCH  15  17
ENDBRANCH   9  15
ENDBRANCH   1   2
BRANCH   1  19
HETATM   19  C17 UNL     1      -3.585   4.600  13.053  1.00  0.00     0.042 C 
BRANCH  19  20
HETATM   20  C18 UNL     1      -3.097   3.450  12.232  1.00  0.00    -0.024 A 
HETATM   21  C19 UNL     1      -3.839   2.398  11.712  1.00  0.00     0.083 A 
HETATM   22  O5  UNL     1      -3.026   1.551  11.015  1.00  0.00    -0.324 OA
HETATM   23  C28 UNL     1      -1.771   2.057  11.078  1.00  0.00     0.143 A 
HETATM   24  C29 UNL     1      -1.756   3.217  11.811  1.00  0.00     0.034 A 
BRANCH  21  25
HETATM   25  C20 UNL     1      -5.275   2.011  11.777  1.00  0.00     0.244 C 
BRANCH  25  26
HETATM   26  O3  UNL     1      -6.022   3.205  12.051  1.00  0.00    -0.311 OA
BRANCH  26  27
HETATM   27  C21 UNL     1      -7.177   3.049  12.738  1.00  0.00     0.293 C 
HETATM   28  O4  UNL     1      -7.811   2.014  12.869  1.00  0.00    -0.259 OA
BRANCH  27  29
HETATM   29  C22 UNL     1      -7.582   4.342  13.360  1.00  0.00     0.039 A 
HETATM   30  C23 UNL     1      -8.557   5.114  12.710  1.00  0.00     0.019 A 
HETATM   31  C24 UNL     1      -8.980   6.327  13.262  1.00  0.00     0.025 A 
HETATM   32  C25 UNL     1      -8.429   6.774  14.463  1.00  0.00     0.034 A 
HETATM   33 CL1  UNL     1      -8.944   8.269  15.139  1.00  0.00    -0.084 Cl
HETATM   34  C26 UNL     1      -7.456   6.019  15.116  1.00  0.00     0.025 A 
HETATM   35  C27 UNL     1      -7.034   4.804  14.567  1.00  0.00     0.019 A 
ENDBRANCH  27  29
ENDBRANCH  26  27
ENDBRANCH  25  26
ENDBRANCH  21  25
ENDBRANCH  19  20
ENDBRANCH   1  19
TORSDOF 9
ENDMDL
MODEL 6
REMARK minimizedAffinity -8.52249241
REMARK CNNscore 0.37376681
REMARK CNNaffinity 7.01363993
REMARK  9 active torsions:
REMARK  status: ('A' for Active; 'I' for Inactive)
REMARK    1  A    between atoms: C11_11  and  C13_13 
REMARK    2  A    between atoms: C13_13  and  O2_15 
REMARK    3  A    between atoms: C15_17  and  C16_18 
REMARK    4  A    between atoms: C16_18  and  C17_19 
REMARK    5  A    between atoms: C17_19  and  C18_20 
REMARK    6  A    between atoms: C19_21  and  C20_22 
REMARK    7  A    between atoms: C20_22  and  O3_23 
REMARK    8  A    between atoms: O3_23  and  C21_24 
REMARK    9  A    between atoms: C21_24  and  C22_26 
ROOT
HETATM    1  C16 UNL     1      -3.668   5.528  13.443  1.00  0.00     0.014 C 
ENDROOT
BRANCH   1   2
HETATM    2  C15 UNL     1      -2.653   6.560  12.879  1.00  0.00     0.022 C 
HETATM    3  C2  UNL     1      -3.096   8.020  12.958  1.00  0.00    -0.084 C 
HETATM    4  C1  UNL     1      -4.133   8.510  13.659  1.00  0.00     0.014 C 
HETATM    5  C3  UNL     1      -2.194   8.947  12.187  1.00  0.00     0.034 C 
HETATM    6  C4  UNL     1      -0.792   8.889  12.777  1.00  0.00     0.011 C 
HETATM    7  C5  UNL     1      -0.185   7.465  12.832  1.00  0.00     0.012 C 
HETATM    8  C6  UNL     1      -1.192   6.420  13.477  1.00  0.00    -0.032 C 
HETATM    9  C11 UNL     1       0.550   6.964  11.512  1.00  0.00     0.049 C 
HETATM   10  C7  UNL     1      -1.233   6.653  15.014  1.00  0.00     0.016 C 
HETATM   11  C8  UNL     1      -0.599   5.008  13.262  1.00  0.00     0.010 C 
HETATM   12  C9  UNL     1      -0.522   4.605  11.798  1.00  0.00     0.002 C 
HETATM   13  C10 UNL     1      -0.151   5.750  10.856  1.00  0.00     0.020 C 
HETATM   14  C12 UNL     1       0.690   8.033  10.400  1.00  0.00     0.026 C 
BRANCH   9  15
HETATM   15  C13 UNL     1       2.019   6.656  11.897  1.00  0.00     0.267 C 
HETATM   16  O1  UNL     1       2.577   7.145  12.876  1.00  0.00    -0.264 OA
BRANCH  15  17
HETATM   17  O2  UNL     1       2.614   5.774  11.049  1.00  0.00    -0.326 OA
HETATM   18  C14 UNL     1       3.891   6.186  10.561  1.00  0.00     0.213 C 
ENDBRANCH  15  17
ENDBRANCH   9  15
ENDBRANCH   1   2
BRANCH   1  19
HETATM   19  C17 UNL     1      -4.347   4.707  12.335  1.00  0.00     0.042 C 
BRANCH  19  20
HETATM   20  C18 UNL     1      -5.657   4.136  12.775  1.00  0.00    -0.024 A 
HETATM   21  C19 UNL     1      -6.514   4.623  13.752  1.00  0.00     0.083 A 
HETATM   22  O5  UNL     1      -7.612   3.818  13.854  1.00  0.00    -0.324 OA
HETATM   23  C28 UNL     1      -7.469   2.824  12.944  1.00  0.00     0.143 A 
HETATM   24  C29 UNL     1      -6.289   2.969  12.257  1.00  0.00     0.034 A 
BRANCH  21  25
HETATM   25  C20 UNL     1      -6.470   5.780  14.686  1.00  0.00     0.244 C 
BRANCH  25  26
HETATM   26  O3  UNL     1      -7.826   6.092  15.035  1.00  0.00    -0.311 OA
BRANCH  26  27
HETATM   27  C21 UNL     1      -8.156   7.404  15.062  1.00  0.00     0.293 C 
HETATM   28  O4  UNL     1      -7.461   8.320  15.474  1.00  0.00    -0.259 OA
BRANCH  27  29
HETATM   29  C22 UNL     1      -9.515   7.602  14.482  1.00  0.00     0.039 A 
HETATM   30  C23 UNL     1     -10.267   8.704  14.917  1.00  0.00     0.019 A 
HETATM   31  C24 UNL     1     -11.541   8.940  14.391  1.00  0.00     0.025 A 
HETATM   32  C25 UNL     1     -12.069   8.075  13.432  1.00  0.00     0.034 A 
HETATM   33 CL1  UNL     1     -13.638   8.361  12.790  1.00  0.00    -0.084 Cl
HETATM   34  C26 UNL     1     -11.333   6.974  12.995  1.00  0.00     0.025 A 
HETATM   35  C27 UNL     1     -10.058   6.738  13.518  1.00  0.00     0.019 A 
ENDBRANCH  27  29
ENDBRANCH  26  27
ENDBRANCH  25  26
ENDBRANCH  21  25
ENDBRANCH  19  20
ENDBRANCH   1  19
TORSDOF 9
ENDMDL
MODEL 7
REMARK minimizedAffinity -7.21589708
REMARK CNNscore 0.338646144
REMARK CNNaffinity 6.68228197
REMARK  9 active torsions:
REMARK  status: ('A' for Active; 'I' for Inactive)
REMARK    1  A    between atoms: C11_11  and  C13_13 
REMARK    2  A    between atoms: C13_13  and  O2_15 
REMARK    3  A    between atoms: C15_17  and  C16_18 
REMARK    4  A    between atoms: C16_18  and  C17_19 
REMARK    5  A    between atoms: C17_19  and  C18_20 
REMARK    6  A    between atoms: C19_21  and  C20_22 
REMARK    7  A    between atoms: C20_22  and  O3_23 
REMARK    8  A    between atoms: O3_23  and  C21_24 
REMARK    9  A    between atoms: C21_24  and  C22_26 
ROOT
HETATM    1  C16 UNL     1      -2.878   6.616  14.567  1.00  0.00     0.014 C 
ENDROOT
BRANCH   1   2
HETATM    2  C15 UNL     1      -4.333   7.025  14.930  1.00  0.00     0.022 C 
HETATM    3  C2  UNL     1      -4.462   8.287  15.780  1.00  0.00    -0.084 C 
HETATM    4  C1  UNL     1      -3.498   9.186  16.039  1.00  0.00     0.014 C 
HETATM    5  C3  UNL     1      -5.859   8.499  16.301  1.00  0.00     0.034 C 
HETATM    6  C4  UNL     1      -6.812   8.671  15.126  1.00  0.00     0.011 C 
HETATM    7  C5  UNL     1      -6.785   7.501  14.111  1.00  0.00     0.012 C 
HETATM    8  C6  UNL     1      -5.302   7.129  13.680  1.00  0.00    -0.032 C 
HETATM    9  C11 UNL     1      -7.720   6.258  14.448  1.00  0.00     0.049 C 
HETATM   10  C7  UNL     1      -4.780   8.222  12.704  1.00  0.00     0.016 C 
HETATM   11  C8  UNL     1      -5.369   5.813  12.872  1.00  0.00     0.010 C 
HETATM   12  C9  UNL     1      -5.833   4.623  13.698  1.00  0.00     0.002 C 
HETATM   13  C10 UNL     1      -6.921   4.959  14.717  1.00  0.00     0.020 C 
HETATM   14  C12 UNL     1      -8.647   6.455  15.673  1.00  0.00     0.026 C 
BRANCH   9  15
HETATM   15  C13 UNL     1      -8.715   6.102  13.270  1.00  0.00     0.267 C 
HETATM   16  O1  UNL     1      -8.371   5.793  12.133  1.00  0.00    -0.264 OA
BRANCH  15  17
HETATM   17  O2  UNL     1     -10.006   6.323  13.637  1.00  0.00    -0.326 OA
HETATM   18  C14 UNL     1     -10.736   7.181  12.760  1.00  0.00     0.213 C 
ENDBRANCH  15  17
ENDBRANCH   9  15
ENDBRANCH   1   2
BRANCH   1  19
HETATM   19  C17 UNL     1      -2.412   7.227  13.234  1.00  0.00     0.042 C 
BRANCH  19  20
HETATM   20  C18 UNL     1      -1.196   8.080  13.397  1.00  0.00    -0.024 A 
HETATM   21  C19 UNL     1       0.048   7.914  12.805  1.00  0.00     0.083 A 
HETATM   22  O5  UNL     1       0.894   8.908  13.206  1.00  0.00    -0.324 OA
HETATM   23  C28 UNL     1       0.199   9.715  14.044  1.00  0.00     0.143 A 
HETATM   24  C29 UNL     1      -1.086   9.254  14.198  1.00  0.00     0.034 A 
BRANCH  21  25
HETATM   25  C20 UNL     1       0.629   6.903  11.880  1.00  0.00     0.244 C 
BRANCH  25  26
HETATM   26  O3  UNL     1       1.875   6.477  12.450  1.00  0.00    -0.311 OA
BRANCH  26  27
HETATM   27  C21 UNL     1       2.995   6.804  11.764  1.00  0.00     0.293 C 
HETATM   28  O4  UNL     1       4.117   6.942  12.226  1.00  0.00    -0.259 OA
BRANCH  27  29
HETATM   29  C22 UNL     1       2.681   6.959  10.315  1.00  0.00     0.039 A 
HETATM   30  C23 UNL     1       2.958   5.884   9.457  1.00  0.00     0.019 A 
HETATM   31  C24 UNL     1       2.666   5.977   8.093  1.00  0.00     0.025 A 
HETATM   32  C25 UNL     1       2.101   7.145   7.580  1.00  0.00     0.034 A 
HETATM   33 CL1  UNL     1       1.749   7.262   5.901  1.00  0.00    -0.084 Cl
HETATM   34  C26 UNL     1       1.826   8.222   8.421  1.00  0.00     0.025 A 
HETATM   35  C27 UNL     1       2.113   8.130   9.786  1.00  0.00     0.019 A 
ENDBRANCH  27  29
ENDBRANCH  26  27
ENDBRANCH  25  26
ENDBRANCH  21  25
ENDBRANCH  19  20
ENDBRANCH   1  19
TORSDOF 9
ENDMDL
MODEL 8
REMARK minimizedAffinity -6.85253859
REMARK CNNscore 0.234089673
REMARK CNNaffinity 4.86432314
REMARK  9 active torsions:
REMARK  status: ('A' for Active; 'I' for Inactive)
REMARK    1  A    between atoms: C11_11  and  C13_13 
REMARK    2  A    between atoms: C13_13  and  O2_15 
REMARK    3  A    between atoms: C15_17  and  C16_18 
REMARK    4  A    between atoms: C16_18  and  C17_19 
REMARK    5  A    between atoms: C17_19  and  C18_20 
REMARK    6  A    between atoms: C19_21  and  C20_22 
REMARK    7  A    between atoms: C20_22  and  O3_23 
REMARK    8  A    between atoms: O3_23  and  C21_24 
REMARK    9  A    between atoms: C21_24  and  C22_26 
ROOT
HETATM    1  C16 UNL     1       5.489  11.498  22.720  1.00  0.00     0.014 C 
ENDROOT
BRANCH   1   2
HETATM    2  C15 UNL     1       6.174  12.887  22.841  1.00  0.00     0.022 C 
HETATM    3  C2  UNL     1       7.662  12.851  23.185  1.00  0.00    -0.084 C 
HETATM    4  C1  UNL     1       8.469  11.776  23.159  1.00  0.00     0.014 C 
HETATM    5  C3  UNL     1       8.215  14.209  23.526  1.00  0.00     0.034 C 
HETATM    6  C4  UNL     1       8.074  15.126  22.319  1.00  0.00     0.011 C 
HETATM    7  C5  UNL     1       6.626  15.251  21.784  1.00  0.00     0.012 C 
HETATM    8  C6  UNL     1       5.946  13.829  21.588  1.00  0.00    -0.032 C 
HETATM    9  C11 UNL     1       5.708  16.344  22.489  1.00  0.00     0.049 C 
HETATM   10  C7  UNL     1       6.547  13.162  20.317  1.00  0.00     0.016 C 
HETATM   11  C8  UNL     1       4.447  14.066  21.292  1.00  0.00     0.010 C 
HETATM   12  C9  UNL     1       3.695  14.688  22.460  1.00  0.00     0.002 C 
HETATM   13  C10 UNL     1       4.503  15.726  23.238  1.00  0.00     0.020 C 
HETATM   14  C12 UNL     1       6.440  17.241  23.517  1.00  0.00     0.026 C 
BRANCH   9  15
HETATM   15  C13 UNL     1       5.268  17.346  21.392  1.00  0.00     0.267 C 
HETATM   16  O1  UNL     1       5.800  17.415  20.288  1.00  0.00    -0.264 OA
BRANCH  15  17
HETATM   17  O2  UNL     1       4.218  18.122  21.776  1.00  0.00    -0.326 OA
HETATM   18  C14 UNL     1       4.324  19.495  21.403  1.00  0.00     0.213 C 
ENDBRANCH  15  17
ENDBRANCH   9  15
ENDBRANCH   1   2
BRANCH   1  19
HETATM   19  C17 UNL     1       4.017  11.529  23.165  1.00  0.00     0.042 C 
BRANCH  19  20
HETATM   20  C18 UNL     1       3.266  10.315  22.724  1.00  0.00    -0.024 A 
HETATM   21  C19 UNL     1       2.749  10.042  21.465  1.00  0.00     0.083 A 
HETATM   22  O5  UNL     1       2.133   8.824  21.465  1.00  0.00    -0.324 OA
HETATM   23  C28 UNL     1       2.259   8.310  22.713  1.00  0.00     0.143 A 
HETATM   24  C29 UNL     1       2.942   9.181  23.524  1.00  0.00     0.034 A 
BRANCH  21  25
HETATM   25  C20 UNL     1       2.712  10.786  20.176  1.00  0.00     0.244 C 
BRANCH  25  26
HETATM   26  O3  UNL     1       1.525  10.372  19.484  1.00  0.00    -0.311 OA
BRANCH  26  27
HETATM   27  C21 UNL     1       0.499  11.254  19.466  1.00  0.00     0.293 C 
HETATM   28  O4  UNL     1       0.434  12.307  20.081  1.00  0.00    -0.259 OA
BRANCH  27  29
HETATM   29  C22 UNL     1      -0.573  10.774  18.548  1.00  0.00     0.039 A 
HETATM   30  C23 UNL     1      -1.909  10.986  18.920  1.00  0.00     0.019 A 
HETATM   31  C24 UNL     1      -2.949  10.567  18.084  1.00  0.00     0.025 A 
HETATM   32  C25 UNL     1      -2.657   9.931  16.876  1.00  0.00     0.034 A 
HETATM   33 CL1  UNL     1      -3.935   9.409  15.852  1.00  0.00    -0.084 Cl
HETATM   34  C26 UNL     1      -1.334   9.710  16.498  1.00  0.00     0.025 A 
HETATM   35  C27 UNL     1      -0.293  10.131  17.331  1.00  0.00     0.019 A 
ENDBRANCH  27  29
ENDBRANCH  26  27
ENDBRANCH  25  26
ENDBRANCH  21  25
ENDBRANCH  19  20
ENDBRANCH   1  19
TORSDOF 9
ENDMDL
MODEL 9
REMARK minimizedAffinity -8.62594032
REMARK CNNscore 0.223830536
REMARK CNNaffinity 6.8302803
REMARK  9 active torsions:
REMARK  status: ('A' for Active; 'I' for Inactive)
REMARK    1  A    between atoms: C11_11  and  C13_13 
REMARK    2  A    between atoms: C13_13  and  O2_15 
REMARK    3  A    between atoms: C15_17  and  C16_18 
REMARK    4  A    between atoms: C16_18  and  C17_19 
REMARK    5  A    between atoms: C17_19  and  C18_20 
REMARK    6  A    between atoms: C19_21  and  C20_22 
REMARK    7  A    between atoms: C20_22  and  O3_23 
REMARK    8  A    between atoms: O3_23  and  C21_24 
REMARK    9  A    between atoms: C21_24  and  C22_26 
ROOT
HETATM    1  C16 UNL     1      -3.252   5.697  14.189  1.00  0.00     0.014 C 
ENDROOT
BRANCH   1   2
HETATM    2  C15 UNL     1      -2.349   6.595  13.300  1.00  0.00     0.022 C 
HETATM    3  C2  UNL     1      -2.789   8.053  13.187  1.00  0.00    -0.084 C 
HETATM    4  C1  UNL     1      -3.709   8.677  13.943  1.00  0.00     0.014 C 
HETATM    5  C3  UNL     1      -2.029   8.813  12.132  1.00  0.00     0.034 C 
HETATM    6  C4  UNL     1      -0.552   8.837  12.497  1.00  0.00     0.011 C 
HETATM    7  C5  UNL     1       0.072   7.434  12.708  1.00  0.00     0.012 C 
HETATM    8  C6  UNL     1      -0.811   6.537  13.678  1.00  0.00    -0.032 C 
HETATM    9  C11 UNL     1       0.596   6.695  11.400  1.00  0.00     0.049 C 
HETATM   10  C7  UNL     1      -0.612   7.039  15.137  1.00  0.00     0.016 C 
HETATM   11  C8  UNL     1      -0.243   5.099  13.627  1.00  0.00     0.010 C 
HETATM   12  C9  UNL     1      -0.393   4.442  12.263  1.00  0.00     0.002 C 
HETATM   13  C10 UNL     1      -0.186   5.397  11.087  1.00  0.00     0.020 C 
HETATM   14  C12 UNL     1       0.548   7.548  10.108  1.00  0.00     0.026 C 
BRANCH   9  15
HETATM   15  C13 UNL     1       2.111   6.435  11.599  1.00  0.00     0.267 C 
HETATM   16  O1  UNL     1       2.777   5.718  10.857  1.00  0.00    -0.264 OA
BRANCH  15  17
HETATM   17  O2  UNL     1       2.624   7.101  12.668  1.00  0.00    -0.326 OA
HETATM   18  C14 UNL     1       3.893   7.713  12.436  1.00  0.00     0.213 C 
ENDBRANCH  15  17
ENDBRANCH   9  15
ENDBRANCH   1   2
BRANCH   1  19
HETATM   19  C17 UNL     1      -4.683   5.576  13.640  1.00  0.00     0.042 C 
BRANCH  19  20
HETATM   20  C18 UNL     1      -4.836   4.420  12.706  1.00  0.00    -0.024 A 
HETATM   21  C19 UNL     1      -5.908   3.545  12.600  1.00  0.00     0.083 A 
HETATM   22  O5  UNL     1      -5.666   2.623  11.622  1.00  0.00    -0.324 OA
HETATM   23  C28 UNL     1      -4.450   2.906  11.095  1.00  0.00     0.143 A 
HETATM   24  C29 UNL     1      -3.896   3.995  11.722  1.00  0.00     0.034 A 
BRANCH  21  25
HETATM   25  C20 UNL     1      -7.203   3.400  13.319  1.00  0.00     0.244 C 
BRANCH  25  26
HETATM   26  O3  UNL     1      -7.537   4.690  13.850  1.00  0.00    -0.311 OA
BRANCH  26  27
HETATM   27  C21 UNL     1      -8.391   5.441  13.117  1.00  0.00     0.293 C 
HETATM   28  O4  UNL     1      -8.711   5.252  11.954  1.00  0.00    -0.259 OA
BRANCH  27  29
HETATM   29  C22 UNL     1      -8.930   6.558  13.944  1.00  0.00     0.039 A 
HETATM   30  C23 UNL     1      -8.043   7.255  14.779  1.00  0.00     0.019 A 
HETATM   31  C24 UNL     1      -8.499   8.320  15.561  1.00  0.00     0.025 A 
HETATM   32  C25 UNL     1      -9.843   8.691  15.515  1.00  0.00     0.034 A 
HETATM   33 CL1  UNL     1     -10.406   9.996  16.482  1.00  0.00    -0.084 Cl
HETATM   34  C26 UNL     1     -10.736   8.004  14.693  1.00  0.00     0.025 A 
HETATM   35  C27 UNL     1     -10.281   6.941  13.907  1.00  0.00     0.019 A 
ENDBRANCH  27  29
ENDBRANCH  26  27
ENDBRANCH  25  26
ENDBRANCH  21  25
ENDBRANCH  19  20
ENDBRANCH   1  19
TORSDOF 9
ENDMDL
