MODEL 1
REMARK minimizedAffinity -6.83369684
REMARK CNNscore 0.534894288
REMARK CNNaffinity 6.59155798
REMARK  10 active torsions:
REMARK  status: ('A' for Active; 'I' for Inactive)
REMARK    1  A    between atoms: C3_3  and  O1_4 
REMARK    2  A    between atoms: N1_14  and  O2_16 
REMARK    3  A    between atoms: O2_16  and  C13_17 
REMARK    4  A    between atoms: C13_17  and  C14_18 
REMARK       I    between atoms: C14_18  and  N2_20 
REMARK    5  A    between atoms: N2_20  and  C15_21 
REMARK    6  A    between atoms: C15_21  and  C16_22 
REMARK    7  A    between atoms: C15_21  and  C19_29 
REMARK       I    between atoms: C16_22  and  N3_24 
REMARK    8  A    between atoms: N3_24  and  C17_25 
REMARK    9  A    between atoms: C17_25  and  C18_26 
REMARK   10  A    between atoms: C18_26  and  O6_28 
ROOT
HETATM    1  C1  UNL     1     -13.458   7.385  25.740  1.00  0.00     0.015 C 
HETATM    2  C2  UNL     1     -13.709   8.186  24.882  1.00  0.00    -0.078 C 
HETATM    3  C3  UNL     1     -14.044   9.142  23.816  1.00  0.00     0.128 C 
HETATM    4  C4  UNL     1     -14.339  10.542  24.364  1.00  0.00     0.052 C 
HETATM    5  C5  UNL     1     -14.356  11.395  23.100  1.00  0.00     0.010 C 
HETATM    6  C6  UNL     1     -13.167  10.871  22.285  1.00  0.00     0.002 C 
HETATM    7  C7  UNL     1     -13.217  11.112  20.759  1.00  0.00    -0.004 C 
HETATM    8  C8  UNL     1     -14.552  10.824  20.053  1.00  0.00     0.010 C 
HETATM    9  C9  UNL     1     -14.484  11.126  18.557  1.00  0.00     0.035 C 
HETATM   10  C10 UNL     1     -13.290  10.512  17.861  1.00  0.00    -0.069 C 
HETATM   11  C11 UNL     1     -13.455   9.878  16.688  1.00  0.00     0.030 C 
HETATM   12  C12 UNL     1     -12.300   9.399  15.885  1.00  0.00     0.032 C 
HETATM   13  N1  UNL     1     -12.555   8.716  14.806  1.00  0.00    -0.271 N 
ATOM     14  H1  UNL     1     -13.493   8.460  14.496  1.00  0.00     0.194 HD
HETATM   15  C22 UNL     1     -10.911   9.800  16.346  1.00  0.00     0.060 C 
HETATM   16  C23 UNL     1     -10.837   9.815  17.868  1.00  0.00     0.020 C 
HETATM   17  C24 UNL     1     -11.932  10.698  18.538  1.00  0.00    -0.016 C 
HETATM   18  C25 UNL     1     -11.496  12.178  18.367  1.00  0.00     0.020 C 
HETATM   19  C26 UNL     1     -12.055  10.349  20.072  1.00  0.00     0.002 C 
HETATM   20  C27 UNL     1     -12.144   8.825  20.357  1.00  0.00     0.007 C 
HETATM   21  C28 UNL     1     -12.951   8.401  21.587  1.00  0.00     0.014 C 
HETATM   22  C29 UNL     1     -12.914   9.397  22.757  1.00  0.00     0.003 C 
HETATM   23  C30 UNL     1     -11.502   9.338  23.399  1.00  0.00     0.020 C 
ENDROOT
BRANCH   3  24
HETATM   24  O1  UNL     1     -15.249   8.698  23.185  1.00  0.00    -0.377 OA
HETATM   25  H2  UNL     1     -15.186   7.732  23.098  1.00  0.00     0.211 HD
ENDBRANCH   3  24
BRANCH  13  26
HETATM   26  O2  UNL     1     -11.380   8.378  14.124  1.00  0.00    -0.271 OA
BRANCH  26  27
HETATM   27  C13 UNL     1     -11.340   6.970  13.944  1.00  0.00     0.303 C 
BRANCH  27  28
HETATM   28  C14 UNL     1     -10.059   6.592  13.210  1.00  0.00     0.244 C 
HETATM   29  O3  UNL     1      -9.945   6.589  11.984  1.00  0.00    -0.271 OA
HETATM   30  N2  UNL     1      -9.014   6.216  14.035  1.00  0.00    -0.346 N 
HETATM   31  H16 UNL     1      -9.256   5.886  14.962  1.00  0.00     0.163 HD
BRANCH  30  32
HETATM   32  C15 UNL     1      -7.720   5.765  13.490  1.00  0.00     0.180 C 
BRANCH  32  33
HETATM   33  C16 UNL     1      -7.816   4.304  12.966  1.00  0.00     0.241 C 
HETATM   34  O4  UNL     1      -8.866   3.666  12.888  1.00  0.00    -0.271 OA
HETATM   35  N3  UNL     1      -6.590   3.714  12.715  1.00  0.00    -0.349 N 
HETATM   36  H18 UNL     1      -5.771   4.146  13.140  1.00  0.00     0.163 HD
BRANCH  35  37
HETATM   37  C17 UNL     1      -6.498   2.325  12.305  1.00  0.00     0.232 C 
BRANCH  37  38
HETATM   38  C18 UNL     1      -5.598   2.085  11.094  1.00  0.00     0.158 C 
HETATM   39  O5  UNL     1      -5.561   2.787  10.094  1.00  0.00    -0.649 OA
BRANCH  38  40
HETATM   40  O6  UNL     1      -4.845   0.965  11.156  1.00  0.00    -0.775 OA
HETATM   41  H21 UNL     1      -4.333   0.989  10.322  1.00  0.00     0.167 HD
ENDBRANCH  38  40
ENDBRANCH  37  38
ENDBRANCH  35  37
ENDBRANCH  32  33
BRANCH  32  42
HETATM   42  C19 UNL     1      -6.591   6.030  14.517  1.00  0.00     0.009 C 
HETATM   43  C20 UNL     1      -7.136   6.374  15.906  1.00  0.00     0.012 C 
HETATM   44  C21 UNL     1      -5.572   7.079  14.068  1.00  0.00     0.012 C 
ENDBRANCH  32  42
ENDBRANCH  30  32
ENDBRANCH  27  28
ENDBRANCH  26  27
ENDBRANCH  13  26
TORSDOF 10
ENDMDL
MODEL 2
REMARK minimizedAffinity -7.49481821
REMARK CNNscore 0.515790999
REMARK CNNaffinity 6.46834803
REMARK  10 active torsions:
REMARK  status: ('A' for Active; 'I' for Inactive)
REMARK    1  A    between atoms: C3_3  and  O1_4 
REMARK    2  A    between atoms: N1_14  and  O2_16 
REMARK    3  A    between atoms: O2_16  and  C13_17 
REMARK    4  A    between atoms: C13_17  and  C14_18 
REMARK       I    between atoms: C14_18  and  N2_20 
REMARK    5  A    between atoms: N2_20  and  C15_21 
REMARK    6  A    between atoms: C15_21  and  C16_22 
REMARK    7  A    between atoms: C15_21  and  C19_29 
REMARK       I    between atoms: C16_22  and  N3_24 
REMARK    8  A    between atoms: N3_24  and  C17_25 
REMARK    9  A    between atoms: C17_25  and  C18_26 
REMARK   10  A    between atoms: C18_26  and  O6_28 
ROOT
HETATM    1  C1  UNL     1      -3.587   4.661  12.497  1.00  0.00     0.015 C 
HETATM    2  C2  UNL     1      -3.857   5.742  12.942  1.00  0.00    -0.078 C 
HETATM    3  C3  UNL     1      -4.163   7.084  13.461  1.00  0.00     0.128 C 
HETATM    4  C4  UNL     1      -5.669   7.351  13.528  1.00  0.00     0.052 C 
HETATM    5  C5  UNL     1      -5.742   8.632  14.351  1.00  0.00     0.010 C 
HETATM    6  C6  UNL     1      -4.717   8.409  15.471  1.00  0.00     0.002 C 
HETATM    7  C7  UNL     1      -4.142   9.678  16.141  1.00  0.00    -0.004 C 
HETATM    8  C8  UNL     1      -3.716  10.824  15.209  1.00  0.00     0.010 C 
HETATM    9  C9  UNL     1      -3.192  12.030  15.989  1.00  0.00     0.035 C 
HETATM   10  C10 UNL     1      -2.151  11.681  17.029  1.00  0.00    -0.069 C 
HETATM   11  C11 UNL     1      -1.032  12.420  17.126  1.00  0.00     0.030 C 
HETATM   12  C12 UNL     1      -0.056  12.224  18.229  1.00  0.00     0.032 C 
HETATM   13  N1  UNL     1       1.043  12.922  18.195  1.00  0.00    -0.271 N 
ATOM     14  H1  UNL     1       1.291  13.567  17.445  1.00  0.00     0.194 HD
HETATM   15  C22 UNL     1      -0.443  11.275  19.349  1.00  0.00     0.060 C 
HETATM   16  C23 UNL     1      -1.230  10.092  18.797  1.00  0.00     0.020 C 
HETATM   17  C24 UNL     1      -2.471  10.507  17.952  1.00  0.00    -0.016 C 
HETATM   18  C25 UNL     1      -3.577  10.952  18.948  1.00  0.00     0.020 C 
HETATM   19  C26 UNL     1      -2.984   9.285  17.094  1.00  0.00     0.002 C 
HETATM   20  C27 UNL     1      -1.853   8.550  16.323  1.00  0.00     0.007 C 
HETATM   21  C28 UNL     1      -2.238   7.900  14.993  1.00  0.00     0.014 C 
HETATM   22  C29 UNL     1      -3.678   7.367  14.927  1.00  0.00     0.003 C 
HETATM   23  C30 UNL     1      -3.766   6.099  15.817  1.00  0.00     0.020 C 
ENDROOT
BRANCH   3  24
HETATM   24  O1  UNL     1      -3.626   8.046  12.547  1.00  0.00    -0.377 OA
HETATM   25  H2  UNL     1      -2.754   7.717  12.267  1.00  0.00     0.211 HD
ENDBRANCH   3  24
BRANCH  13  26
HETATM   26  O2  UNL     1       1.841  12.676  19.319  1.00  0.00    -0.271 OA
BRANCH  26  27
HETATM   27  C13 UNL     1       1.888  13.850  20.117  1.00  0.00     0.303 C 
BRANCH  27  28
HETATM   28  C14 UNL     1       2.553  13.528  21.449  1.00  0.00     0.244 C 
HETATM   29  O3  UNL     1       2.175  13.976  22.532  1.00  0.00    -0.271 OA
HETATM   30  N2  UNL     1       3.656  12.698  21.355  1.00  0.00    -0.346 N 
HETATM   31  H16 UNL     1       4.130  12.665  20.461  1.00  0.00     0.163 HD
BRANCH  30  32
HETATM   32  C15 UNL     1       4.453  12.330  22.540  1.00  0.00     0.180 C 
BRANCH  32  33
HETATM   33  C16 UNL     1       5.948  12.715  22.347  1.00  0.00     0.241 C 
HETATM   34  O4  UNL     1       6.746  12.064  21.673  1.00  0.00    -0.271 OA
HETATM   35  N3  UNL     1       6.355  13.791  23.115  1.00  0.00    -0.349 N 
HETATM   36  H18 UNL     1       5.769  14.045  23.908  1.00  0.00     0.163 HD
BRANCH  35  37
HETATM   37  C17 UNL     1       7.742  14.223  23.120  1.00  0.00     0.232 C 
BRANCH  37  38
HETATM   38  C18 UNL     1       8.047  15.344  24.112  1.00  0.00     0.158 C 
HETATM   39  O5  UNL     1       8.971  15.343  24.912  1.00  0.00    -0.649 OA
BRANCH  38  40
HETATM   40  O6  UNL     1       7.164  16.367  24.107  1.00  0.00    -0.775 OA
HETATM   41  H21 UNL     1       7.525  16.982  24.777  1.00  0.00     0.167 HD
ENDBRANCH  38  40
ENDBRANCH  37  38
ENDBRANCH  35  37
ENDBRANCH  32  33
BRANCH  32  42
HETATM   42  C19 UNL     1       4.191  10.851  22.917  1.00  0.00     0.009 C 
HETATM   43  C20 UNL     1       3.987   9.963  21.685  1.00  0.00     0.012 C 
HETATM   44  C21 UNL     1       3.046  10.653  23.913  1.00  0.00     0.012 C 
ENDBRANCH  32  42
ENDBRANCH  30  32
ENDBRANCH  27  28
ENDBRANCH  26  27
ENDBRANCH  13  26
TORSDOF 10
ENDMDL
MODEL 3
REMARK minimizedAffinity -8.66220665
REMARK CNNscore 0.466821998
REMARK CNNaffinity 6.81506729
REMARK  10 active torsions:
REMARK  status: ('A' for Active; 'I' for Inactive)
REMARK    1  A    between atoms: C3_3  and  O1_4 
REMARK    2  A    between atoms: N1_14  and  O2_16 
REMARK    3  A    between atoms: O2_16  and  C13_17 
REMARK    4  A    between atoms: C13_17  and  C14_18 
REMARK       I    between atoms: C14_18  and  N2_20 
REMARK    5  A    between atoms: N2_20  and  C15_21 
REMARK    6  A    between atoms: C15_21  and  C16_22 
REMARK    7  A    between atoms: C15_21  and  C19_29 
REMARK       I    between atoms: C16_22  and  N3_24 
REMARK    8  A    between atoms: N3_24  and  C17_25 
REMARK    9  A    between atoms: C17_25  and  C18_26 
REMARK   10  A    between atoms: C18_26  and  O6_28 
ROOT
HETATM    1  C1  UNL     1      -7.136   8.121  15.845  1.00  0.00     0.015 C 
HETATM    2  C2  UNL     1      -6.272   7.431  15.380  1.00  0.00    -0.078 C 
HETATM    3  C3  UNL     1      -5.197   6.580  14.846  1.00  0.00     0.128 C 
HETATM    4  C4  UNL     1      -5.737   5.432  13.988  1.00  0.00     0.052 C 
HETATM    5  C5  UNL     1      -4.475   4.895  13.322  1.00  0.00     0.010 C 
HETATM    6  C6  UNL     1      -3.701   6.159  12.925  1.00  0.00     0.002 C 
HETATM    7  C7  UNL     1      -2.175   6.003  12.738  1.00  0.00    -0.004 C 
HETATM    8  C8  UNL     1      -1.422   5.196  13.808  1.00  0.00     0.010 C 
HETATM    9  C9  UNL     1       0.070   5.088  13.497  1.00  0.00     0.035 C 
HETATM   10  C10 UNL     1       0.725   6.412  13.169  1.00  0.00    -0.069 C 
HETATM   11  C11 UNL     1       1.905   6.729  13.730  1.00  0.00     0.030 C 
HETATM   12  C12 UNL     1       2.667   7.937  13.323  1.00  0.00     0.032 C 
HETATM   13  N1  UNL     1       3.756   8.215  13.980  1.00  0.00    -0.271 N 
ATOM     14  H1  UNL     1       4.100   7.678  14.777  1.00  0.00     0.194 HD
HETATM   15  C22 UNL     1       2.157   8.718  12.125  1.00  0.00     0.060 C 
HETATM   16  C23 UNL     1       0.634   8.726  12.104  1.00  0.00     0.020 C 
HETATM   17  C24 UNL     1       0.001   7.304  12.162  1.00  0.00    -0.016 C 
HETATM   18  C25 UNL     1       0.153   6.675  10.751  1.00  0.00     0.020 C 
HETATM   19  C26 UNL     1      -1.528   7.399  12.544  1.00  0.00     0.002 C 
HETATM   20  C27 UNL     1      -1.806   8.316  13.766  1.00  0.00     0.007 C 
HETATM   21  C28 UNL     1      -3.006   7.949  14.642  1.00  0.00     0.014 C 
HETATM   22  C29 UNL     1      -4.179   7.299  13.891  1.00  0.00     0.003 C 
HETATM   23  C30 UNL     1      -4.870   8.393  13.033  1.00  0.00     0.020 C 
ENDROOT
BRANCH   3  24
HETATM   24  O1  UNL     1      -4.523   5.971  15.952  1.00  0.00    -0.377 OA
HETATM   25  H2  UNL     1      -4.436   6.651  16.642  1.00  0.00     0.211 HD
ENDBRANCH   3  24
BRANCH  13  26
HETATM   26  O2  UNL     1       4.397   9.344  13.456  1.00  0.00    -0.271 OA
BRANCH  26  27
HETATM   27  C13 UNL     1       4.844  10.161  14.528  1.00  0.00     0.303 C 
BRANCH  27  28
HETATM   28  C14 UNL     1       6.345   9.976  14.711  1.00  0.00     0.244 C 
HETATM   29  O3  UNL     1       7.196  10.534  14.019  1.00  0.00    -0.271 OA
HETATM   30  N2  UNL     1       6.697   9.094  15.718  1.00  0.00    -0.346 N 
HETATM   31  H16 UNL     1       6.003   8.409  15.992  1.00  0.00     0.163 HD
BRANCH  30  32
HETATM   32  C15 UNL     1       8.105   8.755  15.995  1.00  0.00     0.180 C 
BRANCH  32  33
HETATM   33  C16 UNL     1       8.910  10.019  16.410  1.00  0.00     0.241 C 
HETATM   34  O4  UNL     1       8.875  11.090  15.803  1.00  0.00    -0.271 OA
HETATM   35  N3  UNL     1       9.792   9.807  17.454  1.00  0.00    -0.349 N 
HETATM   36  H18 UNL     1      10.042   8.842  17.663  1.00  0.00     0.163 HD
BRANCH  35  37
HETATM   37  C17 UNL     1      10.683  10.861  17.906  1.00  0.00     0.232 C 
BRANCH  37  38
HETATM   38  C18 UNL     1      10.886  10.907  19.419  1.00  0.00     0.158 C 
HETATM   39  O5  UNL     1      10.090  11.372  20.222  1.00  0.00    -0.649 OA
BRANCH  38  40
HETATM   40  O6  UNL     1      12.078  10.438  19.850  1.00  0.00    -0.775 OA
HETATM   41  H21 UNL     1      12.019  10.527  20.823  1.00  0.00     0.167 HD
ENDBRANCH  38  40
ENDBRANCH  37  38
ENDBRANCH  35  37
ENDBRANCH  32  33
BRANCH  32  42
HETATM   42  C19 UNL     1       8.699   7.947  14.814  1.00  0.00     0.009 C 
HETATM   43  C20 UNL     1       9.793   8.720  14.071  1.00  0.00     0.012 C 
HETATM   44  C21 UNL     1       7.653   7.422  13.828  1.00  0.00     0.012 C 
ENDBRANCH  32  42
ENDBRANCH  30  32
ENDBRANCH  27  28
ENDBRANCH  26  27
ENDBRANCH  13  26
TORSDOF 10
ENDMDL
MODEL 4
REMARK minimizedAffinity -6.66339207
REMARK CNNscore 0.397944778
REMARK CNNaffinity 6.2443924
REMARK  10 active torsions:
REMARK  status: ('A' for Active; 'I' for Inactive)
REMARK    1  A    between atoms: C3_3  and  O1_4 
REMARK    2  A    between atoms: N1_14  and  O2_16 
REMARK    3  A    between atoms: O2_16  and  C13_17 
REMARK    4  A    between atoms: C13_17  and  C14_18 
REMARK       I    between atoms: C14_18  and  N2_20 
REMARK    5  A    between atoms: N2_20  and  C15_21 
REMARK    6  A    between atoms: C15_21  and  C16_22 
REMARK    7  A    between atoms: C15_21  and  C19_29 
REMARK       I    between atoms: C16_22  and  N3_24 
REMARK    8  A    between atoms: N3_24  and  C17_25 
REMARK    9  A    between atoms: C17_25  and  C18_26 
REMARK   10  A    between atoms: C18_26  and  O6_28 
ROOT
HETATM    1  C1  UNL     1      -7.141  17.778  18.261  1.00  0.00     0.015 C 
HETATM    2  C2  UNL     1      -6.206  17.057  18.475  1.00  0.00    -0.078 C 
HETATM    3  C3  UNL     1      -5.037  16.195  18.711  1.00  0.00     0.128 C 
HETATM    4  C4  UNL     1      -4.699  16.071  20.199  1.00  0.00     0.052 C 
HETATM    5  C5  UNL     1      -3.688  14.930  20.214  1.00  0.00     0.010 C 
HETATM    6  C6  UNL     1      -4.273  13.905  19.234  1.00  0.00     0.002 C 
HETATM    7  C7  UNL     1      -3.274  12.910  18.599  1.00  0.00    -0.004 C 
HETATM    8  C8  UNL     1      -1.949  13.492  18.080  1.00  0.00     0.010 C 
HETATM    9  C9  UNL     1      -1.038  12.409  17.502  1.00  0.00     0.035 C 
HETATM   10  C10 UNL     1      -1.724  11.495  16.512  1.00  0.00    -0.069 C 
HETATM   11  C11 UNL     1      -1.115  11.191  15.353  1.00  0.00     0.030 C 
HETATM   12  C12 UNL     1      -1.667  10.176  14.420  1.00  0.00     0.032 C 
HETATM   13  N1  UNL     1      -1.061  10.009  13.279  1.00  0.00    -0.271 N 
ATOM     14  H1  UNL     1      -0.254  10.553  12.972  1.00  0.00     0.194 HD
HETATM   15  C22 UNL     1      -2.856   9.359  14.893  1.00  0.00     0.060 C 
HETATM   16  C23 UNL     1      -3.790  10.219  15.737  1.00  0.00     0.020 C 
HETATM   17  C24 UNL     1      -3.081  10.929  16.928  1.00  0.00    -0.016 C 
HETATM   18  C25 UNL     1      -2.850   9.858  18.029  1.00  0.00     0.020 C 
HETATM   19  C26 UNL     1      -3.987  12.091  17.492  1.00  0.00     0.002 C 
HETATM   20  C27 UNL     1      -4.559  13.024  16.389  1.00  0.00     0.007 C 
HETATM   21  C28 UNL     1      -4.797  14.484  16.780  1.00  0.00     0.014 C 
HETATM   22  C29 UNL     1      -5.195  14.703  18.248  1.00  0.00     0.003 C 
HETATM   23  C30 UNL     1      -6.649  14.194  18.437  1.00  0.00     0.020 C 
ENDROOT
BRANCH   3  24
HETATM   24  O1  UNL     1      -3.902  16.808  18.092  1.00  0.00    -0.377 OA
HETATM   25  H2  UNL     1      -4.199  17.161  17.236  1.00  0.00     0.211 HD
ENDBRANCH   3  24
BRANCH  13  26
HETATM   26  O2  UNL     1      -1.655   8.988  12.527  1.00  0.00    -0.271 OA
BRANCH  26  27
HETATM   27  C13 UNL     1      -0.948   8.846  11.304  1.00  0.00     0.303 C 
BRANCH  27  28
HETATM   28  C14 UNL     1       0.286   7.981  11.531  1.00  0.00     0.244 C 
HETATM   29  O3  UNL     1       0.343   7.069  12.356  1.00  0.00    -0.271 OA
HETATM   30  N2  UNL     1       1.375   8.316  10.746  1.00  0.00    -0.346 N 
HETATM   31  H16 UNL     1       1.402   9.259  10.377  1.00  0.00     0.163 HD
BRANCH  30  32
HETATM   32  C15 UNL     1       2.667   7.618  10.876  1.00  0.00     0.180 C 
BRANCH  32  33
HETATM   33  C16 UNL     1       3.630   8.401  11.814  1.00  0.00     0.241 C 
HETATM   34  O4  UNL     1       3.348   9.470  12.355  1.00  0.00    -0.271 OA
HETATM   35  N3  UNL     1       4.903   7.864  11.889  1.00  0.00    -0.349 N 
HETATM   36  H18 UNL     1       5.178   7.217  11.152  1.00  0.00     0.163 HD
BRANCH  35  37
HETATM   37  C17 UNL     1       5.948   8.523  12.651  1.00  0.00     0.232 C 
BRANCH  37  38
HETATM   38  C18 UNL     1       6.994   7.574  13.234  1.00  0.00     0.158 C 
HETATM   39  O5  UNL     1       8.172   7.540  12.910  1.00  0.00    -0.649 OA
BRANCH  38  40
HETATM   40  O6  UNL     1       6.518   6.682  14.132  1.00  0.00    -0.775 OA
HETATM   41  H21 UNL     1       7.316   6.185  14.402  1.00  0.00     0.167 HD
ENDBRANCH  38  40
ENDBRANCH  37  38
ENDBRANCH  35  37
ENDBRANCH  32  33
BRANCH  32  42
HETATM   42  C19 UNL     1       3.233   7.284   9.473  1.00  0.00     0.009 C 
HETATM   43  C20 UNL     1       3.481   8.539   8.631  1.00  0.00     0.012 C 
HETATM   44  C21 UNL     1       2.398   6.270   8.688  1.00  0.00     0.012 C 
ENDBRANCH  32  42
ENDBRANCH  30  32
ENDBRANCH  27  28
ENDBRANCH  26  27
ENDBRANCH  13  26
TORSDOF 10
ENDMDL
MODEL 5
REMARK minimizedAffinity -7.74338484
REMARK CNNscore 0.352040261
REMARK CNNaffinity 7.06985617
REMARK  10 active torsions:
REMARK  status: ('A' for Active; 'I' for Inactive)
REMARK    1  A    between atoms: C3_3  and  O1_4 
REMARK    2  A    between atoms: N1_14  and  O2_16 
REMARK    3  A    between atoms: O2_16  and  C13_17 
REMARK    4  A    between atoms: C13_17  and  C14_18 
REMARK       I    between atoms: C14_18  and  N2_20 
REMARK    5  A    between atoms: N2_20  and  C15_21 
REMARK    6  A    between atoms: C15_21  and  C16_22 
REMARK    7  A    between atoms: C15_21  and  C19_29 
REMARK       I    between atoms: C16_22  and  N3_24 
REMARK    8  A    between atoms: N3_24  and  C17_25 
REMARK    9  A    between atoms: C17_25  and  C18_26 
REMARK   10  A    between atoms: C18_26  and  O6_28 
ROOT
HETATM    1  C1  UNL     1       2.707   6.040   7.182  1.00  0.00     0.015 C 
HETATM    2  C2  UNL     1       2.551   6.140   8.367  1.00  0.00    -0.078 C 
HETATM    3  C3  UNL     1       2.348   6.223   9.822  1.00  0.00     0.128 C 
HETATM    4  C4  UNL     1       3.572   6.791  10.546  1.00  0.00     0.052 C 
HETATM    5  C5  UNL     1       3.032   7.060  11.947  1.00  0.00     0.010 C 
HETATM    6  C6  UNL     1       1.647   7.670  11.697  1.00  0.00     0.002 C 
HETATM    7  C7  UNL     1       0.623   7.552  12.850  1.00  0.00    -0.004 C 
HETATM    8  C8  UNL     1       0.518   6.187  13.549  1.00  0.00     0.010 C 
HETATM    9  C9  UNL     1      -0.504   6.205  14.686  1.00  0.00     0.035 C 
HETATM   10  C10 UNL     1      -1.844   6.787  14.296  1.00  0.00    -0.069 C 
HETATM   11  C11 UNL     1      -2.975   6.155  14.655  1.00  0.00     0.030 C 
HETATM   12  C12 UNL     1      -4.314   6.762  14.441  1.00  0.00     0.032 C 
HETATM   13  N1  UNL     1      -5.358   6.042  14.737  1.00  0.00    -0.271 N 
ATOM     14  H1  UNL     1      -5.317   5.080  15.074  1.00  0.00     0.194 HD
HETATM   15  C22 UNL     1      -4.364   8.200  13.957  1.00  0.00     0.060 C 
HETATM   16  C23 UNL     1      -3.229   8.472  12.977  1.00  0.00     0.020 C 
HETATM   17  C24 UNL     1      -1.821   8.112  13.536  1.00  0.00    -0.016 C 
HETATM   18  C25 UNL     1      -1.418   9.239  14.526  1.00  0.00     0.020 C 
HETATM   19  C26 UNL     1      -0.769   8.029  12.362  1.00  0.00     0.002 C 
HETATM   20  C27 UNL     1      -1.255   7.185  11.152  1.00  0.00     0.007 C 
HETATM   21  C28 UNL     1      -0.179   6.449  10.351  1.00  0.00     0.014 C 
HETATM   22  C29 UNL     1       1.181   7.164  10.288  1.00  0.00     0.003 C 
HETATM   23  C30 UNL     1       1.035   8.401   9.361  1.00  0.00     0.020 C 
ENDROOT
BRANCH   3  24
HETATM   24  O1  UNL     1       2.168   4.894  10.321  1.00  0.00    -0.377 OA
HETATM   25  H2  UNL     1       1.605   4.424   9.683  1.00  0.00     0.211 HD
ENDBRANCH   3  24
BRANCH  13  26
HETATM   26  O2  UNL     1      -6.546   6.757  14.537  1.00  0.00    -0.271 OA
BRANCH  26  27
HETATM   27  C13 UNL     1      -6.958   7.321  15.773  1.00  0.00     0.303 C 
BRANCH  27  28
HETATM   28  C14 UNL     1      -8.269   8.072  15.573  1.00  0.00     0.244 C 
HETATM   29  O3  UNL     1      -8.339   9.235  15.174  1.00  0.00    -0.271 OA
HETATM   30  N2  UNL     1      -9.402   7.350  15.902  1.00  0.00    -0.346 N 
HETATM   31  H16 UNL     1      -9.283   6.578  16.547  1.00  0.00     0.163 HD
BRANCH  30  32
HETATM   32  C15 UNL     1     -10.750   7.943  15.821  1.00  0.00     0.180 C 
BRANCH  32  33
HETATM   33  C16 UNL     1     -11.387   7.687  14.425  1.00  0.00     0.241 C 
HETATM   34  O4  UNL     1     -10.912   8.095  13.365  1.00  0.00    -0.271 OA
HETATM   35  N3  UNL     1     -12.625   7.072  14.476  1.00  0.00    -0.349 N 
HETATM   36  H18 UNL     1     -13.120   7.096  15.365  1.00  0.00     0.163 HD
BRANCH  35  37
HETATM   37  C17 UNL     1     -13.395   6.841  13.267  1.00  0.00     0.232 C 
BRANCH  37  38
HETATM   38  C18 UNL     1     -14.316   7.996  12.879  1.00  0.00     0.158 C 
HETATM   39  O5  UNL     1     -15.526   8.021  13.054  1.00  0.00    -0.649 OA
BRANCH  38  40
HETATM   40  O6  UNL     1     -13.708   9.021  12.241  1.00  0.00    -0.775 OA
HETATM   41  H21 UNL     1     -14.435   9.659  12.093  1.00  0.00     0.167 HD
ENDBRANCH  38  40
ENDBRANCH  37  38
ENDBRANCH  35  37
ENDBRANCH  32  33
BRANCH  32  42
HETATM   42  C19 UNL     1     -10.706   9.424  16.270  1.00  0.00     0.009 C 
HETATM   43  C20 UNL     1     -10.769   9.574  17.793  1.00  0.00     0.012 C 
HETATM   44  C21 UNL     1     -11.759  10.311  15.602  1.00  0.00     0.012 C 
ENDBRANCH  32  42
ENDBRANCH  30  32
ENDBRANCH  27  28
ENDBRANCH  26  27
ENDBRANCH  13  26
TORSDOF 10
ENDMDL
MODEL 6
REMARK minimizedAffinity -7.91277313
REMARK CNNscore 0.268893987
REMARK CNNaffinity 6.4821434
REMARK  10 active torsions:
REMARK  status: ('A' for Active; 'I' for Inactive)
REMARK    1  A    between atoms: C3_3  and  O1_4 
REMARK    2  A    between atoms: N1_14  and  O2_16 
REMARK    3  A    between atoms: O2_16  and  C13_17 
REMARK    4  A    between atoms: C13_17  and  C14_18 
REMARK       I    between atoms: C14_18  and  N2_20 
REMARK    5  A    between atoms: N2_20  and  C15_21 
REMARK    6  A    between atoms: C15_21  and  C16_22 
REMARK    7  A    between atoms: C15_21  and  C19_29 
REMARK       I    between atoms: C16_22  and  N3_24 
REMARK    8  A    between atoms: N3_24  and  C17_25 
REMARK    9  A    between atoms: C17_25  and  C18_26 
REMARK   10  A    between atoms: C18_26  and  O6_28 
ROOT
HETATM    1  C1  UNL     1      -7.022   8.423  15.677  1.00  0.00     0.015 C 
HETATM    2  C2  UNL     1      -6.166   7.687  15.272  1.00  0.00    -0.078 C 
HETATM    3  C3  UNL     1      -5.100   6.782  14.812  1.00  0.00     0.128 C 
HETATM    4  C4  UNL     1      -5.654   5.570  14.058  1.00  0.00     0.052 C 
HETATM    5  C5  UNL     1      -4.399   4.965  13.438  1.00  0.00     0.010 C 
HETATM    6  C6  UNL     1      -3.613   6.182  12.933  1.00  0.00     0.002 C 
HETATM    7  C7  UNL     1      -2.089   5.994  12.757  1.00  0.00    -0.004 C 
HETATM    8  C8  UNL     1      -1.342   5.275  13.892  1.00  0.00     0.010 C 
HETATM    9  C9  UNL     1       0.149   5.126  13.590  1.00  0.00     0.035 C 
HETATM   10  C10 UNL     1       0.816   6.409  13.148  1.00  0.00    -0.069 C 
HETATM   11  C11 UNL     1       2.000   6.762  13.677  1.00  0.00     0.030 C 
HETATM   12  C12 UNL     1       2.773   7.922  13.166  1.00  0.00     0.032 C 
HETATM   13  N1  UNL     1       3.867   8.245  13.796  1.00  0.00    -0.271 N 
ATOM     14  H1  UNL     1       4.207   7.776  14.635  1.00  0.00     0.194 HD
HETATM   15  C22 UNL     1       2.269   8.602  11.906  1.00  0.00     0.060 C 
HETATM   16  C23 UNL     1       0.745   8.623  11.886  1.00  0.00     0.020 C 
HETATM   17  C24 UNL     1       0.098   7.218  12.068  1.00  0.00    -0.016 C 
HETATM   18  C25 UNL     1       0.241   6.468  10.716  1.00  0.00     0.020 C 
HETATM   19  C26 UNL     1      -1.428   7.361  12.443  1.00  0.00     0.002 C 
HETATM   20  C27 UNL     1      -1.695   8.384  13.582  1.00  0.00     0.007 C 
HETATM   21  C28 UNL     1      -2.896   8.106  14.488  1.00  0.00     0.014 C 
HETATM   22  C29 UNL     1      -4.077   7.405  13.797  1.00  0.00     0.003 C 
HETATM   23  C30 UNL     1      -4.759   8.428  12.849  1.00  0.00     0.020 C 
ENDROOT
BRANCH   3  24
HETATM   24  O1  UNL     1      -4.430   6.264  15.965  1.00  0.00    -0.377 OA
HETATM   25  H2  UNL     1      -4.335   7.000  16.594  1.00  0.00     0.211 HD
ENDBRANCH   3  24
BRANCH  13  26
HETATM   26  O2  UNL     1       4.518   9.318  13.174  1.00  0.00    -0.271 OA
BRANCH  26  27
HETATM   27  C13 UNL     1       5.793   8.885  12.724  1.00  0.00     0.303 C 
BRANCH  27  28
HETATM   28  C14 UNL     1       6.866   9.815  13.276  1.00  0.00     0.244 C 
HETATM   29  O3  UNL     1       6.924  11.020  13.030  1.00  0.00    -0.271 OA
HETATM   30  N2  UNL     1       7.811   9.193  14.073  1.00  0.00    -0.346 N 
HETATM   31  H16 UNL     1       7.935   8.196  13.945  1.00  0.00     0.163 HD
BRANCH  30  32
HETATM   32  C15 UNL     1       8.952   9.933  14.644  1.00  0.00     0.180 C 
BRANCH  32  33
HETATM   33  C16 UNL     1      10.093  10.089  13.599  1.00  0.00     0.241 C 
HETATM   34  O4  UNL     1      10.880   9.192  13.298  1.00  0.00    -0.271 OA
HETATM   35  N3  UNL     1      10.248  11.379  13.122  1.00  0.00    -0.349 N 
HETATM   36  H18 UNL     1       9.828  12.129  13.668  1.00  0.00     0.163 HD
BRANCH  35  37
HETATM   37  C17 UNL     1      11.324  11.713  12.207  1.00  0.00     0.232 C 
BRANCH  37  38
HETATM   38  C18 UNL     1      10.935  11.653  10.731  1.00  0.00     0.158 C 
HETATM   39  O5  UNL     1      11.485  10.963   9.885  1.00  0.00    -0.649 OA
BRANCH  38  40
HETATM   40  O6  UNL     1       9.938  12.491  10.369  1.00  0.00    -0.775 OA
HETATM   41  H21 UNL     1       9.818  12.303   9.416  1.00  0.00     0.167 HD
ENDBRANCH  38  40
ENDBRANCH  37  38
ENDBRANCH  35  37
ENDBRANCH  32  33
BRANCH  32  42
HETATM   42  C19 UNL     1       9.370   9.303  15.995  1.00  0.00     0.009 C 
HETATM   43  C20 UNL     1       9.159   7.786  16.021  1.00  0.00     0.012 C 
HETATM   44  C21 UNL     1       8.717   9.954  17.217  1.00  0.00     0.012 C 
ENDBRANCH  32  42
ENDBRANCH  30  32
ENDBRANCH  27  28
ENDBRANCH  26  27
ENDBRANCH  13  26
TORSDOF 10
ENDMDL
MODEL 7
REMARK minimizedAffinity -5.71072721
REMARK CNNscore 0.259418637
REMARK CNNaffinity 6.46940994
REMARK  10 active torsions:
REMARK  status: ('A' for Active; 'I' for Inactive)
REMARK    1  A    between atoms: C3_3  and  O1_4 
REMARK    2  A    between atoms: N1_14  and  O2_16 
REMARK    3  A    between atoms: O2_16  and  C13_17 
REMARK    4  A    between atoms: C13_17  and  C14_18 
REMARK       I    between atoms: C14_18  and  N2_20 
REMARK    5  A    between atoms: N2_20  and  C15_21 
REMARK    6  A    between atoms: C15_21  and  C16_22 
REMARK    7  A    between atoms: C15_21  and  C19_29 
REMARK       I    between atoms: C16_22  and  N3_24 
REMARK    8  A    between atoms: N3_24  and  C17_25 
REMARK    9  A    between atoms: C17_25  and  C18_26 
REMARK   10  A    between atoms: C18_26  and  O6_28 
ROOT
HETATM    1  C1  UNL     1      -0.320  10.110  14.061  1.00  0.00     0.015 C 
HETATM    2  C2  UNL     1      -1.083   9.191  14.169  1.00  0.00    -0.078 C 
HETATM    3  C3  UNL     1      -2.025   8.065  14.262  1.00  0.00     0.128 C 
HETATM    4  C4  UNL     1      -1.433   6.873  15.018  1.00  0.00     0.052 C 
HETATM    5  C5  UNL     1      -2.652   5.985  15.244  1.00  0.00     0.010 C 
HETATM    6  C6  UNL     1      -3.757   6.971  15.643  1.00  0.00     0.002 C 
HETATM    7  C7  UNL     1      -5.213   6.506  15.411  1.00  0.00    -0.004 C 
HETATM    8  C8  UNL     1      -5.521   5.831  14.064  1.00  0.00     0.010 C 
HETATM    9  C9  UNL     1      -6.981   5.392  13.966  1.00  0.00     0.035 C 
HETATM   10  C10 UNL     1      -7.972   6.471  14.340  1.00  0.00    -0.069 C 
HETATM   11  C11 UNL     1      -9.048   6.686  13.563  1.00  0.00     0.030 C 
HETATM   12  C12 UNL     1     -10.132   7.618  13.965  1.00  0.00     0.032 C 
HETATM   13  N1  UNL     1     -11.093   7.834  13.112  1.00  0.00    -0.271 N 
ATOM     14  H1  UNL     1     -11.130   7.432  12.175  1.00  0.00     0.194 HD
HETATM   15  C22 UNL     1     -10.077   8.196  15.368  1.00  0.00     0.060 C 
HETATM   16  C23 UNL     1      -8.634   8.472  15.773  1.00  0.00     0.020 C 
HETATM   17  C24 UNL     1      -7.698   7.236  15.634  1.00  0.00    -0.016 C 
HETATM   18  C25 UNL     1      -7.998   6.295  16.833  1.00  0.00     0.020 C 
HETATM   19  C26 UNL     1      -6.185   7.685  15.671  1.00  0.00     0.002 C 
HETATM   20  C27 UNL     1      -5.871   8.884  14.734  1.00  0.00     0.007 C 
HETATM   21  C28 UNL     1      -4.462   8.939  14.138  1.00  0.00     0.014 C 
HETATM   22  C29 UNL     1      -3.358   8.362  15.038  1.00  0.00     0.003 C 
HETATM   23  C30 UNL     1      -3.129   9.346  16.216  1.00  0.00     0.020 C 
ENDROOT
BRANCH   3  24
HETATM   24  O1  UNL     1      -2.296   7.602  12.935  1.00  0.00    -0.377 OA
HETATM   25  H2  UNL     1      -2.387   8.390  12.371  1.00  0.00     0.211 HD
ENDBRANCH   3  24
BRANCH  13  26
HETATM   26  O2  UNL     1     -12.068   8.686  13.644  1.00  0.00    -0.271 OA
BRANCH  26  27
HETATM   27  C13 UNL     1     -12.658   8.062  14.775  1.00  0.00     0.303 C 
BRANCH  27  28
HETATM   28  C14 UNL     1     -14.074   7.621  14.427  1.00  0.00     0.244 C 
HETATM   29  O3  UNL     1     -14.376   7.037  13.386  1.00  0.00    -0.271 OA
HETATM   30  N2  UNL     1     -15.028   7.954  15.372  1.00  0.00    -0.346 N 
HETATM   31  H16 UNL     1     -14.810   8.722  15.994  1.00  0.00     0.163 HD
BRANCH  30  32
HETATM   32  C15 UNL     1     -16.458   7.652  15.170  1.00  0.00     0.180 C 
BRANCH  32  33
HETATM   33  C16 UNL     1     -16.738   6.134  15.356  1.00  0.00     0.241 C 
HETATM   34  O4  UNL     1     -17.792   5.675  15.796  1.00  0.00    -0.271 OA
HETATM   35  N3  UNL     1     -15.642   5.325  15.112  1.00  0.00    -0.349 N 
HETATM   36  H18 UNL     1     -14.726   5.770  15.115  1.00  0.00     0.163 HD
BRANCH  35  37
HETATM   37  C17 UNL     1     -15.709   3.891  15.325  1.00  0.00     0.232 C 
BRANCH  37  38
HETATM   38  C18 UNL     1     -16.461   3.129  14.235  1.00  0.00     0.158 C 
HETATM   39  O5  UNL     1     -15.938   2.507  13.322  1.00  0.00    -0.649 OA
BRANCH  38  40
HETATM   40  O6  UNL     1     -17.808   3.229  14.294  1.00  0.00    -0.775 OA
HETATM   41  H21 UNL     1     -18.110   2.674  13.546  1.00  0.00     0.167 HD
ENDBRANCH  38  40
ENDBRANCH  37  38
ENDBRANCH  35  37
ENDBRANCH  32  33
BRANCH  32  42
HETATM   42  C19 UNL     1     -16.944   8.258  13.830  1.00  0.00     0.009 C 
HETATM   43  C20 UNL     1     -15.791   8.511  12.853  1.00  0.00     0.012 C 
HETATM   44  C21 UNL     1     -17.796   9.519  13.987  1.00  0.00     0.012 C 
ENDBRANCH  32  42
ENDBRANCH  30  32
ENDBRANCH  27  28
ENDBRANCH  26  27
ENDBRANCH  13  26
TORSDOF 10
ENDMDL
MODEL 8
REMARK minimizedAffinity -8.12994194
REMARK CNNscore 0.213485405
REMARK CNNaffinity 7.09342527
REMARK  10 active torsions:
REMARK  status: ('A' for Active; 'I' for Inactive)
REMARK    1  A    between atoms: C3_3  and  O1_4 
REMARK    2  A    between atoms: N1_14  and  O2_16 
REMARK    3  A    between atoms: O2_16  and  C13_17 
REMARK    4  A    between atoms: C13_17  and  C14_18 
REMARK       I    between atoms: C14_18  and  N2_20 
REMARK    5  A    between atoms: N2_20  and  C15_21 
REMARK    6  A    between atoms: C15_21  and  C16_22 
REMARK    7  A    between atoms: C15_21  and  C19_29 
REMARK       I    between atoms: C16_22  and  N3_24 
REMARK    8  A    between atoms: N3_24  and  C17_25 
REMARK    9  A    between atoms: C17_25  and  C18_26 
REMARK   10  A    between atoms: C18_26  and  O6_28 
ROOT
HETATM    1  C1  UNL     1       0.217   9.207  12.955  1.00  0.00     0.015 C 
HETATM    2  C2  UNL     1      -0.530   8.273  13.047  1.00  0.00    -0.078 C 
HETATM    3  C3  UNL     1      -1.455   7.131  13.119  1.00  0.00     0.128 C 
HETATM    4  C4  UNL     1      -0.811   5.903  13.768  1.00  0.00     0.052 C 
HETATM    5  C5  UNL     1      -2.007   4.987  14.003  1.00  0.00     0.010 C 
HETATM    6  C6  UNL     1      -3.100   5.932  14.520  1.00  0.00     0.002 C 
HETATM    7  C7  UNL     1      -4.561   5.463  14.336  1.00  0.00    -0.004 C 
HETATM    8  C8  UNL     1      -4.934   4.868  12.968  1.00  0.00     0.010 C 
HETATM    9  C9  UNL     1      -6.393   4.416  12.920  1.00  0.00     0.035 C 
HETATM   10  C10 UNL     1      -7.373   5.458  13.411  1.00  0.00    -0.069 C 
HETATM   11  C11 UNL     1      -8.491   5.706  12.707  1.00  0.00     0.030 C 
HETATM   12  C12 UNL     1      -9.561   6.597  13.223  1.00  0.00     0.032 C 
HETATM   13  N1  UNL     1     -10.568   6.852  12.437  1.00  0.00    -0.271 N 
ATOM     14  H1  UNL     1     -10.651   6.508  11.480  1.00  0.00     0.194 HD
HETATM   15  C22 UNL     1      -9.437   7.089  14.654  1.00  0.00     0.060 C 
HETATM   16  C23 UNL     1      -7.977   7.359  14.999  1.00  0.00     0.020 C 
HETATM   17  C24 UNL     1      -7.038   6.145  14.734  1.00  0.00    -0.016 C 
HETATM   18  C25 UNL     1      -7.264   5.130  15.887  1.00  0.00     0.020 C 
HETATM   19  C26 UNL     1      -5.530   6.611  14.719  1.00  0.00     0.002 C 
HETATM   20  C27 UNL     1      -5.278   7.869  13.842  1.00  0.00     0.007 C 
HETATM   21  C28 UNL     1      -3.903   7.979  13.178  1.00  0.00     0.014 C 
HETATM   22  C29 UNL     1      -2.747   7.363  13.981  1.00  0.00     0.003 C 
HETATM   23  C30 UNL     1      -2.465   8.276  15.204  1.00  0.00     0.020 C 
ENDROOT
BRANCH   3  24
HETATM   24  O1  UNL     1      -1.791   6.747  11.782  1.00  0.00    -0.377 OA
HETATM   25  H2  UNL     1      -1.920   7.566  11.274  1.00  0.00     0.211 HD
ENDBRANCH   3  24
BRANCH  13  26
HETATM   26  O2  UNL     1     -11.522   7.657  13.070  1.00  0.00    -0.271 OA
BRANCH  26  27
HETATM   27  C13 UNL     1     -11.788   7.128  14.361  1.00  0.00     0.303 C 
BRANCH  27  28
HETATM   28  C14 UNL     1     -13.295   7.067  14.581  1.00  0.00     0.244 C 
HETATM   29  O3  UNL     1     -13.852   7.418  15.621  1.00  0.00    -0.271 OA
HETATM   30  N2  UNL     1     -14.010   6.553  13.514  1.00  0.00    -0.346 N 
HETATM   31  H16 UNL     1     -13.507   5.960  12.867  1.00  0.00     0.163 HD
BRANCH  30  32
HETATM   32  C15 UNL     1     -15.472   6.371  13.578  1.00  0.00     0.180 C 
BRANCH  32  33
HETATM   33  C16 UNL     1     -16.210   7.733  13.428  1.00  0.00     0.241 C 
HETATM   34  O4  UNL     1     -16.214   8.613  14.289  1.00  0.00    -0.271 OA
HETATM   35  N3  UNL     1     -16.988   7.829  12.289  1.00  0.00    -0.349 N 
HETATM   36  H18 UNL     1     -17.234   6.960  11.819  1.00  0.00     0.163 HD
BRANCH  35  37
HETATM   37  C17 UNL     1     -17.810   9.000  12.042  1.00  0.00     0.232 C 
BRANCH  37  38
HETATM   38  C18 UNL     1     -18.292   9.137  10.599  1.00  0.00     0.158 C 
HETATM   39  O5  UNL     1     -19.224   8.518  10.106  1.00  0.00    -0.649 OA
BRANCH  38  40
HETATM   40  O6  UNL     1     -17.562   9.976   9.831  1.00  0.00    -0.775 OA
HETATM   41  H21 UNL     1     -18.021   9.950   8.967  1.00  0.00     0.167 HD
ENDBRANCH  38  40
ENDBRANCH  37  38
ENDBRANCH  35  37
ENDBRANCH  32  33
BRANCH  32  42
HETATM   42  C19 UNL     1     -15.851   5.546  14.832  1.00  0.00     0.009 C 
HETATM   43  C20 UNL     1     -15.352   4.100  14.750  1.00  0.00     0.012 C 
HETATM   44  C21 UNL     1     -17.342   5.577  15.175  1.00  0.00     0.012 C 
ENDBRANCH  32  42
ENDBRANCH  30  32
ENDBRANCH  27  28
ENDBRANCH  26  27
ENDBRANCH  13  26
TORSDOF 10
ENDMDL
MODEL 9
REMARK minimizedAffinity -8.10452747
REMARK CNNscore 0.206022188
REMARK CNNaffinity 6.46272898
REMARK  10 active torsions:
REMARK  status: ('A' for Active; 'I' for Inactive)
REMARK    1  A    between atoms: C3_3  and  O1_4 
REMARK    2  A    between atoms: N1_14  and  O2_16 
REMARK    3  A    between atoms: O2_16  and  C13_17 
REMARK    4  A    between atoms: C13_17  and  C14_18 
REMARK       I    between atoms: C14_18  and  N2_20 
REMARK    5  A    between atoms: N2_20  and  C15_21 
REMARK    6  A    between atoms: C15_21  and  C16_22 
REMARK    7  A    between atoms: C15_21  and  C19_29 
REMARK       I    between atoms: C16_22  and  N3_24 
REMARK    8  A    between atoms: N3_24  and  C17_25 
REMARK    9  A    between atoms: C17_25  and  C18_26 
REMARK   10  A    between atoms: C18_26  and  O6_28 
ROOT
HETATM    1  C1  UNL     1      -0.296   9.851  14.051  1.00  0.00     0.015 C 
HETATM    2  C2  UNL     1      -1.013   8.890  14.036  1.00  0.00    -0.078 C 
HETATM    3  C3  UNL     1      -1.896   7.715  13.977  1.00  0.00     0.128 C 
HETATM    4  C4  UNL     1      -1.286   6.495  14.672  1.00  0.00     0.052 C 
HETATM    5  C5  UNL     1      -2.466   5.532  14.747  1.00  0.00     0.010 C 
HETATM    6  C6  UNL     1      -3.646   6.425  15.152  1.00  0.00     0.002 C 
HETATM    7  C7  UNL     1      -5.057   5.909  14.790  1.00  0.00    -0.004 C 
HETATM    8  C8  UNL     1      -5.246   5.335  13.376  1.00  0.00     0.010 C 
HETATM    9  C9  UNL     1      -6.672   4.833  13.150  1.00  0.00     0.035 C 
HETATM   10  C10 UNL     1      -7.741   5.827  13.544  1.00  0.00    -0.069 C 
HETATM   11  C11 UNL     1      -8.779   6.053  12.720  1.00  0.00     0.030 C 
HETATM   12  C12 UNL     1      -9.934   6.893  13.125  1.00  0.00     0.032 C 
HETATM   13  N1  UNL     1     -10.852   7.131  12.232  1.00  0.00    -0.271 N 
ATOM     14  H1  UNL     1     -10.811   6.808  11.265  1.00  0.00     0.194 HD
HETATM   15  C22 UNL     1      -9.995   7.355  14.570  1.00  0.00     0.060 C 
HETATM   16  C23 UNL     1      -8.596   7.667  15.088  1.00  0.00     0.020 C 
HETATM   17  C24 UNL     1      -7.587   6.494  14.910  1.00  0.00    -0.016 C 
HETATM   18  C25 UNL     1      -7.906   5.443  16.008  1.00  0.00     0.020 C 
HETATM   19  C26 UNL     1      -6.106   7.013  15.080  1.00  0.00     0.002 C 
HETATM   20  C27 UNL     1      -5.802   8.300  14.265  1.00  0.00     0.007 C 
HETATM   21  C28 UNL     1      -4.365   8.474  13.767  1.00  0.00     0.014 C 
HETATM   22  C29 UNL     1      -3.287   7.880  14.687  1.00  0.00     0.003 C 
HETATM   23  C30 UNL     1      -3.184   8.772  15.953  1.00  0.00     0.020 C 
ENDROOT
BRANCH   3  24
HETATM   24  O1  UNL     1      -2.061   7.352  12.603  1.00  0.00    -0.377 OA
HETATM   25  H2  UNL     1      -2.161   8.178  12.099  1.00  0.00     0.211 HD
ENDBRANCH   3  24
BRANCH  13  26
HETATM   26  O2  UNL     1     -11.903   7.887  12.766  1.00  0.00    -0.271 OA
BRANCH  26  27
HETATM   27  C13 UNL     1     -11.801   9.220  12.289  1.00  0.00     0.303 C 
BRANCH  27  28
HETATM   28  C14 UNL     1     -13.178   9.872  12.316  1.00  0.00     0.244 C 
HETATM   29  O3  UNL     1     -14.224   9.280  12.047  1.00  0.00    -0.271 OA
HETATM   30  N2  UNL     1     -13.171  11.216  12.645  1.00  0.00    -0.346 N 
HETATM   31  H16 UNL     1     -12.307  11.721  12.494  1.00  0.00     0.163 HD
BRANCH  30  32
HETATM   32  C15 UNL     1     -14.410  12.016  12.664  1.00  0.00     0.180 C 
BRANCH  32  33
HETATM   33  C16 UNL     1     -14.107  13.518  12.399  1.00  0.00     0.241 C 
HETATM   34  O4  UNL     1     -14.968  14.364  12.160  1.00  0.00    -0.271 OA
HETATM   35  N3  UNL     1     -12.758  13.813  12.316  1.00  0.00    -0.349 N 
HETATM   36  H18 UNL     1     -12.121  13.036  12.154  1.00  0.00     0.163 HD
BRANCH  35  37
HETATM   37  C17 UNL     1     -12.305  15.153  11.986  1.00  0.00     0.232 C 
BRANCH  37  38
HETATM   38  C18 UNL     1     -12.998  15.769  10.772  1.00  0.00     0.158 C 
HETATM   39  O5  UNL     1     -13.524  16.873  10.746  1.00  0.00    -0.649 OA
BRANCH  38  40
HETATM   40  O6  UNL     1     -13.062  14.969   9.684  1.00  0.00    -0.775 OA
HETATM   41  H21 UNL     1     -13.512  15.528   9.018  1.00  0.00     0.167 HD
ENDBRANCH  38  40
ENDBRANCH  37  38
ENDBRANCH  35  37
ENDBRANCH  32  33
BRANCH  32  42
HETATM   42  C19 UNL     1     -15.215  11.718  13.953  1.00  0.00     0.009 C 
HETATM   43  C20 UNL     1     -16.728  11.744  13.715  1.00  0.00     0.012 C 
HETATM   44  C21 UNL     1     -14.847  12.611  15.140  1.00  0.00     0.012 C 
ENDBRANCH  32  42
ENDBRANCH  30  32
ENDBRANCH  27  28
ENDBRANCH  26  27
ENDBRANCH  13  26
TORSDOF 10
ENDMDL
