MODEL 1
REMARK minimizedAffinity -8.19740486
REMARK CNNscore 0.87449342
REMARK CNNaffinity 7.46696901
REMARK  19 active torsions:
REMARK  status: ('A' for Active; 'I' for Inactive)
REMARK    1  A    between atoms: C19_20  and  O2_21 
REMARK    2  A    between atoms: C19_20  and  C20_22 
REMARK    3  A    between atoms: C20_22  and  C21_24 
REMARK    4  A    between atoms: C21_24  and  O4_25 
REMARK    5  A    between atoms: O4_25  and  C22_26 
REMARK    6  A    between atoms: C22_26  and  C23_28 
REMARK    7  A    between atoms: C23_28  and  C24_29 
REMARK    8  A    between atoms: C24_29  and  C25_30 
REMARK       I    between atoms: C25_30  and  N1_32 
REMARK    9  A    between atoms: N1_32  and  C26_33 
REMARK   10  A    between atoms: C26_33  and  C27_34 
REMARK   11  A    between atoms: C27_34  and  C28_35 
REMARK   12  A    between atoms: C28_35  and  C29_36 
REMARK   13  A    between atoms: C29_36  and  C30_37 
REMARK   14  A    between atoms: C30_37  and  C31_38 
REMARK       I    between atoms: C31_38  and  N2_40 
REMARK   15  A    between atoms: N2_40  and  C32_41 
REMARK   16  A    between atoms: C32_41  and  C33_42 
REMARK   17  A    between atoms: C33_42  and  C34_43 
REMARK   18  A    between atoms: C37_46  and  O8_47 
REMARK   19  A    between atoms: C38_48  and  O9_49 
ROOT
HETATM    1  C22 UNL     1      -4.206  48.739 -28.144  1.00  0.00     0.259 C 
HETATM    2  O5  UNL     1      -3.933  49.608 -28.960  1.00  0.00    -0.265 OA
ENDROOT
BRANCH   1   3
HETATM    3  O4  UNL     1      -3.377  48.306 -27.160  1.00  0.00    -0.314 OA
BRANCH   3   4
HETATM    4  C21 UNL     1      -2.770  49.267 -26.307  1.00  0.00     0.260 C 
BRANCH   4   5
HETATM    5  C20 UNL     1      -3.438  50.519 -25.700  1.00  0.00     0.185 C 
HETATM    6  O3  UNL     1      -3.448  51.571 -26.352  1.00  0.00    -0.292 OA
BRANCH   5   7
HETATM    7  C19 UNL     1      -4.186  50.394 -24.337  1.00  0.00     0.128 C 
HETATM    8  C14 UNL     1      -3.414  50.989 -23.110  1.00  0.00    -0.002 C 
HETATM    9  C13 UNL     1      -4.354  51.149 -21.875  1.00  0.00     0.013 C 
HETATM   10  C15 UNL     1      -2.784  52.356 -23.428  1.00  0.00     0.019 C 
HETATM   11  C16 UNL     1      -2.348  49.908 -22.847  1.00  0.00     0.002 C 
HETATM   12  C12 UNL     1      -3.803  50.639 -20.536  1.00  0.00     0.007 C 
HETATM   13  C11 UNL     1      -2.286  50.825 -20.390  1.00  0.00     0.002 C 
HETATM   14  C2  UNL     1      -1.695  50.500 -18.965  1.00  0.00    -0.016 C 
HETATM   15  C10 UNL     1      -1.530  50.087 -21.542  1.00  0.00    -0.004 C 
HETATM   16  C1  UNL     1      -0.272  51.123 -18.872  1.00  0.00     0.020 C 
HETATM   17  C3  UNL     1      -2.556  51.122 -17.828  1.00  0.00     0.022 C 
HETATM   18  C7  UNL     1      -1.610  48.996 -18.721  1.00  0.00    -0.068 C 
HETATM   19  C4  UNL     1      -2.041  50.780 -16.432  1.00  0.00     0.084 C 
HETATM   20  C5  UNL     1      -1.836  49.291 -16.275  1.00  0.00     0.149 C 
HETATM   21  O1  UNL     1      -1.775  48.757 -15.170  1.00  0.00    -0.293 OA
HETATM   22  C6  UNL     1      -1.672  48.457 -17.490  1.00  0.00     0.053 C 
HETATM   23  C8  UNL     1      -1.472  48.095 -19.921  1.00  0.00     0.035 C 
HETATM   24  C9  UNL     1      -0.815  48.788 -21.109  1.00  0.00     0.010 C 
HETATM   25  C17 UNL     1      -3.123  48.590 -23.032  1.00  0.00     0.009 C 
HETATM   26  C18 UNL     1      -4.299  48.898 -23.967  1.00  0.00     0.047 C 
BRANCH   7  27
HETATM   27  O2  UNL     1      -5.489  50.959 -24.426  1.00  0.00    -0.381 OA
HETATM   28  H27 UNL     1      -6.028  50.311 -24.927  1.00  0.00     0.211 HD
ENDBRANCH   7  27
ENDBRANCH   5   7
ENDBRANCH   4   5
ENDBRANCH   3   4
ENDBRANCH   1   3
BRANCH   1  29
HETATM   29  C23 UNL     1      -5.476  47.924 -28.150  1.00  0.00     0.120 C 
BRANCH  29  30
HETATM   30  C24 UNL     1      -6.081  47.799 -26.758  1.00  0.00     0.112 C 
BRANCH  30  31
HETATM   31  C25 UNL     1      -7.503  47.273 -26.796  1.00  0.00     0.217 C 
HETATM   32  O6  UNL     1      -7.862  46.249 -26.229  1.00  0.00    -0.274 OA
HETATM   33  N1  UNL     1      -8.353  48.076 -27.529  1.00  0.00    -0.361 N 
HETATM   34  H34 UNL     1      -7.939  48.761 -28.149  1.00  0.00     0.162 HD
BRANCH  33  35
HETATM   35  C26 UNL     1      -9.723  47.680 -27.779  1.00  0.00     0.122 C 
BRANCH  35  36
HETATM   36  C27 UNL     1     -10.680  48.198 -26.708  1.00  0.00     0.020 C 
BRANCH  36  37
HETATM   37  C28 UNL     1     -12.163  48.132 -27.094  1.00  0.00     0.002 C 
BRANCH  37  38
HETATM   38  C29 UNL     1     -12.764  46.724 -27.217  1.00  0.00     0.009 C 
BRANCH  38  39
HETATM   39  C30 UNL     1     -13.494  46.225 -25.969  1.00  0.00     0.103 C 
BRANCH  39  40
HETATM   40  C31 UNL     1     -14.772  45.466 -26.281  1.00  0.00     0.217 C 
HETATM   41  O7  UNL     1     -14.835  44.525 -27.062  1.00  0.00    -0.274 OA
HETATM   42  N2  UNL     1     -15.871  45.975 -25.620  1.00  0.00    -0.361 N 
HETATM   43  H45 UNL     1     -15.712  46.609 -24.845  1.00  0.00     0.162 HD
BRANCH  42  44
HETATM   44  C32 UNL     1     -17.174  45.345 -25.715  1.00  0.00     0.127 C 
BRANCH  44  45
HETATM   45  C33 UNL     1     -17.250  43.993 -24.993  1.00  0.00     0.058 C 
BRANCH  45  46
HETATM   46  C34 UNL     1     -18.568  43.780 -24.280  1.00  0.00    -0.054 A 
HETATM   47  C35 UNL     1     -18.994  44.701 -23.306  1.00  0.00     0.010 A 
HETATM   48  C36 UNL     1     -20.221  44.542 -22.662  1.00  0.00     0.040 A 
HETATM   49  C37 UNL     1     -21.019  43.459 -22.990  1.00  0.00     0.098 A 
HETATM   50  C38 UNL     1     -20.609  42.534 -23.949  1.00  0.00     0.099 A 
HETATM   51  C39 UNL     1     -19.388  42.687 -24.599  1.00  0.00     0.046 A 
BRANCH  49  52
HETATM   52  O8  UNL     1     -22.226  43.307 -22.369  1.00  0.00    -0.358 OA
HETATM   53  H52 UNL     1     -22.606  42.498 -22.766  1.00  0.00     0.217 HD
ENDBRANCH  49  52
BRANCH  50  54
HETATM   54  O9  UNL     1     -21.448  41.490 -24.222  1.00  0.00    -0.358 OA
HETATM   55  H53 UNL     1     -21.017  40.916 -24.878  1.00  0.00     0.217 HD
ENDBRANCH  50  54
ENDBRANCH  45  46
ENDBRANCH  44  45
ENDBRANCH  42  44
ENDBRANCH  39  40
ENDBRANCH  38  39
ENDBRANCH  37  38
ENDBRANCH  36  37
ENDBRANCH  35  36
ENDBRANCH  33  35
ENDBRANCH  30  31
ENDBRANCH  29  30
ENDBRANCH   1  29
TORSDOF 19
ENDMDL
MODEL 2
REMARK minimizedAffinity -8.80911541
REMARK CNNscore 0.724337697
REMARK CNNaffinity 7.85230112
REMARK  19 active torsions:
REMARK  status: ('A' for Active; 'I' for Inactive)
REMARK    1  A    between atoms: C19_20  and  O2_21 
REMARK    2  A    between atoms: C19_20  and  C20_22 
REMARK    3  A    between atoms: C20_22  and  C21_24 
REMARK    4  A    between atoms: C21_24  and  O4_25 
REMARK    5  A    between atoms: O4_25  and  C22_26 
REMARK    6  A    between atoms: C22_26  and  C23_28 
REMARK    7  A    between atoms: C23_28  and  C24_29 
REMARK    8  A    between atoms: C24_29  and  C25_30 
REMARK       I    between atoms: C25_30  and  N1_32 
REMARK    9  A    between atoms: N1_32  and  C26_33 
REMARK   10  A    between atoms: C26_33  and  C27_34 
REMARK   11  A    between atoms: C27_34  and  C28_35 
REMARK   12  A    between atoms: C28_35  and  C29_36 
REMARK   13  A    between atoms: C29_36  and  C30_37 
REMARK   14  A    between atoms: C30_37  and  C31_38 
REMARK       I    between atoms: C31_38  and  N2_40 
REMARK   15  A    between atoms: N2_40  and  C32_41 
REMARK   16  A    between atoms: C32_41  and  C33_42 
REMARK   17  A    between atoms: C33_42  and  C34_43 
REMARK   18  A    between atoms: C37_46  and  O8_47 
REMARK   19  A    between atoms: C38_48  and  O9_49 
ROOT
HETATM    1  C22 UNL     1       0.934  53.105 -22.331  1.00  0.00     0.259 C 
HETATM    2  O5  UNL     1       1.435  54.219 -22.409  1.00  0.00    -0.265 OA
ENDROOT
BRANCH   1   3
HETATM    3  O4  UNL     1       0.634  52.311 -23.390  1.00  0.00    -0.314 OA
BRANCH   3   4
HETATM    4  C21 UNL     1      -0.387  52.726 -24.287  1.00  0.00     0.260 C 
BRANCH   4   5
HETATM    5  C20 UNL     1      -1.066  51.871 -25.378  1.00  0.00     0.185 C 
HETATM    6  O3  UNL     1      -0.361  51.298 -26.219  1.00  0.00    -0.292 OA
BRANCH   5   7
HETATM    7  C19 UNL     1      -2.610  51.652 -25.318  1.00  0.00     0.128 C 
HETATM    8  C14 UNL     1      -3.195  51.521 -23.871  1.00  0.00    -0.002 C 
HETATM    9  C13 UNL     1      -4.749  51.663 -23.876  1.00  0.00     0.013 C 
HETATM   10  C15 UNL     1      -2.609  52.570 -22.910  1.00  0.00     0.019 C 
HETATM   11  C16 UNL     1      -2.781  50.088 -23.485  1.00  0.00     0.002 C 
HETATM   12  C12 UNL     1      -5.526  50.616 -23.065  1.00  0.00     0.007 C 
HETATM   13  C11 UNL     1      -4.790  50.155 -21.800  1.00  0.00     0.002 C 
HETATM   14  C2  UNL     1      -5.619  49.229 -20.830  1.00  0.00    -0.016 C 
HETATM   15  C10 UNL     1      -3.395  49.552 -22.166  1.00  0.00    -0.004 C 
HETATM   16  C1  UNL     1      -4.903  49.203 -19.448  1.00  0.00     0.020 C 
HETATM   17  C3  UNL     1      -7.059  49.774 -20.603  1.00  0.00     0.022 C 
HETATM   18  C7  UNL     1      -5.734  47.807 -21.370  1.00  0.00    -0.068 C 
HETATM   19  C4  UNL     1      -7.906  48.871 -19.710  1.00  0.00     0.084 C 
HETATM   20  C5  UNL     1      -7.883  47.442 -20.200  1.00  0.00     0.149 C 
HETATM   21  O1  UNL     1      -8.745  46.629 -19.872  1.00  0.00    -0.293 OA
HETATM   22  C6  UNL     1      -6.769  47.000 -21.074  1.00  0.00     0.053 C 
HETATM   23  C8  UNL     1      -4.646  47.313 -22.289  1.00  0.00     0.035 C 
HETATM   24  C9  UNL     1      -3.314  48.014 -22.057  1.00  0.00     0.010 C 
HETATM   25  C17 UNL     1      -3.036  49.284 -24.773  1.00  0.00     0.009 C 
HETATM   26  C18 UNL     1      -2.941  50.276 -25.938  1.00  0.00     0.047 C 
BRANCH   7  27
HETATM   27  O2  UNL     1      -3.289  52.672 -26.039  1.00  0.00    -0.381 OA
HETATM   28  H27 UNL     1      -3.167  52.456 -26.988  1.00  0.00     0.211 HD
ENDBRANCH   7  27
ENDBRANCH   5   7
ENDBRANCH   4   5
ENDBRANCH   3   4
ENDBRANCH   1   3
BRANCH   1  29
HETATM   29  C23 UNL     1       0.468  52.462 -21.049  1.00  0.00     0.120 C 
BRANCH  29  30
HETATM   30  C24 UNL     1       0.517  53.429 -19.874  1.00  0.00     0.112 C 
BRANCH  30  31
HETATM   31  C25 UNL     1       0.472  52.713 -18.538  1.00  0.00     0.217 C 
HETATM   32  O6  UNL     1      -0.428  51.950 -18.209  1.00  0.00    -0.274 OA
HETATM   33  N1  UNL     1       1.556  53.002 -17.736  1.00  0.00    -0.361 N 
HETATM   34  H34 UNL     1       2.122  53.807 -17.977  1.00  0.00     0.162 HD
BRANCH  33  35
HETATM   35  C26 UNL     1       1.632  52.508 -16.377  1.00  0.00     0.122 C 
BRANCH  35  36
HETATM   36  C27 UNL     1       1.037  51.108 -16.237  1.00  0.00     0.020 C 
BRANCH  36  37
HETATM   37  C28 UNL     1       1.296  50.439 -14.881  1.00  0.00     0.002 C 
BRANCH  37  38
HETATM   38  C29 UNL     1       1.668  51.381 -13.727  1.00  0.00     0.009 C 
BRANCH  38  39
HETATM   39  C30 UNL     1       2.912  50.973 -12.938  1.00  0.00     0.103 C 
BRANCH  39  40
HETATM   40  C31 UNL     1       3.179  51.856 -11.731  1.00  0.00     0.217 C 
HETATM   41  O7  UNL     1       3.875  51.523 -10.781  1.00  0.00    -0.274 OA
HETATM   42  N2  UNL     1       2.518  53.065 -11.797  1.00  0.00    -0.361 N 
HETATM   43  H45 UNL     1       2.136  53.353 -12.691  1.00  0.00     0.162 HD
BRANCH  42  44
HETATM   44  C32 UNL     1       2.703  54.088 -10.785  1.00  0.00     0.127 C 
BRANCH  44  45
HETATM   45  C33 UNL     1       3.974  54.924 -10.989  1.00  0.00     0.058 C 
BRANCH  45  46
HETATM   46  C34 UNL     1       4.436  55.611  -9.723  1.00  0.00    -0.054 A 
HETATM   47  C35 UNL     1       3.636  56.608  -9.136  1.00  0.00     0.010 A 
HETATM   48  C36 UNL     1       4.028  57.230  -7.950  1.00  0.00     0.040 A 
HETATM   49  C37 UNL     1       5.221  56.856  -7.354  1.00  0.00     0.098 A 
HETATM   50  C38 UNL     1       6.027  55.874  -7.926  1.00  0.00     0.099 A 
HETATM   51  C39 UNL     1       5.644  55.246  -9.107  1.00  0.00     0.046 A 
BRANCH  49  52
HETATM   52  O8  UNL     1       5.601  57.455  -6.187  1.00  0.00    -0.358 OA
HETATM   53  H52 UNL     1       6.449  57.027  -5.957  1.00  0.00     0.217 HD
ENDBRANCH  49  52
BRANCH  50  54
HETATM   54  O9  UNL     1       7.191  55.556  -7.283  1.00  0.00    -0.358 OA
HETATM   55  H53 UNL     1       7.659  54.887  -7.813  1.00  0.00     0.217 HD
ENDBRANCH  50  54
ENDBRANCH  45  46
ENDBRANCH  44  45
ENDBRANCH  42  44
ENDBRANCH  39  40
ENDBRANCH  38  39
ENDBRANCH  37  38
ENDBRANCH  36  37
ENDBRANCH  35  36
ENDBRANCH  33  35
ENDBRANCH  30  31
ENDBRANCH  29  30
ENDBRANCH   1  29
TORSDOF 19
ENDMDL
MODEL 3
REMARK minimizedAffinity -8.63820553
REMARK CNNscore 0.668357611
REMARK CNNaffinity 7.75753593
REMARK  19 active torsions:
REMARK  status: ('A' for Active; 'I' for Inactive)
REMARK    1  A    between atoms: C19_20  and  O2_21 
REMARK    2  A    between atoms: C19_20  and  C20_22 
REMARK    3  A    between atoms: C20_22  and  C21_24 
REMARK    4  A    between atoms: C21_24  and  O4_25 
REMARK    5  A    between atoms: O4_25  and  C22_26 
REMARK    6  A    between atoms: C22_26  and  C23_28 
REMARK    7  A    between atoms: C23_28  and  C24_29 
REMARK    8  A    between atoms: C24_29  and  C25_30 
REMARK       I    between atoms: C25_30  and  N1_32 
REMARK    9  A    between atoms: N1_32  and  C26_33 
REMARK   10  A    between atoms: C26_33  and  C27_34 
REMARK   11  A    between atoms: C27_34  and  C28_35 
REMARK   12  A    between atoms: C28_35  and  C29_36 
REMARK   13  A    between atoms: C29_36  and  C30_37 
REMARK   14  A    between atoms: C30_37  and  C31_38 
REMARK       I    between atoms: C31_38  and  N2_40 
REMARK   15  A    between atoms: N2_40  and  C32_41 
REMARK   16  A    between atoms: C32_41  and  C33_42 
REMARK   17  A    between atoms: C33_42  and  C34_43 
REMARK   18  A    between atoms: C37_46  and  O8_47 
REMARK   19  A    between atoms: C38_48  and  O9_49 
ROOT
HETATM    1  C22 UNL     1      -0.989  50.585 -13.312  1.00  0.00     0.259 C 
HETATM    2  O5  UNL     1       0.100  50.957 -13.726  1.00  0.00    -0.265 OA
ENDROOT
BRANCH   1   3
HETATM    3  O4  UNL     1      -1.817  51.323 -12.528  1.00  0.00    -0.314 OA
BRANCH   3   4
HETATM    4  C21 UNL     1      -1.472  52.673 -12.252  1.00  0.00     0.260 C 
BRANCH   4   5
HETATM    5  C20 UNL     1      -1.553  53.390 -10.887  1.00  0.00     0.185 C 
HETATM    6  O3  UNL     1      -2.468  54.199 -10.687  1.00  0.00    -0.292 OA
BRANCH   5   7
HETATM    7  C19 UNL     1      -0.555  52.987  -9.758  1.00  0.00     0.128 C 
HETATM    8  C14 UNL     1       0.218  54.186  -9.111  1.00  0.00    -0.002 C 
HETATM    9  C13 UNL     1       0.911  53.758  -7.780  1.00  0.00     0.013 C 
HETATM   10  C15 UNL     1      -0.704  55.384  -8.823  1.00  0.00     0.019 C 
HETATM   11  C16 UNL     1       1.268  54.511 -10.192  1.00  0.00     0.002 C 
HETATM   12  C12 UNL     1       2.373  54.195  -7.609  1.00  0.00     0.007 C 
HETATM   13  C11 UNL     1       2.682  55.557  -8.245  1.00  0.00     0.002 C 
HETATM   14  C2  UNL     1       4.111  56.144  -7.935  1.00  0.00    -0.016 C 
HETATM   15  C10 UNL     1       2.355  55.535  -9.774  1.00  0.00    -0.004 C 
HETATM   16  C1  UNL     1       4.105  57.661  -8.289  1.00  0.00     0.020 C 
HETATM   17  C3  UNL     1       4.474  56.015  -6.428  1.00  0.00     0.022 C 
HETATM   18  C7  UNL     1       5.197  55.438  -8.742  1.00  0.00    -0.068 C 
HETATM   19  C4  UNL     1       5.876  56.525  -6.103  1.00  0.00     0.084 C 
HETATM   20  C5  UNL     1       6.908  55.907  -7.017  1.00  0.00     0.149 C 
HETATM   21  O1  UNL     1       8.102  55.885  -6.728  1.00  0.00    -0.293 OA
HETATM   22  C6  UNL     1       6.469  55.339  -8.315  1.00  0.00     0.053 C 
HETATM   23  C8  UNL     1       4.804  54.815 -10.057  1.00  0.00     0.035 C 
HETATM   24  C9  UNL     1       3.595  55.490 -10.693  1.00  0.00     0.010 C 
HETATM   25  C17 UNL     1       1.736  53.122 -10.664  1.00  0.00     0.009 C 
HETATM   26  C18 UNL     1       0.585  52.149 -10.378  1.00  0.00     0.047 C 
BRANCH   7  27
HETATM   27  O2  UNL     1      -1.214  52.222  -8.756  1.00  0.00    -0.381 OA
HETATM   28  H27 UNL     1      -1.338  51.328  -9.140  1.00  0.00     0.211 HD
ENDBRANCH   7  27
ENDBRANCH   5   7
ENDBRANCH   4   5
ENDBRANCH   3   4
ENDBRANCH   1   3
BRANCH   1  29
HETATM   29  C23 UNL     1      -1.560  49.204 -13.516  1.00  0.00     0.120 C 
BRANCH  29  30
HETATM   30  C24 UNL     1      -2.743  49.211 -14.476  1.00  0.00     0.112 C 
BRANCH  30  31
HETATM   31  C25 UNL     1      -2.342  49.627 -15.878  1.00  0.00     0.217 C 
HETATM   32  O6  UNL     1      -3.065  50.275 -16.624  1.00  0.00    -0.274 OA
HETATM   33  N1  UNL     1      -1.073  49.208 -16.220  1.00  0.00    -0.361 N 
HETATM   34  H34 UNL     1      -0.641  48.490 -15.651  1.00  0.00     0.162 HD
BRANCH  33  35
HETATM   35  C26 UNL     1      -0.558  49.406 -17.560  1.00  0.00     0.122 C 
BRANCH  35  36
HETATM   36  C27 UNL     1      -0.029  50.823 -17.771  1.00  0.00     0.020 C 
BRANCH  36  37
HETATM   37  C28 UNL     1      -0.262  51.387 -19.178  1.00  0.00     0.002 C 
BRANCH  37  38
HETATM   38  C29 UNL     1      -0.039  52.897 -19.343  1.00  0.00     0.009 C 
BRANCH  38  39
HETATM   39  C30 UNL     1       1.351  53.291 -19.846  1.00  0.00     0.103 C 
BRANCH  39  40
HETATM   40  C31 UNL     1       1.355  53.787 -21.282  1.00  0.00     0.217 C 
HETATM   41  O7  UNL     1       1.942  54.794 -21.655  1.00  0.00    -0.274 OA
HETATM   42  N2  UNL     1       0.588  53.004 -22.120  1.00  0.00    -0.361 N 
HETATM   43  H45 UNL     1       0.306  52.087 -21.793  1.00  0.00     0.162 HD
BRANCH  42  44
HETATM   44  C32 UNL     1       0.524  53.256 -23.547  1.00  0.00     0.127 C 
BRANCH  44  45
HETATM   45  C33 UNL     1      -0.039  52.076 -24.350  1.00  0.00     0.058 C 
BRANCH  45  46
HETATM   46  C34 UNL     1      -1.551  52.035 -24.354  1.00  0.00    -0.054 A 
HETATM   47  C35 UNL     1      -2.240  51.760 -25.549  1.00  0.00     0.010 A 
HETATM   48  C36 UNL     1      -3.633  51.683 -25.567  1.00  0.00     0.040 A 
HETATM   49  C37 UNL     1      -4.336  51.886 -24.391  1.00  0.00     0.098 A 
HETATM   50  C38 UNL     1      -3.668  52.166 -23.200  1.00  0.00     0.099 A 
HETATM   51  C39 UNL     1      -2.279  52.242 -23.172  1.00  0.00     0.046 A 
BRANCH  49  52
HETATM   52  O8  UNL     1      -5.699  51.801 -24.404  1.00  0.00    -0.358 OA
HETATM   53  H52 UNL     1      -5.963  51.964 -23.477  1.00  0.00     0.217 HD
ENDBRANCH  49  52
BRANCH  50  54
HETATM   54  O9  UNL     1      -4.425  52.356 -22.078  1.00  0.00    -0.358 OA
HETATM   55  H53 UNL     1      -3.830  52.574 -21.341  1.00  0.00     0.217 HD
ENDBRANCH  50  54
ENDBRANCH  45  46
ENDBRANCH  44  45
ENDBRANCH  42  44
ENDBRANCH  39  40
ENDBRANCH  38  39
ENDBRANCH  37  38
ENDBRANCH  36  37
ENDBRANCH  35  36
ENDBRANCH  33  35
ENDBRANCH  30  31
ENDBRANCH  29  30
ENDBRANCH   1  29
TORSDOF 19
ENDMDL
MODEL 4
REMARK minimizedAffinity -8.80575275
REMARK CNNscore 0.60541296
REMARK CNNaffinity 7.14430046
REMARK  19 active torsions:
REMARK  status: ('A' for Active; 'I' for Inactive)
REMARK    1  A    between atoms: C19_20  and  O2_21 
REMARK    2  A    between atoms: C19_20  and  C20_22 
REMARK    3  A    between atoms: C20_22  and  C21_24 
REMARK    4  A    between atoms: C21_24  and  O4_25 
REMARK    5  A    between atoms: O4_25  and  C22_26 
REMARK    6  A    between atoms: C22_26  and  C23_28 
REMARK    7  A    between atoms: C23_28  and  C24_29 
REMARK    8  A    between atoms: C24_29  and  C25_30 
REMARK       I    between atoms: C25_30  and  N1_32 
REMARK    9  A    between atoms: N1_32  and  C26_33 
REMARK   10  A    between atoms: C26_33  and  C27_34 
REMARK   11  A    between atoms: C27_34  and  C28_35 
REMARK   12  A    between atoms: C28_35  and  C29_36 
REMARK   13  A    between atoms: C29_36  and  C30_37 
REMARK   14  A    between atoms: C30_37  and  C31_38 
REMARK       I    between atoms: C31_38  and  N2_40 
REMARK   15  A    between atoms: N2_40  and  C32_41 
REMARK   16  A    between atoms: C32_41  and  C33_42 
REMARK   17  A    between atoms: C33_42  and  C34_43 
REMARK   18  A    between atoms: C37_46  and  O8_47 
REMARK   19  A    between atoms: C38_48  and  O9_49 
ROOT
HETATM    1  C22 UNL     1      -4.574  48.455 -28.438  1.00  0.00     0.259 C 
HETATM    2  O5  UNL     1      -4.572  47.861 -29.508  1.00  0.00    -0.265 OA
ENDROOT
BRANCH   1   3
HETATM    3  O4  UNL     1      -3.720  49.454 -28.101  1.00  0.00    -0.314 OA
BRANCH   3   4
HETATM    4  C21 UNL     1      -3.328  49.586 -26.742  1.00  0.00     0.260 C 
BRANCH   4   5
HETATM    5  C20 UNL     1      -3.477  50.839 -25.852  1.00  0.00     0.185 C 
HETATM    6  O3  UNL     1      -3.083  51.931 -26.281  1.00  0.00    -0.292 OA
BRANCH   5   7
HETATM    7  C19 UNL     1      -4.229  50.717 -24.491  1.00  0.00     0.128 C 
HETATM    8  C14 UNL     1      -3.420  51.227 -23.250  1.00  0.00    -0.002 C 
HETATM    9  C13 UNL     1      -4.346  51.405 -22.006  1.00  0.00     0.013 C 
HETATM   10  C15 UNL     1      -2.709  52.563 -23.528  1.00  0.00     0.019 C 
HETATM   11  C16 UNL     1      -2.420  50.076 -23.023  1.00  0.00     0.002 C 
HETATM   12  C12 UNL     1      -3.823  50.822 -20.686  1.00  0.00     0.007 C 
HETATM   13  C11 UNL     1      -2.298  50.912 -20.540  1.00  0.00     0.002 C 
HETATM   14  C2  UNL     1      -1.725  50.509 -19.128  1.00  0.00    -0.016 C 
HETATM   15  C10 UNL     1      -1.590  50.166 -21.717  1.00  0.00    -0.004 C 
HETATM   16  C1  UNL     1      -0.266  51.043 -19.022  1.00  0.00     0.020 C 
HETATM   17  C3  UNL     1      -2.544  51.147 -17.969  1.00  0.00     0.022 C 
HETATM   18  C7  UNL     1      -1.729  48.996 -18.930  1.00  0.00    -0.068 C 
HETATM   19  C4  UNL     1      -2.047  50.731 -16.586  1.00  0.00     0.084 C 
HETATM   20  C5  UNL     1      -1.932  49.229 -16.475  1.00  0.00     0.149 C 
HETATM   21  O1  UNL     1      -1.901  48.658 -15.388  1.00  0.00    -0.293 OA
HETATM   22  C6  UNL     1      -1.821  48.424 -17.716  1.00  0.00     0.053 C 
HETATM   23  C8  UNL     1      -1.648  48.126 -20.158  1.00  0.00     0.035 C 
HETATM   24  C9  UNL     1      -0.954  48.814 -21.326  1.00  0.00     0.010 C 
HETATM   25  C17 UNL     1      -3.274  48.814 -23.245  1.00  0.00     0.009 C 
HETATM   26  C18 UNL     1      -4.430  49.220 -24.166  1.00  0.00     0.047 C 
BRANCH   7  27
HETATM   27  O2  UNL     1      -5.495  51.362 -24.558  1.00  0.00    -0.381 OA
HETATM   28  H27 UNL     1      -6.074  50.763 -25.075  1.00  0.00     0.211 HD
ENDBRANCH   7  27
ENDBRANCH   5   7
ENDBRANCH   4   5
ENDBRANCH   3   4
ENDBRANCH   1   3
BRANCH   1  29
HETATM   29  C23 UNL     1      -5.463  48.111 -27.268  1.00  0.00     0.120 C 
BRANCH  29  30
HETATM   30  C24 UNL     1      -6.512  47.070 -27.635  1.00  0.00     0.112 C 
BRANCH  30  31
HETATM   31  C25 UNL     1      -7.795  47.701 -28.140  1.00  0.00     0.217 C 
HETATM   32  O6  UNL     1      -8.700  48.078 -27.405  1.00  0.00    -0.274 OA
HETATM   33  N1  UNL     1      -7.832  47.815 -29.514  1.00  0.00    -0.361 N 
HETATM   34  H34 UNL     1      -7.165  47.277 -30.053  1.00  0.00     0.162 HD
BRANCH  33  35
HETATM   35  C26 UNL     1      -9.024  48.284 -30.192  1.00  0.00     0.122 C 
BRANCH  35  36
HETATM   36  C27 UNL     1     -10.054  47.174 -30.385  1.00  0.00     0.020 C 
BRANCH  36  37
HETATM   37  C28 UNL     1     -11.513  47.647 -30.357  1.00  0.00     0.002 C 
BRANCH  37  38
HETATM   38  C29 UNL     1     -12.055  48.070 -28.984  1.00  0.00     0.009 C 
BRANCH  38  39
HETATM   39  C30 UNL     1     -12.751  46.960 -28.196  1.00  0.00     0.103 C 
BRANCH  39  40
HETATM   40  C31 UNL     1     -12.849  47.246 -26.708  1.00  0.00     0.217 C 
HETATM   41  O7  UNL     1     -12.189  48.101 -26.131  1.00  0.00    -0.274 OA
HETATM   42  N2  UNL     1     -13.733  46.409 -26.059  1.00  0.00    -0.361 N 
HETATM   43  H45 UNL     1     -14.387  45.875 -26.621  1.00  0.00     0.162 HD
BRANCH  42  44
HETATM   44  C32 UNL     1     -14.036  46.568 -24.650  1.00  0.00     0.127 C 
BRANCH  44  45
HETATM   45  C33 UNL     1     -15.339  47.336 -24.389  1.00  0.00     0.058 C 
BRANCH  45  46
HETATM   46  C34 UNL     1     -16.565  46.452 -24.453  1.00  0.00    -0.054 A 
HETATM   47  C35 UNL     1     -16.454  45.079 -24.174  1.00  0.00     0.010 A 
HETATM   48  C36 UNL     1     -17.579  44.253 -24.193  1.00  0.00     0.040 A 
HETATM   49  C37 UNL     1     -18.813  44.803 -24.495  1.00  0.00     0.098 A 
HETATM   50  C38 UNL     1     -18.940  46.161 -24.779  1.00  0.00     0.099 A 
HETATM   51  C39 UNL     1     -17.824  46.993 -24.759  1.00  0.00     0.046 A 
BRANCH  49  52
HETATM   52  O8  UNL     1     -19.918  43.999 -24.503  1.00  0.00    -0.358 OA
HETATM   53  H52 UNL     1     -20.657  44.601 -24.724  1.00  0.00     0.217 HD
ENDBRANCH  49  52
BRANCH  50  54
HETATM   54  O9  UNL     1     -20.190  46.635 -25.068  1.00  0.00    -0.358 OA
HETATM   55  H53 UNL     1     -20.116  47.582 -25.277  1.00  0.00     0.217 HD
ENDBRANCH  50  54
ENDBRANCH  45  46
ENDBRANCH  44  45
ENDBRANCH  42  44
ENDBRANCH  39  40
ENDBRANCH  38  39
ENDBRANCH  37  38
ENDBRANCH  36  37
ENDBRANCH  35  36
ENDBRANCH  33  35
ENDBRANCH  30  31
ENDBRANCH  29  30
ENDBRANCH   1  29
TORSDOF 19
ENDMDL
MODEL 5
REMARK minimizedAffinity -9.33379745
REMARK CNNscore 0.547345459
REMARK CNNaffinity 6.70142412
REMARK  19 active torsions:
REMARK  status: ('A' for Active; 'I' for Inactive)
REMARK    1  A    between atoms: C19_20  and  O2_21 
REMARK    2  A    between atoms: C19_20  and  C20_22 
REMARK    3  A    between atoms: C20_22  and  C21_24 
REMARK    4  A    between atoms: C21_24  and  O4_25 
REMARK    5  A    between atoms: O4_25  and  C22_26 
REMARK    6  A    between atoms: C22_26  and  C23_28 
REMARK    7  A    between atoms: C23_28  and  C24_29 
REMARK    8  A    between atoms: C24_29  and  C25_30 
REMARK       I    between atoms: C25_30  and  N1_32 
REMARK    9  A    between atoms: N1_32  and  C26_33 
REMARK   10  A    between atoms: C26_33  and  C27_34 
REMARK   11  A    between atoms: C27_34  and  C28_35 
REMARK   12  A    between atoms: C28_35  and  C29_36 
REMARK   13  A    between atoms: C29_36  and  C30_37 
REMARK   14  A    between atoms: C30_37  and  C31_38 
REMARK       I    between atoms: C31_38  and  N2_40 
REMARK   15  A    between atoms: N2_40  and  C32_41 
REMARK   16  A    between atoms: C32_41  and  C33_42 
REMARK   17  A    between atoms: C33_42  and  C34_43 
REMARK   18  A    between atoms: C37_46  and  O8_47 
REMARK   19  A    between atoms: C38_48  and  O9_49 
ROOT
HETATM    1  C22 UNL     1      -9.473  47.894 -19.551  1.00  0.00     0.259 C 
HETATM    2  O5  UNL     1      -9.110  48.917 -18.988  1.00  0.00    -0.265 OA
ENDROOT
BRANCH   1   3
HETATM    3  O4  UNL     1     -10.209  46.909 -18.975  1.00  0.00    -0.314 OA
BRANCH   3   4
HETATM    4  C21 UNL     1     -11.625  46.965 -19.080  1.00  0.00     0.260 C 
BRANCH   4   5
HETATM    5  C20 UNL     1     -12.627  47.264 -17.944  1.00  0.00     0.185 C 
HETATM    6  O3  UNL     1     -12.239  47.207 -16.770  1.00  0.00    -0.292 OA
BRANCH   5   7
HETATM    7  C19 UNL     1     -14.065  47.748 -18.308  1.00  0.00     0.128 C 
HETATM    8  C14 UNL     1     -14.963  46.666 -18.998  1.00  0.00    -0.002 C 
HETATM    9  C13 UNL     1     -16.463  47.097 -19.004  1.00  0.00     0.013 C 
HETATM   10  C15 UNL     1     -14.850  45.293 -18.310  1.00  0.00     0.019 C 
HETATM   11  C16 UNL     1     -14.396  46.643 -20.431  1.00  0.00     0.002 C 
HETATM   12  C12 UNL     1     -17.207  46.933 -20.337  1.00  0.00     0.007 C 
HETATM   13  C11 UNL     1     -16.743  45.716 -21.150  1.00  0.00     0.002 C 
HETATM   14  C2  UNL     1     -17.600  45.387 -22.431  1.00  0.00    -0.016 C 
HETATM   15  C10 UNL     1     -15.212  45.811 -21.454  1.00  0.00    -0.004 C 
HETATM   16  C1  UNL     1     -17.268  43.935 -22.882  1.00  0.00     0.020 C 
HETATM   17  C3  UNL     1     -19.127  45.449 -22.134  1.00  0.00     0.022 C 
HETATM   18  C7  UNL     1     -17.303  46.355 -23.572  1.00  0.00    -0.068 C 
HETATM   19  C4  UNL     1     -19.987  45.188 -23.369  1.00  0.00     0.084 C 
HETATM   20  C5  UNL     1     -19.570  46.070 -24.522  1.00  0.00     0.149 C 
HETATM   21  O1  UNL     1     -20.316  46.293 -25.473  1.00  0.00    -0.293 OA
HETATM   22  C6  UNL     1     -18.207  46.657 -24.521  1.00  0.00     0.053 C 
HETATM   23  C8  UNL     1     -15.945  47.006 -23.606  1.00  0.00     0.035 C 
HETATM   24  C9  UNL     1     -14.872  46.173 -22.916  1.00  0.00     0.010 C 
HETATM   25  C17 UNL     1     -14.159  48.132 -20.744  1.00  0.00     0.009 C 
HETATM   26  C18 UNL     1     -13.961  48.839 -19.397  1.00  0.00     0.047 C 
BRANCH   7  27
HETATM   27  O2  UNL     1     -14.719  48.282 -17.164  1.00  0.00    -0.381 OA
HETATM   28  H27 UNL     1     -14.322  49.166 -17.016  1.00  0.00     0.211 HD
ENDBRANCH   7  27
ENDBRANCH   5   7
ENDBRANCH   4   5
ENDBRANCH   3   4
ENDBRANCH   1   3
BRANCH   1  29
HETATM   29  C23 UNL     1      -9.082  47.499 -20.954  1.00  0.00     0.120 C 
BRANCH  29  30
HETATM   30  C24 UNL     1      -8.184  48.540 -21.610  1.00  0.00     0.112 C 
BRANCH  30  31
HETATM   31  C25 UNL     1      -6.826  47.975 -21.980  1.00  0.00     0.217 C 
HETATM   32  O6  UNL     1      -6.201  47.196 -21.272  1.00  0.00    -0.274 OA
HETATM   33  N1  UNL     1      -6.374  48.423 -23.204  1.00  0.00    -0.361 N 
HETATM   34  H34 UNL     1      -6.829  49.231 -23.610  1.00  0.00     0.162 HD
BRANCH  33  35
HETATM   35  C26 UNL     1      -5.046  48.088 -23.677  1.00  0.00     0.122 C 
BRANCH  35  36
HETATM   36  C27 UNL     1      -4.596  48.992 -24.823  1.00  0.00     0.020 C 
BRANCH  36  37
HETATM   37  C28 UNL     1      -4.590  48.317 -26.200  1.00  0.00     0.002 C 
BRANCH  37  38
HETATM   38  C29 UNL     1      -3.390  48.642 -27.102  1.00  0.00     0.009 C 
BRANCH  38  39
HETATM   39  C30 UNL     1      -3.309  50.097 -27.566  1.00  0.00     0.103 C 
BRANCH  39  40
HETATM   40  C31 UNL     1      -2.155  50.865 -26.944  1.00  0.00     0.217 C 
HETATM   41  O7  UNL     1      -1.151  51.205 -27.556  1.00  0.00    -0.274 OA
HETATM   42  N2  UNL     1      -2.338  51.107 -25.598  1.00  0.00    -0.361 N 
HETATM   43  H45 UNL     1      -3.268  50.984 -25.212  1.00  0.00     0.162 HD
BRANCH  42  44
HETATM   44  C32 UNL     1      -1.393  51.898 -24.833  1.00  0.00     0.127 C 
BRANCH  44  45
HETATM   45  C33 UNL     1      -0.633  51.085 -23.777  1.00  0.00     0.058 C 
BRANCH  45  46
HETATM   46  C34 UNL     1      -0.060  51.945 -22.672  1.00  0.00    -0.054 A 
HETATM   47  C35 UNL     1      -0.235  51.568 -21.329  1.00  0.00     0.010 A 
HETATM   48  C36 UNL     1       0.314  52.329 -20.296  1.00  0.00     0.040 A 
HETATM   49  C37 UNL     1       1.037  53.468 -20.609  1.00  0.00     0.098 A 
HETATM   50  C38 UNL     1       1.215  53.859 -21.935  1.00  0.00     0.099 A 
HETATM   51  C39 UNL     1       0.673  53.105 -22.971  1.00  0.00     0.046 A 
BRANCH  49  52
HETATM   52  O8  UNL     1       1.586  54.208 -19.601  1.00  0.00    -0.358 OA
HETATM   53  H52 UNL     1       2.049  54.939 -20.058  1.00  0.00     0.217 HD
ENDBRANCH  49  52
BRANCH  50  54
HETATM   54  O9  UNL     1       1.939  54.995 -22.169  1.00  0.00    -0.358 OA
HETATM   55  H53 UNL     1       1.949  55.158 -23.128  1.00  0.00     0.217 HD
ENDBRANCH  50  54
ENDBRANCH  45  46
ENDBRANCH  44  45
ENDBRANCH  42  44
ENDBRANCH  39  40
ENDBRANCH  38  39
ENDBRANCH  37  38
ENDBRANCH  36  37
ENDBRANCH  35  36
ENDBRANCH  33  35
ENDBRANCH  30  31
ENDBRANCH  29  30
ENDBRANCH   1  29
TORSDOF 19
ENDMDL
MODEL 6
REMARK minimizedAffinity -8.79740715
REMARK CNNscore 0.542197943
REMARK CNNaffinity 6.54473495
REMARK  19 active torsions:
REMARK  status: ('A' for Active; 'I' for Inactive)
REMARK    1  A    between atoms: C19_20  and  O2_21 
REMARK    2  A    between atoms: C19_20  and  C20_22 
REMARK    3  A    between atoms: C20_22  and  C21_24 
REMARK    4  A    between atoms: C21_24  and  O4_25 
REMARK    5  A    between atoms: O4_25  and  C22_26 
REMARK    6  A    between atoms: C22_26  and  C23_28 
REMARK    7  A    between atoms: C23_28  and  C24_29 
REMARK    8  A    between atoms: C24_29  and  C25_30 
REMARK       I    between atoms: C25_30  and  N1_32 
REMARK    9  A    between atoms: N1_32  and  C26_33 
REMARK   10  A    between atoms: C26_33  and  C27_34 
REMARK   11  A    between atoms: C27_34  and  C28_35 
REMARK   12  A    between atoms: C28_35  and  C29_36 
REMARK   13  A    between atoms: C29_36  and  C30_37 
REMARK   14  A    between atoms: C30_37  and  C31_38 
REMARK       I    between atoms: C31_38  and  N2_40 
REMARK   15  A    between atoms: N2_40  and  C32_41 
REMARK   16  A    between atoms: C32_41  and  C33_42 
REMARK   17  A    between atoms: C33_42  and  C34_43 
REMARK   18  A    between atoms: C37_46  and  O8_47 
REMARK   19  A    between atoms: C38_48  and  O9_49 
ROOT
HETATM    1  C22 UNL     1      -9.394  48.072 -19.771  1.00  0.00     0.259 C 
HETATM    2  O5  UNL     1      -9.568  47.606 -20.889  1.00  0.00    -0.265 OA
ENDROOT
BRANCH   1   3
HETATM    3  O4  UNL     1     -10.368  48.252 -18.843  1.00  0.00    -0.314 OA
BRANCH   3   4
HETATM    4  C21 UNL     1     -11.560  47.485 -18.947  1.00  0.00     0.260 C 
BRANCH   4   5
HETATM    5  C20 UNL     1     -12.666  47.342 -17.879  1.00  0.00     0.185 C 
HETATM    6  O3  UNL     1     -12.357  46.974 -16.739  1.00  0.00    -0.292 OA
BRANCH   5   7
HETATM    7  C19 UNL     1     -14.121  47.782 -18.231  1.00  0.00     0.128 C 
HETATM    8  C14 UNL     1     -14.978  46.688 -18.953  1.00  0.00    -0.002 C 
HETATM    9  C13 UNL     1     -16.493  47.062 -18.948  1.00  0.00     0.013 C 
HETATM   10  C15 UNL     1     -14.813  45.301 -18.306  1.00  0.00     0.019 C 
HETATM   11  C16 UNL     1     -14.411  46.729 -20.385  1.00  0.00     0.002 C 
HETATM   12  C12 UNL     1     -17.230  46.910 -20.286  1.00  0.00     0.007 C 
HETATM   13  C11 UNL     1     -16.721  45.736 -21.134  1.00  0.00     0.002 C 
HETATM   14  C2  UNL     1     -17.566  45.413 -22.424  1.00  0.00    -0.016 C 
HETATM   15  C10 UNL     1     -15.195  45.898 -21.434  1.00  0.00    -0.004 C 
HETATM   16  C1  UNL     1     -17.179  43.988 -22.918  1.00  0.00     0.020 C 
HETATM   17  C3  UNL     1     -19.093  45.408 -22.128  1.00  0.00     0.022 C 
HETATM   18  C7  UNL     1     -17.306  46.425 -23.536  1.00  0.00    -0.068 C 
HETATM   19  C4  UNL     1     -19.943  45.151 -23.371  1.00  0.00     0.084 C 
HETATM   20  C5  UNL     1     -19.560  46.083 -24.497  1.00  0.00     0.149 C 
HETATM   21  O1  UNL     1     -20.314  46.305 -25.441  1.00  0.00    -0.293 OA
HETATM   22  C6  UNL     1     -18.221  46.720 -24.477  1.00  0.00     0.053 C 
HETATM   23  C8  UNL     1     -15.972  47.127 -23.550  1.00  0.00     0.035 C 
HETATM   24  C9  UNL     1     -14.869  46.315 -22.884  1.00  0.00     0.010 C 
HETATM   25  C17 UNL     1     -14.231  48.234 -20.654  1.00  0.00     0.009 C 
HETATM   26  C18 UNL     1     -14.059  48.908 -19.287  1.00  0.00     0.047 C 
BRANCH   7  27
HETATM   27  O2  UNL     1     -14.795  48.257 -17.072  1.00  0.00    -0.381 OA
HETATM   28  H27 UNL     1     -14.431  49.151 -16.898  1.00  0.00     0.211 HD
ENDBRANCH   7  27
ENDBRANCH   5   7
ENDBRANCH   4   5
ENDBRANCH   3   4
ENDBRANCH   1   3
BRANCH   1  29
HETATM   29  C23 UNL     1      -8.084  48.622 -19.265  1.00  0.00     0.120 C 
BRANCH  29  30
HETATM   30  C24 UNL     1      -7.255  49.242 -20.383  1.00  0.00     0.112 C 
BRANCH  30  31
HETATM   31  C25 UNL     1      -6.666  48.195 -21.308  1.00  0.00     0.217 C 
HETATM   32  O6  UNL     1      -5.868  47.341 -20.943  1.00  0.00    -0.274 OA
HETATM   33  N1  UNL     1      -7.131  48.300 -22.603  1.00  0.00    -0.361 N 
HETATM   34  H34 UNL     1      -7.594  49.159 -22.872  1.00  0.00     0.162 HD
BRANCH  33  35
HETATM   35  C26 UNL     1      -6.594  47.465 -23.658  1.00  0.00     0.122 C 
BRANCH  35  36
HETATM   36  C27 UNL     1      -6.274  48.263 -24.920  1.00  0.00     0.020 C 
BRANCH  36  37
HETATM   37  C28 UNL     1      -4.782  48.328 -25.270  1.00  0.00     0.002 C 
BRANCH  37  38
HETATM   38  C29 UNL     1      -4.090  49.674 -25.013  1.00  0.00     0.009 C 
BRANCH  38  39
HETATM   39  C30 UNL     1      -4.080  50.124 -23.552  1.00  0.00     0.103 C 
BRANCH  39  40
HETATM   40  C31 UNL     1      -3.066  49.383 -22.698  1.00  0.00     0.217 C 
HETATM   41  O7  UNL     1      -2.987  48.163 -22.635  1.00  0.00    -0.274 OA
HETATM   42  N2  UNL     1      -2.263  50.232 -21.964  1.00  0.00    -0.361 N 
HETATM   43  H45 UNL     1      -2.244  51.213 -22.219  1.00  0.00     0.162 HD
BRANCH  42  44
HETATM   44  C32 UNL     1      -1.174  49.730 -21.147  1.00  0.00     0.127 C 
BRANCH  44  45
HETATM   45  C33 UNL     1      -0.286  50.839 -20.569  1.00  0.00     0.058 C 
BRANCH  45  46
HETATM   46  C34 UNL     1       0.150  51.847 -21.611  1.00  0.00    -0.054 A 
HETATM   47  C35 UNL     1      -0.195  51.653 -22.960  1.00  0.00     0.010 A 
HETATM   48  C36 UNL     1       0.168  52.587 -23.930  1.00  0.00     0.040 A 
HETATM   49  C37 UNL     1       0.879  53.714 -23.550  1.00  0.00     0.098 A 
HETATM   50  C38 UNL     1       1.233  53.917 -22.218  1.00  0.00     0.099 A 
HETATM   51  C39 UNL     1       0.874  52.992 -21.242  1.00  0.00     0.046 A 
BRANCH  49  52
HETATM   52  O8  UNL     1       1.225  54.636 -24.496  1.00  0.00    -0.358 OA
HETATM   53  H52 UNL     1       1.698  55.332 -23.998  1.00  0.00     0.217 HD
ENDBRANCH  49  52
BRANCH  50  54
HETATM   54  O9  UNL     1       1.935  55.051 -21.915  1.00  0.00    -0.358 OA
HETATM   55  H53 UNL     1       2.138  55.039 -20.964  1.00  0.00     0.217 HD
ENDBRANCH  50  54
ENDBRANCH  45  46
ENDBRANCH  44  45
ENDBRANCH  42  44
ENDBRANCH  39  40
ENDBRANCH  38  39
ENDBRANCH  37  38
ENDBRANCH  36  37
ENDBRANCH  35  36
ENDBRANCH  33  35
ENDBRANCH  30  31
ENDBRANCH  29  30
ENDBRANCH   1  29
TORSDOF 19
ENDMDL
MODEL 7
REMARK minimizedAffinity -8.29426956
REMARK CNNscore 0.454806864
REMARK CNNaffinity 6.93586349
REMARK  19 active torsions:
REMARK  status: ('A' for Active; 'I' for Inactive)
REMARK    1  A    between atoms: C19_20  and  O2_21 
REMARK    2  A    between atoms: C19_20  and  C20_22 
REMARK    3  A    between atoms: C20_22  and  C21_24 
REMARK    4  A    between atoms: C21_24  and  O4_25 
REMARK    5  A    between atoms: O4_25  and  C22_26 
REMARK    6  A    between atoms: C22_26  and  C23_28 
REMARK    7  A    between atoms: C23_28  and  C24_29 
REMARK    8  A    between atoms: C24_29  and  C25_30 
REMARK       I    between atoms: C25_30  and  N1_32 
REMARK    9  A    between atoms: N1_32  and  C26_33 
REMARK   10  A    between atoms: C26_33  and  C27_34 
REMARK   11  A    between atoms: C27_34  and  C28_35 
REMARK   12  A    between atoms: C28_35  and  C29_36 
REMARK   13  A    between atoms: C29_36  and  C30_37 
REMARK   14  A    between atoms: C30_37  and  C31_38 
REMARK       I    between atoms: C31_38  and  N2_40 
REMARK   15  A    between atoms: N2_40  and  C32_41 
REMARK   16  A    between atoms: C32_41  and  C33_42 
REMARK   17  A    between atoms: C33_42  and  C34_43 
REMARK   18  A    between atoms: C37_46  and  O8_47 
REMARK   19  A    between atoms: C38_48  and  O9_49 
ROOT
HETATM    1  C22 UNL     1       0.023  50.644 -14.124  1.00  0.00     0.259 C 
HETATM    2  O5  UNL     1      -0.750  49.714 -14.310  1.00  0.00    -0.265 OA
ENDROOT
BRANCH   1   3
HETATM    3  O4  UNL     1      -0.346  51.926 -13.878  1.00  0.00    -0.314 OA
BRANCH   3   4
HETATM    4  C21 UNL     1       0.192  52.585 -12.741  1.00  0.00     0.260 C 
BRANCH   4   5
HETATM    5  C20 UNL     1      -0.519  52.836 -11.393  1.00  0.00     0.185 C 
HETATM    6  O3  UNL     1      -1.728  53.098 -11.391  1.00  0.00    -0.292 OA
BRANCH   5   7
HETATM    7  C19 UNL     1       0.278  52.634 -10.067  1.00  0.00     0.128 C 
HETATM    8  C14 UNL     1       0.751  53.960  -9.380  1.00  0.00    -0.002 C 
HETATM    9  C13 UNL     1       1.213  53.703  -7.912  1.00  0.00     0.013 C 
HETATM   10  C15 UNL     1      -0.352  55.033  -9.367  1.00  0.00     0.019 C 
HETATM   11  C16 UNL     1       1.945  54.371 -10.264  1.00  0.00     0.002 C 
HETATM   12  C12 UNL     1       2.546  54.345  -7.501  1.00  0.00     0.007 C 
HETATM   13  C11 UNL     1       2.802  55.702  -8.172  1.00  0.00     0.002 C 
HETATM   14  C2  UNL     1       4.056  56.496  -7.642  1.00  0.00    -0.016 C 
HETATM   15  C10 UNL     1       2.791  55.555  -9.728  1.00  0.00    -0.004 C 
HETATM   16  C1  UNL     1       3.931  57.976  -8.108  1.00  0.00     0.020 C 
HETATM   17  C3  UNL     1       4.125  56.496  -6.088  1.00  0.00     0.022 C 
HETATM   18  C7  UNL     1       5.360  55.905  -8.170  1.00  0.00    -0.068 C 
HETATM   19  C4  UNL     1       5.360  57.212  -5.544  1.00  0.00     0.084 C 
HETATM   20  C5  UNL     1       6.622  56.694  -6.194  1.00  0.00     0.149 C 
HETATM   21  O1  UNL     1       7.728  56.852  -5.682  1.00  0.00    -0.293 OA
HETATM   22  C6  UNL     1       6.524  56.004  -7.503  1.00  0.00     0.053 C 
HETATM   23  C8  UNL     1       5.317  55.166  -9.483  1.00  0.00     0.035 C 
HETATM   24  C9  UNL     1       4.185  55.633 -10.388  1.00  0.00     0.010 C 
HETATM   25  C17 UNL     1       2.667  53.037 -10.528  1.00  0.00     0.009 C 
HETATM   26  C18 UNL     1       1.614  51.931 -10.391  1.00  0.00     0.047 C 
BRANCH   7  27
HETATM   27  O2  UNL     1      -0.466  51.839  -9.151  1.00  0.00    -0.381 OA
HETATM   28  H27 UNL     1      -0.399  50.918  -9.481  1.00  0.00     0.211 HD
ENDBRANCH   7  27
ENDBRANCH   5   7
ENDBRANCH   4   5
ENDBRANCH   3   4
ENDBRANCH   1   3
BRANCH   1  29
HETATM   29  C23 UNL     1       1.525  50.547 -14.237  1.00  0.00     0.120 C 
BRANCH  29  30
HETATM   30  C24 UNL     1       2.091  51.571 -15.212  1.00  0.00     0.112 C 
BRANCH  30  31
HETATM   31  C25 UNL     1       1.299  51.633 -16.504  1.00  0.00     0.217 C 
HETATM   32  O6  UNL     1       1.277  52.613 -17.238  1.00  0.00    -0.274 OA
HETATM   33  N1  UNL     1       0.614  50.466 -16.770  1.00  0.00    -0.361 N 
HETATM   34  H34 UNL     1       0.495  49.803 -16.013  1.00  0.00     0.162 HD
BRANCH  33  35
HETATM   35  C26 UNL     1      -0.293  50.373 -17.896  1.00  0.00     0.122 C 
BRANCH  35  36
HETATM   36  C27 UNL     1      -1.708  50.821 -17.537  1.00  0.00     0.020 C 
BRANCH  36  37
HETATM   37  C28 UNL     1      -2.414  51.636 -18.628  1.00  0.00     0.002 C 
BRANCH  37  38
HETATM   38  C29 UNL     1      -1.986  51.337 -20.072  1.00  0.00     0.009 C 
BRANCH  38  39
HETATM   39  C30 UNL     1      -2.749  50.198 -20.748  1.00  0.00     0.103 C 
BRANCH  39  40
HETATM   40  C31 UNL     1      -2.717  50.266 -22.265  1.00  0.00     0.217 C 
HETATM   41  O7  UNL     1      -2.708  49.282 -22.993  1.00  0.00    -0.274 OA
HETATM   42  N2  UNL     1      -2.658  51.559 -22.741  1.00  0.00    -0.361 N 
HETATM   43  H45 UNL     1      -2.876  52.315 -22.101  1.00  0.00     0.162 HD
BRANCH  42  44
HETATM   44  C32 UNL     1      -2.703  51.849 -24.162  1.00  0.00     0.127 C 
BRANCH  44  45
HETATM   45  C33 UNL     1      -1.797  50.936 -24.998  1.00  0.00     0.058 C 
BRANCH  45  46
HETATM   46  C34 UNL     1      -2.550  50.189 -26.077  1.00  0.00    -0.054 A 
HETATM   47  C35 UNL     1      -3.068  48.909 -25.810  1.00  0.00     0.010 A 
HETATM   48  C36 UNL     1      -3.794  48.217 -26.780  1.00  0.00     0.040 A 
HETATM   49  C37 UNL     1      -3.998  48.805 -28.017  1.00  0.00     0.098 A 
HETATM   50  C38 UNL     1      -3.486  50.070 -28.299  1.00  0.00     0.099 A 
HETATM   51  C39 UNL     1      -2.763  50.769 -27.338  1.00  0.00     0.046 A 
BRANCH  49  52
HETATM   52  O8  UNL     1      -4.719  48.135 -28.964  1.00  0.00    -0.358 OA
HETATM   53  H52 UNL     1      -4.740  48.742 -29.731  1.00  0.00     0.217 HD
ENDBRANCH  49  52
BRANCH  50  54
HETATM   54  O9  UNL     1      -3.726  50.589 -29.542  1.00  0.00    -0.358 OA
HETATM   55  H53 UNL     1      -3.283  51.452 -29.602  1.00  0.00     0.217 HD
ENDBRANCH  50  54
ENDBRANCH  45  46
ENDBRANCH  44  45
ENDBRANCH  42  44
ENDBRANCH  39  40
ENDBRANCH  38  39
ENDBRANCH  37  38
ENDBRANCH  36  37
ENDBRANCH  35  36
ENDBRANCH  33  35
ENDBRANCH  30  31
ENDBRANCH  29  30
ENDBRANCH   1  29
TORSDOF 19
ENDMDL
MODEL 8
REMARK minimizedAffinity -8.74960613
REMARK CNNscore 0.438658953
REMARK CNNaffinity 6.70539236
REMARK  19 active torsions:
REMARK  status: ('A' for Active; 'I' for Inactive)
REMARK    1  A    between atoms: C19_20  and  O2_21 
REMARK    2  A    between atoms: C19_20  and  C20_22 
REMARK    3  A    between atoms: C20_22  and  C21_24 
REMARK    4  A    between atoms: C21_24  and  O4_25 
REMARK    5  A    between atoms: O4_25  and  C22_26 
REMARK    6  A    between atoms: C22_26  and  C23_28 
REMARK    7  A    between atoms: C23_28  and  C24_29 
REMARK    8  A    between atoms: C24_29  and  C25_30 
REMARK       I    between atoms: C25_30  and  N1_32 
REMARK    9  A    between atoms: N1_32  and  C26_33 
REMARK   10  A    between atoms: C26_33  and  C27_34 
REMARK   11  A    between atoms: C27_34  and  C28_35 
REMARK   12  A    between atoms: C28_35  and  C29_36 
REMARK   13  A    between atoms: C29_36  and  C30_37 
REMARK   14  A    between atoms: C30_37  and  C31_38 
REMARK       I    between atoms: C31_38  and  N2_40 
REMARK   15  A    between atoms: N2_40  and  C32_41 
REMARK   16  A    between atoms: C32_41  and  C33_42 
REMARK   17  A    between atoms: C33_42  and  C34_43 
REMARK   18  A    between atoms: C37_46  and  O8_47 
REMARK   19  A    between atoms: C38_48  and  O9_49 
ROOT
HETATM    1  C22 UNL     1      -5.442  47.946 -29.205  1.00  0.00     0.259 C 
HETATM    2  O5  UNL     1      -4.613  48.506 -29.909  1.00  0.00    -0.265 OA
ENDROOT
BRANCH   1   3
HETATM    3  O4  UNL     1      -6.538  47.290 -29.666  1.00  0.00    -0.314 OA
BRANCH   3   4
HETATM    4  C21 UNL     1      -7.471  46.776 -28.727  1.00  0.00     0.260 C 
BRANCH   4   5
HETATM    5  C20 UNL     1      -8.872  46.201 -29.031  1.00  0.00     0.185 C 
HETATM    6  O3  UNL     1      -8.972  45.019 -29.383  1.00  0.00    -0.292 OA
BRANCH   5   7
HETATM    7  C19 UNL     1     -10.129  47.088 -28.769  1.00  0.00     0.128 C 
HETATM    8  C14 UNL     1     -11.017  46.623 -27.566  1.00  0.00    -0.002 C 
HETATM    9  C13 UNL     1     -12.030  47.734 -27.148  1.00  0.00     0.013 C 
HETATM   10  C15 UNL     1     -10.174  46.239 -26.336  1.00  0.00     0.019 C 
HETATM   11  C16 UNL     1     -11.755  45.408 -28.162  1.00  0.00     0.002 C 
HETATM   12  C12 UNL     1     -13.479  47.278 -26.928  1.00  0.00     0.007 C 
HETATM   13  C11 UNL     1     -13.592  45.863 -26.345  1.00  0.00     0.002 C 
HETATM   14  C2  UNL     1     -15.042  45.417 -25.917  1.00  0.00    -0.016 C 
HETATM   15  C10 UNL     1     -12.892  44.826 -27.283  1.00  0.00    -0.004 C 
HETATM   16  C1  UNL     1     -14.918  44.172 -24.991  1.00  0.00     0.020 C 
HETATM   17  C3  UNL     1     -15.774  46.530 -25.112  1.00  0.00     0.022 C 
HETATM   18  C7  UNL     1     -15.904  45.068 -27.127  1.00  0.00    -0.068 C 
HETATM   19  C4  UNL     1     -17.203  46.151 -24.729  1.00  0.00     0.084 C 
HETATM   20  C5  UNL     1     -17.984  45.677 -25.933  1.00  0.00     0.149 C 
HETATM   21  O1  UNL     1     -19.212  45.661 -25.945  1.00  0.00    -0.293 OA
HETATM   22  C6  UNL     1     -17.244  45.187 -27.121  1.00  0.00     0.053 C 
HETATM   23  C8  UNL     1     -15.205  44.593 -28.374  1.00  0.00     0.035 C 
HETATM   24  C9  UNL     1     -13.863  43.933 -28.086  1.00  0.00     0.010 C 
HETATM   25  C17 UNL     1     -12.116  45.874 -29.584  1.00  0.00     0.009 C 
HETATM   26  C18 UNL     1     -11.093  46.949 -29.968  1.00  0.00     0.047 C 
BRANCH   7  27
HETATM   27  O2  UNL     1      -9.757  48.452 -28.615  1.00  0.00    -0.381 OA
HETATM   28  H27 UNL     1      -9.558  48.779 -29.518  1.00  0.00     0.211 HD
ENDBRANCH   7  27
ENDBRANCH   5   7
ENDBRANCH   4   5
ENDBRANCH   3   4
ENDBRANCH   1   3
BRANCH   1  29
HETATM   29  C23 UNL     1      -5.448  47.972 -27.697  1.00  0.00     0.120 C 
BRANCH  29  30
HETATM   30  C24 UNL     1      -4.081  48.331 -27.127  1.00  0.00     0.112 C 
BRANCH  30  31
HETATM   31  C25 UNL     1      -4.142  48.649 -25.646  1.00  0.00     0.217 C 
HETATM   32  O6  UNL     1      -3.208  48.470 -24.876  1.00  0.00    -0.274 OA
HETATM   33  N1  UNL     1      -5.359  49.172 -25.259  1.00  0.00    -0.361 N 
HETATM   34  H34 UNL     1      -6.142  49.070 -25.893  1.00  0.00     0.162 HD
BRANCH  33  35
HETATM   35  C26 UNL     1      -5.652  49.428 -23.864  1.00  0.00     0.122 C 
BRANCH  35  36
HETATM   36  C27 UNL     1      -5.809  48.139 -23.060  1.00  0.00     0.020 C 
BRANCH  36  37
HETATM   37  C28 UNL     1      -5.057  48.128 -21.723  1.00  0.00     0.002 C 
BRANCH  37  38
HETATM   38  C29 UNL     1      -5.709  48.918 -20.579  1.00  0.00     0.009 C 
BRANCH  38  39
HETATM   39  C30 UNL     1      -5.021  50.240 -20.237  1.00  0.00     0.103 C 
BRANCH  39  40
HETATM   40  C31 UNL     1      -3.617  50.355 -20.804  1.00  0.00     0.217 C 
HETATM   41  O7  UNL     1      -3.333  51.008 -21.800  1.00  0.00    -0.274 OA
HETATM   42  N2  UNL     1      -2.693  49.608 -20.102  1.00  0.00    -0.361 N 
HETATM   43  H45 UNL     1      -2.953  49.267 -19.184  1.00  0.00     0.162 HD
BRANCH  42  44
HETATM   44  C32 UNL     1      -1.280  49.644 -20.429  1.00  0.00     0.127 C 
BRANCH  44  45
HETATM   45  C33 UNL     1      -0.466  50.567 -19.513  1.00  0.00     0.058 C 
BRANCH  45  46
HETATM   46  C34 UNL     1       0.116  51.757 -20.244  1.00  0.00    -0.054 A 
HETATM   47  C35 UNL     1       0.680  52.819 -19.514  1.00  0.00     0.010 A 
HETATM   48  C36 UNL     1       1.252  53.910 -20.169  1.00  0.00     0.040 A 
HETATM   49  C37 UNL     1       1.256  53.939 -21.554  1.00  0.00     0.098 A 
HETATM   50  C38 UNL     1       0.696  52.898 -22.291  1.00  0.00     0.099 A 
HETATM   51  C39 UNL     1       0.125  51.804 -21.647  1.00  0.00     0.046 A 
BRANCH  49  52
HETATM   52  O8  UNL     1       1.826  55.000 -22.197  1.00  0.00    -0.358 OA
HETATM   53  H52 UNL     1       1.723  54.795 -23.148  1.00  0.00     0.217 HD
ENDBRANCH  49  52
BRANCH  50  54
HETATM   54  O9  UNL     1       0.736  52.994 -23.655  1.00  0.00    -0.358 OA
HETATM   55  H53 UNL     1       0.281  52.219 -24.028  1.00  0.00     0.217 HD
ENDBRANCH  50  54
ENDBRANCH  45  46
ENDBRANCH  44  45
ENDBRANCH  42  44
ENDBRANCH  39  40
ENDBRANCH  38  39
ENDBRANCH  37  38
ENDBRANCH  36  37
ENDBRANCH  35  36
ENDBRANCH  33  35
ENDBRANCH  30  31
ENDBRANCH  29  30
ENDBRANCH   1  29
TORSDOF 19
ENDMDL
MODEL 9
REMARK minimizedAffinity -8.66037273
REMARK CNNscore 0.40745011
REMARK CNNaffinity 7.16478491
REMARK  19 active torsions:
REMARK  status: ('A' for Active; 'I' for Inactive)
REMARK    1  A    between atoms: C19_20  and  O2_21 
REMARK    2  A    between atoms: C19_20  and  C20_22 
REMARK    3  A    between atoms: C20_22  and  C21_24 
REMARK    4  A    between atoms: C21_24  and  O4_25 
REMARK    5  A    between atoms: O4_25  and  C22_26 
REMARK    6  A    between atoms: C22_26  and  C23_28 
REMARK    7  A    between atoms: C23_28  and  C24_29 
REMARK    8  A    between atoms: C24_29  and  C25_30 
REMARK       I    between atoms: C25_30  and  N1_32 
REMARK    9  A    between atoms: N1_32  and  C26_33 
REMARK   10  A    between atoms: C26_33  and  C27_34 
REMARK   11  A    between atoms: C27_34  and  C28_35 
REMARK   12  A    between atoms: C28_35  and  C29_36 
REMARK   13  A    between atoms: C29_36  and  C30_37 
REMARK   14  A    between atoms: C30_37  and  C31_38 
REMARK       I    between atoms: C31_38  and  N2_40 
REMARK   15  A    between atoms: N2_40  and  C32_41 
REMARK   16  A    between atoms: C32_41  and  C33_42 
REMARK   17  A    between atoms: C33_42  and  C34_43 
REMARK   18  A    between atoms: C37_46  and  O8_47 
REMARK   19  A    between atoms: C38_48  and  O9_49 
ROOT
HETATM    1  C22 UNL     1       0.760  50.739 -14.971  1.00  0.00     0.259 C 
HETATM    2  O5  UNL     1       1.405  50.031 -14.210  1.00  0.00    -0.265 OA
ENDROOT
BRANCH   1   3
HETATM    3  O4  UNL     1      -0.017  51.785 -14.591  1.00  0.00    -0.314 OA
BRANCH   3   4
HETATM    4  C21 UNL     1       0.367  52.542 -13.451  1.00  0.00     0.260 C 
BRANCH   4   5
HETATM    5  C20 UNL     1      -0.371  52.618 -12.097  1.00  0.00     0.185 C 
HETATM    6  O3  UNL     1      -1.595  52.800 -12.090  1.00  0.00    -0.292 OA
BRANCH   5   7
HETATM    7  C19 UNL     1       0.424  52.343 -10.783  1.00  0.00     0.128 C 
HETATM    8  C14 UNL     1       0.839  53.629  -9.990  1.00  0.00    -0.002 C 
HETATM    9  C13 UNL     1       1.302  53.275  -8.543  1.00  0.00     0.013 C 
HETATM   10  C15 UNL     1      -0.306  54.653  -9.903  1.00  0.00     0.019 C 
HETATM   11  C16 UNL     1       2.022  54.155 -10.827  1.00  0.00     0.002 C 
HETATM   12  C12 UNL     1       2.605  53.935  -8.070  1.00  0.00     0.007 C 
HETATM   13  C11 UNL     1       2.811  55.349  -8.629  1.00  0.00     0.002 C 
HETATM   14  C2  UNL     1       4.029  56.148  -8.027  1.00  0.00    -0.016 C 
HETATM   15  C10 UNL     1       2.816  55.326 -10.192  1.00  0.00    -0.004 C 
HETATM   16  C1  UNL     1       3.847  57.654  -8.376  1.00  0.00     0.020 C 
HETATM   17  C3  UNL     1       4.088  56.029  -6.477  1.00  0.00     0.022 C 
HETATM   18  C7  UNL     1       5.359  55.653  -8.587  1.00  0.00    -0.068 C 
HETATM   19  C4  UNL     1       5.289  56.747  -5.866  1.00  0.00     0.084 C 
HETATM   20  C5  UNL     1       6.575  56.333  -6.542  1.00  0.00     0.149 C 
HETATM   21  O1  UNL     1       7.670  56.493  -6.009  1.00  0.00    -0.293 OA
HETATM   22  C6  UNL     1       6.514  55.745  -7.903  1.00  0.00     0.053 C 
HETATM   23  C8  UNL     1       5.354  55.019  -9.954  1.00  0.00     0.035 C 
HETATM   24  C9  UNL     1       4.210  55.511 -10.831  1.00  0.00     0.010 C 
HETATM   25  C17 UNL     1       2.799  52.875 -11.189  1.00  0.00     0.009 C 
HETATM   26  C18 UNL     1       1.790  51.721 -11.149  1.00  0.00     0.047 C 
BRANCH   7  27
HETATM   27  O2  UNL     1      -0.293  51.450  -9.941  1.00  0.00    -0.381 OA
HETATM   28  H27 UNL     1      -0.187  50.561 -10.341  1.00  0.00     0.211 HD
ENDBRANCH   7  27
ENDBRANCH   5   7
ENDBRANCH   4   5
ENDBRANCH   3   4
ENDBRANCH   1   3
BRANCH   1  29
HETATM   29  C23 UNL     1       0.634  50.511 -16.457  1.00  0.00     0.120 C 
BRANCH  29  30
HETATM   30  C24 UNL     1       0.756  51.808 -17.247  1.00  0.00     0.112 C 
BRANCH  30  31
HETATM   31  C25 UNL     1      -0.232  51.876 -18.395  1.00  0.00     0.217 C 
HETATM   32  O6  UNL     1      -0.426  52.884 -19.063  1.00  0.00    -0.274 OA
HETATM   33  N1  UNL     1      -0.883  50.679 -18.614  1.00  0.00    -0.361 N 
HETATM   34  H34 UNL     1      -0.843  49.977 -17.886  1.00  0.00     0.162 HD
BRANCH  33  35
HETATM   35  C26 UNL     1      -1.949  50.578 -19.590  1.00  0.00     0.122 C 
BRANCH  35  36
HETATM   36  C27 UNL     1      -3.287  50.217 -18.948  1.00  0.00     0.020 C 
BRANCH  36  37
HETATM   37  C28 UNL     1      -4.469  50.168 -19.925  1.00  0.00     0.002 C 
BRANCH  37  38
HETATM   38  C29 UNL     1      -4.188  49.514 -21.286  1.00  0.00     0.009 C 
BRANCH  38  39
HETATM   39  C30 UNL     1      -4.749  50.270 -22.491  1.00  0.00     0.103 C 
BRANCH  39  40
HETATM   40  C31 UNL     1      -3.759  51.241 -23.109  1.00  0.00     0.217 C 
HETATM   41  O7  UNL     1      -3.982  51.895 -24.120  1.00  0.00    -0.274 OA
HETATM   42  N2  UNL     1      -2.557  51.282 -22.433  1.00  0.00    -0.361 N 
HETATM   43  H45 UNL     1      -2.517  50.880 -21.503  1.00  0.00     0.162 HD
BRANCH  42  44
HETATM   44  C32 UNL     1      -1.503  52.206 -22.810  1.00  0.00     0.127 C 
BRANCH  44  45
HETATM   45  C33 UNL     1      -0.344  51.535 -23.558  1.00  0.00     0.058 C 
BRANCH  45  46
HETATM   46  C34 UNL     1      -0.221  52.000 -24.992  1.00  0.00    -0.054 A 
HETATM   47  C35 UNL     1      -0.257  51.061 -26.038  1.00  0.00     0.010 A 
HETATM   48  C36 UNL     1      -0.180  51.472 -27.369  1.00  0.00     0.040 A 
HETATM   49  C37 UNL     1      -0.063  52.823 -27.652  1.00  0.00     0.098 A 
HETATM   50  C38 UNL     1      -0.020  53.765 -26.627  1.00  0.00     0.099 A 
HETATM   51  C39 UNL     1      -0.099  53.365 -25.297  1.00  0.00     0.046 A 
BRANCH  49  52
HETATM   52  O8  UNL     1       0.002  53.229 -28.955  1.00  0.00    -0.358 OA
HETATM   53  H52 UNL     1       0.066  54.203 -28.905  1.00  0.00     0.217 HD
ENDBRANCH  49  52
BRANCH  50  54
HETATM   54  O9  UNL     1       0.097  55.081 -26.981  1.00  0.00    -0.358 OA
HETATM   55  H53 UNL     1       0.148  55.612 -26.167  1.00  0.00     0.217 HD
ENDBRANCH  50  54
ENDBRANCH  45  46
ENDBRANCH  44  45
ENDBRANCH  42  44
ENDBRANCH  39  40
ENDBRANCH  38  39
ENDBRANCH  37  38
ENDBRANCH  36  37
ENDBRANCH  35  36
ENDBRANCH  33  35
ENDBRANCH  30  31
ENDBRANCH  29  30
ENDBRANCH   1  29
TORSDOF 19
ENDMDL
