MODEL 1
REMARK minimizedAffinity -10.1649475
REMARK  5 active torsions:
REMARK  status: ('A' for Active; 'I' for Inactive)
REMARK    1  A    between atoms: C2_2  and  C3_3 
REMARK    2  A    between atoms: C2_2  and  C9_12 
REMARK    3  A    between atoms: C3_3  and  C4_4 
REMARK    4  A    between atoms: C6_6  and  C7_7 
REMARK    5  A    between atoms: C7_7  and  O1_8 
ROOT
HETATM    1  C9  UNL     1      -0.423  51.269 -22.190  1.00  0.00    -0.002 C 
HETATM    2  C10 UNL     1      -0.518  51.850 -20.748  1.00  0.00     0.007 C 
HETATM    3  C11 UNL     1      -1.800  51.285 -20.106  1.00  0.00     0.015 C 
HETATM    4  C12 UNL     1      -2.248  50.153 -21.051  1.00  0.00    -0.013 C 
HETATM    5  C13 UNL     1      -1.420  48.894 -20.640  1.00  0.00     0.021 C 
HETATM    6  C14 UNL     1      -3.710  49.720 -21.019  1.00  0.00    -0.070 C 
HETATM    7  C15 UNL     1      -4.450  49.799 -19.904  1.00  0.00    -0.022 C 
HETATM    8  C16 UNL     1      -5.841  49.283 -19.776  1.00  0.00     0.034 C 
HETATM    9  C17 UNL     1      -6.526  48.715 -21.058  1.00  0.00     0.013 C 
HETATM   10  C18 UNL     1      -7.716  47.763 -20.635  1.00  0.00     0.018 C 
HETATM   11  C19 UNL     1      -8.727  47.490 -21.766  1.00  0.00     0.023 C 
HETATM   12  C20 UNL     1      -8.545  48.388 -19.481  1.00  0.00     0.023 C 
HETATM   13  C21 UNL     1      -7.123  46.423 -20.169  1.00  0.00     0.135 C 
HETATM   14  O4  UNL     1      -7.576  45.817 -19.197  1.00  0.00    -0.297 OA
HETATM   15  C22 UNL     1      -6.030  45.794 -21.015  1.00  0.00     0.080 C 
HETATM   16  C23 UNL     1      -4.928  46.776 -21.407  1.00  0.00     0.017 C 
HETATM   17  C24 UNL     1      -5.463  48.082 -22.043  1.00  0.00    -0.031 C 
HETATM   18  C25 UNL     1      -6.084  47.759 -23.425  1.00  0.00     0.016 C 
HETATM   19  C26 UNL     1      -4.308  49.150 -22.300  1.00  0.00     0.024 C 
HETATM   20  C27 UNL     1      -3.213  48.700 -23.308  1.00  0.00     0.010 C 
HETATM   21  C28 UNL     1      -2.027  49.670 -23.523  1.00  0.00     0.011 C 
HETATM   22  C29 UNL     1      -1.881  50.763 -22.448  1.00  0.00    -0.029 C 
HETATM   23  C30 UNL     1      -2.767  51.986 -22.842  1.00  0.00     0.016 C 
ENDROOT
BRANCH   1  24
HETATM   24  C2  UNL     1       0.240  52.265 -23.184  1.00  0.00    -0.011 C 
HETATM   25  C1  UNL     1       0.908  53.451 -22.482  1.00  0.00     0.010 C 
BRANCH  24  26
HETATM   26  C3  UNL     1      -0.745  52.758 -24.286  1.00  0.00     0.041 C 
BRANCH  26  27
HETATM   27  C4  UNL     1      -0.722  51.977 -25.608  1.00  0.00     0.156 A 
HETATM   28  C5  UNL     1       0.636  51.498 -25.954  1.00  0.00     0.021 A 
HETATM   29  C6  UNL     1       1.065  52.039 -27.094  1.00  0.00     0.039 A 
HETATM   30  C8  UNL     1      -0.010  52.913 -27.567  1.00  0.00     0.291 A 
HETATM   31  O2  UNL     1       0.026  53.587 -28.580  1.00  0.00    -0.260 OA
HETATM   32  O3  UNL     1      -1.055  52.841 -26.699  1.00  0.00    -0.308 OA
BRANCH  29  33
HETATM   33  C7  UNL     1       2.311  51.881 -27.868  1.00  0.00     0.208 C 
BRANCH  33  34
HETATM   34  O1  UNL     1       3.340  51.360 -27.033  1.00  0.00    -0.396 OA
HETATM   35  H11 UNL     1       4.116  51.222 -27.602  1.00  0.00     0.209 HD
ENDBRANCH  33  34
ENDBRANCH  29  33
ENDBRANCH  26  27
ENDBRANCH  24  26
ENDBRANCH   1  24
TORSDOF 5
ENDMDL
MODEL 2
REMARK minimizedAffinity -10.1221552
REMARK  5 active torsions:
REMARK  status: ('A' for Active; 'I' for Inactive)
REMARK    1  A    between atoms: C2_2  and  C3_3 
REMARK    2  A    between atoms: C2_2  and  C9_12 
REMARK    3  A    between atoms: C3_3  and  C4_4 
REMARK    4  A    between atoms: C6_6  and  C7_7 
REMARK    5  A    between atoms: C7_7  and  O1_8 
ROOT
HETATM    1  C9  UNL     1      -0.141  51.253 -21.328  1.00  0.00    -0.002 C 
HETATM    2  C10 UNL     1      -0.430  51.685 -19.859  1.00  0.00     0.007 C 
HETATM    3  C11 UNL     1      -1.793  51.087 -19.463  1.00  0.00     0.015 C 
HETATM    4  C12 UNL     1      -2.115  50.068 -20.574  1.00  0.00    -0.013 C 
HETATM    5  C13 UNL     1      -1.362  48.754 -20.187  1.00  0.00     0.021 C 
HETATM    6  C14 UNL     1      -3.571  49.667 -20.788  1.00  0.00    -0.070 C 
HETATM    7  C15 UNL     1      -4.458  49.648 -19.783  1.00  0.00    -0.022 C 
HETATM    8  C16 UNL     1      -5.858  49.153 -19.902  1.00  0.00     0.034 C 
HETATM    9  C17 UNL     1      -6.362  48.735 -21.318  1.00  0.00     0.013 C 
HETATM   10  C18 UNL     1      -7.608  47.772 -21.164  1.00  0.00     0.018 C 
HETATM   11  C19 UNL     1      -8.454  47.639 -22.446  1.00  0.00     0.023 C 
HETATM   12  C20 UNL     1      -8.583  48.293 -20.075  1.00  0.00     0.023 C 
HETATM   13  C21 UNL     1      -7.096  46.378 -20.764  1.00  0.00     0.135 C 
HETATM   14  O4  UNL     1      -7.684  45.686 -19.932  1.00  0.00    -0.297 OA
HETATM   15  C22 UNL     1      -5.901  45.815 -21.513  1.00  0.00     0.080 C 
HETATM   16  C23 UNL     1      -4.748  46.807 -21.646  1.00  0.00     0.017 C 
HETATM   17  C24 UNL     1      -5.178  48.183 -22.209  1.00  0.00    -0.031 C 
HETATM   18  C25 UNL     1      -5.604  48.017 -23.689  1.00  0.00     0.016 C 
HETATM   19  C26 UNL     1      -3.990  49.245 -22.192  1.00  0.00     0.024 C 
HETATM   20  C27 UNL     1      -2.770  48.876 -23.081  1.00  0.00     0.010 C 
HETATM   21  C28 UNL     1      -1.557  49.836 -23.028  1.00  0.00     0.011 C 
HETATM   22  C29 UNL     1      -1.553  50.809 -21.835  1.00  0.00    -0.029 C 
HETATM   23  C30 UNL     1      -2.366  52.086 -22.217  1.00  0.00     0.016 C 
ENDROOT
BRANCH   1  24
HETATM   24  C2  UNL     1       0.663  52.330 -22.112  1.00  0.00    -0.011 C 
HETATM   25  C1  UNL     1       1.029  53.542 -21.251  1.00  0.00     0.010 C 
BRANCH  24  26
HETATM   26  C3  UNL     1      -0.054  52.778 -23.420  1.00  0.00     0.041 C 
BRANCH  26  27
HETATM   27  C4  UNL     1       0.850  53.004 -24.641  1.00  0.00     0.156 A 
HETATM   28  C5  UNL     1       0.258  53.951 -25.612  1.00  0.00     0.021 A 
HETATM   29  C6  UNL     1       0.030  53.364 -26.786  1.00  0.00     0.039 A 
HETATM   30  C8  UNL     1       0.474  51.976 -26.647  1.00  0.00     0.291 A 
HETATM   31  O2  UNL     1       0.411  51.127 -27.516  1.00  0.00    -0.260 OA
HETATM   32  O3  UNL     1       0.974  51.793 -25.395  1.00  0.00    -0.308 OA
BRANCH  29  33
HETATM   33  C7  UNL     1      -0.517  53.861 -28.063  1.00  0.00     0.208 C 
BRANCH  33  34
HETATM   34  O1  UNL     1      -1.934  53.712 -28.077  1.00  0.00    -0.396 OA
HETATM   35  H11 UNL     1      -2.246  54.105 -28.909  1.00  0.00     0.209 HD
ENDBRANCH  33  34
ENDBRANCH  29  33
ENDBRANCH  26  27
ENDBRANCH  24  26
ENDBRANCH   1  24
TORSDOF 5
ENDMDL
MODEL 3
REMARK minimizedAffinity -9.95759487
REMARK  5 active torsions:
REMARK  status: ('A' for Active; 'I' for Inactive)
REMARK    1  A    between atoms: C2_2  and  C3_3 
REMARK    2  A    between atoms: C2_2  and  C9_12 
REMARK    3  A    between atoms: C3_3  and  C4_4 
REMARK    4  A    between atoms: C6_6  and  C7_7 
REMARK    5  A    between atoms: C7_7  and  O1_8 
ROOT
HETATM    1  C9  UNL     1      -2.765  50.951 -25.209  1.00  0.00    -0.002 C 
HETATM    2  C10 UNL     1      -3.807  52.109 -25.238  1.00  0.00     0.007 C 
HETATM    3  C11 UNL     1      -4.890  51.781 -24.194  1.00  0.00     0.015 C 
HETATM    4  C12 UNL     1      -4.301  50.623 -23.364  1.00  0.00    -0.013 C 
HETATM    5  C13 UNL     1      -3.384  51.286 -22.287  1.00  0.00     0.021 C 
HETATM    6  C14 UNL     1      -5.262  49.721 -22.597  1.00  0.00    -0.070 C 
HETATM    7  C15 UNL     1      -6.429  50.172 -22.116  1.00  0.00    -0.022 C 
HETATM    8  C16 UNL     1      -7.352  49.378 -21.258  1.00  0.00     0.034 C 
HETATM    9  C17 UNL     1      -6.993  47.882 -20.996  1.00  0.00     0.013 C 
HETATM   10  C18 UNL     1      -7.742  47.388 -19.693  1.00  0.00     0.018 C 
HETATM   11  C19 UNL     1      -7.825  45.853 -19.567  1.00  0.00     0.023 C 
HETATM   12  C20 UNL     1      -9.212  47.885 -19.675  1.00  0.00     0.023 C 
HETATM   13  C21 UNL     1      -7.001  47.944 -18.467  1.00  0.00     0.135 C 
HETATM   14  O4  UNL     1      -7.605  48.368 -17.480  1.00  0.00    -0.297 OA
HETATM   15  C22 UNL     1      -5.486  47.848 -18.445  1.00  0.00     0.080 C 
HETATM   16  C23 UNL     1      -4.831  48.318 -19.742  1.00  0.00     0.017 C 
HETATM   17  C24 UNL     1      -5.427  47.658 -21.009  1.00  0.00    -0.031 C 
HETATM   18  C25 UNL     1      -5.064  46.152 -21.017  1.00  0.00     0.016 C 
HETATM   19  C26 UNL     1      -4.836  48.278 -22.353  1.00  0.00     0.024 C 
HETATM   20  C27 UNL     1      -3.306  48.077 -22.548  1.00  0.00     0.010 C 
HETATM   21  C28 UNL     1      -2.674  48.737 -23.797  1.00  0.00     0.011 C 
HETATM   22  C29 UNL     1      -3.545  49.812 -24.473  1.00  0.00    -0.029 C 
HETATM   23  C30 UNL     1      -4.501  49.123 -25.496  1.00  0.00     0.016 C 
ENDROOT
BRANCH   1  24
HETATM   24  C2  UNL     1      -2.142  50.684 -26.610  1.00  0.00    -0.011 C 
HETATM   25  C1  UNL     1      -0.727  50.104 -26.531  1.00  0.00     0.010 C 
BRANCH  24  26
HETATM   26  C3  UNL     1      -2.172  51.941 -27.529  1.00  0.00     0.041 C 
BRANCH  26  27
HETATM   27  C4  UNL     1      -0.891  52.787 -27.555  1.00  0.00     0.156 A 
HETATM   28  C5  UNL     1       0.325  51.960 -27.725  1.00  0.00     0.021 A 
HETATM   29  C6  UNL     1       1.133  52.063 -26.670  1.00  0.00     0.039 A 
HETATM   30  C8  UNL     1       0.480  52.983 -25.738  1.00  0.00     0.291 A 
HETATM   31  O2  UNL     1       0.919  53.313 -24.652  1.00  0.00    -0.260 OA
HETATM   32  O3  UNL     1      -0.688  53.416 -26.286  1.00  0.00    -0.308 OA
BRANCH  29  33
HETATM   33  C7  UNL     1       2.448  51.471 -26.356  1.00  0.00     0.208 C 
BRANCH  33  34
HETATM   34  O1  UNL     1       3.334  51.643 -27.458  1.00  0.00    -0.396 OA
HETATM   35  H11 UNL     1       4.196  51.290 -27.178  1.00  0.00     0.209 HD
ENDBRANCH  33  34
ENDBRANCH  29  33
ENDBRANCH  26  27
ENDBRANCH  24  26
ENDBRANCH   1  24
TORSDOF 5
ENDMDL
MODEL 4
REMARK minimizedAffinity -9.83003044
REMARK  5 active torsions:
REMARK  status: ('A' for Active; 'I' for Inactive)
REMARK    1  A    between atoms: C2_2  and  C3_3 
REMARK    2  A    between atoms: C2_2  and  C9_12 
REMARK    3  A    between atoms: C3_3  and  C4_4 
REMARK    4  A    between atoms: C6_6  and  C7_7 
REMARK    5  A    between atoms: C7_7  and  O1_8 
ROOT
HETATM    1  C9  UNL     1      -2.118  51.556 -21.514  1.00  0.00    -0.002 C 
HETATM    2  C10 UNL     1      -2.644  50.089 -21.510  1.00  0.00     0.007 C 
HETATM    3  C11 UNL     1      -2.166  49.432 -20.201  1.00  0.00     0.015 C 
HETATM    4  C12 UNL     1      -1.657  50.601 -19.335  1.00  0.00    -0.013 C 
HETATM    5  C13 UNL     1      -2.918  51.204 -18.638  1.00  0.00     0.021 C 
HETATM    6  C14 UNL     1      -0.667  50.294 -18.216  1.00  0.00    -0.070 C 
HETATM    7  C15 UNL     1      -0.669  49.121 -17.567  1.00  0.00    -0.022 C 
HETATM    8  C16 UNL     1       0.187  48.806 -16.390  1.00  0.00     0.034 C 
HETATM    9  C17 UNL     1       1.240  49.872 -15.952  1.00  0.00     0.013 C 
HETATM   10  C18 UNL     1       1.643  49.615 -14.444  1.00  0.00     0.018 C 
HETATM   11  C19 UNL     1       2.961  50.300 -14.028  1.00  0.00     0.023 C 
HETATM   12  C20 UNL     1       1.859  48.102 -14.176  1.00  0.00     0.023 C 
HETATM   13  C21 UNL     1       0.511  50.136 -13.544  1.00  0.00     0.135 C 
HETATM   14  O4  UNL     1       0.149  49.524 -12.538  1.00  0.00    -0.297 OA
HETATM   15  C22 UNL     1      -0.080  51.499 -13.857  1.00  0.00     0.080 C 
HETATM   16  C23 UNL     1      -0.422  51.686 -15.334  1.00  0.00     0.017 C 
HETATM   17  C24 UNL     1       0.746  51.337 -16.287  1.00  0.00    -0.031 C 
HETATM   18  C25 UNL     1       1.879  52.378 -16.107  1.00  0.00     0.016 C 
HETATM   19  C26 UNL     1       0.316  51.390 -17.821  1.00  0.00     0.024 C 
HETATM   20  C27 UNL     1      -0.133  52.791 -18.326  1.00  0.00     0.010 C 
HETATM   21  C28 UNL     1      -0.641  52.872 -19.785  1.00  0.00     0.011 C 
HETATM   22  C29 UNL     1      -0.997  51.517 -20.424  1.00  0.00    -0.029 C 
HETATM   23  C30 UNL     1       0.289  50.899 -21.056  1.00  0.00     0.016 C 
ENDROOT
BRANCH   1  24
HETATM   24  C2  UNL     1      -1.787  52.059 -22.949  1.00  0.00    -0.011 C 
HETATM   25  C1  UNL     1      -3.003  52.652 -23.667  1.00  0.00     0.010 C 
BRANCH  24  26
HETATM   26  C3  UNL     1      -1.107  50.965 -23.826  1.00  0.00     0.041 C 
BRANCH  26  27
HETATM   27  C4  UNL     1      -1.057  51.247 -25.335  1.00  0.00     0.156 A 
HETATM   28  C5  UNL     1       0.196  50.760 -25.956  1.00  0.00     0.021 A 
HETATM   29  C6  UNL     1       0.905  51.765 -26.469  1.00  0.00     0.039 A 
HETATM   30  C8  UNL     1       0.139  52.985 -26.213  1.00  0.00     0.291 A 
HETATM   31  O2  UNL     1       0.480  54.109 -26.530  1.00  0.00    -0.260 OA
HETATM   32  O3  UNL     1      -1.016  52.658 -25.573  1.00  0.00    -0.308 OA
BRANCH  29  33
HETATM   33  C7  UNL     1       2.188  51.813 -27.197  1.00  0.00     0.208 C 
BRANCH  33  34
HETATM   34  O1  UNL     1       3.171  51.051 -26.502  1.00  0.00    -0.396 OA
HETATM   35  H11 UNL     1       3.974  51.068 -27.049  1.00  0.00     0.209 HD
ENDBRANCH  33  34
ENDBRANCH  29  33
ENDBRANCH  26  27
ENDBRANCH  24  26
ENDBRANCH   1  24
TORSDOF 5
ENDMDL
MODEL 5
REMARK minimizedAffinity -9.68300629
REMARK  5 active torsions:
REMARK  status: ('A' for Active; 'I' for Inactive)
REMARK    1  A    between atoms: C2_2  and  C3_3 
REMARK    2  A    between atoms: C2_2  and  C9_12 
REMARK    3  A    between atoms: C3_3  and  C4_4 
REMARK    4  A    between atoms: C6_6  and  C7_7 
REMARK    5  A    between atoms: C7_7  and  O1_8 
ROOT
HETATM    1  C9  UNL     1      -2.103  51.568 -22.430  1.00  0.00    -0.002 C 
HETATM    2  C10 UNL     1      -3.059  52.533 -23.193  1.00  0.00     0.007 C 
HETATM    3  C11 UNL     1      -4.424  51.830 -23.312  1.00  0.00     0.015 C 
HETATM    4  C12 UNL     1      -4.335  50.628 -22.351  1.00  0.00    -0.013 C 
HETATM    5  C13 UNL     1      -4.680  51.183 -20.932  1.00  0.00     0.021 C 
HETATM    6  C14 UNL     1      -5.275  49.449 -22.579  1.00  0.00    -0.070 C 
HETATM    7  C15 UNL     1      -6.494  49.605 -23.115  1.00  0.00    -0.022 C 
HETATM    8  C16 UNL     1      -7.501  48.516 -23.251  1.00  0.00     0.034 C 
HETATM    9  C17 UNL     1      -7.069  47.072 -22.849  1.00  0.00     0.013 C 
HETATM   10  C18 UNL     1      -8.359  46.206 -22.551  1.00  0.00     0.018 C 
HETATM   11  C19 UNL     1      -8.106  44.685 -22.571  1.00  0.00     0.023 C 
HETATM   12  C20 UNL     1      -9.456  46.458 -23.620  1.00  0.00     0.023 C 
HETATM   13  C21 UNL     1      -8.897  46.599 -21.166  1.00  0.00     0.135 C 
HETATM   14  O4  UNL     1     -10.104  46.709 -20.946  1.00  0.00    -0.297 OA
HETATM   15  C22 UNL     1      -7.903  46.734 -20.026  1.00  0.00     0.080 C 
HETATM   16  C23 UNL     1      -6.672  47.561 -20.392  1.00  0.00     0.017 C 
HETATM   17  C24 UNL     1      -5.984  47.098 -21.698  1.00  0.00    -0.031 C 
HETATM   18  C25 UNL     1      -5.352  45.701 -21.475  1.00  0.00     0.016 C 
HETATM   19  C26 UNL     1      -4.799  48.069 -22.138  1.00  0.00     0.024 C 
HETATM   20  C27 UNL     1      -3.614  48.151 -21.135  1.00  0.00     0.010 C 
HETATM   21  C28 UNL     1      -2.481  49.147 -21.480  1.00  0.00     0.011 C 
HETATM   22  C29 UNL     1      -2.842  50.194 -22.550  1.00  0.00    -0.029 C 
HETATM   23  C30 UNL     1      -2.553  49.597 -23.963  1.00  0.00     0.016 C 
ENDROOT
BRANCH   1  24
HETATM   24  C2  UNL     1      -0.628  51.700 -22.908  1.00  0.00    -0.011 C 
HETATM   25  C1  UNL     1       0.330  52.096 -21.780  1.00  0.00     0.010 C 
BRANCH  24  26
HETATM   26  C3  UNL     1      -0.475  52.660 -24.125  1.00  0.00     0.041 C 
BRANCH  26  27
HETATM   27  C4  UNL     1      -0.674  52.027 -25.510  1.00  0.00     0.156 A 
HETATM   28  C5  UNL     1       0.577  51.444 -26.046  1.00  0.00     0.021 A 
HETATM   29  C6  UNL     1       0.955  52.054 -27.168  1.00  0.00     0.039 A 
HETATM   30  C8  UNL     1      -0.048  53.085 -27.437  1.00  0.00     0.291 A 
HETATM   31  O2  UNL     1      -0.030  53.856 -28.378  1.00  0.00    -0.260 OA
HETATM   32  O3  UNL     1      -1.005  53.035 -26.471  1.00  0.00    -0.308 OA
BRANCH  29  33
HETATM   33  C7  UNL     1       2.093  51.846 -28.085  1.00  0.00     0.208 C 
BRANCH  33  34
HETATM   34  O1  UNL     1       3.247  51.452 -27.347  1.00  0.00    -0.396 OA
HETATM   35  H11 UNL     1       3.945  51.273 -27.999  1.00  0.00     0.209 HD
ENDBRANCH  33  34
ENDBRANCH  29  33
ENDBRANCH  26  27
ENDBRANCH  24  26
ENDBRANCH   1  24
TORSDOF 5
ENDMDL
MODEL 6
REMARK minimizedAffinity -9.61941242
REMARK  5 active torsions:
REMARK  status: ('A' for Active; 'I' for Inactive)
REMARK    1  A    between atoms: C2_2  and  C3_3 
REMARK    2  A    between atoms: C2_2  and  C9_12 
REMARK    3  A    between atoms: C3_3  and  C4_4 
REMARK    4  A    between atoms: C6_6  and  C7_7 
REMARK    5  A    between atoms: C7_7  and  O1_8 
ROOT
HETATM    1  C9  UNL     1      -1.840  51.561 -22.248  1.00  0.00    -0.002 C 
HETATM    2  C10 UNL     1      -3.038  52.329 -22.882  1.00  0.00     0.007 C 
HETATM    3  C11 UNL     1      -4.272  51.412 -22.796  1.00  0.00     0.015 C 
HETATM    4  C12 UNL     1      -3.855  50.277 -21.839  1.00  0.00    -0.013 C 
HETATM    5  C13 UNL     1      -4.089  50.823 -20.394  1.00  0.00     0.021 C 
HETATM    6  C14 UNL     1      -4.609  48.954 -21.913  1.00  0.00    -0.070 C 
HETATM    7  C15 UNL     1      -5.899  48.891 -22.273  1.00  0.00    -0.022 C 
HETATM    8  C16 UNL     1      -6.722  47.649 -22.249  1.00  0.00     0.034 C 
HETATM    9  C17 UNL     1      -6.005  46.310 -21.890  1.00  0.00     0.013 C 
HETATM   10  C18 UNL     1      -7.081  45.260 -21.399  1.00  0.00     0.018 C 
HETATM   11  C19 UNL     1      -6.586  43.800 -21.431  1.00  0.00     0.023 C 
HETATM   12  C20 UNL     1      -8.341  45.290 -22.305  1.00  0.00     0.023 C 
HETATM   13  C21 UNL     1      -7.482  45.613 -19.958  1.00  0.00     0.135 C 
HETATM   14  O4  UNL     1      -8.649  45.535 -19.571  1.00  0.00    -0.297 OA
HETATM   15  C22 UNL     1      -6.377  45.950 -18.973  1.00  0.00     0.080 C 
HETATM   16  C23 UNL     1      -5.361  46.950 -19.521  1.00  0.00     0.017 C 
HETATM   17  C24 UNL     1      -4.792  46.555 -20.905  1.00  0.00    -0.031 C 
HETATM   18  C25 UNL     1      -3.914  45.288 -20.752  1.00  0.00     0.016 C 
HETATM   19  C26 UNL     1      -3.856  47.687 -21.523  1.00  0.00     0.024 C 
HETATM   20  C27 UNL     1      -2.574  47.997 -20.700  1.00  0.00     0.010 C 
HETATM   21  C28 UNL     1      -1.680  49.149 -21.217  1.00  0.00     0.011 C 
HETATM   22  C29 UNL     1      -2.352  50.082 -22.241  1.00  0.00    -0.029 C 
HETATM   23  C30 UNL     1      -2.165  49.486 -23.671  1.00  0.00     0.016 C 
ENDROOT
BRANCH   1  24
HETATM   24  C2  UNL     1      -0.487  51.911 -22.931  1.00  0.00    -0.011 C 
HETATM   25  C1  UNL     1       0.530  52.519 -21.962  1.00  0.00     0.010 C 
BRANCH  24  26
HETATM   26  C3  UNL     1      -0.666  52.818 -24.185  1.00  0.00     0.041 C 
BRANCH  26  27
HETATM   27  C4  UNL     1      -0.794  52.090 -25.531  1.00  0.00     0.156 A 
HETATM   28  C5  UNL     1       0.487  51.487 -25.967  1.00  0.00     0.021 A 
HETATM   29  C6  UNL     1       0.911  52.023 -27.110  1.00  0.00     0.039 A 
HETATM   30  C8  UNL     1      -0.088  53.020 -27.495  1.00  0.00     0.291 A 
HETATM   31  O2  UNL     1      -0.034  53.725 -28.486  1.00  0.00    -0.260 OA
HETATM   32  O3  UNL     1      -1.089  53.025 -26.573  1.00  0.00    -0.308 OA
BRANCH  29  33
HETATM   33  C7  UNL     1       2.092  51.766 -27.957  1.00  0.00     0.208 C 
BRANCH  33  34
HETATM   34  O1  UNL     1       3.213  51.435 -27.142  1.00  0.00    -0.396 OA
HETATM   35  H11 UNL     1       3.942  51.221 -27.747  1.00  0.00     0.209 HD
ENDBRANCH  33  34
ENDBRANCH  29  33
ENDBRANCH  26  27
ENDBRANCH  24  26
ENDBRANCH   1  24
TORSDOF 5
ENDMDL
MODEL 7
REMARK minimizedAffinity -9.54899979
REMARK  5 active torsions:
REMARK  status: ('A' for Active; 'I' for Inactive)
REMARK    1  A    between atoms: C2_2  and  C3_3 
REMARK    2  A    between atoms: C2_2  and  C9_12 
REMARK    3  A    between atoms: C3_3  and  C4_4 
REMARK    4  A    between atoms: C6_6  and  C7_7 
REMARK    5  A    between atoms: C7_7  and  O1_8 
ROOT
HETATM    1  C9  UNL     1      -6.410  48.757 -21.950  1.00  0.00    -0.002 C 
HETATM    2  C10 UNL     1      -6.113  49.739 -20.777  1.00  0.00     0.007 C 
HETATM    3  C11 UNL     1      -4.917  50.613 -21.199  1.00  0.00     0.015 C 
HETATM    4  C12 UNL     1      -4.750  50.351 -22.709  1.00  0.00    -0.013 C 
HETATM    5  C13 UNL     1      -5.767  51.295 -23.427  1.00  0.00     0.021 C 
HETATM    6  C14 UNL     1      -3.395  50.635 -23.347  1.00  0.00    -0.070 C 
HETATM    7  C15 UNL     1      -2.579  51.595 -22.887  1.00  0.00    -0.022 C 
HETATM    8  C16 UNL     1      -1.302  52.000 -23.536  1.00  0.00     0.034 C 
HETATM    9  C17 UNL     1      -0.822  51.176 -24.771  1.00  0.00     0.013 C 
HETATM   10  C18 UNL     1       0.198  52.046 -25.612  1.00  0.00     0.018 C 
HETATM   11  C19 UNL     1       1.062  51.221 -26.587  1.00  0.00     0.023 C 
HETATM   12  C20 UNL     1       1.203  52.777 -24.684  1.00  0.00     0.023 C 
HETATM   13  C21 UNL     1      -0.600  53.084 -26.419  1.00  0.00     0.135 C 
HETATM   14  O4  UNL     1      -0.203  54.242 -26.557  1.00  0.00    -0.297 OA
HETATM   15  C22 UNL     1      -1.844  52.615 -27.151  1.00  0.00     0.080 C 
HETATM   16  C23 UNL     1      -2.770  51.761 -26.287  1.00  0.00     0.017 C 
HETATM   17  C24 UNL     1      -2.048  50.589 -25.581  1.00  0.00    -0.031 C 
HETATM   18  C25 UNL     1      -1.591  49.558 -26.643  1.00  0.00     0.016 C 
HETATM   19  C26 UNL     1      -3.000  49.810 -24.567  1.00  0.00     0.024 C 
HETATM   20  C27 UNL     1      -4.224  49.113 -25.225  1.00  0.00     0.010 C 
HETATM   21  C28 UNL     1      -5.222  48.418 -24.268  1.00  0.00     0.011 C 
HETATM   22  C29 UNL     1      -5.092  48.822 -22.789  1.00  0.00    -0.029 C 
HETATM   23  C30 UNL     1      -4.023  47.913 -22.105  1.00  0.00     0.016 C 
ENDROOT
BRANCH   1  24
HETATM   24  C2  UNL     1      -6.944  47.384 -21.448  1.00  0.00    -0.011 C 
HETATM   25  C1  UNL     1      -6.081  46.206 -21.909  1.00  0.00     0.010 C 
BRANCH  24  26
HETATM   26  C3  UNL     1      -8.440  47.152 -21.816  1.00  0.00     0.041 C 
BRANCH  26  27
HETATM   27  C4  UNL     1      -8.707  46.585 -23.218  1.00  0.00     0.156 A 
HETATM   28  C5  UNL     1      -8.268  47.507 -24.290  1.00  0.00     0.021 A 
HETATM   29  C6  UNL     1      -9.297  47.908 -25.036  1.00  0.00     0.039 A 
HETATM   30  C8  UNL     1     -10.486  47.254 -24.487  1.00  0.00     0.291 A 
HETATM   31  O2  UNL     1     -11.620  47.391 -24.906  1.00  0.00    -0.260 OA
HETATM   32  O3  UNL     1     -10.116  46.465 -23.442  1.00  0.00    -0.308 OA
BRANCH  29  33
HETATM   33  C7  UNL     1      -9.393  48.792 -26.214  1.00  0.00     0.208 C 
BRANCH  33  34
HETATM   34  O1  UNL     1     -10.027  50.016 -25.854  1.00  0.00    -0.396 OA
HETATM   35  H11 UNL     1     -10.013  50.579 -26.645  1.00  0.00     0.209 HD
ENDBRANCH  33  34
ENDBRANCH  29  33
ENDBRANCH  26  27
ENDBRANCH  24  26
ENDBRANCH   1  24
TORSDOF 5
ENDMDL
MODEL 8
REMARK minimizedAffinity -9.26019764
REMARK  5 active torsions:
REMARK  status: ('A' for Active; 'I' for Inactive)
REMARK    1  A    between atoms: C2_2  and  C3_3 
REMARK    2  A    between atoms: C2_2  and  C9_12 
REMARK    3  A    between atoms: C3_3  and  C4_4 
REMARK    4  A    between atoms: C6_6  and  C7_7 
REMARK    5  A    between atoms: C7_7  and  O1_8 
ROOT
HETATM    1  C9  UNL     1      -3.840  49.884 -23.392  1.00  0.00    -0.002 C 
HETATM    2  C10 UNL     1      -4.776  48.656 -23.185  1.00  0.00     0.007 C 
HETATM    3  C11 UNL     1      -4.611  48.192 -21.725  1.00  0.00     0.015 C 
HETATM    4  C12 UNL     1      -3.843  49.334 -21.032  1.00  0.00    -0.013 C 
HETATM    5  C13 UNL     1      -4.916  50.397 -20.633  1.00  0.00     0.021 C 
HETATM    6  C14 UNL     1      -3.073  49.017 -19.754  1.00  0.00    -0.070 C 
HETATM    7  C15 UNL     1      -3.470  48.059 -18.905  1.00  0.00    -0.022 C 
HETATM    8  C16 UNL     1      -2.834  47.783 -17.587  1.00  0.00     0.034 C 
HETATM    9  C17 UNL     1      -1.548  48.587 -17.219  1.00  0.00     0.013 C 
HETATM   10  C18 UNL     1      -1.349  48.562 -15.650  1.00  0.00     0.018 C 
HETATM   11  C19 UNL     1       0.078  48.932 -15.197  1.00  0.00     0.023 C 
HETATM   12  C20 UNL     1      -1.611  47.144 -15.078  1.00  0.00     0.023 C 
HETATM   13  C21 UNL     1      -2.339  49.556 -15.020  1.00  0.00     0.135 C 
HETATM   14  O4  UNL     1      -2.939  49.300 -13.975  1.00  0.00    -0.297 OA
HETATM   15  C22 UNL     1      -2.475  50.928 -15.657  1.00  0.00     0.080 C 
HETATM   16  C23 UNL     1      -2.638  50.877 -17.174  1.00  0.00     0.017 C 
HETATM   17  C24 UNL     1      -1.559  50.023 -17.883  1.00  0.00    -0.031 C 
HETATM   18  C25 UNL     1      -0.185  50.725 -17.751  1.00  0.00     0.016 C 
HETATM   19  C26 UNL     1      -1.841  49.859 -19.443  1.00  0.00     0.024 C 
HETATM   20  C27 UNL     1      -1.816  51.185 -20.254  1.00  0.00     0.010 C 
HETATM   21  C28 UNL     1      -2.169  51.085 -21.758  1.00  0.00     0.011 C 
HETATM   22  C29 UNL     1      -2.863  49.775 -22.175  1.00  0.00    -0.029 C 
HETATM   23  C30 UNL     1      -1.776  48.706 -22.505  1.00  0.00     0.016 C 
ENDROOT
BRANCH   1  24
HETATM   24  C2  UNL     1      -3.271  49.953 -24.839  1.00  0.00    -0.011 C 
HETATM   25  C1  UNL     1      -3.275  48.595 -25.546  1.00  0.00     0.010 C 
BRANCH  24  26
HETATM   26  C3  UNL     1      -1.856  50.602 -24.896  1.00  0.00     0.041 C 
BRANCH  26  27
HETATM   27  C4  UNL     1      -1.411  51.127 -26.269  1.00  0.00     0.156 A 
HETATM   28  C5  UNL     1      -0.048  50.673 -26.628  1.00  0.00     0.021 A 
HETATM   29  C6  UNL     1       0.787  51.704 -26.761  1.00  0.00     0.039 A 
HETATM   30  C8  UNL     1       0.001  52.909 -26.496  1.00  0.00     0.291 A 
HETATM   31  O2  UNL     1       0.431  54.047 -26.514  1.00  0.00    -0.260 OA
HETATM   32  O3  UNL     1      -1.286  52.552 -26.237  1.00  0.00    -0.308 OA
BRANCH  29  33
HETATM   33  C7  UNL     1       2.216  51.793 -27.120  1.00  0.00     0.208 C 
BRANCH  33  34
HETATM   34  O1  UNL     1       2.984  50.940 -26.276  1.00  0.00    -0.396 OA
HETATM   35  H11 UNL     1       3.902  50.993 -26.590  1.00  0.00     0.209 HD
ENDBRANCH  33  34
ENDBRANCH  29  33
ENDBRANCH  26  27
ENDBRANCH  24  26
ENDBRANCH   1  24
TORSDOF 5
ENDMDL
MODEL 9
REMARK minimizedAffinity -9.19295597
REMARK  5 active torsions:
REMARK  status: ('A' for Active; 'I' for Inactive)
REMARK    1  A    between atoms: C2_2  and  C3_3 
REMARK    2  A    between atoms: C2_2  and  C9_12 
REMARK    3  A    between atoms: C3_3  and  C4_4 
REMARK    4  A    between atoms: C6_6  and  C7_7 
REMARK    5  A    between atoms: C7_7  and  O1_8 
ROOT
HETATM    1  C9  UNL     1      -2.656  50.807 -23.597  1.00  0.00    -0.002 C 
HETATM    2  C10 UNL     1      -2.527  51.711 -22.334  1.00  0.00     0.007 C 
HETATM    3  C11 UNL     1      -3.631  51.286 -21.348  1.00  0.00     0.015 C 
HETATM    4  C12 UNL     1      -4.168  49.953 -21.906  1.00  0.00    -0.013 C 
HETATM    5  C13 UNL     1      -3.198  48.845 -21.385  1.00  0.00     0.021 C 
HETATM    6  C14 UNL     1      -5.568  49.509 -21.497  1.00  0.00    -0.070 C 
HETATM    7  C15 UNL     1      -6.098  49.832 -20.309  1.00  0.00    -0.022 C 
HETATM    8  C16 UNL     1      -7.406  49.331 -19.804  1.00  0.00     0.034 C 
HETATM    9  C17 UNL     1      -8.272  48.462 -20.768  1.00  0.00     0.013 C 
HETATM   10  C18 UNL     1      -9.301  47.612 -19.919  1.00  0.00     0.018 C 
HETATM   11  C19 UNL     1     -10.480  47.057 -20.743  1.00  0.00     0.023 C 
HETATM   12  C20 UNL     1      -9.946  48.473 -18.801  1.00  0.00     0.023 C 
HETATM   13  C21 UNL     1      -8.546  46.433 -19.282  1.00  0.00     0.135 C 
HETATM   14  O4  UNL     1      -8.775  46.063 -18.129  1.00  0.00    -0.297 OA
HETATM   15  C22 UNL     1      -7.586  45.646 -20.155  1.00  0.00     0.080 C 
HETATM   16  C23 UNL     1      -6.640  46.530 -20.965  1.00  0.00     0.017 C 
HETATM   17  C24 UNL     1      -7.365  47.637 -21.767  1.00  0.00    -0.031 C 
HETATM   18  C25 UNL     1      -8.204  46.983 -22.894  1.00  0.00     0.016 C 
HETATM   19  C26 UNL     1      -6.349  48.639 -22.476  1.00  0.00     0.024 C 
HETATM   20  C27 UNL     1      -5.427  47.988 -23.545  1.00  0.00     0.010 C 
HETATM   21  C28 UNL     1      -4.366  48.905 -24.198  1.00  0.00     0.011 C 
HETATM   22  C29 UNL     1      -4.100  50.224 -23.449  1.00  0.00    -0.029 C 
HETATM   23  C30 UNL     1      -5.122  51.299 -23.935  1.00  0.00     0.016 C 
ENDROOT
BRANCH   1  24
HETATM   24  C2  UNL     1      -2.250  51.555 -24.900  1.00  0.00    -0.011 C 
HETATM   25  C1  UNL     1      -3.442  51.841 -25.817  1.00  0.00     0.010 C 
BRANCH  24  26
HETATM   26  C3  UNL     1      -1.115  50.826 -25.679  1.00  0.00     0.041 C 
BRANCH  26  27
HETATM   27  C4  UNL     1       0.186  51.620 -25.871  1.00  0.00     0.156 A 
HETATM   28  C5  UNL     1       0.683  52.199 -24.602  1.00  0.00     0.021 A 
HETATM   29  C6  UNL     1       0.704  53.531 -24.652  1.00  0.00     0.039 A 
HETATM   30  C8  UNL     1       0.219  53.902 -25.982  1.00  0.00     0.291 A 
HETATM   31  O2  UNL     1       0.089  55.041 -26.390  1.00  0.00    -0.260 OA
HETATM   32  O3  UNL     1      -0.053  52.771 -26.688  1.00  0.00    -0.308 OA
BRANCH  29  33
HETATM   33  C7  UNL     1       1.122  54.561 -23.682  1.00  0.00     0.208 C 
BRANCH  33  34
HETATM   34  O1  UNL     1       1.239  55.823 -24.333  1.00  0.00    -0.396 OA
HETATM   35  H11 UNL     1       1.458  56.472 -23.643  1.00  0.00     0.209 HD
ENDBRANCH  33  34
ENDBRANCH  29  33
ENDBRANCH  26  27
ENDBRANCH  24  26
ENDBRANCH   1  24
TORSDOF 5
ENDMDL
