MODEL 1
REMARK minimizedAffinity -8.43704319
REMARK  7 active torsions:
REMARK  status: ('A' for Active; 'I' for Inactive)
REMARK    1  A    between atoms: O1_2  and  C2_3 
REMARK    2  A    between atoms: C2_3  and  C3_5 
REMARK    3  A    between atoms: C17_20  and  C18_21 
REMARK    4  A    between atoms: C18_21  and  O5_23 
REMARK    5  A    between atoms: O5_23  and  C19_24 
REMARK    6  A    between atoms: C19_24  and  C20_25 
REMARK    7  A    between atoms: C20_25  and  N1_26 
ROOT
HETATM    1  C3  UNL     1       0.481  52.097 -25.161  1.00  0.00     0.049 C 
HETATM    2  C4  UNL     1       1.708  51.718 -26.019  1.00  0.00     0.026 C 
HETATM    3  C5  UNL     1       0.863  51.926 -23.669  1.00  0.00     0.020 C 
HETATM    4  C6  UNL     1      -0.318  52.177 -22.741  1.00  0.00     0.002 C 
HETATM    5  C7  UNL     1      -1.460  51.207 -23.026  1.00  0.00     0.010 C 
HETATM    6  C8  UNL     1      -1.951  51.204 -24.507  1.00  0.00    -0.034 C 
HETATM    7  C9  UNL     1      -2.798  52.479 -24.729  1.00  0.00     0.016 C 
HETATM    8  C10 UNL     1      -0.713  51.114 -25.469  1.00  0.00     0.019 C 
HETATM    9  C11 UNL     1      -1.112  51.047 -26.954  1.00  0.00     0.085 C 
HETATM   10  C12 UNL     1      -2.509  50.518 -27.173  1.00  0.00     0.132 C 
HETATM   11  O3  UNL     1      -3.162  50.894 -28.149  1.00  0.00    -0.298 OA
HETATM   12  C13 UNL     1      -3.010  49.444 -26.209  1.00  0.00     0.068 C 
HETATM   13  C14 UNL     1      -4.447  48.968 -26.614  1.00  0.00     0.022 C 
HETATM   14  C15 UNL     1      -4.330  48.056 -27.858  1.00  0.00     0.015 C 
HETATM   15  C16 UNL     1      -5.270  48.289 -25.510  1.00  0.00    -0.070 C 
HETATM   16  C17 UNL     1      -6.426  47.646 -25.792  1.00  0.00     0.085 C 
HETATM   17  C23 UNL     1      -4.799  48.501 -24.092  1.00  0.00     0.035 C 
HETATM   18  C24 UNL     1      -4.140  49.867 -23.945  1.00  0.00     0.010 C 
HETATM   19  C25 UNL     1      -2.824  49.898 -24.733  1.00  0.00     0.006 C 
ENDROOT
BRANCH  16  20
HETATM   20  C18 UNL     1      -7.323  46.951 -24.842  1.00  0.00     0.283 C 
HETATM   21  O4  UNL     1      -7.097  46.906 -23.640  1.00  0.00    -0.260 OA
BRANCH  20  22
HETATM   22  O5  UNL     1      -8.427  46.488 -25.478  1.00  0.00    -0.316 OA
BRANCH  22  23
HETATM   23  C19 UNL     1      -9.616  47.278 -25.298  1.00  0.00     0.209 C 
BRANCH  23  24
HETATM   24  C20 UNL     1     -10.366  47.452 -26.631  1.00  0.00     0.298 C 
BRANCH  24  25
HETATM   25  N1  UNL     1     -11.757  47.929 -26.488  1.00  0.00     0.082 N 
HETATM   26  C21 UNL     1     -12.409  48.109 -27.787  1.00  0.00     0.309 C 
HETATM   27  C22 UNL     1     -12.529  46.979 -25.681  1.00  0.00     0.309 C 
ENDBRANCH  24  25
ENDBRANCH  23  24
ENDBRANCH  22  23
ENDBRANCH  20  22
ENDBRANCH  16  20
BRANCH   1  28
HETATM   28  C2  UNL     1       0.199  53.579 -25.489  1.00  0.00     0.267 C 
HETATM   29  O2  UNL     1       0.614  54.533 -24.844  1.00  0.00    -0.264 OA
BRANCH  28  30
HETATM   30  O1  UNL     1      -0.632  53.704 -26.563  1.00  0.00    -0.326 OA
HETATM   31  C1  UNL     1      -0.112  54.507 -27.626  1.00  0.00     0.213 C 
ENDBRANCH  28  30
ENDBRANCH   1  28
TORSDOF 7
ENDMDL
MODEL 2
REMARK minimizedAffinity -8.39727116
REMARK  7 active torsions:
REMARK  status: ('A' for Active; 'I' for Inactive)
REMARK    1  A    between atoms: O1_2  and  C2_3 
REMARK    2  A    between atoms: C2_3  and  C3_5 
REMARK    3  A    between atoms: C17_20  and  C18_21 
REMARK    4  A    between atoms: C18_21  and  O5_23 
REMARK    5  A    between atoms: O5_23  and  C19_24 
REMARK    6  A    between atoms: C19_24  and  C20_25 
REMARK    7  A    between atoms: C20_25  and  N1_26 
ROOT
HETATM    1  C3  UNL     1       0.500  52.132 -25.064  1.00  0.00     0.049 C 
HETATM    2  C4  UNL     1       1.729  51.778 -25.930  1.00  0.00     0.026 C 
HETATM    3  C5  UNL     1       0.883  51.926 -23.576  1.00  0.00     0.020 C 
HETATM    4  C6  UNL     1      -0.299  52.151 -22.642  1.00  0.00     0.002 C 
HETATM    5  C7  UNL     1      -1.437  51.185 -22.951  1.00  0.00     0.010 C 
HETATM    6  C8  UNL     1      -1.929  51.216 -24.431  1.00  0.00    -0.034 C 
HETATM    7  C9  UNL     1      -2.780  52.494 -24.622  1.00  0.00     0.016 C 
HETATM    8  C10 UNL     1      -0.691  51.153 -25.395  1.00  0.00     0.019 C 
HETATM    9  C11 UNL     1      -1.089  51.121 -26.881  1.00  0.00     0.085 C 
HETATM   10  C12 UNL     1      -2.485  50.593 -27.112  1.00  0.00     0.132 C 
HETATM   11  O3  UNL     1      -3.139  50.991 -28.079  1.00  0.00    -0.298 OA
HETATM   12  C13 UNL     1      -2.983  49.494 -26.175  1.00  0.00     0.068 C 
HETATM   13  C14 UNL     1      -4.418  49.024 -26.592  1.00  0.00     0.022 C 
HETATM   14  C15 UNL     1      -4.298  48.142 -27.857  1.00  0.00     0.015 C 
HETATM   15  C16 UNL     1      -5.238  48.316 -25.504  1.00  0.00    -0.070 C 
HETATM   16  C17 UNL     1      -6.393  47.676 -25.801  1.00  0.00     0.085 C 
HETATM   17  C23 UNL     1      -4.768  48.495 -24.081  1.00  0.00     0.035 C 
HETATM   18  C24 UNL     1      -4.113  49.860 -23.902  1.00  0.00     0.010 C 
HETATM   19  C25 UNL     1      -2.798  49.913 -24.688  1.00  0.00     0.006 C 
ENDROOT
BRANCH  16  20
HETATM   20  C18 UNL     1      -7.287  46.956 -24.869  1.00  0.00     0.283 C 
HETATM   21  O4  UNL     1      -7.203  47.076 -23.654  1.00  0.00    -0.260 OA
BRANCH  20  22
HETATM   22  O5  UNL     1      -8.230  46.260 -25.551  1.00  0.00    -0.316 OA
BRANCH  22  23
HETATM   23  C19 UNL     1      -8.170  46.386 -26.984  1.00  0.00     0.209 C 
BRANCH  23  24
HETATM   24  C20 UNL     1      -9.544  46.775 -27.558  1.00  0.00     0.298 C 
BRANCH  24  25
HETATM   25  N1  UNL     1      -9.520  47.956 -28.445  1.00  0.00     0.082 N 
HETATM   26  C21 UNL     1      -8.175  48.224 -28.961  1.00  0.00     0.309 C 
HETATM   27  C22 UNL     1     -10.443  47.755 -29.566  1.00  0.00     0.309 C 
ENDBRANCH  24  25
ENDBRANCH  23  24
ENDBRANCH  22  23
ENDBRANCH  20  22
ENDBRANCH  16  20
BRANCH   1  28
HETATM   28  C2  UNL     1       0.213  53.621 -25.355  1.00  0.00     0.267 C 
HETATM   29  O2  UNL     1       0.614  54.560 -24.679  1.00  0.00    -0.264 OA
BRANCH  28  30
HETATM   30  O1  UNL     1      -0.603  53.770 -26.437  1.00  0.00    -0.326 OA
HETATM   31  C1  UNL     1      -0.074  54.604 -27.470  1.00  0.00     0.213 C 
ENDBRANCH  28  30
ENDBRANCH   1  28
TORSDOF 7
ENDMDL
MODEL 3
REMARK minimizedAffinity -8.27103233
REMARK  7 active torsions:
REMARK  status: ('A' for Active; 'I' for Inactive)
REMARK    1  A    between atoms: O1_2  and  C2_3 
REMARK    2  A    between atoms: C2_3  and  C3_5 
REMARK    3  A    between atoms: C17_20  and  C18_21 
REMARK    4  A    between atoms: C18_21  and  O5_23 
REMARK    5  A    between atoms: O5_23  and  C19_24 
REMARK    6  A    between atoms: C19_24  and  C20_25 
REMARK    7  A    between atoms: C20_25  and  N1_26 
ROOT
HETATM    1  C3  UNL     1       0.484  52.090 -25.154  1.00  0.00     0.049 C 
HETATM    2  C4  UNL     1       1.696  51.696 -26.027  1.00  0.00     0.026 C 
HETATM    3  C5  UNL     1       0.889  51.931 -23.666  1.00  0.00     0.020 C 
HETATM    4  C6  UNL     1      -0.277  52.198 -22.722  1.00  0.00     0.002 C 
HETATM    5  C7  UNL     1      -1.428  51.232 -22.980  1.00  0.00     0.010 C 
HETATM    6  C8  UNL     1      -1.942  51.217 -24.453  1.00  0.00    -0.034 C 
HETATM    7  C9  UNL     1      -2.785  52.496 -24.674  1.00  0.00     0.016 C 
HETATM    8  C10 UNL     1      -0.720  51.112 -25.433  1.00  0.00     0.019 C 
HETATM    9  C11 UNL     1      -1.142  51.033 -26.912  1.00  0.00     0.085 C 
HETATM   10  C12 UNL     1      -2.546  50.510 -27.103  1.00  0.00     0.132 C 
HETATM   11  O3  UNL     1      -3.212  50.881 -28.072  1.00  0.00    -0.298 OA
HETATM   12  C13 UNL     1      -3.038  49.448 -26.121  1.00  0.00     0.068 C 
HETATM   13  C14 UNL     1      -4.483  48.977 -26.499  1.00  0.00     0.022 C 
HETATM   14  C15 UNL     1      -4.391  48.052 -27.736  1.00  0.00     0.015 C 
HETATM   15  C16 UNL     1      -5.293  48.313 -25.376  1.00  0.00    -0.070 C 
HETATM   16  C17 UNL     1      -6.457  47.674 -25.634  1.00  0.00     0.085 C 
HETATM   17  C23 UNL     1      -4.798  48.536 -23.968  1.00  0.00     0.035 C 
HETATM   18  C24 UNL     1      -4.129  49.899 -23.845  1.00  0.00     0.010 C 
HETATM   19  C25 UNL     1      -2.826  49.915 -24.653  1.00  0.00     0.006 C 
ENDROOT
BRANCH  16  20
HETATM   20  C18 UNL     1      -7.342  46.993 -24.664  1.00  0.00     0.283 C 
HETATM   21  O4  UNL     1      -8.263  46.267 -25.014  1.00  0.00    -0.260 OA
BRANCH  20  22
HETATM   22  O5  UNL     1      -6.922  47.214 -23.395  1.00  0.00    -0.316 OA
BRANCH  22  23
HETATM   23  C19 UNL     1      -7.881  46.905 -22.367  1.00  0.00     0.209 C 
BRANCH  23  24
HETATM   24  C20 UNL     1      -8.304  48.178 -21.611  1.00  0.00     0.298 C 
BRANCH  24  25
HETATM   25  N1  UNL     1      -7.433  48.525 -20.470  1.00  0.00     0.082 N 
HETATM   26  C21 UNL     1      -6.670  49.751 -20.718  1.00  0.00     0.309 C 
HETATM   27  C22 UNL     1      -8.241  48.689 -19.258  1.00  0.00     0.309 C 
ENDBRANCH  24  25
ENDBRANCH  23  24
ENDBRANCH  22  23
ENDBRANCH  20  22
ENDBRANCH  16  20
BRANCH   1  28
HETATM   28  C2  UNL     1       0.205  53.571 -25.491  1.00  0.00     0.267 C 
HETATM   29  O2  UNL     1       0.624  54.528 -24.853  1.00  0.00    -0.264 OA
BRANCH  28  30
HETATM   30  O1  UNL     1      -0.627  53.691 -26.565  1.00  0.00    -0.326 OA
HETATM   31  C1  UNL     1      -0.116  54.504 -27.624  1.00  0.00     0.213 C 
ENDBRANCH  28  30
ENDBRANCH   1  28
TORSDOF 7
ENDMDL
MODEL 4
REMARK minimizedAffinity -8.13252068
REMARK  7 active torsions:
REMARK  status: ('A' for Active; 'I' for Inactive)
REMARK    1  A    between atoms: O1_2  and  C2_3 
REMARK    2  A    between atoms: C2_3  and  C3_5 
REMARK    3  A    between atoms: C17_20  and  C18_21 
REMARK    4  A    between atoms: C18_21  and  O5_23 
REMARK    5  A    between atoms: O5_23  and  C19_24 
REMARK    6  A    between atoms: C19_24  and  C20_25 
REMARK    7  A    between atoms: C20_25  and  N1_26 
ROOT
HETATM    1  C3  UNL     1      -0.934  49.766 -17.173  1.00  0.00     0.049 C 
HETATM    2  C4  UNL     1       0.198  49.713 -16.123  1.00  0.00     0.026 C 
HETATM    3  C5  UNL     1      -1.261  48.314 -17.604  1.00  0.00     0.020 C 
HETATM    4  C6  UNL     1      -2.298  48.266 -18.719  1.00  0.00     0.002 C 
HETATM    5  C7  UNL     1      -1.809  49.004 -19.960  1.00  0.00     0.010 C 
HETATM    6  C8  UNL     1      -1.384  50.484 -19.707  1.00  0.00    -0.034 C 
HETATM    7  C9  UNL     1      -2.671  51.327 -19.545  1.00  0.00     0.016 C 
HETATM    8  C10 UNL     1      -0.445  50.550 -18.450  1.00  0.00     0.019 C 
HETATM    9  C11 UNL     1       0.071  51.972 -18.161  1.00  0.00     0.085 C 
HETATM   10  C12 UNL     1       0.070  52.864 -19.380  1.00  0.00     0.132 C 
HETATM   11  O3  UNL     1      -0.088  54.080 -19.249  1.00  0.00    -0.298 OA
HETATM   12  C13 UNL     1       0.374  52.211 -20.727  1.00  0.00     0.068 C 
HETATM   13  C14 UNL     1       0.391  53.285 -21.867  1.00  0.00     0.022 C 
HETATM   14  C15 UNL     1       1.704  54.097 -21.758  1.00  0.00     0.015 C 
HETATM   15  C16 UNL     1       0.188  52.757 -23.294  1.00  0.00    -0.070 C 
HETATM   16  C17 UNL     1       0.400  53.548 -24.371  1.00  0.00     0.085 C 
HETATM   17  C23 UNL     1      -0.393  51.370 -23.424  1.00  0.00     0.035 C 
HETATM   18  C24 UNL     1      -1.336  51.075 -22.264  1.00  0.00     0.010 C 
HETATM   19  C25 UNL     1      -0.539  50.973 -20.957  1.00  0.00     0.006 C 
ENDROOT
BRANCH  16  20
HETATM   20  C18 UNL     1       0.246  53.186 -25.797  1.00  0.00     0.283 C 
HETATM   21  O4  UNL     1       0.562  53.943 -26.705  1.00  0.00    -0.260 OA
BRANCH  20  22
HETATM   22  O5  UNL     1      -0.184  51.906 -25.922  1.00  0.00    -0.316 OA
BRANCH  22  23
HETATM   23  C19 UNL     1      -0.952  51.629 -27.107  1.00  0.00     0.209 C 
BRANCH  23  24
HETATM   24  C20 UNL     1      -2.371  52.214 -26.992  1.00  0.00     0.298 C 
BRANCH  24  25
HETATM   25  N1  UNL     1      -3.393  51.247 -26.545  1.00  0.00     0.082 N 
HETATM   26  C21 UNL     1      -2.931  49.863 -26.678  1.00  0.00     0.309 C 
HETATM   27  C22 UNL     1      -3.750  51.510 -25.148  1.00  0.00     0.309 C 
ENDBRANCH  24  25
ENDBRANCH  23  24
ENDBRANCH  22  23
ENDBRANCH  20  22
ENDBRANCH  16  20
BRANCH   1  28
HETATM   28  C2  UNL     1      -2.135  50.405 -16.442  1.00  0.00     0.267 C 
HETATM   29  O2  UNL     1      -2.804  51.337 -16.870  1.00  0.00    -0.264 OA
BRANCH  28  30
HETATM   30  O1  UNL     1      -2.331  49.841 -15.216  1.00  0.00    -0.326 OA
HETATM   31  C1  UNL     1      -2.849  50.735 -14.227  1.00  0.00     0.213 C 
ENDBRANCH  28  30
ENDBRANCH   1  28
TORSDOF 7
ENDMDL
MODEL 5
REMARK minimizedAffinity -7.85940123
REMARK  7 active torsions:
REMARK  status: ('A' for Active; 'I' for Inactive)
REMARK    1  A    between atoms: O1_2  and  C2_3 
REMARK    2  A    between atoms: C2_3  and  C3_5 
REMARK    3  A    between atoms: C17_20  and  C18_21 
REMARK    4  A    between atoms: C18_21  and  O5_23 
REMARK    5  A    between atoms: O5_23  and  C19_24 
REMARK    6  A    between atoms: C19_24  and  C20_25 
REMARK    7  A    between atoms: C20_25  and  N1_26 
ROOT
HETATM    1  C3  UNL     1       0.503  52.072 -25.305  1.00  0.00     0.049 C 
HETATM    2  C4  UNL     1       1.721  51.673 -26.167  1.00  0.00     0.026 C 
HETATM    3  C5  UNL     1       0.895  51.915 -23.814  1.00  0.00     0.020 C 
HETATM    4  C6  UNL     1      -0.277  52.187 -22.880  1.00  0.00     0.002 C 
HETATM    5  C7  UNL     1      -1.428  51.223 -23.145  1.00  0.00     0.010 C 
HETATM    6  C8  UNL     1      -1.931  51.207 -24.622  1.00  0.00    -0.034 C 
HETATM    7  C9  UNL     1      -2.769  52.488 -24.852  1.00  0.00     0.016 C 
HETATM    8  C10 UNL     1      -0.702  51.096 -25.592  1.00  0.00     0.019 C 
HETATM    9  C11 UNL     1      -1.112  51.016 -27.073  1.00  0.00     0.085 C 
HETATM   10  C12 UNL     1      -2.516  50.496 -27.275  1.00  0.00     0.132 C 
HETATM   11  O3  UNL     1      -3.172  50.866 -28.251  1.00  0.00    -0.298 OA
HETATM   12  C13 UNL     1      -3.019  49.437 -26.295  1.00  0.00     0.068 C 
HETATM   13  C14 UNL     1      -4.462  48.970 -26.684  1.00  0.00     0.022 C 
HETATM   14  C15 UNL     1      -4.362  48.042 -27.918  1.00  0.00     0.015 C 
HETATM   15  C16 UNL     1      -5.282  48.311 -25.566  1.00  0.00    -0.070 C 
HETATM   16  C17 UNL     1      -6.446  47.674 -25.832  1.00  0.00     0.085 C 
HETATM   17  C23 UNL     1      -4.799  48.535 -24.154  1.00  0.00     0.035 C 
HETATM   18  C24 UNL     1      -4.127  49.897 -24.028  1.00  0.00     0.010 C 
HETATM   19  C25 UNL     1      -2.817  49.907 -24.826  1.00  0.00     0.006 C 
ENDROOT
BRANCH  16  20
HETATM   20  C18 UNL     1      -7.341  46.998 -24.867  1.00  0.00     0.283 C 
HETATM   21  O4  UNL     1      -7.078  46.914 -23.675  1.00  0.00    -0.260 OA
BRANCH  20  22
HETATM   22  O5  UNL     1      -8.486  46.601 -25.475  1.00  0.00    -0.316 OA
BRANCH  22  23
HETATM   23  C19 UNL     1      -8.363  45.445 -26.323  1.00  0.00     0.209 C 
BRANCH  23  24
HETATM   24  C20 UNL     1      -9.556  44.492 -26.128  1.00  0.00     0.298 C 
BRANCH  24  25
HETATM   25  N1  UNL     1      -9.185  43.139 -25.667  1.00  0.00     0.082 N 
HETATM   26  C21 UNL     1      -7.823  43.099 -25.130  1.00  0.00     0.309 C 
HETATM   27  C22 UNL     1     -10.129  42.687 -24.640  1.00  0.00     0.309 C 
ENDBRANCH  24  25
ENDBRANCH  23  24
ENDBRANCH  22  23
ENDBRANCH  20  22
ENDBRANCH  16  20
BRANCH   1  28
HETATM   28  C2  UNL     1       0.231  53.553 -25.647  1.00  0.00     0.267 C 
HETATM   29  O2  UNL     1      -0.361  53.947 -26.643  1.00  0.00    -0.264 OA
BRANCH  28  30
HETATM   30  O1  UNL     1       0.791  54.389 -24.726  1.00  0.00    -0.326 OA
HETATM   31  C1  UNL     1       0.596  55.780 -24.992  1.00  0.00     0.213 C 
ENDBRANCH  28  30
ENDBRANCH   1  28
TORSDOF 7
ENDMDL
MODEL 6
REMARK minimizedAffinity -7.73575592
REMARK  7 active torsions:
REMARK  status: ('A' for Active; 'I' for Inactive)
REMARK    1  A    between atoms: O1_2  and  C2_3 
REMARK    2  A    between atoms: C2_3  and  C3_5 
REMARK    3  A    between atoms: C17_20  and  C18_21 
REMARK    4  A    between atoms: C18_21  and  O5_23 
REMARK    5  A    between atoms: O5_23  and  C19_24 
REMARK    6  A    between atoms: C19_24  and  C20_25 
REMARK    7  A    between atoms: C20_25  and  N1_26 
ROOT
HETATM    1  C3  UNL     1      -0.625  51.687 -26.016  1.00  0.00     0.049 C 
HETATM    2  C4  UNL     1      -0.119  50.631 -27.023  1.00  0.00     0.026 C 
HETATM    3  C5  UNL     1       0.398  52.851 -25.984  1.00  0.00     0.020 C 
HETATM    4  C6  UNL     1       0.041  53.901 -24.940  1.00  0.00     0.002 C 
HETATM    5  C7  UNL     1       0.004  53.297 -23.541  1.00  0.00     0.010 C 
HETATM    6  C8  UNL     1      -0.947  52.068 -23.391  1.00  0.00    -0.034 C 
HETATM    7  C9  UNL     1      -2.401  52.595 -23.351  1.00  0.00     0.016 C 
HETATM    8  C10 UNL     1      -0.691  51.064 -24.570  1.00  0.00     0.019 C 
HETATM    9  C11 UNL     1      -1.549  49.789 -24.469  1.00  0.00     0.085 C 
HETATM   10  C12 UNL     1      -2.002  49.487 -23.060  1.00  0.00     0.132 C 
HETATM   11  O3  UNL     1      -3.069  48.899 -22.872  1.00  0.00    -0.298 OA
HETATM   12  C13 UNL     1      -1.044  49.843 -21.924  1.00  0.00     0.068 C 
HETATM   13  C14 UNL     1      -1.644  49.410 -20.543  1.00  0.00     0.022 C 
HETATM   14  C15 UNL     1      -1.518  47.874 -20.412  1.00  0.00     0.015 C 
HETATM   15  C16 UNL     1      -1.069  50.116 -19.307  1.00  0.00    -0.070 C 
HETATM   16  C17 UNL     1      -1.345  49.677 -18.057  1.00  0.00     0.085 C 
HETATM   17  C23 UNL     1      -0.308  51.395 -19.554  1.00  0.00     0.035 C 
HETATM   18  C24 UNL     1      -0.869  52.126 -20.768  1.00  0.00     0.010 C 
HETATM   19  C25 UNL     1      -0.577  51.322 -22.041  1.00  0.00     0.006 C 
ENDROOT
BRANCH  16  20
HETATM   20  C18 UNL     1      -0.870  50.249 -16.778  1.00  0.00     0.283 C 
HETATM   21  O4  UNL     1      -1.621  50.814 -15.993  1.00  0.00    -0.260 OA
BRANCH  20  22
HETATM   22  O5  UNL     1       0.441  49.967 -16.585  1.00  0.00    -0.316 OA
BRANCH  22  23
HETATM   23  C19 UNL     1       1.075  50.691 -15.515  1.00  0.00     0.209 C 
BRANCH  23  24
HETATM   24  C20 UNL     1       1.945  51.835 -16.066  1.00  0.00     0.298 C 
BRANCH  24  25
HETATM   25  N1  UNL     1       3.130  52.148 -15.241  1.00  0.00     0.082 N 
HETATM   26  C21 UNL     1       3.439  51.071 -14.298  1.00  0.00     0.309 C 
HETATM   27  C22 UNL     1       4.289  52.388 -16.107  1.00  0.00     0.309 C 
ENDBRANCH  24  25
ENDBRANCH  23  24
ENDBRANCH  22  23
ENDBRANCH  20  22
ENDBRANCH  16  20
BRANCH   1  28
HETATM   28  C2  UNL     1      -1.982  52.165 -26.577  1.00  0.00     0.267 C 
HETATM   29  O2  UNL     1      -2.708  52.997 -26.048  1.00  0.00    -0.264 OA
BRANCH  28  30
HETATM   30  O1  UNL     1      -2.313  51.497 -27.719  1.00  0.00    -0.326 OA
HETATM   31  C1  UNL     1      -3.362  50.539 -27.563  1.00  0.00     0.213 C 
ENDBRANCH  28  30
ENDBRANCH   1  28
TORSDOF 7
ENDMDL
MODEL 7
REMARK minimizedAffinity -7.66330671
REMARK  7 active torsions:
REMARK  status: ('A' for Active; 'I' for Inactive)
REMARK    1  A    between atoms: O1_2  and  C2_3 
REMARK    2  A    between atoms: C2_3  and  C3_5 
REMARK    3  A    between atoms: C17_20  and  C18_21 
REMARK    4  A    between atoms: C18_21  and  O5_23 
REMARK    5  A    between atoms: O5_23  and  C19_24 
REMARK    6  A    between atoms: C19_24  and  C20_25 
REMARK    7  A    between atoms: C20_25  and  N1_26 
ROOT
HETATM    1  C3  UNL     1      -3.950  50.826 -23.522  1.00  0.00     0.049 C 
HETATM    2  C4  UNL     1      -4.533  51.967 -24.384  1.00  0.00     0.026 C 
HETATM    3  C5  UNL     1      -5.103  50.216 -22.685  1.00  0.00     0.020 C 
HETATM    4  C6  UNL     1      -4.609  49.146 -21.720  1.00  0.00     0.002 C 
HETATM    5  C7  UNL     1      -3.593  49.716 -20.737  1.00  0.00     0.010 C 
HETATM    6  C8  UNL     1      -2.371  50.421 -21.405  1.00  0.00    -0.034 C 
HETATM    7  C9  UNL     1      -1.430  49.322 -21.951  1.00  0.00     0.016 C 
HETATM    8  C10 UNL     1      -2.879  51.403 -22.519  1.00  0.00     0.019 C 
HETATM    9  C11 UNL     1      -1.738  52.187 -23.193  1.00  0.00     0.085 C 
HETATM   10  C12 UNL     1      -0.506  52.306 -22.328  1.00  0.00     0.132 C 
HETATM   11  O3  UNL     1       0.607  52.385 -22.853  1.00  0.00    -0.298 OA
HETATM   12  C13 UNL     1      -0.718  52.431 -20.820  1.00  0.00     0.068 C 
HETATM   13  C14 UNL     1       0.654  52.604 -20.085  1.00  0.00     0.022 C 
HETATM   14  C15 UNL     1       1.157  54.049 -20.317  1.00  0.00     0.015 C 
HETATM   15  C16 UNL     1       0.669  52.251 -18.590  1.00  0.00    -0.070 C 
HETATM   16  C17 UNL     1       1.725  52.565 -17.806  1.00  0.00     0.085 C 
HETATM   17  C23 UNL     1      -0.482  51.416 -18.084  1.00  0.00     0.035 C 
HETATM   18  C24 UNL     1      -0.985  50.480 -19.176  1.00  0.00     0.010 C 
HETATM   19  C25 UNL     1      -1.642  51.294 -20.298  1.00  0.00     0.006 C 
ENDROOT
BRANCH  16  20
HETATM   20  C18 UNL     1       1.885  52.291 -16.361  1.00  0.00     0.283 C 
HETATM   21  O4  UNL     1       2.915  51.825 -15.891  1.00  0.00    -0.260 OA
BRANCH  20  22
HETATM   22  O5  UNL     1       0.798  52.714 -15.670  1.00  0.00    -0.316 OA
BRANCH  22  23
HETATM   23  C19 UNL     1       0.673  52.187 -14.337  1.00  0.00     0.209 C 
BRANCH  23  24
HETATM   24  C20 UNL     1      -0.682  51.482 -14.150  1.00  0.00     0.298 C 
BRANCH  24  25
HETATM   25  N1  UNL     1      -1.613  52.184 -13.243  1.00  0.00     0.082 N 
HETATM   26  C21 UNL     1      -3.012  51.874 -13.548  1.00  0.00     0.309 C 
HETATM   27  C22 UNL     1      -1.323  51.820 -11.853  1.00  0.00     0.309 C 
ENDBRANCH  24  25
ENDBRANCH  23  24
ENDBRANCH  22  23
ENDBRANCH  20  22
ENDBRANCH  16  20
BRANCH   1  28
HETATM   28  C2  UNL     1      -3.400  49.795 -24.532  1.00  0.00     0.267 C 
HETATM   29  O2  UNL     1      -2.277  49.816 -25.017  1.00  0.00    -0.264 OA
BRANCH  28  30
HETATM   30  O1  UNL     1      -4.349  48.876 -24.872  1.00  0.00    -0.326 OA
HETATM   31  C1  UNL     1      -4.213  48.345 -26.193  1.00  0.00     0.213 C 
ENDBRANCH  28  30
ENDBRANCH   1  28
TORSDOF 7
ENDMDL
MODEL 8
REMARK minimizedAffinity -7.61066866
REMARK  7 active torsions:
REMARK  status: ('A' for Active; 'I' for Inactive)
REMARK    1  A    between atoms: O1_2  and  C2_3 
REMARK    2  A    between atoms: C2_3  and  C3_5 
REMARK    3  A    between atoms: C17_20  and  C18_21 
REMARK    4  A    between atoms: C18_21  and  O5_23 
REMARK    5  A    between atoms: O5_23  and  C19_24 
REMARK    6  A    between atoms: C19_24  and  C20_25 
REMARK    7  A    between atoms: C20_25  and  N1_26 
ROOT
HETATM    1  C3  UNL     1      -2.367  50.054 -24.944  1.00  0.00     0.049 C 
HETATM    2  C4  UNL     1      -2.434  48.603 -25.469  1.00  0.00     0.026 C 
HETATM    3  C5  UNL     1      -1.351  50.836 -25.815  1.00  0.00     0.020 C 
HETATM    4  C6  UNL     1      -1.135  52.257 -25.310  1.00  0.00     0.002 C 
HETATM    5  C7  UNL     1      -0.599  52.259 -23.883  1.00  0.00     0.010 C 
HETATM    6  C8  UNL     1      -1.476  51.470 -22.861  1.00  0.00    -0.034 C 
HETATM    7  C9  UNL     1      -2.721  52.330 -22.541  1.00  0.00     0.016 C 
HETATM    8  C10 UNL     1      -1.837  50.065 -23.460  1.00  0.00     0.019 C 
HETATM    9  C11 UNL     1      -2.656  49.193 -22.490  1.00  0.00     0.085 C 
HETATM   10  C12 UNL     1      -2.466  49.576 -21.041  1.00  0.00     0.132 C 
HETATM   11  O3  UNL     1      -3.383  49.400 -20.235  1.00  0.00    -0.298 OA
HETATM   12  C13 UNL     1      -1.084  50.074 -20.623  1.00  0.00     0.068 C 
HETATM   13  C14 UNL     1      -1.047  50.367 -19.085  1.00  0.00     0.022 C 
HETATM   14  C15 UNL     1      -0.991  49.018 -18.328  1.00  0.00     0.015 C 
HETATM   15  C16 UNL     1       0.062  51.314 -18.604  1.00  0.00    -0.070 C 
HETATM   16  C17 UNL     1       0.331  51.468 -17.287  1.00  0.00     0.085 C 
HETATM   17  C23 UNL     1       0.730  52.160 -19.660  1.00  0.00     0.035 C 
HETATM   18  C24 UNL     1      -0.251  52.495 -20.777  1.00  0.00     0.010 C 
HETATM   19  C25 UNL     1      -0.607  51.222 -21.557  1.00  0.00     0.006 C 
ENDROOT
BRANCH  16  20
HETATM   20  C18 UNL     1       1.359  52.338 -16.676  1.00  0.00     0.283 C 
HETATM   21  O4  UNL     1       2.330  52.746 -17.300  1.00  0.00    -0.260 OA
BRANCH  20  22
HETATM   22  O5  UNL     1       1.011  52.672 -15.409  1.00  0.00    -0.316 OA
BRANCH  22  23
HETATM   23  C19 UNL     1       0.377  51.627 -14.650  1.00  0.00     0.209 C 
BRANCH  23  24
HETATM   24  C20 UNL     1      -0.247  52.188 -13.359  1.00  0.00     0.298 C 
BRANCH  24  25
HETATM   25  N1  UNL     1      -1.722  52.138 -13.325  1.00  0.00     0.082 N 
HETATM   26  C21 UNL     1      -2.246  50.968 -14.033  1.00  0.00     0.309 C 
HETATM   27  C22 UNL     1      -2.188  52.118 -11.935  1.00  0.00     0.309 C 
ENDBRANCH  24  25
ENDBRANCH  23  24
ENDBRANCH  22  23
ENDBRANCH  20  22
ENDBRANCH  16  20
BRANCH   1  28
HETATM   28  C2  UNL     1      -3.793  50.618 -25.127  1.00  0.00     0.267 C 
HETATM   29  O2  UNL     1      -4.058  51.765 -25.461  1.00  0.00    -0.264 OA
BRANCH  28  30
HETATM   30  O1  UNL     1      -4.741  49.691 -24.808  1.00  0.00    -0.326 OA
HETATM   31  C1  UNL     1      -5.719  50.141 -23.867  1.00  0.00     0.213 C 
ENDBRANCH  28  30
ENDBRANCH   1  28
TORSDOF 7
ENDMDL
MODEL 9
REMARK minimizedAffinity -7.59690714
REMARK  7 active torsions:
REMARK  status: ('A' for Active; 'I' for Inactive)
REMARK    1  A    between atoms: O1_2  and  C2_3 
REMARK    2  A    between atoms: C2_3  and  C3_5 
REMARK    3  A    between atoms: C17_20  and  C18_21 
REMARK    4  A    between atoms: C18_21  and  O5_23 
REMARK    5  A    between atoms: O5_23  and  C19_24 
REMARK    6  A    between atoms: C19_24  and  C20_25 
REMARK    7  A    between atoms: C20_25  and  N1_26 
ROOT
HETATM    1  C3  UNL     1      -0.910  50.458 -21.176  1.00  0.00     0.049 C 
HETATM    2  C4  UNL     1       0.471  51.146 -21.091  1.00  0.00     0.026 C 
HETATM    3  C5  UNL     1      -0.763  49.014 -20.633  1.00  0.00     0.020 C 
HETATM    4  C6  UNL     1      -2.053  48.215 -20.771  1.00  0.00     0.002 C 
HETATM    5  C7  UNL     1      -2.480  48.105 -22.230  1.00  0.00     0.010 C 
HETATM    6  C8  UNL     1      -2.633  49.473 -22.964  1.00  0.00    -0.034 C 
HETATM    7  C9  UNL     1      -3.952  50.124 -22.485  1.00  0.00     0.016 C 
HETATM    8  C10 UNL     1      -1.371  50.363 -22.680  1.00  0.00     0.019 C 
HETATM    9  C11 UNL     1      -1.412  51.714 -23.417  1.00  0.00     0.085 C 
HETATM   10  C12 UNL     1      -2.290  51.696 -24.646  1.00  0.00     0.132 C 
HETATM   11  O3  UNL     1      -2.859  52.728 -25.008  1.00  0.00    -0.298 OA
HETATM   12  C13 UNL     1      -2.344  50.398 -25.449  1.00  0.00     0.068 C 
HETATM   13  C14 UNL     1      -3.248  50.573 -26.716  1.00  0.00     0.022 C 
HETATM   14  C15 UNL     1      -2.471  51.403 -27.765  1.00  0.00     0.015 C 
HETATM   15  C16 UNL     1      -3.798  49.280 -27.336  1.00  0.00    -0.070 C 
HETATM   16  C17 UNL     1      -4.403  49.285 -28.547  1.00  0.00     0.085 C 
HETATM   17  C23 UNL     1      -3.756  48.046 -26.469  1.00  0.00     0.035 C 
HETATM   18  C24 UNL     1      -3.912  48.419 -25.000  1.00  0.00     0.010 C 
HETATM   19  C25 UNL     1      -2.675  49.191 -24.525  1.00  0.00     0.006 C 
ENDROOT
BRANCH  16  20
HETATM   20  C18 UNL     1      -4.979  48.129 -29.268  1.00  0.00     0.283 C 
HETATM   21  O4  UNL     1      -4.549  47.749 -30.349  1.00  0.00    -0.260 OA
BRANCH  20  22
HETATM   22  O5  UNL     1      -5.943  47.533 -28.524  1.00  0.00    -0.316 OA
BRANCH  22  23
HETATM   23  C19 UNL     1      -7.284  47.994 -28.772  1.00  0.00     0.209 C 
BRANCH  23  24
HETATM   24  C20 UNL     1      -8.043  47.011 -29.681  1.00  0.00     0.298 C 
BRANCH  24  25
HETATM   25  N1  UNL     1      -8.941  47.657 -30.659  1.00  0.00     0.082 N 
HETATM   26  C21 UNL     1      -8.249  48.684 -31.441  1.00  0.00     0.309 C 
HETATM   27  C22 UNL     1      -9.501  46.648 -31.563  1.00  0.00     0.309 C 
ENDBRANCH  24  25
ENDBRANCH  23  24
ENDBRANCH  22  23
ENDBRANCH  20  22
ENDBRANCH  16  20
BRANCH   1  28
HETATM   28  C2  UNL     1      -1.836  51.294 -20.267  1.00  0.00     0.267 C 
HETATM   29  O2  UNL     1      -3.024  51.505 -20.476  1.00  0.00    -0.264 OA
BRANCH  28  30
HETATM   30  O1  UNL     1      -1.152  51.832 -19.217  1.00  0.00    -0.326 OA
HETATM   31  C1  UNL     1      -1.505  51.294 -17.940  1.00  0.00     0.213 C 
ENDBRANCH  28  30
ENDBRANCH   1  28
TORSDOF 7
ENDMDL
