MODEL 1
REMARK minimizedAffinity -9.27416229
REMARK CNNscore 0.416586012
REMARK CNNaffinity 6.36935282
REMARK  13 active torsions:
REMARK  status: ('A' for Active; 'I' for Inactive)
REMARK    1  A    between atoms: C3_3  and  O1_4 
REMARK    2  A    between atoms: N1_14  and  O2_16 
REMARK    3  A    between atoms: O2_16  and  C13_17 
REMARK    4  A    between atoms: C13_17  and  C14_18 
REMARK       I    between atoms: C14_18  and  N2_20 
REMARK    5  A    between atoms: N2_20  and  C15_21 
REMARK    6  A    between atoms: C15_21  and  C16_22 
REMARK    7  A    between atoms: C15_21  and  C21_33 
REMARK       I    between atoms: C16_22  and  N3_24 
REMARK    8  A    between atoms: N3_24  and  C17_25 
REMARK    9  A    between atoms: C17_25  and  C18_26 
REMARK   10  A    between atoms: C17_25  and  C20_30 
REMARK   11  A    between atoms: C18_26  and  C19_27 
REMARK   12  A    between atoms: C19_27  and  O6_29 
REMARK   13  A    between atoms: C20_30  and  O8_32 
ROOT
HETATM    1  C1  UNL     1       2.023  51.898 -26.157  1.00  0.00     0.015 C 
HETATM    2  C2  UNL     1       0.854  52.170 -26.166  1.00  0.00    -0.078 C 
HETATM    3  C3  UNL     1      -0.585  52.518 -26.175  1.00  0.00     0.128 C 
HETATM    4  C4  UNL     1      -1.208  52.142 -27.529  1.00  0.00     0.052 C 
HETATM    5  C5  UNL     1      -1.786  50.728 -27.351  1.00  0.00     0.010 C 
HETATM    6  C6  UNL     1      -1.562  50.341 -25.875  1.00  0.00     0.002 C 
HETATM    7  C7  UNL     1      -2.558  49.341 -25.230  1.00  0.00    -0.004 C 
HETATM    8  C8  UNL     1      -2.967  48.208 -26.197  1.00  0.00     0.010 C 
HETATM    9  C9  UNL     1      -4.380  48.352 -26.750  1.00  0.00     0.035 C 
HETATM   10  C10 UNL     1      -5.425  48.487 -25.673  1.00  0.00    -0.069 C 
HETATM   11  C11 UNL     1      -6.695  48.132 -25.939  1.00  0.00     0.030 C 
HETATM   12  C12 UNL     1      -7.785  48.264 -24.937  1.00  0.00     0.032 C 
HETATM   13  N1  UNL     1      -8.963  47.814 -25.261  1.00  0.00    -0.271 N 
ATOM     14  H1  UNL     1      -9.188  47.395 -26.163  1.00  0.00     0.194 HD
HETATM   15  C24 UNL     1      -7.459  48.901 -23.596  1.00  0.00     0.060 C 
HETATM   16  C25 UNL     1      -6.211  49.777 -23.690  1.00  0.00     0.020 C 
HETATM   17  C26 UNL     1      -4.994  49.046 -24.322  1.00  0.00    -0.016 C 
HETATM   18  C27 UNL     1      -4.607  47.873 -23.378  1.00  0.00     0.020 C 
HETATM   19  C28 UNL     1      -3.750  50.003 -24.466  1.00  0.00     0.002 C 
HETATM   20  C29 UNL     1      -4.047  51.396 -25.042  1.00  0.00     0.007 C 
HETATM   21  C30 UNL     1      -2.850  52.352 -24.957  1.00  0.00     0.014 C 
HETATM   22  C31 UNL     1      -1.446  51.703 -25.157  1.00  0.00     0.003 C 
HETATM   23  C32 UNL     1      -0.762  51.578 -23.781  1.00  0.00     0.020 C 
ENDROOT
BRANCH   3  24
HETATM   24  O1  UNL     1      -0.697  53.916 -25.948  1.00  0.00    -0.377 OA
HETATM   25  H2  UNL     1      -0.123  54.354 -26.599  1.00  0.00     0.211 HD
ENDBRANCH   3  24
BRANCH  13  26
HETATM   26  O2  UNL     1      -9.884  47.976 -24.215  1.00  0.00    -0.271 OA
BRANCH  26  27
HETATM   27  C13 UNL     1     -10.310  46.689 -23.783  1.00  0.00     0.303 C 
BRANCH  27  28
HETATM   28  C14 UNL     1     -11.383  46.138 -24.716  1.00  0.00     0.244 C 
HETATM   29  O3  UNL     1     -11.329  44.999 -25.181  1.00  0.00    -0.271 OA
HETATM   30  N2  UNL     1     -12.431  47.000 -24.965  1.00  0.00    -0.346 N 
HETATM   31  H16 UNL     1     -12.553  47.740 -24.278  1.00  0.00     0.163 HD
BRANCH  30  32
HETATM   32  C15 UNL     1     -13.644  46.526 -25.630  1.00  0.00     0.180 C 
BRANCH  32  33
HETATM   33  C16 UNL     1     -14.835  46.861 -24.704  1.00  0.00     0.241 C 
HETATM   34  O4  UNL     1     -14.805  47.795 -23.903  1.00  0.00    -0.271 OA
HETATM   35  N3  UNL     1     -15.935  46.045 -24.851  1.00  0.00    -0.344 N 
HETATM   36  H18 UNL     1     -16.004  45.486 -25.697  1.00  0.00     0.163 HD
BRANCH  35  37
HETATM   37  C17 UNL     1     -17.200  46.342 -24.174  1.00  0.00     0.192 C 
BRANCH  37  38
HETATM   38  C18 UNL     1     -17.452  45.391 -23.007  1.00  0.00     0.146 C 
BRANCH  38  39
HETATM   39  C19 UNL     1     -17.708  46.133 -21.728  1.00  0.00     0.141 C 
HETATM   40  O5  UNL     1     -16.887  46.391 -20.863  1.00  0.00    -0.650 OA
BRANCH  39  41
HETATM   41  O6  UNL     1     -18.982  46.555 -21.621  1.00  0.00    -0.776 OA
HETATM   42  H22 UNL     1     -19.011  47.053 -20.777  1.00  0.00     0.167 HD
ENDBRANCH  39  41
ENDBRANCH  38  39
ENDBRANCH  37  38
BRANCH  37  43
HETATM   43  C20 UNL     1     -18.356  46.315 -25.180  1.00  0.00     0.164 C 
HETATM   44  O7  UNL     1     -18.416  45.679 -26.221  1.00  0.00    -0.648 OA
BRANCH  43  45
HETATM   45  O8  UNL     1     -19.383  47.115 -24.820  1.00  0.00    -0.775 OA
HETATM   46  H23 UNL     1     -20.014  47.029 -25.566  1.00  0.00     0.167 HD
ENDBRANCH  43  45
ENDBRANCH  37  43
ENDBRANCH  35  37
ENDBRANCH  32  33
BRANCH  32  47
HETATM   47  C21 UNL     1     -13.769  47.138 -27.044  1.00  0.00     0.009 C 
HETATM   48  C22 UNL     1     -12.502  47.891 -27.458  1.00  0.00     0.012 C 
HETATM   49  C23 UNL     1     -14.151  46.123 -28.124  1.00  0.00     0.012 C 
ENDBRANCH  32  47
ENDBRANCH  30  32
ENDBRANCH  27  28
ENDBRANCH  26  27
ENDBRANCH  13  26
TORSDOF 13
ENDMDL
MODEL 2
REMARK minimizedAffinity -7.63795519
REMARK CNNscore 0.336765409
REMARK CNNaffinity 6.12342691
REMARK  13 active torsions:
REMARK  status: ('A' for Active; 'I' for Inactive)
REMARK    1  A    between atoms: C3_3  and  O1_4 
REMARK    2  A    between atoms: N1_14  and  O2_16 
REMARK    3  A    between atoms: O2_16  and  C13_17 
REMARK    4  A    between atoms: C13_17  and  C14_18 
REMARK       I    between atoms: C14_18  and  N2_20 
REMARK    5  A    between atoms: N2_20  and  C15_21 
REMARK    6  A    between atoms: C15_21  and  C16_22 
REMARK    7  A    between atoms: C15_21  and  C21_33 
REMARK       I    between atoms: C16_22  and  N3_24 
REMARK    8  A    between atoms: N3_24  and  C17_25 
REMARK    9  A    between atoms: C17_25  and  C18_26 
REMARK   10  A    between atoms: C17_25  and  C20_30 
REMARK   11  A    between atoms: C18_26  and  C19_27 
REMARK   12  A    between atoms: C19_27  and  O6_29 
REMARK   13  A    between atoms: C20_30  and  O8_32 
ROOT
HETATM    1  C1  UNL     1      -3.108  48.599 -23.206  1.00  0.00     0.015 C 
HETATM    2  C2  UNL     1      -2.867  49.547 -22.508  1.00  0.00    -0.078 C 
HETATM    3  C3  UNL     1      -2.569  50.722 -21.658  1.00  0.00     0.128 C 
HETATM    4  C4  UNL     1      -3.810  51.107 -20.838  1.00  0.00     0.052 C 
HETATM    5  C5  UNL     1      -3.668  50.383 -19.489  1.00  0.00     0.010 C 
HETATM    6  C6  UNL     1      -2.307  49.656 -19.518  1.00  0.00     0.002 C 
HETATM    7  C7  UNL     1      -1.588  49.413 -18.165  1.00  0.00    -0.004 C 
HETATM    8  C8  UNL     1      -2.569  49.021 -17.037  1.00  0.00     0.010 C 
HETATM    9  C9  UNL     1      -2.825  50.135 -16.030  1.00  0.00     0.035 C 
HETATM   10  C10 UNL     1      -1.562  50.684 -15.420  1.00  0.00    -0.069 C 
HETATM   11  C11 UNL     1      -1.616  51.279 -14.215  1.00  0.00     0.030 C 
HETATM   12  C12 UNL     1      -0.417  51.869 -13.564  1.00  0.00     0.032 C 
HETATM   13  N1  UNL     1      -0.555  52.344 -12.360  1.00  0.00    -0.271 N 
ATOM     14  H1  UNL     1      -1.435  52.355 -11.845  1.00  0.00     0.194 HD
HETATM   15  C24 UNL     1       0.894  51.870 -14.332  1.00  0.00     0.060 C 
HETATM   16  C25 UNL     1       0.653  51.750 -15.836  1.00  0.00     0.020 C 
HETATM   17  C26 UNL     1      -0.269  50.558 -16.217  1.00  0.00    -0.016 C 
HETATM   18  C27 UNL     1       0.463  49.248 -15.809  1.00  0.00     0.020 C 
HETATM   19  C28 UNL     1      -0.550  50.512 -17.767  1.00  0.00     0.002 C 
HETATM   20  C29 UNL     1      -0.917  51.855 -18.416  1.00  0.00     0.007 C 
HETATM   21  C30 UNL     1      -0.965  51.793 -19.948  1.00  0.00     0.014 C 
HETATM   22  C31 UNL     1      -1.492  50.456 -20.557  1.00  0.00     0.003 C 
HETATM   23  C32 UNL     1      -0.290  49.654 -21.095  1.00  0.00     0.020 C 
ENDROOT
BRANCH   3  24
HETATM   24  O1  UNL     1      -2.186  51.791 -22.512  1.00  0.00    -0.377 OA
HETATM   25  H2  UNL     1      -2.886  51.884 -23.180  1.00  0.00     0.211 HD
ENDBRANCH   3  24
BRANCH  13  26
HETATM   26  O2  UNL     1       0.657  52.842 -11.858  1.00  0.00    -0.271 OA
BRANCH  26  27
HETATM   27  C13 UNL     1       0.416  54.115 -11.271  1.00  0.00     0.303 C 
BRANCH  27  28
HETATM   28  C14 UNL     1       1.552  54.492 -10.325  1.00  0.00     0.244 C 
HETATM   29  O3  UNL     1       1.394  54.582  -9.108  1.00  0.00    -0.271 OA
HETATM   30  N2  UNL     1       2.774  54.685 -10.938  1.00  0.00    -0.346 N 
HETATM   31  H16 UNL     1       2.870  54.252 -11.852  1.00  0.00     0.163 HD
BRANCH  30  32
HETATM   32  C15 UNL     1       3.995  54.803 -10.143  1.00  0.00     0.180 C 
BRANCH  32  33
HETATM   33  C16 UNL     1       3.769  55.941  -9.122  1.00  0.00     0.241 C 
HETATM   34  O4  UNL     1       3.629  57.114  -9.464  1.00  0.00    -0.271 OA
HETATM   35  N3  UNL     1       3.723  55.541  -7.804  1.00  0.00    -0.344 N 
HETATM   36  H18 UNL     1       3.568  54.555  -7.610  1.00  0.00     0.163 HD
BRANCH  35  37
HETATM   37  C17 UNL     1       3.343  56.472  -6.739  1.00  0.00     0.192 C 
BRANCH  37  38
HETATM   38  C18 UNL     1       2.166  57.352  -7.151  1.00  0.00     0.146 C 
BRANCH  38  39
HETATM   39  C19 UNL     1       0.908  56.978  -6.422  1.00  0.00     0.141 C 
HETATM   40  O5  UNL     1      -0.163  56.685  -6.929  1.00  0.00    -0.650 OA
BRANCH  39  41
HETATM   41  O6  UNL     1       1.073  56.949  -5.087  1.00  0.00    -0.776 OA
HETATM   42  H22 UNL     1       0.207  56.656  -4.733  1.00  0.00     0.167 HD
ENDBRANCH  39  41
ENDBRANCH  38  39
ENDBRANCH  37  38
BRANCH  37  43
HETATM   43  C20 UNL     1       4.553  57.314  -6.318  1.00  0.00     0.164 C 
HETATM   44  O7  UNL     1       5.684  57.264  -6.776  1.00  0.00    -0.648 OA
BRANCH  43  45
HETATM   45  O8  UNL     1       4.270  58.175  -5.317  1.00  0.00    -0.775 OA
HETATM   46  H23 UNL     1       5.132  58.603  -5.131  1.00  0.00     0.167 HD
ENDBRANCH  43  45
ENDBRANCH  37  43
ENDBRANCH  35  37
ENDBRANCH  32  33
BRANCH  32  47
HETATM   47  C21 UNL     1       4.357  53.449  -9.490  1.00  0.00     0.009 C 
HETATM   48  C22 UNL     1       3.845  52.261 -10.308  1.00  0.00     0.012 C 
HETATM   49  C23 UNL     1       5.852  53.282  -9.205  1.00  0.00     0.012 C 
ENDBRANCH  32  47
ENDBRANCH  30  32
ENDBRANCH  27  28
ENDBRANCH  26  27
ENDBRANCH  13  26
TORSDOF 13
ENDMDL
MODEL 3
REMARK minimizedAffinity -7.68643951
REMARK CNNscore 0.315821499
REMARK CNNaffinity 5.83642817
REMARK  13 active torsions:
REMARK  status: ('A' for Active; 'I' for Inactive)
REMARK    1  A    between atoms: C3_3  and  O1_4 
REMARK    2  A    between atoms: N1_14  and  O2_16 
REMARK    3  A    between atoms: O2_16  and  C13_17 
REMARK    4  A    between atoms: C13_17  and  C14_18 
REMARK       I    between atoms: C14_18  and  N2_20 
REMARK    5  A    between atoms: N2_20  and  C15_21 
REMARK    6  A    between atoms: C15_21  and  C16_22 
REMARK    7  A    between atoms: C15_21  and  C21_33 
REMARK       I    between atoms: C16_22  and  N3_24 
REMARK    8  A    between atoms: N3_24  and  C17_25 
REMARK    9  A    between atoms: C17_25  and  C18_26 
REMARK   10  A    between atoms: C17_25  and  C20_30 
REMARK   11  A    between atoms: C18_26  and  C19_27 
REMARK   12  A    between atoms: C19_27  and  O6_29 
REMARK   13  A    between atoms: C20_30  and  O8_32 
ROOT
HETATM    1  C1  UNL     1      -4.347  48.353 -34.150  1.00  0.00     0.015 C 
HETATM    2  C2  UNL     1      -4.821  47.518 -33.427  1.00  0.00    -0.078 C 
HETATM    3  C3  UNL     1      -5.399  46.481 -32.543  1.00  0.00     0.128 C 
HETATM    4  C4  UNL     1      -4.934  46.706 -31.095  1.00  0.00     0.052 C 
HETATM    5  C5  UNL     1      -6.025  47.558 -30.427  1.00  0.00     0.010 C 
HETATM    6  C6  UNL     1      -7.144  47.744 -31.474  1.00  0.00     0.002 C 
HETATM    7  C7  UNL     1      -8.592  47.951 -30.956  1.00  0.00    -0.004 C 
HETATM    8  C8  UNL     1      -8.647  48.853 -29.703  1.00  0.00     0.010 C 
HETATM    9  C9  UNL     1      -8.920  48.095 -28.410  1.00  0.00     0.035 C 
HETATM   10  C10 UNL     1     -10.168  47.252 -28.471  1.00  0.00    -0.069 C 
HETATM   11  C11 UNL     1     -10.805  46.935 -27.329  1.00  0.00     0.030 C 
HETATM   12  C12 UNL     1     -12.025  46.085 -27.309  1.00  0.00     0.032 C 
HETATM   13  N1  UNL     1     -12.618  45.906 -26.163  1.00  0.00    -0.271 N 
ATOM     14  H1  UNL     1     -12.289  46.295 -25.280  1.00  0.00     0.194 HD
HETATM   15  C24 UNL     1     -12.512  45.490 -28.619  1.00  0.00     0.060 C 
HETATM   16  C25 UNL     1     -11.384  45.422 -29.648  1.00  0.00     0.020 C 
HETATM   17  C26 UNL     1     -10.645  46.775 -29.838  1.00  0.00    -0.016 C 
HETATM   18  C27 UNL     1     -11.669  47.795 -30.412  1.00  0.00     0.020 C 
HETATM   19  C28 UNL     1      -9.445  46.646 -30.853  1.00  0.00     0.002 C 
HETATM   20  C29 UNL     1      -8.534  45.426 -30.651  1.00  0.00     0.007 C 
HETATM   21  C30 UNL     1      -7.523  45.232 -31.788  1.00  0.00     0.014 C 
HETATM   22  C31 UNL     1      -6.955  46.541 -32.422  1.00  0.00     0.003 C 
HETATM   23  C32 UNL     1      -7.640  46.763 -33.785  1.00  0.00     0.020 C 
ENDROOT
BRANCH   3  24
HETATM   24  O1  UNL     1      -4.961  45.214 -33.014  1.00  0.00    -0.377 OA
HETATM   25  H2  UNL     1      -3.993  45.258 -33.085  1.00  0.00     0.211 HD
ENDBRANCH   3  24
BRANCH  13  26
HETATM   26  O2  UNL     1     -13.766  45.111 -26.294  1.00  0.00    -0.271 OA
BRANCH  26  27
HETATM   27  C13 UNL     1     -13.934  44.357 -25.100  1.00  0.00     0.303 C 
BRANCH  27  28
HETATM   28  C14 UNL     1     -15.177  44.817 -24.345  1.00  0.00     0.244 C 
HETATM   29  O3  UNL     1     -15.736  44.112 -23.506  1.00  0.00    -0.271 OA
HETATM   30  N2  UNL     1     -15.597  46.096 -24.650  1.00  0.00    -0.346 N 
HETATM   31  H16 UNL     1     -14.889  46.695 -25.066  1.00  0.00     0.163 HD
BRANCH  30  32
HETATM   32  C15 UNL     1     -16.612  46.761 -23.834  1.00  0.00     0.180 C 
BRANCH  32  33
HETATM   33  C16 UNL     1     -17.991  46.386 -24.422  1.00  0.00     0.241 C 
HETATM   34  O4  UNL     1     -18.766  47.229 -24.873  1.00  0.00    -0.271 OA
HETATM   35  N3  UNL     1     -18.281  45.039 -24.415  1.00  0.00    -0.344 N 
HETATM   36  H18 UNL     1     -17.512  44.386 -24.292  1.00  0.00     0.163 HD
BRANCH  35  37
HETATM   37  C17 UNL     1     -19.467  44.512 -25.093  1.00  0.00     0.192 C 
BRANCH  37  38
HETATM   38  C18 UNL     1     -20.034  43.292 -24.373  1.00  0.00     0.146 C 
BRANCH  38  39
HETATM   39  C19 UNL     1     -20.724  43.670 -23.095  1.00  0.00     0.141 C 
HETATM   40  O5  UNL     1     -20.348  44.506 -22.289  1.00  0.00    -0.650 OA
BRANCH  39  41
HETATM   41  O6  UNL     1     -21.881  43.006 -22.914  1.00  0.00    -0.776 OA
HETATM   42  H22 UNL     1     -22.249  43.365 -22.080  1.00  0.00     0.167 HD
ENDBRANCH  39  41
ENDBRANCH  38  39
ENDBRANCH  37  38
BRANCH  37  43
HETATM   43  C20 UNL     1     -19.140  44.198 -26.558  1.00  0.00     0.164 C 
HETATM   44  O7  UNL     1     -18.945  43.099 -27.053  1.00  0.00    -0.648 OA
BRANCH  43  45
HETATM   45  O8  UNL     1     -19.063  45.305 -27.327  1.00  0.00    -0.775 OA
HETATM   46  H23 UNL     1     -18.810  44.956 -28.208  1.00  0.00     0.167 HD
ENDBRANCH  43  45
ENDBRANCH  37  43
ENDBRANCH  35  37
ENDBRANCH  32  33
BRANCH  32  47
HETATM   47  C21 UNL     1     -16.451  46.382 -22.343  1.00  0.00     0.009 C 
HETATM   48  C22 UNL     1     -15.279  47.115 -21.687  1.00  0.00     0.012 C 
HETATM   49  C23 UNL     1     -17.723  46.583 -21.516  1.00  0.00     0.012 C 
ENDBRANCH  32  47
ENDBRANCH  30  32
ENDBRANCH  27  28
ENDBRANCH  26  27
ENDBRANCH  13  26
TORSDOF 13
ENDMDL
MODEL 4
REMARK minimizedAffinity -7.6416564
REMARK CNNscore 0.305214584
REMARK CNNaffinity 5.70529747
REMARK  13 active torsions:
REMARK  status: ('A' for Active; 'I' for Inactive)
REMARK    1  A    between atoms: C3_3  and  O1_4 
REMARK    2  A    between atoms: N1_14  and  O2_16 
REMARK    3  A    between atoms: O2_16  and  C13_17 
REMARK    4  A    between atoms: C13_17  and  C14_18 
REMARK       I    between atoms: C14_18  and  N2_20 
REMARK    5  A    between atoms: N2_20  and  C15_21 
REMARK    6  A    between atoms: C15_21  and  C16_22 
REMARK    7  A    between atoms: C15_21  and  C21_33 
REMARK       I    between atoms: C16_22  and  N3_24 
REMARK    8  A    between atoms: N3_24  and  C17_25 
REMARK    9  A    between atoms: C17_25  and  C18_26 
REMARK   10  A    between atoms: C17_25  and  C20_30 
REMARK   11  A    between atoms: C18_26  and  C19_27 
REMARK   12  A    between atoms: C19_27  and  O6_29 
REMARK   13  A    between atoms: C20_30  and  O8_32 
ROOT
HETATM    1  C1  UNL     1      -5.257  46.986 -33.333  1.00  0.00     0.015 C 
HETATM    2  C2  UNL     1      -5.598  47.230 -32.207  1.00  0.00    -0.078 C 
HETATM    3  C3  UNL     1      -6.006  47.531 -30.816  1.00  0.00     0.128 C 
HETATM    4  C4  UNL     1      -6.786  48.855 -30.772  1.00  0.00     0.052 C 
HETATM    5  C5  UNL     1      -8.272  48.474 -30.883  1.00  0.00     0.010 C 
HETATM    6  C6  UNL     1      -8.333  46.932 -30.906  1.00  0.00     0.002 C 
HETATM    7  C7  UNL     1      -9.615  46.251 -30.358  1.00  0.00    -0.004 C 
HETATM    8  C8  UNL     1     -10.902  47.010 -30.753  1.00  0.00     0.010 C 
HETATM    9  C9  UNL     1     -11.533  47.789 -29.606  1.00  0.00     0.035 C 
HETATM   10  C10 UNL     1     -11.812  46.936 -28.395  1.00  0.00    -0.069 C 
HETATM   11  C11 UNL     1     -12.772  47.313 -27.531  1.00  0.00     0.030 C 
HETATM   12  C12 UNL     1     -13.083  46.538 -26.301  1.00  0.00     0.032 C 
HETATM   13  N1  UNL     1     -14.087  46.936 -25.574  1.00  0.00    -0.271 N 
ATOM     14  H1  UNL     1     -14.659  47.753 -25.784  1.00  0.00     0.194 HD
HETATM   15  C24 UNL     1     -12.225  45.328 -25.974  1.00  0.00     0.060 C 
HETATM   16  C25 UNL     1     -10.865  45.412 -26.665  1.00  0.00     0.020 C 
HETATM   17  C26 UNL     1     -10.968  45.684 -28.192  1.00  0.00    -0.016 C 
HETATM   18  C27 UNL     1     -11.687  44.466 -28.839  1.00  0.00     0.020 C 
HETATM   19  C28 UNL     1      -9.545  45.835 -28.854  1.00  0.00     0.002 C 
HETATM   20  C29 UNL     1      -8.552  46.729 -28.097  1.00  0.00     0.007 C 
HETATM   21  C30 UNL     1      -7.128  46.665 -28.664  1.00  0.00     0.014 C 
HETATM   22  C31 UNL     1      -7.021  46.508 -30.213  1.00  0.00     0.003 C 
HETATM   23  C32 UNL     1      -6.641  45.049 -30.533  1.00  0.00     0.020 C 
ENDROOT
BRANCH   3  24
HETATM   24  O1  UNL     1      -4.828  47.623 -30.027  1.00  0.00    -0.377 OA
HETATM   25  H2  UNL     1      -4.239  48.255 -30.471  1.00  0.00     0.211 HD
ENDBRANCH   3  24
BRANCH  13  26
HETATM   26  O2  UNL     1     -14.285  46.101 -24.464  1.00  0.00    -0.271 OA
BRANCH  26  27
HETATM   27  C13 UNL     1     -14.634  46.908 -23.346  1.00  0.00     0.303 C 
BRANCH  27  28
HETATM   28  C14 UNL     1     -15.590  46.160 -22.422  1.00  0.00     0.244 C 
HETATM   29  O3  UNL     1     -15.599  44.932 -22.339  1.00  0.00    -0.271 OA
HETATM   30  N2  UNL     1     -16.412  46.969 -21.665  1.00  0.00    -0.346 N 
HETATM   31  H16 UNL     1     -16.088  47.925 -21.549  1.00  0.00     0.163 HD
BRANCH  30  32
HETATM   32  C15 UNL     1     -17.196  46.411 -20.564  1.00  0.00     0.180 C 
BRANCH  32  33
HETATM   33  C16 UNL     1     -18.527  45.901 -21.161  1.00  0.00     0.241 C 
HETATM   34  O4  UNL     1     -19.564  45.840 -20.502  1.00  0.00    -0.271 OA
HETATM   35  N3  UNL     1     -18.468  45.534 -22.488  1.00  0.00    -0.344 N 
HETATM   36  H18 UNL     1     -17.678  45.860 -23.038  1.00  0.00     0.163 HD
BRANCH  35  37
HETATM   37  C17 UNL     1     -19.679  45.198 -23.240  1.00  0.00     0.192 C 
BRANCH  37  38
HETATM   38  C18 UNL     1     -19.923  43.691 -23.275  1.00  0.00     0.146 C 
BRANCH  38  39
HETATM   39  C19 UNL     1     -21.124  43.302 -22.464  1.00  0.00     0.141 C 
HETATM   40  O5  UNL     1     -22.182  42.873 -22.896  1.00  0.00    -0.650 OA
BRANCH  39  41
HETATM   41  O6  UNL     1     -20.918  43.429 -21.140  1.00  0.00    -0.776 OA
HETATM   42  H22 UNL     1     -21.746  43.110 -20.725  1.00  0.00     0.167 HD
ENDBRANCH  39  41
ENDBRANCH  38  39
ENDBRANCH  37  38
BRANCH  37  43
HETATM   43  C20 UNL     1     -19.602  45.788 -24.653  1.00  0.00     0.164 C 
HETATM   44  O7  UNL     1     -19.574  46.968 -24.961  1.00  0.00    -0.648 OA
BRANCH  43  45
HETATM   45  O8  UNL     1     -19.580  44.840 -25.616  1.00  0.00    -0.775 OA
HETATM   46  H23 UNL     1     -19.574  45.359 -26.448  1.00  0.00     0.167 HD
ENDBRANCH  43  45
ENDBRANCH  37  43
ENDBRANCH  35  37
ENDBRANCH  32  33
BRANCH  32  47
HETATM   47  C21 UNL     1     -16.395  45.319 -19.818  1.00  0.00     0.009 C 
HETATM   48  C22 UNL     1     -15.485  45.910 -18.738  1.00  0.00     0.012 C 
HETATM   49  C23 UNL     1     -17.268  44.214 -19.219  1.00  0.00     0.012 C 
ENDBRANCH  32  47
ENDBRANCH  30  32
ENDBRANCH  27  28
ENDBRANCH  26  27
ENDBRANCH  13  26
TORSDOF 13
ENDMDL
MODEL 5
REMARK minimizedAffinity -8.7043848
REMARK CNNscore 0.295393735
REMARK CNNaffinity 6.39360619
REMARK  13 active torsions:
REMARK  status: ('A' for Active; 'I' for Inactive)
REMARK    1  A    between atoms: C3_3  and  O1_4 
REMARK    2  A    between atoms: N1_14  and  O2_16 
REMARK    3  A    between atoms: O2_16  and  C13_17 
REMARK    4  A    between atoms: C13_17  and  C14_18 
REMARK       I    between atoms: C14_18  and  N2_20 
REMARK    5  A    between atoms: N2_20  and  C15_21 
REMARK    6  A    between atoms: C15_21  and  C16_22 
REMARK    7  A    between atoms: C15_21  and  C21_33 
REMARK       I    between atoms: C16_22  and  N3_24 
REMARK    8  A    between atoms: N3_24  and  C17_25 
REMARK    9  A    between atoms: C17_25  and  C18_26 
REMARK   10  A    between atoms: C17_25  and  C20_30 
REMARK   11  A    between atoms: C18_26  and  C19_27 
REMARK   12  A    between atoms: C19_27  and  O6_29 
REMARK   13  A    between atoms: C20_30  and  O8_32 
ROOT
HETATM    1  C1  UNL     1       1.745  51.863 -28.161  1.00  0.00     0.015 C 
HETATM    2  C2  UNL     1       0.806  52.295 -27.549  1.00  0.00    -0.078 C 
HETATM    3  C3  UNL     1      -0.348  52.839 -26.797  1.00  0.00     0.128 C 
HETATM    4  C4  UNL     1      -1.654  52.545 -27.552  1.00  0.00     0.052 C 
HETATM    5  C5  UNL     1      -2.191  51.226 -26.972  1.00  0.00     0.010 C 
HETATM    6  C6  UNL     1      -1.231  50.821 -25.833  1.00  0.00     0.002 C 
HETATM    7  C7  UNL     1      -1.808  49.973 -24.669  1.00  0.00    -0.004 C 
HETATM    8  C8  UNL     1      -2.809  48.902 -25.158  1.00  0.00     0.010 C 
HETATM    9  C9  UNL     1      -4.263  49.236 -24.855  1.00  0.00     0.035 C 
HETATM   10  C10 UNL     1      -4.515  49.522 -23.397  1.00  0.00    -0.069 C 
HETATM   11  C11 UNL     1      -5.750  49.345 -22.894  1.00  0.00     0.030 C 
HETATM   12  C12 UNL     1      -6.078  49.633 -21.473  1.00  0.00     0.032 C 
HETATM   13  N1  UNL     1      -7.280  49.348 -21.061  1.00  0.00    -0.271 N 
ATOM     14  H1  UNL     1      -8.013  48.959 -21.654  1.00  0.00     0.194 HD
HETATM   15  C24 UNL     1      -4.996  50.227 -20.588  1.00  0.00     0.060 C 
HETATM   16  C25 UNL     1      -3.920  50.921 -21.422  1.00  0.00     0.020 C 
HETATM   17  C26 UNL     1      -3.348  50.024 -22.555  1.00  0.00    -0.016 C 
HETATM   18  C27 UNL     1      -2.637  48.814 -21.884  1.00  0.00     0.020 C 
HETATM   19  C28 UNL     1      -2.294  50.799 -23.435  1.00  0.00     0.002 C 
HETATM   20  C29 UNL     1      -2.702  52.215 -23.866  1.00  0.00     0.007 C 
HETATM   21  C30 UNL     1      -1.560  52.997 -24.529  1.00  0.00     0.014 C 
HETATM   22  C31 UNL     1      -0.586  52.157 -25.412  1.00  0.00     0.003 C 
HETATM   23  C32 UNL     1       0.727  51.948 -24.630  1.00  0.00     0.020 C 
ENDROOT
BRANCH   3  24
HETATM   24  O1  UNL     1      -0.157  54.241 -26.662  1.00  0.00    -0.377 OA
HETATM   25  H2  UNL     1       0.005  54.591 -27.554  1.00  0.00     0.211 HD
ENDBRANCH   3  24
BRANCH  13  26
HETATM   26  O2  UNL     1      -7.443  49.643 -19.699  1.00  0.00    -0.271 OA
BRANCH  26  27
HETATM   27  C13 UNL     1      -7.394  48.427 -18.963  1.00  0.00     0.303 C 
BRANCH  27  28
HETATM   28  C14 UNL     1      -8.438  48.431 -17.851  1.00  0.00     0.244 C 
HETATM   29  O3  UNL     1      -9.154  49.407 -17.623  1.00  0.00    -0.271 OA
HETATM   30  N2  UNL     1      -8.541  47.246 -17.151  1.00  0.00    -0.346 N 
HETATM   31  H16 UNL     1      -8.178  46.429 -17.632  1.00  0.00     0.163 HD
BRANCH  30  32
HETATM   32  C15 UNL     1      -9.658  47.018 -16.234  1.00  0.00     0.180 C 
BRANCH  32  33
HETATM   33  C16 UNL     1     -10.850  46.516 -17.081  1.00  0.00     0.241 C 
HETATM   34  O4  UNL     1     -10.768  45.534 -17.817  1.00  0.00    -0.271 OA
HETATM   35  N3  UNL     1     -12.012  47.242 -16.939  1.00  0.00    -0.344 N 
HETATM   36  H18 UNL     1     -12.098  47.852 -16.130  1.00  0.00     0.163 HD
BRANCH  35  37
HETATM   37  C17 UNL     1     -13.271  46.790 -17.536  1.00  0.00     0.192 C 
BRANCH  37  38
HETATM   38  C18 UNL     1     -14.011  47.932 -18.227  1.00  0.00     0.146 C 
BRANCH  38  39
HETATM   39  C19 UNL     1     -13.309  48.375 -19.478  1.00  0.00     0.141 C 
HETATM   40  O5  UNL     1     -12.204  48.017 -19.855  1.00  0.00    -0.650 OA
BRANCH  39  41
HETATM   41  O6  UNL     1     -14.053  49.217 -20.219  1.00  0.00    -0.776 OA
HETATM   42  H22 UNL     1     -13.510  49.397 -21.015  1.00  0.00     0.167 HD
ENDBRANCH  39  41
ENDBRANCH  38  39
ENDBRANCH  37  38
BRANCH  37  43
HETATM   43  C20 UNL     1     -14.146  46.115 -16.474  1.00  0.00     0.164 C 
HETATM   44  O7  UNL     1     -14.317  46.473 -15.320  1.00  0.00    -0.648 OA
BRANCH  43  45
HETATM   45  O8  UNL     1     -14.757  44.999 -16.929  1.00  0.00    -0.775 OA
HETATM   46  H23 UNL     1     -15.236  44.662 -16.143  1.00  0.00     0.167 HD
ENDBRANCH  43  45
ENDBRANCH  37  43
ENDBRANCH  35  37
ENDBRANCH  32  33
BRANCH  32  47
HETATM   47  C21 UNL     1      -9.249  46.045 -15.104  1.00  0.00     0.009 C 
HETATM   48  C22 UNL     1      -9.179  46.743 -13.744  1.00  0.00     0.012 C 
HETATM   49  C23 UNL     1     -10.137  44.802 -15.010  1.00  0.00     0.012 C 
ENDBRANCH  32  47
ENDBRANCH  30  32
ENDBRANCH  27  28
ENDBRANCH  26  27
ENDBRANCH  13  26
TORSDOF 13
ENDMDL
MODEL 6
REMARK minimizedAffinity -8.93813133
REMARK CNNscore 0.258722126
REMARK CNNaffinity 6.33302546
REMARK  13 active torsions:
REMARK  status: ('A' for Active; 'I' for Inactive)
REMARK    1  A    between atoms: C3_3  and  O1_4 
REMARK    2  A    between atoms: N1_14  and  O2_16 
REMARK    3  A    between atoms: O2_16  and  C13_17 
REMARK    4  A    between atoms: C13_17  and  C14_18 
REMARK       I    between atoms: C14_18  and  N2_20 
REMARK    5  A    between atoms: N2_20  and  C15_21 
REMARK    6  A    between atoms: C15_21  and  C16_22 
REMARK    7  A    between atoms: C15_21  and  C21_33 
REMARK       I    between atoms: C16_22  and  N3_24 
REMARK    8  A    between atoms: N3_24  and  C17_25 
REMARK    9  A    between atoms: C17_25  and  C18_26 
REMARK   10  A    between atoms: C17_25  and  C20_30 
REMARK   11  A    between atoms: C18_26  and  C19_27 
REMARK   12  A    between atoms: C19_27  and  O6_29 
REMARK   13  A    between atoms: C20_30  and  O8_32 
ROOT
HETATM    1  C1  UNL     1       1.587  51.870 -28.123  1.00  0.00     0.015 C 
HETATM    2  C2  UNL     1       0.583  52.209 -27.559  1.00  0.00    -0.078 C 
HETATM    3  C3  UNL     1      -0.651  52.639 -26.864  1.00  0.00     0.128 C 
HETATM    4  C4  UNL     1      -1.872  52.411 -27.769  1.00  0.00     0.052 C 
HETATM    5  C5  UNL     1      -2.421  51.024 -27.399  1.00  0.00     0.010 C 
HETATM    6  C6  UNL     1      -1.559  50.505 -26.228  1.00  0.00     0.002 C 
HETATM    7  C7  UNL     1      -2.216  49.516 -25.229  1.00  0.00    -0.004 C 
HETATM    8  C8  UNL     1      -3.135  48.491 -25.931  1.00  0.00     0.010 C 
HETATM    9  C9  UNL     1      -4.621  48.760 -25.733  1.00  0.00     0.035 C 
HETATM   10  C10 UNL     1      -5.015  48.868 -24.283  1.00  0.00    -0.069 C 
HETATM   11  C11 UNL     1      -6.285  48.610 -23.924  1.00  0.00     0.030 C 
HETATM   12  C12 UNL     1      -6.753  48.723 -22.518  1.00  0.00     0.032 C 
HETATM   13  N1  UNL     1      -7.979  48.369 -22.258  1.00  0.00    -0.271 N 
ATOM     14  H1  UNL     1      -8.641  48.038 -22.959  1.00  0.00     0.194 HD
HETATM   15  C24 UNL     1      -5.776  49.229 -21.471  1.00  0.00     0.060 C 
HETATM   16  C25 UNL     1      -4.648  50.036 -22.112  1.00  0.00     0.020 C 
HETATM   17  C26 UNL     1      -3.947  49.290 -23.280  1.00  0.00    -0.016 C 
HETATM   18  C27 UNL     1      -3.266  48.023 -22.688  1.00  0.00     0.020 C 
HETATM   19  C28 UNL     1      -2.839  50.182 -23.960  1.00  0.00     0.002 C 
HETATM   20  C29 UNL     1      -3.248  51.631 -24.263  1.00  0.00     0.007 C 
HETATM   21  C30 UNL     1      -2.074  52.507 -24.719  1.00  0.00     0.014 C 
HETATM   22  C31 UNL     1      -0.996  51.795 -25.595  1.00  0.00     0.003 C 
HETATM   23  C32 UNL     1       0.244  51.520 -24.721  1.00  0.00     0.020 C 
ENDROOT
BRANCH   3  24
HETATM   24  O1  UNL     1      -0.516  54.018 -26.550  1.00  0.00    -0.377 OA
HETATM   25  H2  UNL     1      -0.282  54.474 -27.376  1.00  0.00     0.211 HD
ENDBRANCH   3  24
BRANCH  13  26
HETATM   26  O2  UNL     1      -8.277  48.499 -20.893  1.00  0.00    -0.271 OA
BRANCH  26  27
HETATM   27  C13 UNL     1      -9.150  47.440 -20.517  1.00  0.00     0.303 C 
BRANCH  27  28
HETATM   28  C14 UNL     1     -10.188  47.933 -19.515  1.00  0.00     0.244 C 
HETATM   29  O3  UNL     1      -9.957  48.845 -18.721  1.00  0.00    -0.271 OA
HETATM   30  N2  UNL     1     -11.413  47.302 -19.596  1.00  0.00    -0.346 N 
HETATM   31  H16 UNL     1     -11.603  46.841 -20.481  1.00  0.00     0.163 HD
BRANCH  30  32
HETATM   32  C15 UNL     1     -12.572  47.833 -18.879  1.00  0.00     0.180 C 
BRANCH  32  33
HETATM   33  C16 UNL     1     -13.661  48.141 -19.932  1.00  0.00     0.241 C 
HETATM   34  O4  UNL     1     -13.929  49.289 -20.286  1.00  0.00    -0.271 OA
HETATM   35  N3  UNL     1     -14.297  47.036 -20.454  1.00  0.00    -0.344 N 
HETATM   36  H18 UNL     1     -13.853  46.129 -20.334  1.00  0.00     0.163 HD
BRANCH  35  37
HETATM   37  C17 UNL     1     -15.223  47.152 -21.582  1.00  0.00     0.192 C 
BRANCH  37  38
HETATM   38  C18 UNL     1     -16.349  46.124 -21.497  1.00  0.00     0.146 C 
BRANCH  38  39
HETATM   39  C19 UNL     1     -17.530  46.653 -20.737  1.00  0.00     0.141 C 
HETATM   40  O5  UNL     1     -18.692  46.654 -21.112  1.00  0.00    -0.650 OA
BRANCH  39  41
HETATM   41  O6  UNL     1     -17.196  47.115 -19.518  1.00  0.00    -0.776 OA
HETATM   42  H22 UNL     1     -18.046  47.388 -19.112  1.00  0.00     0.167 HD
ENDBRANCH  39  41
ENDBRANCH  38  39
ENDBRANCH  37  38
BRANCH  37  43
HETATM   43  C20 UNL     1     -14.458  47.038 -22.906  1.00  0.00     0.164 C 
HETATM   44  O7  UNL     1     -13.451  46.385 -23.124  1.00  0.00    -0.648 OA
BRANCH  43  45
HETATM   45  O8  UNL     1     -15.007  47.779 -23.893  1.00  0.00    -0.775 OA
HETATM   46  H23 UNL     1     -14.398  47.642 -24.649  1.00  0.00     0.167 HD
ENDBRANCH  43  45
ENDBRANCH  37  43
ENDBRANCH  35  37
ENDBRANCH  32  33
BRANCH  32  47
HETATM   47  C21 UNL     1     -13.036  46.849 -17.780  1.00  0.00     0.009 C 
HETATM   48  C22 UNL     1     -14.443  47.174 -17.275  1.00  0.00     0.012 C 
HETATM   49  C23 UNL     1     -12.956  45.378 -18.197  1.00  0.00     0.012 C 
ENDBRANCH  32  47
ENDBRANCH  30  32
ENDBRANCH  27  28
ENDBRANCH  26  27
ENDBRANCH  13  26
TORSDOF 13
ENDMDL
MODEL 7
REMARK minimizedAffinity -8.68939304
REMARK CNNscore 0.245415539
REMARK CNNaffinity 6.99235725
REMARK  13 active torsions:
REMARK  status: ('A' for Active; 'I' for Inactive)
REMARK    1  A    between atoms: C3_3  and  O1_4 
REMARK    2  A    between atoms: N1_14  and  O2_16 
REMARK    3  A    between atoms: O2_16  and  C13_17 
REMARK    4  A    between atoms: C13_17  and  C14_18 
REMARK       I    between atoms: C14_18  and  N2_20 
REMARK    5  A    between atoms: N2_20  and  C15_21 
REMARK    6  A    between atoms: C15_21  and  C16_22 
REMARK    7  A    between atoms: C15_21  and  C21_33 
REMARK       I    between atoms: C16_22  and  N3_24 
REMARK    8  A    between atoms: N3_24  and  C17_25 
REMARK    9  A    between atoms: C17_25  and  C18_26 
REMARK   10  A    between atoms: C17_25  and  C20_30 
REMARK   11  A    between atoms: C18_26  and  C19_27 
REMARK   12  A    between atoms: C19_27  and  O6_29 
REMARK   13  A    between atoms: C20_30  and  O8_32 
ROOT
HETATM    1  C1  UNL     1      -4.330  48.389 -26.599  1.00  0.00     0.015 C 
HETATM    2  C2  UNL     1      -4.551  48.891 -25.531  1.00  0.00    -0.078 C 
HETATM    3  C3  UNL     1      -4.833  49.514 -24.218  1.00  0.00     0.128 C 
HETATM    4  C4  UNL     1      -5.103  48.427 -23.166  1.00  0.00     0.052 C 
HETATM    5  C5  UNL     1      -3.752  48.150 -22.486  1.00  0.00     0.010 C 
HETATM    6  C6  UNL     1      -2.738  49.139 -23.097  1.00  0.00     0.002 C 
HETATM    7  C7  UNL     1      -1.533  49.573 -22.222  1.00  0.00    -0.004 C 
HETATM    8  C8  UNL     1      -0.958  48.406 -21.388  1.00  0.00     0.010 C 
HETATM    9  C9  UNL     1      -1.307  48.478 -19.907  1.00  0.00     0.035 C 
HETATM   10  C10 UNL     1      -0.913  49.785 -19.269  1.00  0.00    -0.069 C 
HETATM   11  C11 UNL     1      -0.692  49.831 -17.943  1.00  0.00     0.030 C 
HETATM   12  C12 UNL     1      -0.327  51.090 -17.241  1.00  0.00     0.032 C 
HETATM   13  N1  UNL     1      -0.049  51.015 -15.971  1.00  0.00    -0.271 N 
ATOM     14  H1  UNL     1      -0.084  50.153 -15.426  1.00  0.00     0.194 HD
HETATM   15  C24 UNL     1      -0.289  52.379 -18.043  1.00  0.00     0.060 C 
HETATM   16  C25 UNL     1      -1.138  52.267 -19.309  1.00  0.00     0.020 C 
HETATM   17  C26 UNL     1      -0.803  51.014 -20.164  1.00  0.00    -0.016 C 
HETATM   18  C27 UNL     1       0.664  51.161 -20.660  1.00  0.00     0.020 C 
HETATM   19  C28 UNL     1      -1.747  50.898 -21.421  1.00  0.00     0.002 C 
HETATM   20  C29 UNL     1      -3.242  51.124 -21.151  1.00  0.00     0.007 C 
HETATM   21  C30 UNL     1      -4.080  51.215 -22.433  1.00  0.00     0.014 C 
HETATM   22  C31 UNL     1      -3.624  50.295 -23.609  1.00  0.00     0.003 C 
HETATM   23  C32 UNL     1      -2.899  51.162 -24.658  1.00  0.00     0.020 C 
ENDROOT
BRANCH   3  24
HETATM   24  O1  UNL     1      -5.970  50.352 -24.370  1.00  0.00    -0.377 OA
HETATM   25  H2  UNL     1      -6.669  49.809 -24.771  1.00  0.00     0.211 HD
ENDBRANCH   3  24
BRANCH  13  26
HETATM   26  O2  UNL     1       0.304  52.266 -15.444  1.00  0.00    -0.271 OA
BRANCH  26  27
HETATM   27  C13 UNL     1       0.825  52.075 -14.134  1.00  0.00     0.303 C 
BRANCH  27  28
HETATM   28  C14 UNL     1      -0.269  51.597 -13.186  1.00  0.00     0.244 C 
HETATM   29  O3  UNL     1      -0.583  50.411 -13.087  1.00  0.00    -0.271 OA
HETATM   30  N2  UNL     1      -0.850  52.591 -12.425  1.00  0.00    -0.346 N 
HETATM   31  H16 UNL     1      -0.295  53.437 -12.326  1.00  0.00     0.163 HD
BRANCH  30  32
HETATM   32  C15 UNL     1      -1.727  52.255 -11.304  1.00  0.00     0.180 C 
BRANCH  32  33
HETATM   33  C16 UNL     1      -1.126  52.910 -10.040  1.00  0.00     0.241 C 
HETATM   34  O4  UNL     1      -1.371  52.500  -8.906  1.00  0.00    -0.271 OA
HETATM   35  N3  UNL     1      -0.288  53.977 -10.278  1.00  0.00    -0.344 N 
HETATM   36  H18 UNL     1       0.086  54.089 -11.216  1.00  0.00     0.163 HD
BRANCH  35  37
HETATM   37  C17 UNL     1       0.491  54.589  -9.199  1.00  0.00     0.192 C 
BRANCH  37  38
HETATM   38  C18 UNL     1      -0.228  55.791  -8.594  1.00  0.00     0.146 C 
BRANCH  38  39
HETATM   39  C19 UNL     1       0.381  56.204  -7.286  1.00  0.00     0.141 C 
HETATM   40  O5  UNL     1       0.453  57.341  -6.847  1.00  0.00    -0.650 OA
BRANCH  39  41
HETATM   41  O6  UNL     1       0.831  55.157  -6.571  1.00  0.00    -0.776 OA
HETATM   42  H22 UNL     1       1.162  55.547  -5.735  1.00  0.00     0.167 HD
ENDBRANCH  39  41
ENDBRANCH  38  39
ENDBRANCH  37  38
BRANCH  37  43
HETATM   43  C20 UNL     1       1.887  54.968  -9.708  1.00  0.00     0.164 C 
HETATM   44  O7  UNL     1       2.934  54.942  -9.081  1.00  0.00    -0.648 OA
BRANCH  43  45
HETATM   45  O8  UNL     1       1.883  55.378 -10.994  1.00  0.00    -0.775 OA
HETATM   46  H23 UNL     1       2.818  55.622 -11.161  1.00  0.00     0.167 HD
ENDBRANCH  43  45
ENDBRANCH  37  43
ENDBRANCH  35  37
ENDBRANCH  32  33
BRANCH  32  47
HETATM   47  C21 UNL     1      -3.181  52.692 -11.596  1.00  0.00     0.009 C 
HETATM   48  C22 UNL     1      -4.190  51.592 -11.258  1.00  0.00     0.012 C 
HETATM   49  C23 UNL     1      -3.581  53.999 -10.908  1.00  0.00     0.012 C 
ENDBRANCH  32  47
ENDBRANCH  30  32
ENDBRANCH  27  28
ENDBRANCH  26  27
ENDBRANCH  13  26
TORSDOF 13
ENDMDL
MODEL 8
REMARK minimizedAffinity -7.48432732
REMARK CNNscore 0.2170223
REMARK CNNaffinity 6.68616152
REMARK  13 active torsions:
REMARK  status: ('A' for Active; 'I' for Inactive)
REMARK    1  A    between atoms: C3_3  and  O1_4 
REMARK    2  A    between atoms: N1_14  and  O2_16 
REMARK    3  A    between atoms: O2_16  and  C13_17 
REMARK    4  A    between atoms: C13_17  and  C14_18 
REMARK       I    between atoms: C14_18  and  N2_20 
REMARK    5  A    between atoms: N2_20  and  C15_21 
REMARK    6  A    between atoms: C15_21  and  C16_22 
REMARK    7  A    between atoms: C15_21  and  C21_33 
REMARK       I    between atoms: C16_22  and  N3_24 
REMARK    8  A    between atoms: N3_24  and  C17_25 
REMARK    9  A    between atoms: C17_25  and  C18_26 
REMARK   10  A    between atoms: C17_25  and  C20_30 
REMARK   11  A    between atoms: C18_26  and  C19_27 
REMARK   12  A    between atoms: C19_27  and  O6_29 
REMARK   13  A    between atoms: C20_30  and  O8_32 
ROOT
HETATM    1  C1  UNL     1      -1.498  50.671 -26.791  1.00  0.00     0.015 C 
HETATM    2  C2  UNL     1      -2.259  50.662 -25.862  1.00  0.00    -0.078 C 
HETATM    3  C3  UNL     1      -3.205  50.657 -24.723  1.00  0.00     0.128 C 
HETATM    4  C4  UNL     1      -3.644  49.217 -24.411  1.00  0.00     0.052 C 
HETATM    5  C5  UNL     1      -2.687  48.709 -23.321  1.00  0.00     0.010 C 
HETATM    6  C6  UNL     1      -1.760  49.889 -22.960  1.00  0.00     0.002 C 
HETATM    7  C7  UNL     1      -1.173  49.935 -21.525  1.00  0.00    -0.004 C 
HETATM    8  C8  UNL     1      -0.762  48.537 -21.010  1.00  0.00     0.010 C 
HETATM    9  C9  UNL     1      -1.713  47.960 -19.970  1.00  0.00     0.035 C 
HETATM   10  C10 UNL     1      -1.933  48.878 -18.795  1.00  0.00    -0.069 C 
HETATM   11  C11 UNL     1      -2.313  48.356 -17.614  1.00  0.00     0.030 C 
HETATM   12  C12 UNL     1      -2.575  49.202 -16.420  1.00  0.00     0.032 C 
HETATM   13  N1  UNL     1      -2.854  48.597 -15.300  1.00  0.00    -0.271 N 
ATOM     14  H1  UNL     1      -2.922  47.584 -15.197  1.00  0.00     0.194 HD
HETATM   15  C24 UNL     1      -2.490  50.711 -16.570  1.00  0.00     0.060 C 
HETATM   16  C25 UNL     1      -2.671  51.131 -18.028  1.00  0.00     0.020 C 
HETATM   17  C26 UNL     1      -1.732  50.373 -19.007  1.00  0.00    -0.016 C 
HETATM   18  C27 UNL     1      -0.268  50.754 -18.644  1.00  0.00     0.020 C 
HETATM   19  C28 UNL     1      -1.999  50.783 -20.505  1.00  0.00     0.002 C 
HETATM   20  C29 UNL     1      -3.475  50.836 -20.926  1.00  0.00     0.007 C 
HETATM   21  C30 UNL     1      -3.686  51.447 -22.317  1.00  0.00     0.014 C 
HETATM   22  C31 UNL     1      -2.579  51.130 -23.372  1.00  0.00     0.003 C 
HETATM   23  C32 UNL     1      -1.693  52.380 -23.543  1.00  0.00     0.020 C 
ENDROOT
BRANCH   3  24
HETATM   24  O1  UNL     1      -4.326  51.451 -25.084  1.00  0.00    -0.377 OA
HETATM   25  H2  UNL     1      -4.647  51.116 -25.938  1.00  0.00     0.211 HD
ENDBRANCH   3  24
BRANCH  13  26
HETATM   26  O2  UNL     1      -3.049  49.510 -14.254  1.00  0.00    -0.271 OA
BRANCH  26  27
HETATM   27  C13 UNL     1      -1.811  49.697 -13.578  1.00  0.00     0.303 C 
BRANCH  27  28
HETATM   28  C14 UNL     1      -2.006  50.552 -12.330  1.00  0.00     0.244 C 
HETATM   29  O3  UNL     1      -3.114  50.743 -11.829  1.00  0.00    -0.271 OA
HETATM   30  N2  UNL     1      -0.842  51.058 -11.790  1.00  0.00    -0.346 N 
HETATM   31  H16 UNL     1       0.006  50.567 -12.056  1.00  0.00     0.163 HD
BRANCH  30  32
HETATM   32  C15 UNL     1      -0.844  51.680 -10.466  1.00  0.00     0.180 C 
BRANCH  32  33
HETATM   33  C16 UNL     1       0.629  51.788 -10.008  1.00  0.00     0.241 C 
HETATM   34  O4  UNL     1       0.941  51.969  -8.832  1.00  0.00    -0.271 OA
HETATM   35  N3  UNL     1       1.562  51.655 -11.012  1.00  0.00    -0.344 N 
HETATM   36  H18 UNL     1       1.262  51.241 -11.890  1.00  0.00     0.163 HD
BRANCH  35  37
HETATM   37  C17 UNL     1       2.993  51.560 -10.714  1.00  0.00     0.192 C 
BRANCH  37  38
HETATM   38  C18 UNL     1       3.680  52.920 -10.800  1.00  0.00     0.146 C 
BRANCH  38  39
HETATM   39  C19 UNL     1       4.319  53.305  -9.497  1.00  0.00     0.141 C 
HETATM   40  O5  UNL     1       5.516  53.397  -9.276  1.00  0.00    -0.650 OA
BRANCH  39  41
HETATM   41  O6  UNL     1       3.415  53.600  -8.544  1.00  0.00    -0.776 OA
HETATM   42  H22 UNL     1       3.948  53.872  -7.768  1.00  0.00     0.167 HD
ENDBRANCH  39  41
ENDBRANCH  38  39
ENDBRANCH  37  38
BRANCH  37  43
HETATM   43  C20 UNL     1       3.658  50.536 -11.641  1.00  0.00     0.164 C 
HETATM   44  O7  UNL     1       4.454  49.664 -11.330  1.00  0.00    -0.648 OA
BRANCH  43  45
HETATM   45  O8  UNL     1       3.287  50.679 -12.932  1.00  0.00    -0.775 OA
HETATM   46  H23 UNL     1       3.815  49.998 -13.400  1.00  0.00     0.167 HD
ENDBRANCH  43  45
ENDBRANCH  37  43
ENDBRANCH  35  37
ENDBRANCH  32  33
BRANCH  32  47
HETATM   47  C21 UNL     1      -1.583  53.037 -10.498  1.00  0.00     0.009 C 
HETATM   48  C22 UNL     1      -2.287  53.340  -9.173  1.00  0.00     0.012 C 
HETATM   49  C23 UNL     1      -0.691  54.215 -10.898  1.00  0.00     0.012 C 
ENDBRANCH  32  47
ENDBRANCH  30  32
ENDBRANCH  27  28
ENDBRANCH  26  27
ENDBRANCH  13  26
TORSDOF 13
ENDMDL
MODEL 9
REMARK minimizedAffinity -8.86536694
REMARK CNNscore 0.208532408
REMARK CNNaffinity 6.40728903
REMARK  13 active torsions:
REMARK  status: ('A' for Active; 'I' for Inactive)
REMARK    1  A    between atoms: C3_3  and  O1_4 
REMARK    2  A    between atoms: N1_14  and  O2_16 
REMARK    3  A    between atoms: O2_16  and  C13_17 
REMARK    4  A    between atoms: C13_17  and  C14_18 
REMARK       I    between atoms: C14_18  and  N2_20 
REMARK    5  A    between atoms: N2_20  and  C15_21 
REMARK    6  A    between atoms: C15_21  and  C16_22 
REMARK    7  A    between atoms: C15_21  and  C21_33 
REMARK       I    between atoms: C16_22  and  N3_24 
REMARK    8  A    between atoms: N3_24  and  C17_25 
REMARK    9  A    between atoms: C17_25  and  C18_26 
REMARK   10  A    between atoms: C17_25  and  C20_30 
REMARK   11  A    between atoms: C18_26  and  C19_27 
REMARK   12  A    between atoms: C19_27  and  O6_29 
REMARK   13  A    between atoms: C20_30  and  O8_32 
ROOT
HETATM    1  C1  UNL     1      -5.423  48.084 -26.067  1.00  0.00     0.015 C 
HETATM    2  C2  UNL     1      -5.433  48.700 -25.036  1.00  0.00    -0.078 C 
HETATM    3  C3  UNL     1      -5.454  49.466 -23.769  1.00  0.00     0.128 C 
HETATM    4  C4  UNL     1      -5.652  48.511 -22.581  1.00  0.00     0.052 C 
HETATM    5  C5  UNL     1      -4.242  48.160 -22.079  1.00  0.00     0.010 C 
HETATM    6  C6  UNL     1      -3.252  48.982 -22.931  1.00  0.00     0.002 C 
HETATM    7  C7  UNL     1      -1.893  49.368 -22.290  1.00  0.00    -0.004 C 
HETATM    8  C8  UNL     1      -1.301  48.229 -21.430  1.00  0.00     0.010 C 
HETATM    9  C9  UNL     1      -1.410  48.470 -19.930  1.00  0.00     0.035 C 
HETATM   10  C10 UNL     1      -0.810  49.782 -19.496  1.00  0.00    -0.069 C 
HETATM   11  C11 UNL     1      -0.383  49.924 -18.228  1.00  0.00     0.030 C 
HETATM   12  C12 UNL     1       0.193  51.198 -17.721  1.00  0.00     0.032 C 
HETATM   13  N1  UNL     1       0.656  51.209 -16.504  1.00  0.00    -0.271 N 
ATOM     14  H1  UNL     1       0.631  50.408 -15.873  1.00  0.00     0.194 HD
HETATM   15  C24 UNL     1       0.219  52.398 -18.651  1.00  0.00     0.060 C 
HETATM   16  C25 UNL     1      -0.821  52.260 -19.761  1.00  0.00     0.020 C 
HETATM   17  C26 UNL     1      -0.732  50.908 -20.521  1.00  0.00    -0.016 C 
HETATM   18  C27 UNL     1       0.648  50.859 -21.237  1.00  0.00     0.020 C 
HETATM   19  C28 UNL     1      -1.865  50.775 -21.609  1.00  0.00     0.002 C 
HETATM   20  C29 UNL     1      -3.275  51.175 -21.150  1.00  0.00     0.007 C 
HETATM   21  C30 UNL     1      -4.290  51.235 -22.300  1.00  0.00     0.014 C 
HETATM   22  C31 UNL     1      -4.102  50.171 -23.426  1.00  0.00     0.003 C 
HETATM   23  C32 UNL     1      -3.475  50.862 -24.654  1.00  0.00     0.020 C 
ENDROOT
BRANCH   3  24
HETATM   24  O1  UNL     1      -6.523  50.398 -23.841  1.00  0.00    -0.377 OA
HETATM   25  H2  UNL     1      -7.321  49.895 -24.078  1.00  0.00     0.211 HD
ENDBRANCH   3  24
BRANCH  13  26
HETATM   26  O2  UNL     1       1.194  52.460 -16.167  1.00  0.00    -0.271 OA
BRANCH  26  27
HETATM   27  C13 UNL     1       2.334  52.257 -15.342  1.00  0.00     0.303 C 
BRANCH  27  28
HETATM   28  C14 UNL     1       1.921  51.693 -13.986  1.00  0.00     0.244 C 
HETATM   29  O3  UNL     1       1.989  50.493 -13.724  1.00  0.00    -0.271 OA
HETATM   30  N2  UNL     1       1.504  52.638 -13.071  1.00  0.00    -0.346 N 
HETATM   31  H16 UNL     1       1.816  53.587 -13.259  1.00  0.00     0.163 HD
BRANCH  30  32
HETATM   32  C15 UNL     1       1.319  52.282 -11.665  1.00  0.00     0.180 C 
BRANCH  32  33
HETATM   33  C16 UNL     1       2.056  53.348 -10.822  1.00  0.00     0.241 C 
HETATM   34  O4  UNL     1       1.620  53.751  -9.744  1.00  0.00    -0.271 OA
HETATM   35  N3  UNL     1       3.240  53.801 -11.360  1.00  0.00    -0.344 N 
HETATM   36  H18 UNL     1       3.675  53.244 -12.091  1.00  0.00     0.163 HD
BRANCH  35  37
HETATM   37  C17 UNL     1       4.136  54.676 -10.602  1.00  0.00     0.192 C 
BRANCH  37  38
HETATM   38  C18 UNL     1       4.561  54.042  -9.280  1.00  0.00     0.146 C 
BRANCH  38  39
HETATM   39  C19 UNL     1       5.950  53.479  -9.353  1.00  0.00     0.141 C 
HETATM   40  O5  UNL     1       6.984  54.116  -9.480  1.00  0.00    -0.650 OA
BRANCH  39  41
HETATM   41  O6  UNL     1       5.975  52.140  -9.217  1.00  0.00    -0.776 OA
HETATM   42  H22 UNL     1       6.925  51.903  -9.240  1.00  0.00     0.167 HD
ENDBRANCH  39  41
ENDBRANCH  38  39
ENDBRANCH  37  38
BRANCH  37  43
HETATM   43  C20 UNL     1       3.476  56.043 -10.382  1.00  0.00     0.164 C 
HETATM   44  O7  UNL     1       3.193  56.564  -9.315  1.00  0.00    -0.648 OA
BRANCH  43  45
HETATM   45  O8  UNL     1       3.193  56.680 -11.538  1.00  0.00    -0.775 OA
HETATM   46  H23 UNL     1       2.745  57.502 -11.244  1.00  0.00     0.167 HD
ENDBRANCH  43  45
ENDBRANCH  37  43
ENDBRANCH  35  37
ENDBRANCH  32  33
BRANCH  32  47
HETATM   47  C21 UNL     1      -0.184  52.155 -11.325  1.00  0.00     0.009 C 
HETATM   48  C22 UNL     1      -1.067  52.283 -12.567  1.00  0.00     0.012 C 
HETATM   49  C23 UNL     1      -0.536  50.876 -10.561  1.00  0.00     0.012 C 
ENDBRANCH  32  47
ENDBRANCH  30  32
ENDBRANCH  27  28
ENDBRANCH  26  27
ENDBRANCH  13  26
TORSDOF 13
ENDMDL
