MODEL 1
REMARK minimizedAffinity -6.59092426
REMARK CNNscore 0.774070501
REMARK CNNaffinity 6.53549528
REMARK  12 active torsions:
REMARK  status: ('A' for Active; 'I' for Inactive)
REMARK    1  A    between atoms: C3_4  and  O2_5 
REMARK    2  A    between atoms: O2_5  and  C4_6 
REMARK    3  A    between atoms: C7_9  and  C8_10 
REMARK    4  A    between atoms: N1_11  and  C9_13 
REMARK    5  A    between atoms: C9_13  and  C10_14 
REMARK    6  A    between atoms: C10_14  and  C11_15 
REMARK    7  A    between atoms: C11_15  and  O3_16 
REMARK    8  A    between atoms: C17_22  and  C18_23 
REMARK    9  A    between atoms: C24_31  and  O6_32 
REMARK   10  A    between atoms: C28_36  and  O7_37 
REMARK   11  A    between atoms: C31_40  and  O8_41 
REMARK   12  A    between atoms: C32_42  and  O9_43 
ROOT
HETATM    1  C4  UNL     1     -11.738 -12.129  26.143  1.00  0.00     0.127 C 
HETATM    2  C5  UNL     1     -12.989 -11.769  25.327  1.00  0.00     0.033 C 
HETATM    3  C6  UNL     1     -13.649 -10.493  25.838  1.00  0.00     0.021 C 
HETATM    4  C7  UNL     1     -14.089 -10.552  27.338  1.00  0.00     0.026 C 
HETATM    5  C12 UNL     1     -13.753  -9.149  28.000  1.00  0.00     0.009 C 
HETATM    6  C13 UNL     1     -14.456  -7.948  27.326  1.00  0.00     0.007 C 
HETATM    7  C14 UNL     1     -14.042  -6.616  27.947  1.00  0.00     0.013 C 
HETATM    8  C15 UNL     1     -14.281  -6.542  29.484  1.00  0.00    -0.005 C 
HETATM    9  C16 UNL     1     -15.801  -6.470  29.734  1.00  0.00     0.019 C 
HETATM   10  C17 UNL     1     -13.495  -5.298  30.037  1.00  0.00     0.028 C 
HETATM   11  C22 UNL     1     -12.100  -5.843  30.430  1.00  0.00     0.013 C 
HETATM   12  C23 UNL     1     -12.114  -7.352  30.175  1.00  0.00     0.040 C 
HETATM   13  C24 UNL     1     -13.599  -7.744  30.186  1.00  0.00     0.070 C 
HETATM   14  C25 UNL     1     -13.926  -9.124  29.542  1.00  0.00     0.026 C 
HETATM   15  C26 UNL     1     -13.105 -10.260  30.178  1.00  0.00     0.011 C 
HETATM   16  C27 UNL     1     -13.499 -11.615  29.616  1.00  0.00     0.039 C 
HETATM   17  C28 UNL     1     -13.360 -11.725  28.090  1.00  0.00     0.073 C 
HETATM   18  C29 UNL     1     -11.885 -11.803  27.644  1.00  0.00     0.071 C 
ENDROOT
BRANCH   1  19
HETATM   19  O2  UNL     1     -11.408 -13.520  26.030  1.00  0.00    -0.356 OA
BRANCH  19  20
HETATM   20  C3  UNL     1     -10.807 -13.871  24.783  1.00  0.00     0.263 C 
HETATM   21  O1  UNL     1     -10.098 -15.110  24.848  1.00  0.00    -0.354 OA
HETATM   22  C2  UNL     1      -8.857 -15.122  25.580  1.00  0.00     0.151 C 
HETATM   23  C1  UNL     1      -9.061 -15.125  27.091  1.00  0.00     0.042 C 
HETATM   24  C32 UNL     1      -7.918 -14.007  25.095  1.00  0.00     0.175 C 
HETATM   25  C31 UNL     1      -8.640 -12.649  25.128  1.00  0.00     0.154 C 
HETATM   26  C30 UNL     1      -9.925 -12.715  24.318  1.00  0.00     0.095 C 
BRANCH  24  27
HETATM   27  O9  UNL     1      -7.500 -14.322  23.750  1.00  0.00    -0.390 OA
HETATM   28  H49 UNL     1      -8.277 -14.666  23.273  1.00  0.00     0.210 HD
ENDBRANCH  24  27
BRANCH  25  29
HETATM   29  O8  UNL     1      -7.792 -11.619  24.619  1.00  0.00    -0.393 OA
HETATM   30  H47 UNL     1      -8.297 -10.788  24.611  1.00  0.00     0.210 HD
ENDBRANCH  25  29
ENDBRANCH  19  20
ENDBRANCH   1  19
BRANCH  17  31
HETATM   31  O7  UNL     1     -13.962 -12.991  27.754  1.00  0.00    -0.389 OA
HETATM   32  H41 UNL     1     -13.364 -13.700  28.050  1.00  0.00     0.210 HD
ENDBRANCH  17  31
BRANCH   4  33
HETATM   33  C8  UNL     1     -15.585 -10.904  27.332  1.00  0.00     0.068 C 
HETATM   34  N1  UNL     1     -16.340 -10.764  26.296  1.00  0.00    -0.401 N 
ATOM     35  H1  UNL     1     -15.985 -10.427  25.401  1.00  0.00     0.158 HD
BRANCH  34  36
HETATM   36  C9  UNL     1     -17.747 -11.127  26.501  1.00  0.00     0.121 C 
BRANCH  36  37
HETATM   37  C10 UNL     1     -18.305 -11.862  25.280  1.00  0.00     0.045 C 
BRANCH  37  38
HETATM   38  C11 UNL     1     -19.828 -11.814  25.244  1.00  0.00     0.165 C 
BRANCH  38  39
HETATM   39  O3  UNL     1     -20.373 -12.416  26.417  1.00  0.00    -0.401 OA
HETATM   40  H18 UNL     1     -20.110 -11.862  27.176  1.00  0.00     0.209 HD
ENDBRANCH  38  39
ENDBRANCH  37  38
ENDBRANCH  36  37
ENDBRANCH  34  36
ENDBRANCH   4  33
BRANCH  13  41
HETATM   41  O6  UNL     1     -14.017  -7.764  31.559  1.00  0.00    -0.389 OA
HETATM   42  H35 UNL     1     -13.490  -8.421  32.042  1.00  0.00     0.210 HD
ENDBRANCH  13  41
BRANCH  10  43
HETATM   43  C18 UNL     1     -14.111  -4.469  31.136  1.00  0.00    -0.045 A 
HETATM   44  C19 UNL     1     -13.587  -4.307  32.354  1.00  0.00     0.087 A 
HETATM   45  C20 UNL     1     -14.518  -3.486  33.124  1.00  0.00     0.283 A 
HETATM   46  O4  UNL     1     -14.351  -3.153  34.283  1.00  0.00    -0.260 OA
HETATM   47  O5  UNL     1     -15.588  -3.182  32.349  1.00  0.00    -0.314 OA
HETATM   48  C21 UNL     1     -15.402  -3.741  31.045  1.00  0.00     0.213 A 
ENDBRANCH  10  43
TORSDOF 12
ENDMDL
MODEL 2
REMARK minimizedAffinity -8.35988617
REMARK CNNscore 0.527661562
REMARK CNNaffinity 6.75305128
REMARK  12 active torsions:
REMARK  status: ('A' for Active; 'I' for Inactive)
REMARK    1  A    between atoms: C3_4  and  O2_5 
REMARK    2  A    between atoms: O2_5  and  C4_6 
REMARK    3  A    between atoms: C7_9  and  C8_10 
REMARK    4  A    between atoms: N1_11  and  C9_13 
REMARK    5  A    between atoms: C9_13  and  C10_14 
REMARK    6  A    between atoms: C10_14  and  C11_15 
REMARK    7  A    between atoms: C11_15  and  O3_16 
REMARK    8  A    between atoms: C17_22  and  C18_23 
REMARK    9  A    between atoms: C24_31  and  O6_32 
REMARK   10  A    between atoms: C28_36  and  O7_37 
REMARK   11  A    between atoms: C31_40  and  O8_41 
REMARK   12  A    between atoms: C32_42  and  O9_43 
ROOT
HETATM    1  C4  UNL     1      -5.494  -8.980   7.442  1.00  0.00     0.127 C 
HETATM    2  C5  UNL     1      -3.983  -9.253   7.483  1.00  0.00     0.033 C 
HETATM    3  C6  UNL     1      -3.445  -9.656   6.114  1.00  0.00     0.021 C 
HETATM    4  C7  UNL     1      -4.119 -10.931   5.507  1.00  0.00     0.026 C 
HETATM    5  C12 UNL     1      -4.333 -10.677   3.955  1.00  0.00     0.009 C 
HETATM    6  C13 UNL     1      -3.028 -10.390   3.176  1.00  0.00     0.007 C 
HETATM    7  C14 UNL     1      -3.293 -10.077   1.706  1.00  0.00     0.013 C 
HETATM    8  C15 UNL     1      -4.088 -11.190   0.963  1.00  0.00    -0.005 C 
HETATM    9  C16 UNL     1      -3.165 -12.413   0.792  1.00  0.00     0.019 C 
HETATM   10  C17 UNL     1      -4.598 -10.594  -0.400  1.00  0.00     0.028 C 
HETATM   11  C22 UNL     1      -5.997 -10.010  -0.089  1.00  0.00     0.013 C 
HETATM   12  C23 UNL     1      -6.303 -10.320   1.378  1.00  0.00     0.040 C 
HETATM   13  C24 UNL     1      -5.397 -11.511   1.730  1.00  0.00     0.070 C 
HETATM   14  C25 UNL     1      -5.194 -11.762   3.254  1.00  0.00     0.026 C 
HETATM   15  C26 UNL     1      -6.535 -11.921   3.992  1.00  0.00     0.011 C 
HETATM   16  C27 UNL     1      -6.329 -12.264   5.456  1.00  0.00     0.039 C 
HETATM   17  C28 UNL     1      -5.482 -11.240   6.227  1.00  0.00     0.073 C 
HETATM   18  C29 UNL     1      -6.251  -9.928   6.489  1.00  0.00     0.071 C 
ENDROOT
BRANCH   1  19
HETATM   19  O2  UNL     1      -6.094  -9.098   8.740  1.00  0.00    -0.356 OA
BRANCH  19  20
HETATM   20  C3  UNL     1      -5.340  -9.896   9.653  1.00  0.00     0.263 C 
HETATM   21  O1  UNL     1      -5.943 -11.170   9.892  1.00  0.00    -0.354 OA
HETATM   22  C2  UNL     1      -7.144 -11.191  10.686  1.00  0.00     0.151 C 
HETATM   23  C1  UNL     1      -8.374 -10.721   9.915  1.00  0.00     0.042 C 
HETATM   24  C32 UNL     1      -6.941 -10.452  12.017  1.00  0.00     0.175 C 
HETATM   25  C31 UNL     1      -6.397  -9.036  11.763  1.00  0.00     0.154 C 
HETATM   26  C30 UNL     1      -5.121  -9.102  10.938  1.00  0.00     0.095 C 
BRANCH  24  27
HETATM   27  O9  UNL     1      -6.013 -11.212  12.819  1.00  0.00    -0.390 OA
HETATM   28  H49 UNL     1      -5.308 -11.535  12.228  1.00  0.00     0.210 HD
ENDBRANCH  24  27
BRANCH  25  29
HETATM   29  O8  UNL     1      -6.146  -8.367  12.999  1.00  0.00    -0.393 OA
HETATM   30  H47 UNL     1      -5.760  -7.497  12.800  1.00  0.00     0.210 HD
ENDBRANCH  25  29
ENDBRANCH  19  20
ENDBRANCH   1  19
BRANCH  17  31
HETATM   31  O7  UNL     1      -5.248 -11.847   7.514  1.00  0.00    -0.389 OA
HETATM   32  H41 UNL     1      -6.081 -11.822   8.017  1.00  0.00     0.210 HD
ENDBRANCH  17  31
BRANCH   4  33
HETATM   33  C8  UNL     1      -3.181 -12.105   5.831  1.00  0.00     0.068 C 
HETATM   34  N1  UNL     1      -2.157 -11.999   6.606  1.00  0.00    -0.401 N 
ATOM     35  H1  UNL     1      -1.911 -11.126   7.073  1.00  0.00     0.158 HD
BRANCH  34  36
HETATM   36  C9  UNL     1      -1.369 -13.227   6.764  1.00  0.00     0.121 C 
BRANCH  36  37
HETATM   37  C10 UNL     1      -1.729 -14.251   5.685  1.00  0.00     0.045 C 
BRANCH  37  38
HETATM   38  C11 UNL     1      -0.514 -14.642   4.854  1.00  0.00     0.165 C 
BRANCH  38  39
HETATM   39  O3  UNL     1       0.644 -13.940   5.305  1.00  0.00    -0.401 OA
HETATM   40  H18 UNL     1       0.835 -14.248   6.212  1.00  0.00     0.209 HD
ENDBRANCH  38  39
ENDBRANCH  37  38
ENDBRANCH  36  37
ENDBRANCH  34  36
ENDBRANCH   4  33
BRANCH  13  41
HETATM   41  O6  UNL     1      -5.992 -12.678   1.145  1.00  0.00    -0.389 OA
HETATM   42  H35 UNL     1      -6.878 -12.805   1.520  1.00  0.00     0.210 HD
ENDBRANCH  13  41
BRANCH  10  43
HETATM   43  C18 UNL     1      -4.609 -11.472  -1.626  1.00  0.00    -0.045 A 
HETATM   44  C19 UNL     1      -4.979 -11.074  -2.846  1.00  0.00     0.087 A 
HETATM   45  C20 UNL     1      -4.900 -12.235  -3.728  1.00  0.00     0.283 A 
HETATM   46  O4  UNL     1      -5.178 -12.225  -4.913  1.00  0.00    -0.260 OA
HETATM   47  O5  UNL     1      -4.492 -13.311  -3.010  1.00  0.00    -0.314 OA
HETATM   48  C21 UNL     1      -4.248 -12.912  -1.657  1.00  0.00     0.213 A 
ENDBRANCH  10  43
TORSDOF 12
ENDMDL
MODEL 3
REMARK minimizedAffinity -9.1740303
REMARK CNNscore 0.447894156
REMARK CNNaffinity 6.72468758
REMARK  12 active torsions:
REMARK  status: ('A' for Active; 'I' for Inactive)
REMARK    1  A    between atoms: C3_4  and  O2_5 
REMARK    2  A    between atoms: O2_5  and  C4_6 
REMARK    3  A    between atoms: C7_9  and  C8_10 
REMARK    4  A    between atoms: N1_11  and  C9_13 
REMARK    5  A    between atoms: C9_13  and  C10_14 
REMARK    6  A    between atoms: C10_14  and  C11_15 
REMARK    7  A    between atoms: C11_15  and  O3_16 
REMARK    8  A    between atoms: C17_22  and  C18_23 
REMARK    9  A    between atoms: C24_31  and  O6_32 
REMARK   10  A    between atoms: C28_36  and  O7_37 
REMARK   11  A    between atoms: C31_40  and  O8_41 
REMARK   12  A    between atoms: C32_42  and  O9_43 
ROOT
HETATM    1  C4  UNL     1      -5.556   7.446  13.312  1.00  0.00     0.127 C 
HETATM    2  C5  UNL     1      -5.127   8.692  14.101  1.00  0.00     0.033 C 
HETATM    3  C6  UNL     1      -3.656   9.021  13.880  1.00  0.00     0.021 C 
HETATM    4  C7  UNL     1      -2.671   7.872  14.279  1.00  0.00     0.026 C 
HETATM    5  C12 UNL     1      -1.527   7.806  13.182  1.00  0.00     0.009 C 
HETATM    6  C13 UNL     1      -0.720   9.117  13.032  1.00  0.00     0.007 C 
HETATM    7  C14 UNL     1       0.315   9.031  11.914  1.00  0.00     0.013 C 
HETATM    8  C15 UNL     1       1.310   7.843  12.073  1.00  0.00    -0.005 C 
HETATM    9  C16 UNL     1       2.249   8.152  13.255  1.00  0.00     0.019 C 
HETATM   10  C17 UNL     1       2.064   7.656  10.706  1.00  0.00     0.028 C 
HETATM   11  C22 UNL     1       1.210   6.641   9.907  1.00  0.00     0.013 C 
HETATM   12  C23 UNL     1       0.051   6.214  10.811  1.00  0.00     0.040 C 
HETATM   13  C24 UNL     1       0.528   6.514  12.240  1.00  0.00     0.070 C 
HETATM   14  C25 UNL     1      -0.596   6.572  13.316  1.00  0.00     0.026 C 
HETATM   15  C26 UNL     1      -1.439   5.283  13.333  1.00  0.00     0.011 C 
HETATM   16  C27 UNL     1      -2.467   5.304  14.449  1.00  0.00     0.039 C 
HETATM   17  C28 UNL     1      -3.431   6.499  14.392  1.00  0.00     0.073 C 
HETATM   18  C29 UNL     1      -4.456   6.367  13.247  1.00  0.00     0.071 C 
ENDROOT
BRANCH   1  19
HETATM   19  O2  UNL     1      -6.730   6.838  13.869  1.00  0.00    -0.356 OA
BRANCH  19  20
HETATM   20  C3  UNL     1      -6.920   7.116  15.257  1.00  0.00     0.263 C 
HETATM   21  O1  UNL     1      -7.906   6.271  15.853  1.00  0.00    -0.354 OA
HETATM   22  C2  UNL     1      -9.281   6.512  15.499  1.00  0.00     0.151 C 
HETATM   23  C1  UNL     1      -9.636   5.993  14.109  1.00  0.00     0.042 C 
HETATM   24  C32 UNL     1      -9.658   7.986  15.713  1.00  0.00     0.175 C 
HETATM   25  C31 UNL     1      -8.664   8.902  14.980  1.00  0.00     0.154 C 
HETATM   26  C30 UNL     1      -7.242   8.598  15.424  1.00  0.00     0.095 C 
BRANCH  24  27
HETATM   27  O9  UNL     1      -9.640   8.255  17.132  1.00  0.00    -0.390 OA
HETATM   28  H49 UNL     1      -8.864   7.799  17.508  1.00  0.00     0.210 HD
ENDBRANCH  24  27
BRANCH  25  29
HETATM   29  O8  UNL     1      -8.972  10.274  15.228  1.00  0.00    -0.393 OA
HETATM   30  H47 UNL     1      -8.297  10.820  14.789  1.00  0.00     0.210 HD
ENDBRANCH  25  29
ENDBRANCH  19  20
ENDBRANCH   1  19
BRANCH  17  31
HETATM   31  O7  UNL     1      -4.175   6.434  15.624  1.00  0.00    -0.389 OA
HETATM   32  H41 UNL     1      -4.797   5.687  15.565  1.00  0.00     0.210 HD
ENDBRANCH  17  31
BRANCH   4  33
HETATM   33  C8  UNL     1      -2.172   8.209  15.692  1.00  0.00     0.068 C 
HETATM   34  N1  UNL     1      -2.696   9.128  16.428  1.00  0.00    -0.401 N 
ATOM     35  H1  UNL     1      -3.497   9.683  16.123  1.00  0.00     0.158 HD
BRANCH  34  36
HETATM   36  C9  UNL     1      -2.057   9.318  17.735  1.00  0.00     0.121 C 
BRANCH  36  37
HETATM   37  C10 UNL     1      -2.693  10.487  18.491  1.00  0.00     0.045 C 
BRANCH  37  38
HETATM   38  C11 UNL     1      -1.663  11.551  18.848  1.00  0.00     0.165 C 
BRANCH  38  39
HETATM   39  O3  UNL     1      -0.499  10.949  19.411  1.00  0.00    -0.401 OA
HETATM   40  H18 UNL     1      -0.086  10.407  18.712  1.00  0.00     0.209 HD
ENDBRANCH  38  39
ENDBRANCH  37  38
ENDBRANCH  36  37
ENDBRANCH  34  36
ENDBRANCH   4  33
BRANCH  13  41
HETATM   41  O6  UNL     1       1.458   5.482  12.598  1.00  0.00    -0.389 OA
HETATM   42  H35 UNL     1       1.008   4.624  12.566  1.00  0.00     0.210 HD
ENDBRANCH  13  41
BRANCH  10  43
HETATM   43  C18 UNL     1       3.525   7.283  10.719  1.00  0.00    -0.045 A 
HETATM   44  C19 UNL     1       4.534   8.152  10.825  1.00  0.00     0.087 A 
HETATM   45  C20 UNL     1       5.777   7.391  10.739  1.00  0.00     0.283 A 
HETATM   46  O4  UNL     1       6.891   7.878  10.792  1.00  0.00    -0.260 OA
HETATM   47  O5  UNL     1       5.484   6.077  10.574  1.00  0.00    -0.314 OA
HETATM   48  C21 UNL     1       4.063   5.906  10.581  1.00  0.00     0.213 A 
ENDBRANCH  10  43
TORSDOF 12
ENDMDL
MODEL 4
REMARK minimizedAffinity -6.35546637
REMARK CNNscore 0.434436589
REMARK CNNaffinity 5.720819
REMARK  12 active torsions:
REMARK  status: ('A' for Active; 'I' for Inactive)
REMARK    1  A    between atoms: C3_4  and  O2_5 
REMARK    2  A    between atoms: O2_5  and  C4_6 
REMARK    3  A    between atoms: C7_9  and  C8_10 
REMARK    4  A    between atoms: N1_11  and  C9_13 
REMARK    5  A    between atoms: C9_13  and  C10_14 
REMARK    6  A    between atoms: C10_14  and  C11_15 
REMARK    7  A    between atoms: C11_15  and  O3_16 
REMARK    8  A    between atoms: C17_22  and  C18_23 
REMARK    9  A    between atoms: C24_31  and  O6_32 
REMARK   10  A    between atoms: C28_36  and  O7_37 
REMARK   11  A    between atoms: C31_40  and  O8_41 
REMARK   12  A    between atoms: C32_42  and  O9_43 
ROOT
HETATM    1  C4  UNL     1     -11.194 -10.640  14.235  1.00  0.00     0.127 C 
HETATM    2  C5  UNL     1     -10.466 -11.565  15.221  1.00  0.00     0.033 C 
HETATM    3  C6  UNL     1     -11.256 -11.748  16.512  1.00  0.00     0.021 C 
HETATM    4  C7  UNL     1     -11.556 -10.416  17.278  1.00  0.00     0.026 C 
HETATM    5  C12 UNL     1     -13.040 -10.497  17.834  1.00  0.00     0.009 C 
HETATM    6  C13 UNL     1     -13.290 -11.684  18.793  1.00  0.00     0.007 C 
HETATM    7  C14 UNL     1     -14.748 -11.765  19.240  1.00  0.00     0.013 C 
HETATM    8  C15 UNL     1     -15.270 -10.460  19.909  1.00  0.00    -0.005 C 
HETATM    9  C16 UNL     1     -14.596 -10.319  21.288  1.00  0.00     0.019 C 
HETATM   10  C17 UNL     1     -16.838 -10.548  19.984  1.00  0.00     0.028 C 
HETATM   11  C22 UNL     1     -17.343  -9.901  18.670  1.00  0.00     0.013 C 
HETATM   12  C23 UNL     1     -16.113  -9.402  17.908  1.00  0.00     0.040 C 
HETATM   13  C24 UNL     1     -15.018  -9.248  18.975  1.00  0.00     0.070 C 
HETATM   14  C25 UNL     1     -13.564  -9.161  18.426  1.00  0.00     0.026 C 
HETATM   15  C26 UNL     1     -13.410  -8.036  17.387  1.00  0.00     0.011 C 
HETATM   16  C27 UNL     1     -11.969  -7.892  16.930  1.00  0.00     0.039 C 
HETATM   17  C28 UNL     1     -11.370  -9.173  16.332  1.00  0.00     0.073 C 
HETATM   18  C29 UNL     1     -11.939  -9.484  14.932  1.00  0.00     0.071 C 
ENDROOT
BRANCH   1  19
HETATM   19  O2  UNL     1     -10.294 -10.063  13.278  1.00  0.00    -0.356 OA
BRANCH  19  20
HETATM   20  C3  UNL     1     -10.399 -10.631  11.972  1.00  0.00     0.263 C 
HETATM   21  O1  UNL     1      -9.527 -11.749  11.791  1.00  0.00    -0.354 OA
HETATM   22  C2  UNL     1      -8.118 -11.474  11.683  1.00  0.00     0.151 C 
HETATM   23  C1  UNL     1      -7.472 -11.151  13.027  1.00  0.00     0.042 C 
HETATM   24  C32 UNL     1      -7.841 -10.416  10.605  1.00  0.00     0.175 C 
HETATM   25  C31 UNL     1      -8.695  -9.162  10.857  1.00  0.00     0.154 C 
HETATM   26  C30 UNL     1     -10.167  -9.534  10.937  1.00  0.00     0.095 C 
BRANCH  24  27
HETATM   27  O9  UNL     1      -8.155 -10.989   9.318  1.00  0.00    -0.390 OA
HETATM   28  H49 UNL     1      -8.975 -11.506   9.418  1.00  0.00     0.210 HD
ENDBRANCH  24  27
BRANCH  25  29
HETATM   29  O8  UNL     1      -8.489  -8.200   9.822  1.00  0.00    -0.393 OA
HETATM   30  H47 UNL     1      -9.078  -7.444   9.988  1.00  0.00     0.210 HD
ENDBRANCH  25  29
ENDBRANCH  19  20
ENDBRANCH   1  19
BRANCH  17  31
HETATM   31  O7  UNL     1      -9.971  -8.879  16.153  1.00  0.00    -0.389 OA
HETATM   32  H41 UNL     1      -9.883  -8.262  15.405  1.00  0.00     0.210 HD
ENDBRANCH  17  31
BRANCH   4  33
HETATM   33  C8  UNL     1     -10.479 -10.297  18.367  1.00  0.00     0.068 C 
HETATM   34  N1  UNL     1     -10.165  -9.182  18.933  1.00  0.00    -0.401 N 
ATOM     35  H1  UNL     1     -10.630  -8.302  18.706  1.00  0.00     0.158 HD
BRANCH  34  36
HETATM   36  C9  UNL     1      -9.091  -9.272  19.929  1.00  0.00     0.121 C 
BRANCH  36  37
HETATM   37  C10 UNL     1      -9.452 -10.267  21.035  1.00  0.00     0.045 C 
BRANCH  37  38
HETATM   38  C11 UNL     1      -8.230 -10.661  21.855  1.00  0.00     0.165 C 
BRANCH  38  39
HETATM   39  O3  UNL     1      -8.185 -12.076  22.033  1.00  0.00    -0.401 OA
HETATM   40  H18 UNL     1      -8.051 -12.475  21.152  1.00  0.00     0.209 HD
ENDBRANCH  38  39
ENDBRANCH  37  38
ENDBRANCH  36  37
ENDBRANCH  34  36
ENDBRANCH   4  33
BRANCH  13  41
HETATM   41  O6  UNL     1     -15.310  -8.046  19.703  1.00  0.00    -0.389 OA
HETATM   42  H35 UNL     1     -15.294  -7.293  19.092  1.00  0.00     0.210 HD
ENDBRANCH  13  41
BRANCH  10  43
HETATM   43  C18 UNL     1     -17.547  -9.998  21.195  1.00  0.00    -0.045 A 
HETATM   44  C19 UNL     1     -17.992  -8.745  21.317  1.00  0.00     0.087 A 
HETATM   45  C20 UNL     1     -18.561  -8.609  22.654  1.00  0.00     0.283 A 
HETATM   46  O4  UNL     1     -19.050  -7.587  23.098  1.00  0.00    -0.260 OA
HETATM   47  O5  UNL     1     -18.436  -9.789  23.312  1.00  0.00    -0.314 OA
HETATM   48  C21 UNL     1     -17.826 -10.751  22.444  1.00  0.00     0.213 A 
ENDBRANCH  10  43
TORSDOF 12
ENDMDL
MODEL 5
REMARK minimizedAffinity -8.22315311
REMARK CNNscore 0.430514365
REMARK CNNaffinity 6.36486673
REMARK  12 active torsions:
REMARK  status: ('A' for Active; 'I' for Inactive)
REMARK    1  A    between atoms: C3_4  and  O2_5 
REMARK    2  A    between atoms: O2_5  and  C4_6 
REMARK    3  A    between atoms: C7_9  and  C8_10 
REMARK    4  A    between atoms: N1_11  and  C9_13 
REMARK    5  A    between atoms: C9_13  and  C10_14 
REMARK    6  A    between atoms: C10_14  and  C11_15 
REMARK    7  A    between atoms: C11_15  and  O3_16 
REMARK    8  A    between atoms: C17_22  and  C18_23 
REMARK    9  A    between atoms: C24_31  and  O6_32 
REMARK   10  A    between atoms: C28_36  and  O7_37 
REMARK   11  A    between atoms: C31_40  and  O8_41 
REMARK   12  A    between atoms: C32_42  and  O9_43 
ROOT
HETATM    1  C4  UNL     1       0.288   8.552  12.071  1.00  0.00     0.127 C 
HETATM    2  C5  UNL     1      -1.188   8.130  12.027  1.00  0.00     0.033 C 
HETATM    3  C6  UNL     1      -2.034   8.931  13.009  1.00  0.00     0.021 C 
HETATM    4  C7  UNL     1      -1.574   8.813  14.500  1.00  0.00     0.026 C 
HETATM    5  C12 UNL     1      -1.696  10.250  15.163  1.00  0.00     0.009 C 
HETATM    6  C13 UNL     1      -3.124  10.841  15.132  1.00  0.00     0.007 C 
HETATM    7  C14 UNL     1      -3.176  12.253  15.710  1.00  0.00     0.013 C 
HETATM    8  C15 UNL     1      -2.620  12.355  17.161  1.00  0.00    -0.005 C 
HETATM    9  C16 UNL     1      -3.617  11.663  18.112  1.00  0.00     0.019 C 
HETATM   10  C17 UNL     1      -2.396  13.877  17.488  1.00  0.00     0.028 C 
HETATM   11  C22 UNL     1      -0.935  14.171  17.066  1.00  0.00     0.013 C 
HETATM   12  C23 UNL     1      -0.329  12.852  16.581  1.00  0.00     0.040 C 
HETATM   13  C24 UNL     1      -1.191  11.756  17.226  1.00  0.00     0.070 C 
HETATM   14  C25 UNL     1      -1.065  10.345  16.578  1.00  0.00     0.026 C 
HETATM   15  C26 UNL     1       0.396   9.866  16.531  1.00  0.00     0.011 C 
HETATM   16  C27 UNL     1       0.502   8.451  15.991  1.00  0.00     0.039 C 
HETATM   17  C28 UNL     1      -0.102   8.267  14.591  1.00  0.00     0.073 C 
HETATM   18  C29 UNL     1       0.768   8.911  13.492  1.00  0.00     0.071 C 
ENDROOT
BRANCH   1  19
HETATM   19  O2  UNL     1       1.154   7.525  11.566  1.00  0.00    -0.356 OA
BRANCH  19  20
HETATM   20  C3  UNL     1       0.690   6.923  10.356  1.00  0.00     0.263 C 
HETATM   21  O1  UNL     1       1.315   5.664  10.099  1.00  0.00    -0.354 OA
HETATM   22  C2  UNL     1       2.697   5.685   9.693  1.00  0.00     0.151 C 
HETATM   23  C1  UNL     1       3.651   5.954  10.852  1.00  0.00     0.042 C 
HETATM   24  C32 UNL     1       2.909   6.628   8.499  1.00  0.00     0.175 C 
HETATM   25  C31 UNL     1       2.338   8.022   8.812  1.00  0.00     0.154 C 
HETATM   26  C30 UNL     1       0.874   7.913   9.210  1.00  0.00     0.095 C 
BRANCH  24  27
HETATM   27  O9  UNL     1       2.246   6.058   7.350  1.00  0.00    -0.390 OA
HETATM   28  H49 UNL     1       1.393   5.696   7.652  1.00  0.00     0.210 HD
ENDBRANCH  24  27
BRANCH  25  29
HETATM   29  O8  UNL     1       2.475   8.884   7.682  1.00  0.00    -0.393 OA
HETATM   30  H47 UNL     1       2.062   9.737   7.899  1.00  0.00     0.210 HD
ENDBRANCH  25  29
ENDBRANCH  19  20
ENDBRANCH   1  19
BRANCH  17  31
HETATM   31  O7  UNL     1      -0.075   6.845  14.359  1.00  0.00    -0.389 OA
HETATM   32  H41 UNL     1       0.848   6.580  14.203  1.00  0.00     0.210 HD
ENDBRANCH  17  31
BRANCH   4  33
HETATM   33  C8  UNL     1      -2.473   7.745  15.142  1.00  0.00     0.068 C 
HETATM   34  N1  UNL     1      -3.681   7.512  14.756  1.00  0.00    -0.401 N 
ATOM     35  H1  UNL     1      -4.115   8.014  13.980  1.00  0.00     0.158 HD
BRANCH  34  36
HETATM   36  C9  UNL     1      -4.385   6.473  15.515  1.00  0.00     0.121 C 
BRANCH  36  37
HETATM   37  C10 UNL     1      -5.868   6.427  15.136  1.00  0.00     0.045 C 
BRANCH  37  38
HETATM   38  C11 UNL     1      -6.721   5.875  16.270  1.00  0.00     0.165 C 
BRANCH  38  39
HETATM   39  O3  UNL     1      -7.740   5.020  15.757  1.00  0.00    -0.401 OA
HETATM   40  H18 UNL     1      -7.297   4.246  15.359  1.00  0.00     0.209 HD
ENDBRANCH  38  39
ENDBRANCH  37  38
ENDBRANCH  36  37
ENDBRANCH  34  36
ENDBRANCH   4  33
BRANCH  13  41
HETATM   41  O6  UNL     1      -0.798  11.669  18.604  1.00  0.00    -0.389 OA
HETATM   42  H35 UNL     1       0.142  11.431  18.651  1.00  0.00     0.210 HD
ENDBRANCH  13  41
BRANCH  10  43
HETATM   43  C18 UNL     1      -2.698  14.382  18.876  1.00  0.00    -0.045 A 
HETATM   44  C19 UNL     1      -3.923  14.617  19.353  1.00  0.00     0.087 A 
HETATM   45  C20 UNL     1      -3.773  15.146  20.706  1.00  0.00     0.283 A 
HETATM   46  O4  UNL     1      -4.695  15.476  21.427  1.00  0.00    -0.260 OA
HETATM   47  O5  UNL     1      -2.452  15.224  21.007  1.00  0.00    -0.314 OA
HETATM   48  C21 UNL     1      -1.686  14.724  19.907  1.00  0.00     0.213 A 
ENDBRANCH  10  43
TORSDOF 12
ENDMDL
MODEL 6
REMARK minimizedAffinity -6.39690399
REMARK CNNscore 0.400412858
REMARK CNNaffinity 5.95802879
REMARK  12 active torsions:
REMARK  status: ('A' for Active; 'I' for Inactive)
REMARK    1  A    between atoms: C3_4  and  O2_5 
REMARK    2  A    between atoms: O2_5  and  C4_6 
REMARK    3  A    between atoms: C7_9  and  C8_10 
REMARK    4  A    between atoms: N1_11  and  C9_13 
REMARK    5  A    between atoms: C9_13  and  C10_14 
REMARK    6  A    between atoms: C10_14  and  C11_15 
REMARK    7  A    between atoms: C11_15  and  O3_16 
REMARK    8  A    between atoms: C17_22  and  C18_23 
REMARK    9  A    between atoms: C24_31  and  O6_32 
REMARK   10  A    between atoms: C28_36  and  O7_37 
REMARK   11  A    between atoms: C31_40  and  O8_41 
REMARK   12  A    between atoms: C32_42  and  O9_43 
ROOT
HETATM    1  C4  UNL     1     -11.615  -9.112  12.887  1.00  0.00     0.127 C 
HETATM    2  C5  UNL     1     -12.847  -9.884  13.382  1.00  0.00     0.033 C 
HETATM    3  C6  UNL     1     -14.002  -8.949  13.721  1.00  0.00     0.021 C 
HETATM    4  C7  UNL     1     -13.666  -7.882  14.816  1.00  0.00     0.026 C 
HETATM    5  C12 UNL     1     -14.332  -6.509  14.380  1.00  0.00     0.009 C 
HETATM    6  C13 UNL     1     -15.867  -6.577  14.211  1.00  0.00     0.007 C 
HETATM    7  C14 UNL     1     -16.451  -5.256  13.717  1.00  0.00     0.013 C 
HETATM    8  C15 UNL     1     -16.097  -4.039  14.622  1.00  0.00    -0.005 C 
HETATM    9  C16 UNL     1     -16.878  -4.175  15.944  1.00  0.00     0.019 C 
HETATM   10  C17 UNL     1     -16.438  -2.727  13.825  1.00  0.00     0.028 C 
HETATM   11  C22 UNL     1     -15.135  -2.359  13.074  1.00  0.00     0.013 C 
HETATM   12  C23 UNL     1     -14.072  -3.383  13.482  1.00  0.00     0.040 C 
HETATM   13  C24 UNL     1     -14.562  -3.954  14.822  1.00  0.00     0.070 C 
HETATM   14  C25 UNL     1     -13.903  -5.298  15.250  1.00  0.00     0.026 C 
HETATM   15  C26 UNL     1     -12.367  -5.197  15.283  1.00  0.00     0.011 C 
HETATM   16  C27 UNL     1     -11.735  -6.478  15.797  1.00  0.00     0.039 C 
HETATM   17  C28 UNL     1     -12.110  -7.731  14.992  1.00  0.00     0.073 C 
HETATM   18  C29 UNL     1     -11.417  -7.766  13.613  1.00  0.00     0.071 C 
ENDROOT
BRANCH   1  19
HETATM   19  O2  UNL     1     -10.408  -9.873  13.044  1.00  0.00    -0.356 OA
BRANCH  19  20
HETATM   20  C3  UNL     1      -9.550  -9.835  11.903  1.00  0.00     0.263 C 
HETATM   21  O1  UNL     1      -9.142 -11.139  11.484  1.00  0.00    -0.354 OA
HETATM   22  C2  UNL     1      -8.193 -11.831  12.318  1.00  0.00     0.151 C 
HETATM   23  C1  UNL     1      -8.822 -12.403  13.584  1.00  0.00     0.042 C 
HETATM   24  C32 UNL     1      -6.958 -10.959  12.592  1.00  0.00     0.175 C 
HETATM   25  C31 UNL     1      -7.385  -9.591  13.150  1.00  0.00     0.154 C 
HETATM   26  C30 UNL     1      -8.368  -8.920  12.204  1.00  0.00     0.095 C 
BRANCH  24  27
HETATM   27  O9  UNL     1      -6.236 -10.795  11.353  1.00  0.00    -0.390 OA
HETATM   28  H49 UNL     1      -6.893 -10.656  10.646  1.00  0.00     0.210 HD
ENDBRANCH  24  27
BRANCH  25  29
HETATM   29  O8  UNL     1      -6.245  -8.753  13.347  1.00  0.00    -0.393 OA
HETATM   30  H47 UNL     1      -6.556  -7.885  13.653  1.00  0.00     0.210 HD
ENDBRANCH  25  29
ENDBRANCH  19  20
ENDBRANCH   1  19
BRANCH  17  31
HETATM   31  O7  UNL     1     -11.578  -8.834  15.751  1.00  0.00    -0.389 OA
HETATM   32  H41 UNL     1     -10.609  -8.830  15.654  1.00  0.00     0.210 HD
ENDBRANCH  17  31
BRANCH   4  33
HETATM   33  C8  UNL     1     -14.199  -8.448  16.141  1.00  0.00     0.068 C 
HETATM   34  N1  UNL     1     -13.850  -7.994  17.296  1.00  0.00    -0.401 N 
ATOM     35  H1  UNL     1     -13.207  -7.210  17.405  1.00  0.00     0.158 HD
BRANCH  34  36
HETATM   36  C9  UNL     1     -14.447  -8.690  18.442  1.00  0.00     0.121 C 
BRANCH  36  37
HETATM   37  C10 UNL     1     -15.962  -8.475  18.484  1.00  0.00     0.045 C 
BRANCH  37  38
HETATM   38  C11 UNL     1     -16.462  -8.282  19.910  1.00  0.00     0.165 C 
BRANCH  38  39
HETATM   39  O3  UNL     1     -15.422  -7.759  20.736  1.00  0.00    -0.401 OA
HETATM   40  H18 UNL     1     -15.213  -6.864  20.407  1.00  0.00     0.209 HD
ENDBRANCH  38  39
ENDBRANCH  37  38
ENDBRANCH  36  37
ENDBRANCH  34  36
ENDBRANCH   4  33
BRANCH  13  41
HETATM   41  O6  UNL     1     -14.288  -2.964  15.824  1.00  0.00    -0.389 OA
HETATM   42  H35 UNL     1     -13.333  -2.800  15.856  1.00  0.00     0.210 HD
ENDBRANCH  13  41
BRANCH  10  43
HETATM   43  C18 UNL     1     -17.019  -1.549  14.564  1.00  0.00    -0.045 A 
HETATM   44  C19 UNL     1     -16.302  -0.573  15.129  1.00  0.00     0.087 A 
HETATM   45  C20 UNL     1     -17.238   0.334  15.786  1.00  0.00     0.283 A 
HETATM   46  O4  UNL     1     -16.917   1.330  16.407  1.00  0.00    -0.260 OA
HETATM   47  O5  UNL     1     -18.502  -0.126  15.608  1.00  0.00    -0.314 OA
HETATM   48  C21 UNL     1     -18.464  -1.312  14.807  1.00  0.00     0.213 A 
ENDBRANCH  10  43
TORSDOF 12
ENDMDL
MODEL 7
REMARK minimizedAffinity -7.4241457
REMARK CNNscore 0.386940122
REMARK CNNaffinity 5.85415268
REMARK  12 active torsions:
REMARK  status: ('A' for Active; 'I' for Inactive)
REMARK    1  A    between atoms: C3_4  and  O2_5 
REMARK    2  A    between atoms: O2_5  and  C4_6 
REMARK    3  A    between atoms: C7_9  and  C8_10 
REMARK    4  A    between atoms: N1_11  and  C9_13 
REMARK    5  A    between atoms: C9_13  and  C10_14 
REMARK    6  A    between atoms: C10_14  and  C11_15 
REMARK    7  A    between atoms: C11_15  and  O3_16 
REMARK    8  A    between atoms: C17_22  and  C18_23 
REMARK    9  A    between atoms: C24_31  and  O6_32 
REMARK   10  A    between atoms: C28_36  and  O7_37 
REMARK   11  A    between atoms: C31_40  and  O8_41 
REMARK   12  A    between atoms: C32_42  and  O9_43 
ROOT
HETATM    1  C4  UNL     1      -5.202  -9.126   7.088  1.00  0.00     0.127 C 
HETATM    2  C5  UNL     1      -3.702  -9.449   7.014  1.00  0.00     0.033 C 
HETATM    3  C6  UNL     1      -3.280  -9.851   5.606  1.00  0.00     0.021 C 
HETATM    4  C7  UNL     1      -4.039 -11.096   5.037  1.00  0.00     0.026 C 
HETATM    5  C12 UNL     1      -4.358 -10.816   3.508  1.00  0.00     0.009 C 
HETATM    6  C13 UNL     1      -3.106 -10.562   2.638  1.00  0.00     0.007 C 
HETATM    7  C14 UNL     1      -3.468 -10.221   1.194  1.00  0.00     0.013 C 
HETATM    8  C15 UNL     1      -4.352 -11.299   0.501  1.00  0.00    -0.005 C 
HETATM    9  C16 UNL     1      -3.486 -12.549   0.250  1.00  0.00     0.019 C 
HETATM   10  C17 UNL     1      -4.940 -10.670  -0.815  1.00  0.00     0.028 C 
HETATM   11  C22 UNL     1      -6.292 -10.043  -0.395  1.00  0.00     0.013 C 
HETATM   12  C23 UNL     1      -6.499 -10.362   1.088  1.00  0.00     0.040 C 
HETATM   13  C24 UNL     1      -5.611 -11.586   1.360  1.00  0.00     0.070 C 
HETATM   14  C25 UNL     1      -5.304 -11.863   2.861  1.00  0.00     0.026 C 
HETATM   15  C26 UNL     1      -6.592 -11.987   3.695  1.00  0.00     0.011 C 
HETATM   16  C27 UNL     1      -6.290 -12.355   5.136  1.00  0.00     0.039 C 
HETATM   17  C28 UNL     1      -5.355 -11.370   5.853  1.00  0.00     0.073 C 
HETATM   18  C29 UNL     1      -6.058 -10.037   6.184  1.00  0.00     0.071 C 
ENDROOT
BRANCH   1  19
HETATM   19  O2  UNL     1      -5.708  -9.240   8.426  1.00  0.00    -0.356 OA
BRANCH  19  20
HETATM   20  C3  UNL     1      -7.032  -8.729   8.587  1.00  0.00     0.263 C 
HETATM   21  O1  UNL     1      -7.142  -7.840   9.700  1.00  0.00    -0.354 OA
HETATM   22  C2  UNL     1      -7.083  -8.421  11.016  1.00  0.00     0.151 C 
HETATM   23  C1  UNL     1      -5.668  -8.811  11.430  1.00  0.00     0.042 C 
HETATM   24  C32 UNL     1      -8.097  -9.567  11.160  1.00  0.00     0.175 C 
HETATM   25  C31 UNL     1      -7.911 -10.589  10.027  1.00  0.00     0.154 C 
HETATM   26  C30 UNL     1      -8.007  -9.900   8.675  1.00  0.00     0.095 C 
BRANCH  24  27
HETATM   27  O9  UNL     1      -9.425  -9.003  11.118  1.00  0.00    -0.390 OA
HETATM   28  H49 UNL     1      -9.430  -8.314  10.428  1.00  0.00     0.210 HD
ENDBRANCH  24  27
BRANCH  25  29
HETATM   29  O8  UNL     1      -8.892 -11.623  10.120  1.00  0.00    -0.393 OA
HETATM   30  H47 UNL     1      -8.774 -12.222   9.363  1.00  0.00     0.210 HD
ENDBRANCH  25  29
ENDBRANCH  19  20
ENDBRANCH   1  19
BRANCH  17  31
HETATM   31  O7  UNL     1      -5.048 -11.999   7.112  1.00  0.00    -0.389 OA
HETATM   32  H41 UNL     1      -5.840 -11.953   7.677  1.00  0.00     0.210 HD
ENDBRANCH  17  31
BRANCH   4  33
HETATM   33  C8  UNL     1      -3.120 -12.304   5.278  1.00  0.00     0.068 C 
HETATM   34  N1  UNL     1      -2.162 -12.635   4.482  1.00  0.00    -0.401 N 
ATOM     35  H1  UNL     1      -1.938 -12.100   3.642  1.00  0.00     0.158 HD
BRANCH  34  36
HETATM   36  C9  UNL     1      -1.418 -13.838   4.872  1.00  0.00     0.121 C 
BRANCH  36  37
HETATM   37  C10 UNL     1      -0.678 -14.436   3.673  1.00  0.00     0.045 C 
BRANCH  37  38
HETATM   38  C11 UNL     1       0.828 -14.239   3.789  1.00  0.00     0.165 C 
BRANCH  38  39
HETATM   39  O3  UNL     1       1.199 -14.022   5.150  1.00  0.00    -0.401 OA
HETATM   40  H18 UNL     1       1.002 -14.844   5.638  1.00  0.00     0.209 HD
ENDBRANCH  38  39
ENDBRANCH  37  38
ENDBRANCH  36  37
ENDBRANCH  34  36
ENDBRANCH   4  33
BRANCH  13  41
HETATM   41  O6  UNL     1      -6.286 -12.726   0.808  1.00  0.00    -0.389 OA
HETATM   42  H35 UNL     1      -7.146 -12.828   1.247  1.00  0.00     0.210 HD
ENDBRANCH  13  41
BRANCH  10  43
HETATM   43  C18 UNL     1      -5.072 -11.531  -2.045  1.00  0.00    -0.045 A 
HETATM   44  C19 UNL     1      -4.091 -11.765  -2.922  1.00  0.00     0.087 A 
HETATM   45  C20 UNL     1      -4.646 -12.595  -3.988  1.00  0.00     0.283 A 
HETATM   46  O4  UNL     1      -4.021 -12.986  -4.956  1.00  0.00    -0.260 OA
HETATM   47  O5  UNL     1      -5.956 -12.832  -3.730  1.00  0.00    -0.314 OA
HETATM   48  C21 UNL     1      -6.312 -12.218  -2.487  1.00  0.00     0.213 A 
ENDBRANCH  10  43
TORSDOF 12
ENDMDL
MODEL 8
REMARK minimizedAffinity -8.11278439
REMARK CNNscore 0.381838828
REMARK CNNaffinity 6.72529268
REMARK  12 active torsions:
REMARK  status: ('A' for Active; 'I' for Inactive)
REMARK    1  A    between atoms: C3_4  and  O2_5 
REMARK    2  A    between atoms: O2_5  and  C4_6 
REMARK    3  A    between atoms: C7_9  and  C8_10 
REMARK    4  A    between atoms: N1_11  and  C9_13 
REMARK    5  A    between atoms: C9_13  and  C10_14 
REMARK    6  A    between atoms: C10_14  and  C11_15 
REMARK    7  A    between atoms: C11_15  and  O3_16 
REMARK    8  A    between atoms: C17_22  and  C18_23 
REMARK    9  A    between atoms: C24_31  and  O6_32 
REMARK   10  A    between atoms: C28_36  and  O7_37 
REMARK   11  A    between atoms: C31_40  and  O8_41 
REMARK   12  A    between atoms: C32_42  and  O9_43 
ROOT
HETATM    1  C4  UNL     1      -2.900   5.338  14.948  1.00  0.00     0.127 C 
HETATM    2  C5  UNL     1      -1.436   5.540  14.531  1.00  0.00     0.033 C 
HETATM    3  C6  UNL     1      -0.889   6.876  15.020  1.00  0.00     0.021 C 
HETATM    4  C7  UNL     1      -1.682   8.124  14.506  1.00  0.00     0.026 C 
HETATM    5  C12 UNL     1      -1.794   9.157  15.705  1.00  0.00     0.009 C 
HETATM    6  C13 UNL     1      -0.431   9.632  16.259  1.00  0.00     0.007 C 
HETATM    7  C14 UNL     1      -0.590  10.563  17.459  1.00  0.00     0.013 C 
HETATM    8  C15 UNL     1      -1.478  11.809  17.170  1.00  0.00    -0.005 C 
HETATM    9  C16 UNL     1      -0.700  12.750  16.228  1.00  0.00     0.019 C 
HETATM   10  C17 UNL     1      -1.850  12.469  18.548  1.00  0.00     0.028 C 
HETATM   11  C22 UNL     1      -3.182  11.801  18.969  1.00  0.00     0.013 C 
HETATM   12  C23 UNL     1      -3.589  10.848  17.842  1.00  0.00     0.040 C 
HETATM   13  C24 UNL     1      -2.849  11.364  16.598  1.00  0.00     0.070 C 
HETATM   14  C25 UNL     1      -2.745  10.350  15.421  1.00  0.00     0.026 C 
HETATM   15  C26 UNL     1      -4.128   9.824  14.996  1.00  0.00     0.011 C 
HETATM   16  C27 UNL     1      -4.030   8.914  13.784  1.00  0.00     0.039 C 
HETATM   17  C28 UNL     1      -3.104   7.705  13.980  1.00  0.00     0.073 C 
HETATM   18  C29 UNL     1      -3.721   6.643  14.914  1.00  0.00     0.071 C 
ENDROOT
BRANCH   1  19
HETATM   19  O2  UNL     1      -3.568   4.382  14.112  1.00  0.00    -0.356 OA
BRANCH  19  20
HETATM   20  C3  UNL     1      -3.356   4.591  12.715  1.00  0.00     0.263 C 
HETATM   21  O1  UNL     1      -4.554   4.963  12.031  1.00  0.00    -0.354 OA
HETATM   22  C2  UNL     1      -5.551   3.941  11.843  1.00  0.00     0.151 C 
HETATM   23  C1  UNL     1      -6.337   3.638  13.115  1.00  0.00     0.042 C 
HETATM   24  C32 UNL     1      -4.944   2.689  11.191  1.00  0.00     0.175 C 
HETATM   25  C31 UNL     1      -3.717   2.214  11.988  1.00  0.00     0.154 C 
HETATM   26  C30 UNL     1      -2.707   3.343  12.122  1.00  0.00     0.095 C 
BRANCH  24  27
HETATM   27  O9  UNL     1      -4.568   3.022   9.838  1.00  0.00    -0.390 OA
HETATM   28  H49 UNL     1      -4.171   3.913   9.853  1.00  0.00     0.210 HD
ENDBRANCH  24  27
BRANCH  25  29
HETATM   29  O8  UNL     1      -3.111   1.089  11.350  1.00  0.00    -0.393 OA
HETATM   30  H47 UNL     1      -2.315   0.848  11.853  1.00  0.00     0.210 HD
ENDBRANCH  25  29
ENDBRANCH  19  20
ENDBRANCH   1  19
BRANCH  17  31
HETATM   31  O7  UNL     1      -3.002   7.101  12.676  1.00  0.00    -0.389 OA
HETATM   32  H41 UNL     1      -3.847   6.661  12.478  1.00  0.00     0.210 HD
ENDBRANCH  17  31
BRANCH   4  33
HETATM   33  C8  UNL     1      -0.907   8.651  13.289  1.00  0.00     0.068 C 
HETATM   34  N1  UNL     1      -0.004   7.967  12.674  1.00  0.00    -0.401 N 
ATOM     35  H1  UNL     1       0.243   7.016  12.947  1.00  0.00     0.158 HD
BRANCH  34  36
HETATM   36  C9  UNL     1       0.643   8.659  11.554  1.00  0.00     0.121 C 
BRANCH  36  37
HETATM   37  C10 UNL     1       0.636   7.788  10.295  1.00  0.00     0.045 C 
BRANCH  37  38
HETATM   38  C11 UNL     1      -0.200   8.412   9.185  1.00  0.00     0.165 C 
BRANCH  38  39
HETATM   39  O3  UNL     1       0.636   9.116   8.268  1.00  0.00    -0.401 OA
HETATM   40  H18 UNL     1       1.206   8.456   7.829  1.00  0.00     0.209 HD
ENDBRANCH  38  39
ENDBRANCH  37  38
ENDBRANCH  36  37
ENDBRANCH  34  36
ENDBRANCH   4  33
BRANCH  13  41
HETATM   41  O6  UNL     1      -3.552  12.529  16.145  1.00  0.00    -0.389 OA
HETATM   42  H35 UNL     1      -4.462  12.282  15.918  1.00  0.00     0.210 HD
ENDBRANCH  13  41
BRANCH  10  43
HETATM   43  C18 UNL     1      -1.911  13.972  18.649  1.00  0.00    -0.045 A 
HETATM   44  C19 UNL     1      -3.005  14.707  18.432  1.00  0.00     0.087 A 
HETATM   45  C20 UNL     1      -2.625  16.110  18.576  1.00  0.00     0.283 A 
HETATM   46  O4  UNL     1      -3.383  17.051  18.434  1.00  0.00    -0.260 OA
HETATM   47  O5  UNL     1      -1.303  16.184  18.870  1.00  0.00    -0.314 OA
HETATM   48  C21 UNL     1      -0.766  14.860  18.970  1.00  0.00     0.213 A 
ENDBRANCH  10  43
TORSDOF 12
ENDMDL
MODEL 9
REMARK minimizedAffinity -7.58266926
REMARK CNNscore 0.351814061
REMARK CNNaffinity 5.86004114
REMARK  12 active torsions:
REMARK  status: ('A' for Active; 'I' for Inactive)
REMARK    1  A    between atoms: C3_4  and  O2_5 
REMARK    2  A    between atoms: O2_5  and  C4_6 
REMARK    3  A    between atoms: C7_9  and  C8_10 
REMARK    4  A    between atoms: N1_11  and  C9_13 
REMARK    5  A    between atoms: C9_13  and  C10_14 
REMARK    6  A    between atoms: C10_14  and  C11_15 
REMARK    7  A    between atoms: C11_15  and  O3_16 
REMARK    8  A    between atoms: C17_22  and  C18_23 
REMARK    9  A    between atoms: C24_31  and  O6_32 
REMARK   10  A    between atoms: C28_36  and  O7_37 
REMARK   11  A    between atoms: C31_40  and  O8_41 
REMARK   12  A    between atoms: C32_42  and  O9_43 
ROOT
HETATM    1  C4  UNL     1      -2.469  12.833  18.395  1.00  0.00     0.127 C 
HETATM    2  C5  UNL     1      -2.301  11.306  18.409  1.00  0.00     0.033 C 
HETATM    3  C6  UNL     1      -1.024  10.886  19.129  1.00  0.00     0.021 C 
HETATM    4  C7  UNL     1       0.287  11.480  18.515  1.00  0.00     0.026 C 
HETATM    5  C12 UNL     1       1.242  11.895  19.713  1.00  0.00     0.009 C 
HETATM    6  C13 UNL     1       1.621  10.727  20.652  1.00  0.00     0.007 C 
HETATM    7  C14 UNL     1       2.476  11.190  21.829  1.00  0.00     0.013 C 
HETATM    8  C15 UNL     1       3.774  11.937  21.404  1.00  0.00    -0.005 C 
HETATM    9  C16 UNL     1       4.743  10.910  20.785  1.00  0.00     0.019 C 
HETATM   10  C17 UNL     1       4.355  12.660  22.674  1.00  0.00     0.028 C 
HETATM   11  C22 UNL     1       3.717  14.071  22.664  1.00  0.00     0.013 C 
HETATM   12  C23 UNL     1       2.859  14.172  21.400  1.00  0.00     0.040 C 
HETATM   13  C24 UNL     1       3.425  13.107  20.448  1.00  0.00     0.070 C 
HETATM   14  C25 UNL     1       2.489  12.705  19.270  1.00  0.00     0.026 C 
HETATM   15  C26 UNL     1       2.051  13.929  18.445  1.00  0.00     0.011 C 
HETATM   16  C27 UNL     1       1.221  13.521  17.241  1.00  0.00     0.039 C 
HETATM   17  C28 UNL     1      -0.036  12.710  17.590  1.00  0.00     0.073 C 
HETATM   18  C29 UNL     1      -1.131  13.584  18.237  1.00  0.00     0.071 C 
ENDROOT
BRANCH   1  19
HETATM   19  O2  UNL     1      -3.338  13.265  17.338  1.00  0.00    -0.356 OA
BRANCH  19  20
HETATM   20  C3  UNL     1      -3.221  14.655  17.028  1.00  0.00     0.263 C 
HETATM   21  O1  UNL     1      -4.458  15.354  17.180  1.00  0.00    -0.354 OA
HETATM   22  C2  UNL     1      -5.482  15.103  16.199  1.00  0.00     0.151 C 
HETATM   23  C1  UNL     1      -6.182  13.763  16.401  1.00  0.00     0.042 C 
HETATM   24  C32 UNL     1      -4.943  15.300  14.774  1.00  0.00     0.175 C 
HETATM   25  C31 UNL     1      -3.671  14.461  14.564  1.00  0.00     0.154 C 
HETATM   26  C30 UNL     1      -2.636  14.799  15.625  1.00  0.00     0.095 C 
BRANCH  24  27
HETATM   27  O9  UNL     1      -4.658  16.703  14.589  1.00  0.00    -0.390 OA
HETATM   28  H49 UNL     1      -4.246  17.030  15.409  1.00  0.00     0.210 HD
ENDBRANCH  24  27
BRANCH  25  29
HETATM   29  O8  UNL     1      -3.131  14.689  13.263  1.00  0.00    -0.393 OA
HETATM   30  H47 UNL     1      -2.305  14.181  13.184  1.00  0.00     0.210 HD
ENDBRANCH  25  29
ENDBRANCH  19  20
ENDBRANCH   1  19
BRANCH  17  31
HETATM   31  O7  UNL     1      -0.556  12.267  16.322  1.00  0.00    -0.389 OA
HETATM   32  H41 UNL     1      -0.946  13.034  15.868  1.00  0.00     0.210 HD
ENDBRANCH  17  31
BRANCH   4  33
HETATM   33  C8  UNL     1       0.862  10.388  17.599  1.00  0.00     0.068 C 
HETATM   34  N1  UNL     1       0.183   9.819  16.663  1.00  0.00    -0.401 N 
ATOM     35  H1  UNL     1      -0.784  10.073  16.456  1.00  0.00     0.158 HD
BRANCH  34  36
HETATM   36  C9  UNL     1       0.902   8.779  15.919  1.00  0.00     0.121 C 
BRANCH  36  37
HETATM   37  C10 UNL     1       0.049   8.241  14.768  1.00  0.00     0.045 C 
BRANCH  37  38
HETATM   38  C11 UNL     1      -0.906   7.152  15.239  1.00  0.00     0.165 C 
BRANCH  38  39
HETATM   39  O3  UNL     1      -0.195   6.137  15.945  1.00  0.00    -0.401 OA
HETATM   40  H18 UNL     1       0.161   6.544  16.757  1.00  0.00     0.209 HD
ENDBRANCH  38  39
ENDBRANCH  37  38
ENDBRANCH  36  37
ENDBRANCH  34  36
ENDBRANCH   4  33
BRANCH  13  41
HETATM   41  O6  UNL     1       4.647  13.632  19.909  1.00  0.00    -0.389 OA
HETATM   42  H35 UNL     1       4.454  14.450  19.425  1.00  0.00     0.210 HD
ENDBRANCH  13  41
BRANCH  10  43
HETATM   43  C18 UNL     1       5.849  12.714  22.868  1.00  0.00    -0.045 A 
HETATM   44  C19 UNL     1       6.638  11.647  23.021  1.00  0.00     0.087 A 
HETATM   45  C20 UNL     1       7.998  12.135  23.236  1.00  0.00     0.283 A 
HETATM   46  O4  UNL     1       8.967  11.424  23.420  1.00  0.00    -0.260 OA
HETATM   47  O5  UNL     1       7.991  13.491  23.217  1.00  0.00    -0.314 OA
HETATM   48  C21 UNL     1       6.662  13.954  22.954  1.00  0.00     0.213 A 
ENDBRANCH  10  43
TORSDOF 12
ENDMDL
