MODEL 1
REMARK minimizedAffinity -8.94565868
REMARK CNNscore 0.610408068
REMARK CNNaffinity 7.24621153
REMARK  4 active torsions:
REMARK  status: ('A' for Active; 'I' for Inactive)
REMARK    1  A    between atoms: C4_4  and  C5_5 
REMARK    2  A    between atoms: C5_5  and  C6_6 
REMARK    3  A    between atoms: C6_6  and  C7_7 
REMARK    4  A    between atoms: C7_7  and  C9_9 
ROOT
HETATM    1  C9  UNL     1      -6.604   7.217  14.386  1.00  0.00    -0.002 C 
HETATM    2  C10 UNL     1      -6.348   8.552  15.148  1.00  0.00     0.006 C 
HETATM    3  C11 UNL     1      -4.826   8.769  15.222  1.00  0.00     0.011 C 
HETATM    4  C12 UNL     1      -4.235   7.776  14.207  1.00  0.00    -0.032 C 
HETATM    5  C13 UNL     1      -4.338   8.453  12.804  1.00  0.00     0.016 C 
HETATM    6  C14 UNL     1      -2.762   7.350  14.479  1.00  0.00     0.004 C 
HETATM    7  C15 UNL     1      -1.755   8.519  14.450  1.00  0.00     0.007 C 
HETATM    8  C16 UNL     1      -1.049   8.725  13.115  1.00  0.00     0.007 C 
HETATM    9  C17 UNL     1      -0.173   7.517  12.739  1.00  0.00     0.010 C 
HETATM   10  C18 UNL     1       0.652   7.766  11.427  1.00  0.00     0.018 C 
HETATM   11  C19 UNL     1       1.786   8.779  11.721  1.00  0.00     0.023 C 
HETATM   12  C20 UNL     1      -0.182   8.331  10.261  1.00  0.00     0.023 C 
HETATM   13  C21 UNL     1       1.323   6.471  10.946  1.00  0.00     0.135 C 
HETATM   14  O1  UNL     1       2.395   6.476  10.334  1.00  0.00    -0.297 OA
HETATM   15  C22 UNL     1       0.643   5.154  11.224  1.00  0.00     0.080 C 
HETATM   16  C23 UNL     1      -0.828   5.330  11.538  1.00  0.00     0.018 C 
HETATM   17  C24 UNL     1      -1.016   6.224  12.750  1.00  0.00    -0.026 A 
HETATM   18  C25 UNL     1      -1.043   5.492  14.070  1.00  0.00     0.021 A 
HETATM   19  C26 UNL     1      -2.327   6.148  13.597  1.00  0.00    -0.027 A 
HETATM   20  C27 UNL     1      -3.421   5.110  13.255  1.00  0.00     0.011 C 
HETATM   21  C28 UNL     1      -4.885   5.575  13.251  1.00  0.00     0.011 C 
HETATM   22  C29 UNL     1      -5.194   6.538  14.405  1.00  0.00    -0.032 C 
HETATM   23  C30 UNL     1      -5.002   5.799  15.766  1.00  0.00     0.016 C 
ENDROOT
BRANCH   1  24
HETATM   24  C7  UNL     1      -7.855   6.463  14.942  1.00  0.00    -0.014 C 
HETATM   25  C8  UNL     1      -8.161   6.927  16.380  1.00  0.00     0.010 C 
BRANCH  24  26
HETATM   26  C6  UNL     1      -9.103   6.642  14.047  1.00  0.00     0.008 C 
BRANCH  26  27
HETATM   27  C5  UNL     1     -10.227   7.480  14.675  1.00  0.00     0.028 C 
BRANCH  27  28
HETATM   28  C4  UNL     1     -11.574   7.008  14.194  1.00  0.00    -0.025 C 
HETATM   29  C2  UNL     1     -12.385   7.590  13.289  1.00  0.00    -0.091 C 
HETATM   30  C1  UNL     1     -13.710   6.964  12.940  1.00  0.00     0.042 C 
HETATM   31  C3  UNL     1     -12.091   8.861  12.542  1.00  0.00     0.042 C 
ENDBRANCH  27  28
ENDBRANCH  26  27
ENDBRANCH  24  26
ENDBRANCH   1  24
TORSDOF 4
ENDMDL
MODEL 2
REMARK minimizedAffinity -8.05959892
REMARK CNNscore 0.462334931
REMARK CNNaffinity 6.56471825
REMARK  4 active torsions:
REMARK  status: ('A' for Active; 'I' for Inactive)
REMARK    1  A    between atoms: C4_4  and  C5_5 
REMARK    2  A    between atoms: C5_5  and  C6_6 
REMARK    3  A    between atoms: C6_6  and  C7_7 
REMARK    4  A    between atoms: C7_7  and  C9_9 
ROOT
HETATM    1  C9  UNL     1      -0.600  11.975  18.835  1.00  0.00    -0.002 C 
HETATM    2  C10 UNL     1      -1.925  12.783  18.971  1.00  0.00     0.006 C 
HETATM    3  C11 UNL     1      -2.831  12.408  17.784  1.00  0.00     0.011 C 
HETATM    4  C12 UNL     1      -2.195  11.142  17.185  1.00  0.00    -0.032 C 
HETATM    5  C13 UNL     1      -2.696   9.938  18.044  1.00  0.00     0.016 C 
HETATM    6  C14 UNL     1      -2.515  10.887  15.683  1.00  0.00     0.004 C 
HETATM    7  C15 UNL     1      -4.018  10.696  15.386  1.00  0.00     0.007 C 
HETATM    8  C16 UNL     1      -4.484   9.245  15.340  1.00  0.00     0.007 C 
HETATM    9  C17 UNL     1      -3.813   8.466  14.195  1.00  0.00     0.010 C 
HETATM   10  C18 UNL     1      -4.372   7.005  14.062  1.00  0.00     0.018 C 
HETATM   11  C19 UNL     1      -5.807   7.059  13.481  1.00  0.00     0.023 C 
HETATM   12  C20 UNL     1      -4.442   6.237  15.397  1.00  0.00     0.023 C 
HETATM   13  C21 UNL     1      -3.525   6.179  13.083  1.00  0.00     0.135 C 
HETATM   14  O1  UNL     1      -4.009   5.270  12.402  1.00  0.00    -0.297 OA
HETATM   15  C22 UNL     1      -2.054   6.484  12.960  1.00  0.00     0.080 C 
HETATM   16  C23 UNL     1      -1.533   7.258  14.152  1.00  0.00     0.018 C 
HETATM   17  C24 UNL     1      -2.277   8.572  14.307  1.00  0.00    -0.026 A 
HETATM   18  C25 UNL     1      -1.662   9.732  13.559  1.00  0.00     0.021 A 
HETATM   19  C26 UNL     1      -1.626   9.768  15.076  1.00  0.00    -0.027 A 
HETATM   20  C27 UNL     1      -0.187   9.653  15.627  1.00  0.00     0.011 C 
HETATM   21  C28 UNL     1       0.087  10.163  17.051  1.00  0.00     0.011 C 
HETATM   22  C29 UNL     1      -0.660  11.468  17.356  1.00  0.00    -0.032 C 
HETATM   23  C30 UNL     1      -0.144  12.597  16.409  1.00  0.00     0.016 C 
ENDROOT
BRANCH   1  24
HETATM   24  C7  UNL     1       0.631  12.791  19.346  1.00  0.00    -0.014 C 
HETATM   25  C8  UNL     1       0.213  14.239  19.670  1.00  0.00     0.010 C 
BRANCH  24  26
HETATM   26  C6  UNL     1       1.305  12.142  20.577  1.00  0.00     0.008 C 
BRANCH  26  27
HETATM   27  C5  UNL     1       2.252  10.978  20.250  1.00  0.00     0.028 C 
BRANCH  27  28
HETATM   28  C4  UNL     1       2.027   9.828  21.196  1.00  0.00    -0.025 C 
HETATM   29  C2  UNL     1       2.837   9.390  22.180  1.00  0.00    -0.091 C 
HETATM   30  C1  UNL     1       2.437   8.208  23.026  1.00  0.00     0.042 C 
HETATM   31  C3  UNL     1       4.163   9.991  22.554  1.00  0.00     0.042 C 
ENDBRANCH  27  28
ENDBRANCH  26  27
ENDBRANCH  24  26
ENDBRANCH   1  24
TORSDOF 4
ENDMDL
MODEL 3
REMARK minimizedAffinity -8.31624508
REMARK CNNscore 0.444697559
REMARK CNNaffinity 7.17022324
REMARK  4 active torsions:
REMARK  status: ('A' for Active; 'I' for Inactive)
REMARK    1  A    between atoms: C4_4  and  C5_5 
REMARK    2  A    between atoms: C5_5  and  C6_6 
REMARK    3  A    between atoms: C6_6  and  C7_7 
REMARK    4  A    between atoms: C7_7  and  C9_9 
ROOT
HETATM    1  C9  UNL     1      -3.404   6.286  13.137  1.00  0.00    -0.002 C 
HETATM    2  C10 UNL     1      -3.736   4.786  12.874  1.00  0.00     0.006 C 
HETATM    3  C11 UNL     1      -5.116   4.494  13.490  1.00  0.00     0.011 C 
HETATM    4  C12 UNL     1      -5.725   5.877  13.773  1.00  0.00    -0.032 C 
HETATM    5  C13 UNL     1      -6.347   6.378  12.432  1.00  0.00     0.016 C 
HETATM    6  C14 UNL     1      -6.802   5.909  14.898  1.00  0.00     0.004 C 
HETATM    7  C15 UNL     1      -8.041   5.037  14.605  1.00  0.00     0.007 C 
HETATM    8  C16 UNL     1      -9.217   5.780  13.982  1.00  0.00     0.007 C 
HETATM    9  C17 UNL     1      -9.779   6.856  14.927  1.00  0.00     0.010 C 
HETATM   10  C18 UNL     1     -11.063   7.547  14.347  1.00  0.00     0.018 C 
HETATM   11  C19 UNL     1     -12.250   6.553  14.411  1.00  0.00     0.023 C 
HETATM   12  C20 UNL     1     -10.920   8.002  12.881  1.00  0.00     0.023 C 
HETATM   13  C21 UNL     1     -11.457   8.770  15.187  1.00  0.00     0.135 C 
HETATM   14  O1  UNL     1     -12.632   9.132  15.307  1.00  0.00    -0.297 OA
HETATM   15  C22 UNL     1     -10.373   9.555  15.879  1.00  0.00     0.080 C 
HETATM   16  C23 UNL     1      -9.009   9.294  15.276  1.00  0.00     0.018 C 
HETATM   17  C24 UNL     1      -8.655   7.821  15.364  1.00  0.00    -0.026 A 
HETATM   18  C25 UNL     1      -7.932   7.425  16.630  1.00  0.00     0.021 A 
HETATM   19  C26 UNL     1      -7.163   7.358  15.323  1.00  0.00    -0.027 A 
HETATM   20  C27 UNL     1      -6.022   8.400  15.264  1.00  0.00     0.011 C 
HETATM   21  C28 UNL     1      -4.865   8.154  14.284  1.00  0.00     0.011 C 
HETATM   22  C29 UNL     1      -4.446   6.678  14.237  1.00  0.00    -0.032 C 
HETATM   23  C30 UNL     1      -3.900   6.246  15.634  1.00  0.00     0.016 C 
ENDROOT
BRANCH   1  24
HETATM   24  C7  UNL     1      -1.876   6.508  13.375  1.00  0.00    -0.014 C 
HETATM   25  C8  UNL     1      -1.360   5.541  14.459  1.00  0.00     0.010 C 
BRANCH  24  26
HETATM   26  C6  UNL     1      -1.043   6.352  12.082  1.00  0.00     0.008 C 
BRANCH  26  27
HETATM   27  C5  UNL     1      -0.298   7.621  11.644  1.00  0.00     0.028 C 
BRANCH  27  28
HETATM   28  C4  UNL     1       0.816   7.280  10.689  1.00  0.00    -0.025 C 
HETATM   29  C2  UNL     1       0.929   7.616   9.389  1.00  0.00    -0.091 C 
HETATM   30  C1  UNL     1       2.126   7.172   8.589  1.00  0.00     0.042 C 
HETATM   31  C3  UNL     1      -0.059   8.439   8.609  1.00  0.00     0.042 C 
ENDBRANCH  27  28
ENDBRANCH  26  27
ENDBRANCH  24  26
ENDBRANCH   1  24
TORSDOF 4
ENDMDL
MODEL 4
REMARK minimizedAffinity -6.95826006
REMARK CNNscore 0.422603518
REMARK CNNaffinity 6.31406021
REMARK  4 active torsions:
REMARK  status: ('A' for Active; 'I' for Inactive)
REMARK    1  A    between atoms: C4_4  and  C5_5 
REMARK    2  A    between atoms: C5_5  and  C6_6 
REMARK    3  A    between atoms: C6_6  and  C7_7 
REMARK    4  A    between atoms: C7_7  and  C9_9 
ROOT
HETATM    1  C9  UNL     1      -0.201   8.687  13.801  1.00  0.00    -0.002 C 
HETATM    2  C10 UNL     1      -1.239   7.578  14.147  1.00  0.00     0.006 C 
HETATM    3  C11 UNL     1      -1.866   7.926  15.509  1.00  0.00     0.011 C 
HETATM    4  C12 UNL     1      -1.469   9.390  15.766  1.00  0.00    -0.032 C 
HETATM    5  C13 UNL     1      -2.490  10.276  14.985  1.00  0.00     0.016 C 
HETATM    6  C14 UNL     1      -1.438   9.814  17.263  1.00  0.00     0.004 C 
HETATM    7  C15 UNL     1      -2.801   9.693  17.978  1.00  0.00     0.007 C 
HETATM    8  C16 UNL     1      -3.619  10.978  18.022  1.00  0.00     0.007 C 
HETATM    9  C17 UNL     1      -2.911  12.078  18.833  1.00  0.00     0.010 C 
HETATM   10  C18 UNL     1      -3.796  13.366  18.988  1.00  0.00     0.018 C 
HETATM   11  C19 UNL     1      -4.954  13.074  19.974  1.00  0.00     0.023 C 
HETATM   12  C20 UNL     1      -4.424  13.855  17.668  1.00  0.00     0.023 C 
HETATM   13  C21 UNL     1      -2.981  14.524  19.584  1.00  0.00     0.135 C 
HETATM   14  O1  UNL     1      -3.500  15.395  20.288  1.00  0.00    -0.297 OA
HETATM   15  C22 UNL     1      -1.505  14.600  19.289  1.00  0.00     0.080 C 
HETATM   16  C23 UNL     1      -1.125  13.779  18.075  1.00  0.00     0.018 C 
HETATM   17  C24 UNL     1      -1.492  12.320  18.277  1.00  0.00    -0.026 A 
HETATM   18  C25 UNL     1      -0.407  11.484  18.913  1.00  0.00     0.021 A 
HETATM   19  C26 UNL     1      -0.765  11.199  17.466  1.00  0.00    -0.027 A 
HETATM   20  C27 UNL     1       0.389  11.554  16.500  1.00  0.00     0.011 C 
HETATM   21  C28 UNL     1       0.407  10.888  15.116  1.00  0.00     0.011 C 
HETATM   22  C29 UNL     1      -0.005   9.411  15.175  1.00  0.00    -0.032 C 
HETATM   23  C30 UNL     1       1.033   8.614  16.027  1.00  0.00     0.016 C 
ENDROOT
BRANCH   1  24
HETATM   24  C7  UNL     1       1.027   8.111  13.025  1.00  0.00    -0.014 C 
HETATM   25  C8  UNL     1       1.029   6.571  13.101  1.00  0.00     0.010 C 
BRANCH  24  26
HETATM   26  C6  UNL     1       1.069   8.572  11.550  1.00  0.00     0.008 C 
BRANCH  26  27
HETATM   27  C5  UNL     1       0.287   7.678  10.576  1.00  0.00     0.028 C 
BRANCH  27  28
HETATM   28  C4  UNL     1       0.765   7.887   9.163  1.00  0.00    -0.025 C 
HETATM   29  C2  UNL     1       1.743   7.229   8.510  1.00  0.00    -0.091 C 
HETATM   30  C1  UNL     1       2.084   7.589   7.087  1.00  0.00     0.042 C 
HETATM   31  C3  UNL     1       2.569   6.106   9.074  1.00  0.00     0.042 C 
ENDBRANCH  27  28
ENDBRANCH  26  27
ENDBRANCH  24  26
ENDBRANCH   1  24
TORSDOF 4
ENDMDL
MODEL 5
REMARK minimizedAffinity -6.47723913
REMARK CNNscore 0.364708513
REMARK CNNaffinity 6.18346071
REMARK  4 active torsions:
REMARK  status: ('A' for Active; 'I' for Inactive)
REMARK    1  A    between atoms: C4_4  and  C5_5 
REMARK    2  A    between atoms: C5_5  and  C6_6 
REMARK    3  A    between atoms: C6_6  and  C7_7 
REMARK    4  A    between atoms: C7_7  and  C9_9 
ROOT
HETATM    1  C9  UNL     1     -13.758   6.656  23.189  1.00  0.00    -0.002 C 
HETATM    2  C10 UNL     1     -15.123   7.137  22.609  1.00  0.00     0.006 C 
HETATM    3  C11 UNL     1     -15.070   8.670  22.487  1.00  0.00     0.011 C 
HETATM    4  C12 UNL     1     -13.583   9.030  22.642  1.00  0.00    -0.032 C 
HETATM    5  C13 UNL     1     -12.922   8.820  21.243  1.00  0.00     0.016 C 
HETATM    6  C14 UNL     1     -13.300  10.475  23.148  1.00  0.00     0.004 C 
HETATM    7  C15 UNL     1     -13.830  11.582  22.212  1.00  0.00     0.007 C 
HETATM    8  C16 UNL     1     -12.806  12.134  21.227  1.00  0.00     0.007 C 
HETATM    9  C17 UNL     1     -11.639  12.832  21.947  1.00  0.00     0.010 C 
HETATM   10  C18 UNL     1     -10.639  13.508  20.942  1.00  0.00     0.018 C 
HETATM   11  C19 UNL     1     -11.305  14.765  20.329  1.00  0.00     0.023 C 
HETATM   12  C20 UNL     1     -10.212  12.596  19.776  1.00  0.00     0.023 C 
HETATM   13  C21 UNL     1      -9.370  13.981  21.665  1.00  0.00     0.135 C 
HETATM   14  O1  UNL     1      -8.727  14.964  21.285  1.00  0.00    -0.297 OA
HETATM   15  C22 UNL     1      -8.892  13.213  22.871  1.00  0.00     0.080 C 
HETATM   16  C23 UNL     1      -9.476  11.818  22.923  1.00  0.00     0.018 C 
HETATM   17  C24 UNL     1     -10.993  11.872  22.969  1.00  0.00    -0.026 A 
HETATM   18  C25 UNL     1     -11.576  11.935  24.360  1.00  0.00     0.021 A 
HETATM   19  C26 UNL     1     -11.813  10.674  23.549  1.00  0.00    -0.027 A 
HETATM   20  C27 UNL     1     -11.089   9.449  24.152  1.00  0.00     0.011 C 
HETATM   21  C28 UNL     1     -11.602   8.049  23.782  1.00  0.00     0.011 C 
HETATM   22  C29 UNL     1     -13.135   7.983  23.736  1.00  0.00    -0.032 C 
HETATM   23  C30 UNL     1     -13.711   8.269  25.158  1.00  0.00     0.016 C 
ENDROOT
BRANCH   1  24
HETATM   24  C7  UNL     1     -13.930   5.415  24.122  1.00  0.00    -0.014 C 
HETATM   25  C8  UNL     1     -15.143   5.612  25.053  1.00  0.00     0.010 C 
BRANCH  24  26
HETATM   26  C6  UNL     1     -14.071   4.093  23.334  1.00  0.00     0.008 C 
BRANCH  26  27
HETATM   27  C5  UNL     1     -12.936   3.085  23.563  1.00  0.00     0.028 C 
BRANCH  27  28
HETATM   28  C4  UNL     1     -12.816   2.743  25.025  1.00  0.00    -0.025 C 
HETATM   29  C2  UNL     1     -12.092   1.758  25.592  1.00  0.00    -0.091 C 
HETATM   30  C1  UNL     1     -12.105   1.569  27.087  1.00  0.00     0.042 C 
HETATM   31  C3  UNL     1     -11.217   0.782  24.857  1.00  0.00     0.042 C 
ENDBRANCH  27  28
ENDBRANCH  26  27
ENDBRANCH  24  26
ENDBRANCH   1  24
TORSDOF 4
ENDMDL
MODEL 6
REMARK minimizedAffinity -6.8054285
REMARK CNNscore 0.353568971
REMARK CNNaffinity 6.60830641
REMARK  4 active torsions:
REMARK  status: ('A' for Active; 'I' for Inactive)
REMARK    1  A    between atoms: C4_4  and  C5_5 
REMARK    2  A    between atoms: C5_5  and  C6_6 
REMARK    3  A    between atoms: C6_6  and  C7_7 
REMARK    4  A    between atoms: C7_7  and  C9_9 
ROOT
HETATM    1  C9  UNL     1      -0.290   9.595  15.835  1.00  0.00    -0.002 C 
HETATM    2  C10 UNL     1       0.715   8.628  16.530  1.00  0.00     0.006 C 
HETATM    3  C11 UNL     1       1.152   7.576  15.495  1.00  0.00     0.011 C 
HETATM    4  C12 UNL     1       0.697   8.142  14.139  1.00  0.00    -0.032 C 
HETATM    5  C13 UNL     1       1.794   9.154  13.683  1.00  0.00     0.016 C 
HETATM    6  C14 UNL     1       0.462   7.080  13.024  1.00  0.00     0.004 C 
HETATM    7  C15 UNL     1       1.722   6.268  12.657  1.00  0.00     0.007 C 
HETATM    8  C16 UNL     1       2.502   6.799  11.460  1.00  0.00     0.007 C 
HETATM    9  C17 UNL     1       1.673   6.737  10.165  1.00  0.00     0.010 C 
HETATM   10  C18 UNL     1       2.505   7.169   8.905  1.00  0.00     0.018 C 
HETATM   11  C19 UNL     1       3.530   6.058   8.565  1.00  0.00     0.023 C 
HETATM   12  C20 UNL     1       3.291   8.481   9.094  1.00  0.00     0.023 C 
HETATM   13  C21 UNL     1       1.598   7.332   7.677  1.00  0.00     0.135 C 
HETATM   14  O1  UNL     1       2.002   7.119   6.530  1.00  0.00    -0.297 OA
HETATM   15  C22 UNL     1       0.171   7.775   7.882  1.00  0.00     0.080 C 
HETATM   16  C23 UNL     1      -0.030   8.434   9.229  1.00  0.00     0.018 C 
HETATM   17  C24 UNL     1       0.334   7.482  10.354  1.00  0.00    -0.026 A 
HETATM   18  C25 UNL     1      -0.808   6.624  10.844  1.00  0.00     0.021 A 
HETATM   19  C26 UNL     1      -0.259   7.680  11.786  1.00  0.00    -0.027 A 
HETATM   20  C27 UNL     1      -1.283   8.805  12.061  1.00  0.00     0.011 C 
HETATM   21  C28 UNL     1      -1.106   9.652  13.331  1.00  0.00     0.011 C 
HETATM   22  C29 UNL     1      -0.678   8.808  14.539  1.00  0.00    -0.032 C 
HETATM   23  C30 UNL     1      -1.803   7.782  14.883  1.00  0.00     0.016 C 
ENDROOT
BRANCH   1  24
HETATM   24  C7  UNL     1      -1.394  10.091  16.823  1.00  0.00    -0.014 C 
HETATM   25  C8  UNL     1      -0.749  10.658  18.103  1.00  0.00     0.010 C 
BRANCH  24  26
HETATM   26  C6  UNL     1      -2.332  11.143  16.187  1.00  0.00     0.008 C 
BRANCH  26  27
HETATM   27  C5  UNL     1      -3.811  10.733  16.129  1.00  0.00     0.028 C 
BRANCH  27  28
HETATM   28  C4  UNL     1      -4.114  10.019  14.839  1.00  0.00    -0.025 C 
HETATM   29  C2  UNL     1      -4.934   8.967  14.643  1.00  0.00    -0.091 C 
HETATM   30  C1  UNL     1      -5.104   8.381  13.265  1.00  0.00     0.042 C 
HETATM   31  C3  UNL     1      -5.750   8.286  15.705  1.00  0.00     0.042 C 
ENDBRANCH  27  28
ENDBRANCH  26  27
ENDBRANCH  24  26
ENDBRANCH   1  24
TORSDOF 4
ENDMDL
MODEL 7
REMARK minimizedAffinity -6.81354189
REMARK CNNscore 0.336990833
REMARK CNNaffinity 6.30518198
REMARK  4 active torsions:
REMARK  status: ('A' for Active; 'I' for Inactive)
REMARK    1  A    between atoms: C4_4  and  C5_5 
REMARK    2  A    between atoms: C5_5  and  C6_6 
REMARK    3  A    between atoms: C6_6  and  C7_7 
REMARK    4  A    between atoms: C7_7  and  C9_9 
ROOT
HETATM    1  C9  UNL     1      -2.076  11.611  17.558  1.00  0.00    -0.002 C 
HETATM    2  C10 UNL     1      -2.783  10.539  18.441  1.00  0.00     0.006 C 
HETATM    3  C11 UNL     1      -3.042   9.301  17.563  1.00  0.00     0.011 C 
HETATM    4  C12 UNL     1      -2.175   9.514  16.311  1.00  0.00    -0.032 C 
HETATM    5  C13 UNL     1      -0.732   9.044  16.678  1.00  0.00     0.016 C 
HETATM    6  C14 UNL     1      -2.663   8.770  15.033  1.00  0.00     0.004 C 
HETATM    7  C15 UNL     1      -2.696   7.233  15.176  1.00  0.00     0.007 C 
HETATM    8  C16 UNL     1      -1.455   6.514  14.661  1.00  0.00     0.007 C 
HETATM    9  C17 UNL     1      -1.270   6.707  13.146  1.00  0.00     0.010 C 
HETATM   10  C18 UNL     1      -0.065   5.874  12.582  1.00  0.00     0.018 C 
HETATM   11  C19 UNL     1      -0.443   4.372  12.570  1.00  0.00     0.023 C 
HETATM   12  C20 UNL     1       1.232   6.018  13.402  1.00  0.00     0.023 C 
HETATM   13  C21 UNL     1       0.245   6.269  11.131  1.00  0.00     0.135 C 
HETATM   14  O1  UNL     1       0.711   5.465  10.318  1.00  0.00    -0.297 OA
HETATM   15  C22 UNL     1      -0.020   7.687  10.692  1.00  0.00     0.080 C 
HETATM   16  C23 UNL     1      -0.127   8.635  11.867  1.00  0.00     0.018 C 
HETATM   17  C24 UNL     1      -1.248   8.211  12.799  1.00  0.00    -0.026 A 
HETATM   18  C25 UNL     1      -2.596   8.810  12.471  1.00  0.00     0.021 A 
HETATM   19  C26 UNL     1      -1.919   9.248  13.757  1.00  0.00    -0.027 A 
HETATM   20  C27 UNL     1      -1.501  10.736  13.717  1.00  0.00     0.011 C 
HETATM   21  C28 UNL     1      -1.277  11.462  15.052  1.00  0.00     0.011 C 
HETATM   22  C29 UNL     1      -2.320  11.074  16.109  1.00  0.00    -0.032 C 
HETATM   23  C30 UNL     1      -3.737  11.521  15.631  1.00  0.00     0.016 C 
ENDROOT
BRANCH   1  24
HETATM   24  C7  UNL     1      -2.508  13.060  17.950  1.00  0.00    -0.014 C 
HETATM   25  C8  UNL     1      -3.460  13.024  19.162  1.00  0.00     0.010 C 
BRANCH  24  26
HETATM   26  C6  UNL     1      -1.301  13.980  18.248  1.00  0.00     0.008 C 
BRANCH  26  27
HETATM   27  C5  UNL     1      -0.666  13.777  19.632  1.00  0.00     0.028 C 
BRANCH  27  28
HETATM   28  C4  UNL     1       0.059  12.459  19.696  1.00  0.00    -0.025 C 
HETATM   29  C2  UNL     1       1.186  12.161  20.372  1.00  0.00    -0.091 C 
HETATM   30  C1  UNL     1       1.769  10.773  20.306  1.00  0.00     0.042 C 
HETATM   31  C3  UNL     1       1.961  13.113  21.240  1.00  0.00     0.042 C 
ENDBRANCH  27  28
ENDBRANCH  26  27
ENDBRANCH  24  26
ENDBRANCH   1  24
TORSDOF 4
ENDMDL
MODEL 8
REMARK minimizedAffinity -7.80421734
REMARK CNNscore 0.277709901
REMARK CNNaffinity 6.70103407
REMARK  4 active torsions:
REMARK  status: ('A' for Active; 'I' for Inactive)
REMARK    1  A    between atoms: C4_4  and  C5_5 
REMARK    2  A    between atoms: C5_5  and  C6_6 
REMARK    3  A    between atoms: C6_6  and  C7_7 
REMARK    4  A    between atoms: C7_7  and  C9_9 
ROOT
HETATM    1  C9  UNL     1       1.254   6.453  10.272  1.00  0.00    -0.002 C 
HETATM    2  C10 UNL     1       1.673   5.122  10.967  1.00  0.00     0.006 C 
HETATM    3  C11 UNL     1       0.906   5.023  12.298  1.00  0.00     0.011 C 
HETATM    4  C12 UNL     1      -0.202   6.085  12.197  1.00  0.00    -0.032 C 
HETATM    5  C13 UNL     1      -1.371   5.439  11.388  1.00  0.00     0.016 C 
HETATM    6  C14 UNL     1      -0.735   6.617  13.559  1.00  0.00     0.004 C 
HETATM    7  C15 UNL     1      -1.373   5.531  14.451  1.00  0.00     0.007 C 
HETATM    8  C16 UNL     1      -2.889   5.416  14.336  1.00  0.00     0.007 C 
HETATM    9  C17 UNL     1      -3.597   6.698  14.808  1.00  0.00     0.010 C 
HETATM   10  C18 UNL     1      -5.160   6.549  14.807  1.00  0.00     0.018 C 
HETATM   11  C19 UNL     1      -5.585   5.620  15.971  1.00  0.00     0.023 C 
HETATM   12  C20 UNL     1      -5.731   5.950  13.506  1.00  0.00     0.023 C 
HETATM   13  C21 UNL     1      -5.841   7.904  15.044  1.00  0.00     0.135 C 
HETATM   14  O1  UNL     1      -6.932   7.999  15.616  1.00  0.00    -0.297 OA
HETATM   15  C22 UNL     1      -5.159   9.156  14.554  1.00  0.00     0.080 C 
HETATM   16  C23 UNL     1      -4.118   8.858  13.496  1.00  0.00     0.018 C 
HETATM   17  C24 UNL     1      -3.054   7.921  14.037  1.00  0.00    -0.026 A 
HETATM   18  C25 UNL     1      -1.880   8.614  14.688  1.00  0.00     0.021 A 
HETATM   19  C26 UNL     1      -1.633   7.872  13.387  1.00  0.00    -0.027 A 
HETATM   20  C27 UNL     1      -1.269   8.830  12.230  1.00  0.00     0.011 C 
HETATM   21  C28 UNL     1      -0.517   8.253  11.021  1.00  0.00     0.011 C 
HETATM   22  C29 UNL     1       0.558   7.239  11.433  1.00  0.00    -0.032 C 
HETATM   23  C30 UNL     1       1.648   7.954  12.290  1.00  0.00     0.016 C 
ENDROOT
BRANCH   1  24
HETATM   24  C7  UNL     1       2.441   7.091   9.481  1.00  0.00    -0.014 C 
HETATM   25  C8  UNL     1       1.915   8.165   8.507  1.00  0.00     0.010 C 
BRANCH  24  26
HETATM   26  C6  UNL     1       3.518   7.696  10.410  1.00  0.00     0.008 C 
BRANCH  26  27
HETATM   27  C5  UNL     1       4.850   6.931  10.431  1.00  0.00     0.028 C 
BRANCH  27  28
HETATM   28  C4  UNL     1       5.355   6.783  11.842  1.00  0.00    -0.025 C 
HETATM   29  C2  UNL     1       6.125   7.639  12.543  1.00  0.00    -0.091 C 
HETATM   30  C1  UNL     1       6.538   7.310  13.954  1.00  0.00     0.042 C 
HETATM   31  C3  UNL     1       6.636   8.963  12.047  1.00  0.00     0.042 C 
ENDBRANCH  27  28
ENDBRANCH  26  27
ENDBRANCH  24  26
ENDBRANCH   1  24
TORSDOF 4
ENDMDL
MODEL 9
REMARK minimizedAffinity -6.5206809
REMARK CNNscore 0.272126883
REMARK CNNaffinity 5.38213396
REMARK  4 active torsions:
REMARK  status: ('A' for Active; 'I' for Inactive)
REMARK    1  A    between atoms: C4_4  and  C5_5 
REMARK    2  A    between atoms: C5_5  and  C6_6 
REMARK    3  A    between atoms: C6_6  and  C7_7 
REMARK    4  A    between atoms: C7_7  and  C9_9 
ROOT
HETATM    1  C9  UNL     1       1.064  11.983  18.511  1.00  0.00    -0.002 C 
HETATM    2  C10 UNL     1       0.128  13.102  19.059  1.00  0.00     0.006 C 
HETATM    3  C11 UNL     1       0.742  13.633  20.367  1.00  0.00     0.011 C 
HETATM    4  C12 UNL     1       2.182  13.092  20.377  1.00  0.00    -0.032 C 
HETATM    5  C13 UNL     1       3.032  14.062  19.496  1.00  0.00     0.016 C 
HETATM    6  C14 UNL     1       2.829  12.956  21.786  1.00  0.00     0.004 C 
HETATM    7  C15 UNL     1       2.953  14.292  22.551  1.00  0.00     0.007 C 
HETATM    8  C16 UNL     1       4.304  14.986  22.416  1.00  0.00     0.007 C 
HETATM    9  C17 UNL     1       5.441  14.144  23.021  1.00  0.00     0.010 C 
HETATM   10  C18 UNL     1       6.818  14.899  22.996  1.00  0.00     0.018 C 
HETATM   11  C19 UNL     1       6.797  16.034  24.049  1.00  0.00     0.023 C 
HETATM   12  C20 UNL     1       7.156  15.539  21.634  1.00  0.00     0.023 C 
HETATM   13  C21 UNL     1       7.969  13.957  23.376  1.00  0.00     0.135 C 
HETATM   14  O1  UNL     1       8.985  14.361  23.949  1.00  0.00    -0.297 OA
HETATM   15  C22 UNL     1       7.854  12.494  23.029  1.00  0.00     0.080 C 
HETATM   16  C23 UNL     1       6.822  12.246  21.950  1.00  0.00     0.018 C 
HETATM   17  C24 UNL     1       5.455  12.735  22.391  1.00  0.00    -0.026 A 
HETATM   18  C25 UNL     1       4.625  11.704  23.120  1.00  0.00     0.021 A 
HETATM   19  C26 UNL     1       4.156  12.150  21.747  1.00  0.00    -0.027 A 
HETATM   20  C27 UNL     1       4.243  11.013  20.704  1.00  0.00     0.011 C 
HETATM   21  C28 UNL     1       3.372  11.118  19.443  1.00  0.00     0.011 C 
HETATM   22  C29 UNL     1       1.969  11.660  19.747  1.00  0.00    -0.032 C 
HETATM   23  C30 UNL     1       1.217  10.663  20.683  1.00  0.00     0.016 C 
ENDROOT
BRANCH   1  24
HETATM   24  C7  UNL     1       0.257  10.849  17.801  1.00  0.00    -0.014 C 
HETATM   25  C8  UNL     1      -1.202  10.841  18.298  1.00  0.00     0.010 C 
BRANCH  24  26
HETATM   26  C6  UNL     1       0.294  10.968  16.260  1.00  0.00     0.008 C 
BRANCH  26  27
HETATM   27  C5  UNL     1       0.172   9.633  15.510  1.00  0.00     0.028 C 
BRANCH  27  28
HETATM   28  C4  UNL     1       1.166   9.565  14.381  1.00  0.00    -0.025 C 
HETATM   29  C2  UNL     1       1.763   8.473  13.863  1.00  0.00    -0.091 C 
HETATM   30  C1  UNL     1       2.744   8.609  12.728  1.00  0.00     0.042 C 
HETATM   31  C3  UNL     1       1.534   7.057  14.312  1.00  0.00     0.042 C 
ENDBRANCH  27  28
ENDBRANCH  26  27
ENDBRANCH  24  26
ENDBRANCH   1  24
TORSDOF 4
ENDMDL
