MODEL 1
REMARK minimizedAffinity -9.38195705
REMARK CNNscore 0.448492676
REMARK CNNaffinity 7.18133926
REMARK  15 active torsions:
REMARK  status: ('A' for Active; 'I' for Inactive)
REMARK    1  A    between atoms: O1_2  and  C2_3 
REMARK    2  A    between atoms: C3_4  and  O2_5 
REMARK    3  A    between atoms: C4_6  and  O3_7 
REMARK    4  A    between atoms: C5_8  and  O4_9 
REMARK    5  A    between atoms: O4_9  and  C6_10 
REMARK    6  A    between atoms: C6_10  and  C7_11 
REMARK    7  A    between atoms: C6_10  and  C17_22 
REMARK    8  A    between atoms: C7_11  and  C8_12 
REMARK    9  A    between atoms: C19_24  and  C20_25 
REMARK   10  A    between atoms: C20_25  and  C21_26 
REMARK   11  A    between atoms: C22_27  and  O6_28 
REMARK   12  A    between atoms: C26_33  and  C27_34 
REMARK   13  A    between atoms: C28_36  and  O8_37 
REMARK   14  A    between atoms: C29_39  and  C30_40 
REMARK   15  A    between atoms: C30_40  and  O10_41 
ROOT
HETATM    1  C6  UNL     1      -1.655  50.700 -23.734  1.00  0.00     0.153 C 
ENDROOT
BRANCH   1   2
HETATM    2  O4  UNL     1      -2.112  51.372 -24.922  1.00  0.00    -0.349 OA
BRANCH   2   3
HETATM    3  C5  UNL     1      -1.618  50.818 -26.144  1.00  0.00     0.292 C 
HETATM    4  C4  UNL     1      -2.137  51.617 -27.370  1.00  0.00     0.204 C 
HETATM    5  C3  UNL     1      -1.203  52.770 -27.789  1.00  0.00     0.183 C 
HETATM    6  C2  UNL     1      -0.406  53.260 -26.576  1.00  0.00     0.183 C 
HETATM    7  C29 UNL     1       0.443  52.062 -26.079  1.00  0.00     0.179 C 
HETATM    8  O9  UNL     1      -0.196  50.779 -26.170  1.00  0.00    -0.348 OA
BRANCH   4   9
HETATM    9  O3  UNL     1      -2.302  50.762 -28.519  1.00  0.00    -0.388 OA
HETATM   10  H8  UNL     1      -1.465  50.275 -28.643  1.00  0.00     0.210 HD
ENDBRANCH   4   9
BRANCH   5  11
HETATM   11  O2  UNL     1      -2.008  53.806 -28.368  1.00  0.00    -0.390 OA
HETATM   12  H6  UNL     1      -2.493  53.398 -29.112  1.00  0.00     0.210 HD
ENDBRANCH   5  11
BRANCH   6  13
HETATM   13  O1  UNL     1       0.518  54.333 -26.838  1.00  0.00    -0.385 OA
HETATM   14  C1  UNL     1      -0.053  55.632 -26.703  1.00  0.00     0.202 C 
ENDBRANCH   6  13
BRANCH   7  15
HETATM   15  C30 UNL     1       0.942  52.314 -24.656  1.00  0.00     0.198 C 
BRANCH  15  16
HETATM   16  O10 UNL     1       0.928  53.692 -24.278  1.00  0.00    -0.398 OA
HETATM   17  H43 UNL     1       0.188  54.115 -24.763  1.00  0.00     0.209 HD
ENDBRANCH  15  16
ENDBRANCH   7  15
ENDBRANCH   2   3
ENDBRANCH   1   2
BRANCH   1  18
HETATM   18  C7  UNL     1      -2.471  49.385 -23.537  1.00  0.00     0.047 C 
BRANCH  18  19
HETATM   19  C8  UNL     1      -4.022  49.365 -23.832  1.00  0.00    -0.028 C 
HETATM   20  C9  UNL     1      -4.513  50.767 -24.254  1.00  0.00     0.016 C 
HETATM   21  C10 UNL     1      -4.368  48.273 -24.932  1.00  0.00    -0.009 C 
HETATM   22  C11 UNL     1      -3.703  48.448 -26.303  1.00  0.00     0.011 C 
HETATM   23  C12 UNL     1      -5.887  48.125 -25.154  1.00  0.00     0.012 C 
HETATM   24  C13 UNL     1      -6.606  47.741 -23.874  1.00  0.00     0.079 C 
HETATM   25  C14 UNL     1      -6.264  48.713 -22.776  1.00  0.00     0.131 C 
HETATM   26  O5  UNL     1      -7.153  49.241 -22.108  1.00  0.00    -0.298 OA
HETATM   27  C15 UNL     1      -4.773  48.926 -22.505  1.00  0.00     0.060 C 
HETATM   28  C16 UNL     1      -4.606  49.851 -21.292  1.00  0.00     0.018 C 
ENDBRANCH  18  19
ENDBRANCH   1  18
BRANCH   1  29
HETATM   29  C17 UNL     1      -1.806  51.622 -22.511  1.00  0.00    -0.059 C 
HETATM   30  C18 UNL     1      -2.892  52.655 -22.614  1.00  0.00     0.046 C 
HETATM   31  C19 UNL     1      -0.961  51.573 -21.455  1.00  0.00    -0.017 C 
BRANCH  31  32
HETATM   32  C20 UNL     1      -0.780  52.515 -20.284  1.00  0.00     0.072 C 
BRANCH  32  33
HETATM   33  C21 UNL     1      -0.260  51.962 -18.976  1.00  0.00     0.014 A 
HETATM   34  C22 UNL     1       0.875  52.506 -18.358  1.00  0.00     0.097 A 
HETATM   35  C23 UNL     1       1.371  52.006 -17.136  1.00  0.00     0.074 A 
HETATM   36 CL1  UNL     1       2.809  52.734 -16.484  1.00  0.00    -0.081 Cl
HETATM   37  C24 UNL     1       0.701  50.966 -16.466  1.00  0.00    -0.021 A 
HETATM   38  C25 UNL     1       1.172  50.432 -15.137  1.00  0.00     0.051 C 
HETATM   39  C26 UNL     1      -0.456  50.434 -17.078  1.00  0.00     0.043 A 
HETATM   40  C28 UNL     1      -0.918  50.914 -18.318  1.00  0.00     0.088 A 
BRANCH  34  41
HETATM   41  O6  UNL     1       1.496  53.567 -18.977  1.00  0.00    -0.358 OA
HETATM   42  H34 UNL     1       2.455  53.496 -18.773  1.00  0.00     0.217 HD
ENDBRANCH  34  41
BRANCH  39  43
HETATM   43  C27 UNL     1      -1.257  49.391 -16.401  1.00  0.00     0.273 C 
HETATM   44  O7  UNL     1      -1.339  48.245 -16.827  1.00  0.00    -0.301 OA
ENDBRANCH  39  43
BRANCH  40  45
HETATM   45  O8  UNL     1      -2.028  50.386 -18.929  1.00  0.00    -0.359 OA
HETATM   46  H39 UNL     1      -2.161  49.454 -18.673  1.00  0.00     0.217 HD
ENDBRANCH  40  45
ENDBRANCH  32  33
ENDBRANCH  31  32
ENDBRANCH   1  29
TORSDOF 15
ENDMDL
MODEL 2
REMARK minimizedAffinity -9.00555325
REMARK CNNscore 0.406283498
REMARK CNNaffinity 7.22060013
REMARK  15 active torsions:
REMARK  status: ('A' for Active; 'I' for Inactive)
REMARK    1  A    between atoms: O1_2  and  C2_3 
REMARK    2  A    between atoms: C3_4  and  O2_5 
REMARK    3  A    between atoms: C4_6  and  O3_7 
REMARK    4  A    between atoms: C5_8  and  O4_9 
REMARK    5  A    between atoms: O4_9  and  C6_10 
REMARK    6  A    between atoms: C6_10  and  C7_11 
REMARK    7  A    between atoms: C6_10  and  C17_22 
REMARK    8  A    between atoms: C7_11  and  C8_12 
REMARK    9  A    between atoms: C19_24  and  C20_25 
REMARK   10  A    between atoms: C20_25  and  C21_26 
REMARK   11  A    between atoms: C22_27  and  O6_28 
REMARK   12  A    between atoms: C26_33  and  C27_34 
REMARK   13  A    between atoms: C28_36  and  O8_37 
REMARK   14  A    between atoms: C29_39  and  C30_40 
REMARK   15  A    between atoms: C30_40  and  O10_41 
ROOT
HETATM    1  C6  UNL     1      -3.715  50.700 -24.818  1.00  0.00     0.153 C 
ENDROOT
BRANCH   1   2
HETATM    2  O4  UNL     1      -2.305  50.967 -24.915  1.00  0.00    -0.349 OA
BRANCH   2   3
HETATM    3  C5  UNL     1      -1.714  50.590 -26.161  1.00  0.00     0.292 C 
HETATM    4  C4  UNL     1      -2.223  51.493 -27.317  1.00  0.00     0.204 C 
HETATM    5  C3  UNL     1      -1.350  52.743 -27.549  1.00  0.00     0.183 C 
HETATM    6  C2  UNL     1      -0.650  53.136 -26.244  1.00  0.00     0.183 C 
HETATM    7  C29 UNL     1       0.252  51.943 -25.837  1.00  0.00     0.179 C 
HETATM    8  O9  UNL     1      -0.293  50.643 -26.109  1.00  0.00    -0.348 OA
BRANCH   4   9
HETATM    9  O3  UNL     1      -2.273  50.770 -28.562  1.00  0.00    -0.388 OA
HETATM   10  H8  UNL     1      -1.399  50.353 -28.692  1.00  0.00     0.210 HD
ENDBRANCH   4   9
BRANCH   5  11
HETATM   11  O2  UNL     1      -2.194  53.788 -28.052  1.00  0.00    -0.390 OA
HETATM   12  H6  UNL     1      -2.612  53.439 -28.864  1.00  0.00     0.210 HD
ENDBRANCH   5  11
BRANCH   6  13
HETATM   13  O1  UNL     1       0.211  54.288 -26.329  1.00  0.00    -0.385 OA
HETATM   14  C1  UNL     1      -0.194  55.240 -27.310  1.00  0.00     0.202 C 
ENDBRANCH   6  13
BRANCH   7  15
HETATM   15  C30 UNL     1       0.661  52.058 -24.369  1.00  0.00     0.198 C 
BRANCH  15  16
HETATM   16  O10 UNL     1       0.913  53.400 -23.946  1.00  0.00    -0.398 OA
HETATM   17  H43 UNL     1       0.332  53.983 -24.478  1.00  0.00     0.209 HD
ENDBRANCH  15  16
ENDBRANCH   7  15
ENDBRANCH   2   3
ENDBRANCH   1   2
BRANCH   1  18
HETATM   18  C7  UNL     1      -4.168  50.839 -23.331  1.00  0.00     0.047 C 
BRANCH  18  19
HETATM   19  C8  UNL     1      -3.498  49.947 -22.214  1.00  0.00    -0.028 C 
HETATM   20  C9  UNL     1      -3.986  50.374 -20.812  1.00  0.00     0.016 C 
HETATM   21  C10 UNL     1      -3.783  48.408 -22.483  1.00  0.00    -0.009 C 
HETATM   22  C11 UNL     1      -5.255  47.978 -22.509  1.00  0.00     0.011 C 
HETATM   23  C12 UNL     1      -3.035  47.491 -21.492  1.00  0.00     0.012 C 
HETATM   24  C13 UNL     1      -1.535  47.706 -21.554  1.00  0.00     0.079 C 
HETATM   25  C14 UNL     1      -1.211  49.164 -21.364  1.00  0.00     0.131 C 
HETATM   26  O5  UNL     1      -0.367  49.516 -20.540  1.00  0.00    -0.298 OA
HETATM   27  C15 UNL     1      -1.926  50.140 -22.302  1.00  0.00     0.060 C 
HETATM   28  C16 UNL     1      -1.401  51.560 -22.051  1.00  0.00     0.018 C 
ENDBRANCH  18  19
ENDBRANCH   1  18
BRANCH   1  29
HETATM   29  C17 UNL     1      -4.028  49.291 -25.352  1.00  0.00    -0.059 C 
HETATM   30  C18 UNL     1      -2.850  48.361 -25.437  1.00  0.00     0.046 C 
HETATM   31  C19 UNL     1      -5.253  48.939 -25.803  1.00  0.00    -0.017 C 
BRANCH  31  32
HETATM   32  C20 UNL     1      -5.717  47.719 -26.571  1.00  0.00     0.072 C 
BRANCH  32  33
HETATM   33  C21 UNL     1      -6.330  47.907 -27.940  1.00  0.00     0.014 A 
HETATM   34  C22 UNL     1      -5.528  48.108 -29.072  1.00  0.00     0.097 A 
HETATM   35  C23 UNL     1      -6.082  48.282 -30.358  1.00  0.00     0.074 A 
HETATM   36 CL1  UNL     1      -4.991  48.564 -31.682  1.00  0.00    -0.081 Cl
HETATM   37  C24 UNL     1      -7.473  48.204 -30.552  1.00  0.00    -0.021 A 
HETATM   38  C25 UNL     1      -8.104  48.339 -31.915  1.00  0.00     0.051 C 
HETATM   39  C26 UNL     1      -8.280  47.978 -29.413  1.00  0.00     0.043 A 
HETATM   40  C28 UNL     1      -7.718  47.848 -28.129  1.00  0.00     0.088 A 
BRANCH  34  41
HETATM   41  O6  UNL     1      -4.163  48.120 -28.898  1.00  0.00    -0.358 OA
HETATM   42  H34 UNL     1      -3.794  48.740 -29.565  1.00  0.00     0.217 HD
ENDBRANCH  34  41
BRANCH  39  43
HETATM   43  C27 UNL     1      -9.743  47.810 -29.546  1.00  0.00     0.273 C 
HETATM   44  O7  UNL     1     -10.324  46.796 -29.179  1.00  0.00    -0.301 OA
ENDBRANCH  39  43
BRANCH  40  45
HETATM   45  O8  UNL     1      -8.496  47.651 -27.017  1.00  0.00    -0.359 OA
HETATM   46  H39 UNL     1      -9.385  48.035 -27.136  1.00  0.00     0.217 HD
ENDBRANCH  40  45
ENDBRANCH  32  33
ENDBRANCH  31  32
ENDBRANCH   1  29
TORSDOF 15
ENDMDL
MODEL 3
REMARK minimizedAffinity -9.42016506
REMARK CNNscore 0.301793486
REMARK CNNaffinity 6.75574446
REMARK  15 active torsions:
REMARK  status: ('A' for Active; 'I' for Inactive)
REMARK    1  A    between atoms: O1_2  and  C2_3 
REMARK    2  A    between atoms: C3_4  and  O2_5 
REMARK    3  A    between atoms: C4_6  and  O3_7 
REMARK    4  A    between atoms: C5_8  and  O4_9 
REMARK    5  A    between atoms: O4_9  and  C6_10 
REMARK    6  A    between atoms: C6_10  and  C7_11 
REMARK    7  A    between atoms: C6_10  and  C17_22 
REMARK    8  A    between atoms: C7_11  and  C8_12 
REMARK    9  A    between atoms: C19_24  and  C20_25 
REMARK   10  A    between atoms: C20_25  and  C21_26 
REMARK   11  A    between atoms: C22_27  and  O6_28 
REMARK   12  A    between atoms: C26_33  and  C27_34 
REMARK   13  A    between atoms: C28_36  and  O8_37 
REMARK   14  A    between atoms: C29_39  and  C30_40 
REMARK   15  A    between atoms: C30_40  and  O10_41 
ROOT
HETATM    1  C6  UNL     1      -2.705  51.709 -24.661  1.00  0.00     0.153 C 
ENDROOT
BRANCH   1   2
HETATM    2  O4  UNL     1      -1.438  51.119 -25.002  1.00  0.00    -0.349 OA
BRANCH   2   3
HETATM    3  C5  UNL     1      -1.334  50.680 -26.360  1.00  0.00     0.292 C 
HETATM    4  C4  UNL     1      -2.181  51.576 -27.303  1.00  0.00     0.204 C 
HETATM    5  C3  UNL     1      -1.398  52.773 -27.877  1.00  0.00     0.183 C 
HETATM    6  C2  UNL     1      -0.272  53.166 -26.915  1.00  0.00     0.183 C 
HETATM    7  C29 UNL     1       0.670  51.941 -26.797  1.00  0.00     0.179 C 
HETATM    8  O9  UNL     1       0.017  50.662 -26.808  1.00  0.00    -0.348 OA
BRANCH   4   9
HETATM    9  O3  UNL     1      -2.690  50.822 -28.422  1.00  0.00    -0.388 OA
HETATM   10  H8  UNL     1      -1.933  50.359 -28.829  1.00  0.00     0.210 HD
ENDBRANCH   4   9
BRANCH   5  11
HETATM   11  O2  UNL     1      -2.325  53.845 -28.099  1.00  0.00    -0.390 OA
HETATM   12  H6  UNL     1      -3.013  53.496 -28.699  1.00  0.00     0.210 HD
ENDBRANCH   5  11
BRANCH   6  13
HETATM   13  O1  UNL     1       0.547  54.270 -27.343  1.00  0.00    -0.385 OA
HETATM   14  C1  UNL     1       0.027  55.548 -26.984  1.00  0.00     0.202 C 
ENDBRANCH   6  13
BRANCH   7  15
HETATM   15  C30 UNL     1       1.570  52.075 -25.569  1.00  0.00     0.198 C 
BRANCH  15  16
HETATM   16  O10 UNL     1       1.499  53.356 -24.941  1.00  0.00    -0.398 OA
HETATM   17  H43 UNL     1       0.592  53.698 -25.089  1.00  0.00     0.209 HD
ENDBRANCH  15  16
ENDBRANCH   7  15
ENDBRANCH   2   3
ENDBRANCH   1   2
BRANCH   1  18
HETATM   18  C7  UNL     1      -2.647  52.249 -23.198  1.00  0.00     0.047 C 
BRANCH  18  19
HETATM   19  C8  UNL     1      -2.016  51.364 -22.054  1.00  0.00    -0.028 C 
HETATM   20  C9  UNL     1      -1.572  49.993 -22.609  1.00  0.00     0.016 C 
HETATM   21  C10 UNL     1      -0.808  52.127 -21.359  1.00  0.00    -0.009 C 
HETATM   22  C11 UNL     1       0.369  52.512 -22.263  1.00  0.00     0.011 C 
HETATM   23  C12 UNL     1      -0.247  51.357 -20.146  1.00  0.00     0.012 C 
HETATM   24  C13 UNL     1      -1.313  51.115 -19.094  1.00  0.00     0.079 C 
HETATM   25  C14 UNL     1      -2.511  50.445 -19.713  1.00  0.00     0.131 C 
HETATM   26  O5  UNL     1      -2.993  49.432 -19.207  1.00  0.00    -0.298 OA
HETATM   27  C15 UNL     1      -3.117  51.143 -20.934  1.00  0.00     0.060 C 
HETATM   28  C16 UNL     1      -4.385  50.395 -21.366  1.00  0.00     0.018 C 
ENDBRANCH  18  19
ENDBRANCH   1  18
BRANCH   1  29
HETATM   29  C17 UNL     1      -3.833  50.674 -24.815  1.00  0.00    -0.059 C 
HETATM   30  C18 UNL     1      -5.186  51.124 -24.342  1.00  0.00     0.046 C 
HETATM   31  C19 UNL     1      -3.609  49.414 -25.254  1.00  0.00    -0.017 C 
BRANCH  31  32
HETATM   32  C20 UNL     1      -4.501  48.190 -25.258  1.00  0.00     0.072 C 
BRANCH  32  33
HETATM   33  C21 UNL     1      -5.471  47.998 -26.402  1.00  0.00     0.014 A 
HETATM   34  C22 UNL     1      -6.839  47.798 -26.167  1.00  0.00     0.097 A 
HETATM   35  C23 UNL     1      -7.760  47.622 -27.221  1.00  0.00     0.074 A 
HETATM   36 CL1  UNL     1      -9.425  47.342 -26.809  1.00  0.00    -0.081 Cl
HETATM   37  C24 UNL     1      -7.333  47.695 -28.560  1.00  0.00    -0.021 A 
HETATM   38  C25 UNL     1      -8.291  47.557 -29.717  1.00  0.00     0.051 C 
HETATM   39  C26 UNL     1      -5.958  47.921 -28.796  1.00  0.00     0.043 A 
HETATM   40  C28 UNL     1      -5.043  48.054 -27.735  1.00  0.00     0.088 A 
BRANCH  34  41
HETATM   41  O6  UNL     1      -7.271  47.791 -24.861  1.00  0.00    -0.358 OA
HETATM   42  H34 UNL     1      -8.033  47.171 -24.814  1.00  0.00     0.217 HD
ENDBRANCH  34  41
BRANCH  39  43
HETATM   43  C27 UNL     1      -5.446  48.084 -30.174  1.00  0.00     0.273 C 
HETATM   44  O7  UNL     1      -4.627  47.316 -30.666  1.00  0.00    -0.301 OA
ENDBRANCH  39  43
BRANCH  40  45
HETATM   45  O8  UNL     1      -3.703  48.249 -27.958  1.00  0.00    -0.359 OA
HETATM   46  H39 UNL     1      -3.427  47.862 -28.809  1.00  0.00     0.217 HD
ENDBRANCH  40  45
ENDBRANCH  32  33
ENDBRANCH  31  32
ENDBRANCH   1  29
TORSDOF 15
ENDMDL
MODEL 4
REMARK minimizedAffinity -9.53011131
REMARK CNNscore 0.300347775
REMARK CNNaffinity 6.92554665
REMARK  15 active torsions:
REMARK  status: ('A' for Active; 'I' for Inactive)
REMARK    1  A    between atoms: O1_2  and  C2_3 
REMARK    2  A    between atoms: C3_4  and  O2_5 
REMARK    3  A    between atoms: C4_6  and  O3_7 
REMARK    4  A    between atoms: C5_8  and  O4_9 
REMARK    5  A    between atoms: O4_9  and  C6_10 
REMARK    6  A    between atoms: C6_10  and  C7_11 
REMARK    7  A    between atoms: C6_10  and  C17_22 
REMARK    8  A    between atoms: C7_11  and  C8_12 
REMARK    9  A    between atoms: C19_24  and  C20_25 
REMARK   10  A    between atoms: C20_25  and  C21_26 
REMARK   11  A    between atoms: C22_27  and  O6_28 
REMARK   12  A    between atoms: C26_33  and  C27_34 
REMARK   13  A    between atoms: C28_36  and  O8_37 
REMARK   14  A    between atoms: C29_39  and  C30_40 
REMARK   15  A    between atoms: C30_40  and  O10_41 
ROOT
HETATM    1  C6  UNL     1      -1.654  50.566 -23.750  1.00  0.00     0.153 C 
ENDROOT
BRANCH   1   2
HETATM    2  O4  UNL     1      -2.079  51.287 -24.920  1.00  0.00    -0.349 OA
BRANCH   2   3
HETATM    3  C5  UNL     1      -1.581  50.762 -26.154  1.00  0.00     0.292 C 
HETATM    4  C4  UNL     1      -2.116  51.576 -27.363  1.00  0.00     0.204 C 
HETATM    5  C3  UNL     1      -1.201  52.750 -27.764  1.00  0.00     0.183 C 
HETATM    6  C2  UNL     1      -0.407  53.230 -26.545  1.00  0.00     0.183 C 
HETATM    7  C29 UNL     1       0.461  52.036 -26.072  1.00  0.00     0.179 C 
HETATM    8  O9  UNL     1      -0.158  50.745 -26.185  1.00  0.00    -0.348 OA
BRANCH   4   9
HETATM    9  O3  UNL     1      -2.272  50.740 -28.527  1.00  0.00    -0.388 OA
HETATM   10  H8  UNL     1      -1.428  50.268 -28.663  1.00  0.00     0.210 HD
ENDBRANCH   4   9
BRANCH   5  11
HETATM   11  O2  UNL     1      -2.024  53.785 -28.322  1.00  0.00    -0.390 OA
HETATM   12  H6  UNL     1      -2.505  53.382 -29.071  1.00  0.00     0.210 HD
ENDBRANCH   5  11
BRANCH   6  13
HETATM   13  O1  UNL     1       0.499  54.322 -26.790  1.00  0.00    -0.385 OA
HETATM   14  C1  UNL     1      -0.089  55.609 -26.621  1.00  0.00     0.202 C 
ENDBRANCH   6  13
BRANCH   7  15
HETATM   15  C30 UNL     1       0.961  52.269 -24.647  1.00  0.00     0.198 C 
BRANCH  15  16
HETATM   16  O10 UNL     1       1.144  53.649 -24.320  1.00  0.00    -0.398 OA
HETATM   17  H43 UNL     1       0.486  54.157 -24.841  1.00  0.00     0.209 HD
ENDBRANCH  15  16
ENDBRANCH   7  15
ENDBRANCH   2   3
ENDBRANCH   1   2
BRANCH   1  18
HETATM   18  C7  UNL     1      -2.526  49.282 -23.587  1.00  0.00     0.047 C 
BRANCH  18  19
HETATM   19  C8  UNL     1      -4.074  49.334 -23.894  1.00  0.00    -0.028 C 
HETATM   20  C9  UNL     1      -4.495  50.757 -24.323  1.00  0.00     0.016 C 
HETATM   21  C10 UNL     1      -4.461  48.257 -24.996  1.00  0.00    -0.009 C 
HETATM   22  C11 UNL     1      -3.777  48.398 -26.361  1.00  0.00     0.011 C 
HETATM   23  C12 UNL     1      -5.983  48.180 -25.231  1.00  0.00     0.012 C 
HETATM   24  C13 UNL     1      -6.730  47.832 -23.956  1.00  0.00     0.079 C 
HETATM   25  C14 UNL     1      -6.353  48.790 -22.856  1.00  0.00     0.131 C 
HETATM   26  O5  UNL     1      -7.221  49.359 -22.197  1.00  0.00    -0.298 OA
HETATM   27  C15 UNL     1      -4.855  48.933 -22.573  1.00  0.00     0.060 C 
HETATM   28  C16 UNL     1      -4.656  49.852 -21.361  1.00  0.00     0.018 C 
ENDBRANCH  18  19
ENDBRANCH   1  18
BRANCH   1  29
HETATM   29  C17 UNL     1      -1.766  51.461 -22.503  1.00  0.00    -0.059 C 
HETATM   30  C18 UNL     1      -2.786  52.561 -22.592  1.00  0.00     0.046 C 
HETATM   31  C19 UNL     1      -0.940  51.333 -21.439  1.00  0.00    -0.017 C 
BRANCH  31  32
HETATM   32  C20 UNL     1      -0.719  52.231 -20.240  1.00  0.00     0.072 C 
BRANCH  32  33
HETATM   33  C21 UNL     1      -0.335  51.603 -18.919  1.00  0.00     0.014 A 
HETATM   34  C22 UNL     1      -0.941  50.419 -18.476  1.00  0.00     0.097 A 
HETATM   35  C23 UNL     1      -0.593  49.816 -17.250  1.00  0.00     0.074 A 
HETATM   36 CL1  UNL     1      -1.440  48.371 -16.784  1.00  0.00    -0.081 Cl
HETATM   37  C24 UNL     1       0.425  50.365 -16.448  1.00  0.00    -0.021 A 
HETATM   38  C25 UNL     1       0.859  49.728 -15.153  1.00  0.00     0.051 C 
HETATM   39  C26 UNL     1       1.052  51.545 -16.907  1.00  0.00     0.043 A 
HETATM   40  C28 UNL     1       0.667  52.160 -18.113  1.00  0.00     0.088 A 
BRANCH  34  41
HETATM   41  O6  UNL     1      -1.891  49.842 -19.288  1.00  0.00    -0.358 OA
HETATM   42  H34 UNL     1      -2.544  49.403 -18.698  1.00  0.00     0.217 HD
ENDBRANCH  34  41
BRANCH  39  43
HETATM   43  C27 UNL     1       2.180  52.141 -16.159  1.00  0.00     0.273 C 
HETATM   44  O7  UNL     1       3.244  52.431 -16.693  1.00  0.00    -0.301 OA
ENDBRANCH  39  43
BRANCH  40  45
HETATM   45  O8  UNL     1       1.256  53.319 -18.553  1.00  0.00    -0.359 OA
HETATM   46  H39 UNL     1       1.589  53.851 -17.806  1.00  0.00     0.217 HD
ENDBRANCH  40  45
ENDBRANCH  32  33
ENDBRANCH  31  32
ENDBRANCH   1  29
TORSDOF 15
ENDMDL
MODEL 5
REMARK minimizedAffinity -9.4456377
REMARK CNNscore 0.269784361
REMARK CNNaffinity 6.9567008
REMARK  15 active torsions:
REMARK  status: ('A' for Active; 'I' for Inactive)
REMARK    1  A    between atoms: O1_2  and  C2_3 
REMARK    2  A    between atoms: C3_4  and  O2_5 
REMARK    3  A    between atoms: C4_6  and  O3_7 
REMARK    4  A    between atoms: C5_8  and  O4_9 
REMARK    5  A    between atoms: O4_9  and  C6_10 
REMARK    6  A    between atoms: C6_10  and  C7_11 
REMARK    7  A    between atoms: C6_10  and  C17_22 
REMARK    8  A    between atoms: C7_11  and  C8_12 
REMARK    9  A    between atoms: C19_24  and  C20_25 
REMARK   10  A    between atoms: C20_25  and  C21_26 
REMARK   11  A    between atoms: C22_27  and  O6_28 
REMARK   12  A    between atoms: C26_33  and  C27_34 
REMARK   13  A    between atoms: C28_36  and  O8_37 
REMARK   14  A    between atoms: C29_39  and  C30_40 
REMARK   15  A    between atoms: C30_40  and  O10_41 
ROOT
HETATM    1  C6  UNL     1      -1.889  50.150 -23.083  1.00  0.00     0.153 C 
ENDROOT
BRANCH   1   2
HETATM    2  O4  UNL     1      -2.010  50.991 -24.245  1.00  0.00    -0.349 OA
BRANCH   2   3
HETATM    3  C5  UNL     1      -1.308  52.233 -24.154  1.00  0.00     0.292 C 
HETATM    4  C4  UNL     1       0.225  52.019 -24.280  1.00  0.00     0.204 C 
HETATM    5  C3  UNL     1       0.737  52.105 -25.732  1.00  0.00     0.183 C 
HETATM    6  C2  UNL     1      -0.382  51.714 -26.702  1.00  0.00     0.183 C 
HETATM    7  C29 UNL     1      -1.533  52.732 -26.499  1.00  0.00     0.179 C 
HETATM    8  O9  UNL     1      -1.741  53.159 -25.144  1.00  0.00    -0.348 OA
BRANCH   4   9
HETATM    9  O3  UNL     1       0.954  52.997 -23.512  1.00  0.00    -0.388 OA
HETATM   10  H8  UNL     1       0.617  53.877 -23.765  1.00  0.00     0.210 HD
ENDBRANCH   4   9
BRANCH   5  11
HETATM   11  O2  UNL     1       1.885  51.253 -25.849  1.00  0.00    -0.390 OA
HETATM   12  H6  UNL     1       2.529  51.561 -25.182  1.00  0.00     0.210 HD
ENDBRANCH   5  11
BRANCH   6  13
HETATM   13  O1  UNL     1      -0.034  51.766 -28.098  1.00  0.00    -0.385 OA
HETATM   14  C1  UNL     1       0.424  53.045 -28.532  1.00  0.00     0.202 C 
ENDBRANCH   6  13
BRANCH   7  15
HETATM   15  C30 UNL     1      -2.833  52.198 -27.100  1.00  0.00     0.198 C 
BRANCH  15  16
HETATM   16  O10 UNL     1      -2.645  51.452 -28.305  1.00  0.00    -0.398 OA
HETATM   17  H43 UNL     1      -1.764  51.024 -28.243  1.00  0.00     0.209 HD
ENDBRANCH  15  16
ENDBRANCH   7  15
ENDBRANCH   2   3
ENDBRANCH   1   2
BRANCH   1  18
HETATM   18  C7  UNL     1      -2.963  49.020 -23.148  1.00  0.00     0.047 C 
BRANCH  18  19
HETATM   19  C8  UNL     1      -4.172  49.135 -24.156  1.00  0.00    -0.028 C 
HETATM   20  C9  UNL     1      -4.460  50.615 -24.493  1.00  0.00     0.016 C 
HETATM   21  C10 UNL     1      -3.889  48.285 -25.468  1.00  0.00    -0.009 C 
HETATM   22  C11 UNL     1      -2.651  48.677 -26.283  1.00  0.00     0.011 C 
HETATM   23  C12 UNL     1      -5.101  48.260 -26.423  1.00  0.00     0.012 C 
HETATM   24  C13 UNL     1      -6.332  47.683 -25.750  1.00  0.00     0.079 C 
HETATM   25  C14 UNL     1      -6.613  48.416 -24.465  1.00  0.00     0.131 C 
HETATM   26  O5  UNL     1      -7.737  48.856 -24.228  1.00  0.00    -0.298 OA
HETATM   27  C15 UNL     1      -5.452  48.498 -23.470  1.00  0.00     0.060 C 
HETATM   28  C16 UNL     1      -5.939  49.172 -22.180  1.00  0.00     0.018 C 
ENDBRANCH  18  19
ENDBRANCH   1  18
BRANCH   1  29
HETATM   29  C17 UNL     1      -2.057  50.986 -21.802  1.00  0.00    -0.059 C 
HETATM   30  C18 UNL     1      -3.440  51.521 -21.560  1.00  0.00     0.046 C 
HETATM   31  C19 UNL     1      -1.016  51.301 -20.998  1.00  0.00    -0.017 C 
BRANCH  31  32
HETATM   32  C20 UNL     1      -0.909  52.281 -19.848  1.00  0.00     0.072 C 
BRANCH  32  33
HETATM   33  C21 UNL     1      -0.224  51.841 -18.574  1.00  0.00     0.014 A 
HETATM   34  C22 UNL     1       0.949  52.465 -18.128  1.00  0.00     0.097 A 
HETATM   35  C23 UNL     1       1.599  52.071 -16.940  1.00  0.00     0.074 A 
HETATM   36 CL1  UNL     1       3.069  52.892 -16.507  1.00  0.00    -0.081 Cl
HETATM   37  C24 UNL     1       1.052  51.059 -16.130  1.00  0.00    -0.021 A 
HETATM   38  C25 UNL     1       1.690  50.638 -14.830  1.00  0.00     0.051 C 
HETATM   39  C26 UNL     1      -0.143  50.446 -16.568  1.00  0.00     0.043 A 
HETATM   40  C28 UNL     1      -0.760  50.820 -17.777  1.00  0.00     0.088 A 
BRANCH  34  41
HETATM   41  O6  UNL     1       1.452  53.500 -18.883  1.00  0.00    -0.358 OA
HETATM   42  H34 UNL     1       2.430  53.477 -18.786  1.00  0.00     0.217 HD
ENDBRANCH  34  41
BRANCH  39  43
HETATM   43  C27 UNL     1      -0.819  49.428 -15.736  1.00  0.00     0.273 C 
HETATM   44  O7  UNL     1      -2.031  49.420 -15.561  1.00  0.00    -0.301 OA
ENDBRANCH  39  43
BRANCH  40  45
HETATM   45  O8  UNL     1      -1.908  50.213 -18.220  1.00  0.00    -0.359 OA
HETATM   46  H39 UNL     1      -1.973  49.298 -17.889  1.00  0.00     0.217 HD
ENDBRANCH  40  45
ENDBRANCH  32  33
ENDBRANCH  31  32
ENDBRANCH   1  29
TORSDOF 15
ENDMDL
MODEL 6
REMARK minimizedAffinity -8.84533978
REMARK CNNscore 0.247454166
REMARK CNNaffinity 6.59442139
REMARK  15 active torsions:
REMARK  status: ('A' for Active; 'I' for Inactive)
REMARK    1  A    between atoms: O1_2  and  C2_3 
REMARK    2  A    between atoms: C3_4  and  O2_5 
REMARK    3  A    between atoms: C4_6  and  O3_7 
REMARK    4  A    between atoms: C5_8  and  O4_9 
REMARK    5  A    between atoms: O4_9  and  C6_10 
REMARK    6  A    between atoms: C6_10  and  C7_11 
REMARK    7  A    between atoms: C6_10  and  C17_22 
REMARK    8  A    between atoms: C7_11  and  C8_12 
REMARK    9  A    between atoms: C19_24  and  C20_25 
REMARK   10  A    between atoms: C20_25  and  C21_26 
REMARK   11  A    between atoms: C22_27  and  O6_28 
REMARK   12  A    between atoms: C26_33  and  C27_34 
REMARK   13  A    between atoms: C28_36  and  O8_37 
REMARK   14  A    between atoms: C29_39  and  C30_40 
REMARK   15  A    between atoms: C30_40  and  O10_41 
ROOT
HETATM    1  C6  UNL     1      -1.865  49.983 -22.879  1.00  0.00     0.153 C 
ENDROOT
BRANCH   1   2
HETATM    2  O4  UNL     1      -1.352  50.570 -24.088  1.00  0.00    -0.349 OA
BRANCH   2   3
HETATM    3  C5  UNL     1      -1.103  51.976 -24.006  1.00  0.00     0.292 C 
HETATM    4  C4  UNL     1       0.395  52.293 -24.263  1.00  0.00     0.204 C 
HETATM    5  C3  UNL     1       0.720  52.560 -25.746  1.00  0.00     0.183 C 
HETATM    6  C2  UNL     1      -0.284  51.822 -26.638  1.00  0.00     0.183 C 
HETATM    7  C29 UNL     1      -1.688  52.390 -26.305  1.00  0.00     0.179 C 
HETATM    8  O9  UNL     1      -1.907  52.709 -24.922  1.00  0.00    -0.348 OA
BRANCH   4   9
HETATM    9  O3  UNL     1       0.819  53.453 -23.518  1.00  0.00    -0.388 OA
HETATM   10  H8  UNL     1       0.185  54.170 -23.711  1.00  0.00     0.210 HD
ENDBRANCH   4   9
BRANCH   5  11
HETATM   11  O2  UNL     1       2.072  52.146 -25.987  1.00  0.00    -0.390 OA
HETATM   12  H6  UNL     1       2.630  52.648 -25.363  1.00  0.00     0.210 HD
ENDBRANCH   5  11
BRANCH   6  13
HETATM   13  O1  UNL     1      -0.098  52.001 -28.055  1.00  0.00    -0.385 OA
HETATM   14  C1  UNL     1      -0.018  53.365 -28.459  1.00  0.00     0.202 C 
ENDBRANCH   6  13
BRANCH   7  15
HETATM   15  C30 UNL     1      -2.780  51.453 -26.820  1.00  0.00     0.198 C 
BRANCH  15  16
HETATM   16  O10 UNL     1      -2.346  50.101 -26.987  1.00  0.00    -0.398 OA
HETATM   17  H43 UNL     1      -1.650  49.938 -26.315  1.00  0.00     0.209 HD
ENDBRANCH  15  16
ENDBRANCH   7  15
ENDBRANCH   2   3
ENDBRANCH   1   2
BRANCH   1  18
HETATM   18  C7  UNL     1      -3.253  49.330 -23.168  1.00  0.00     0.047 C 
BRANCH  18  19
HETATM   19  C8  UNL     1      -3.937  48.413 -22.081  1.00  0.00    -0.028 C 
HETATM   20  C9  UNL     1      -4.189  49.208 -20.781  1.00  0.00     0.016 C 
HETATM   21  C10 UNL     1      -5.281  47.784 -22.646  1.00  0.00    -0.009 C 
HETATM   22  C11 UNL     1      -6.371  48.772 -23.079  1.00  0.00     0.011 C 
HETATM   23  C12 UNL     1      -5.914  46.775 -21.666  1.00  0.00     0.012 C 
HETATM   24  C13 UNL     1      -4.965  45.635 -21.345  1.00  0.00     0.079 C 
HETATM   25  C14 UNL     1      -3.647  46.180 -20.859  1.00  0.00     0.131 C 
HETATM   26  O5  UNL     1      -3.143  45.761 -19.818  1.00  0.00    -0.298 OA
HETATM   27  C15 UNL     1      -2.963  47.200 -21.771  1.00  0.00     0.060 C 
HETATM   28  C16 UNL     1      -1.591  47.562 -21.186  1.00  0.00     0.018 C 
ENDBRANCH  18  19
ENDBRANCH   1  18
BRANCH   1  29
HETATM   29  C17 UNL     1      -1.987  51.053 -21.778  1.00  0.00    -0.059 C 
HETATM   30  C18 UNL     1      -3.169  51.972 -21.905  1.00  0.00     0.046 C 
HETATM   31  C19 UNL     1      -1.049  51.219 -20.819  1.00  0.00    -0.017 C 
BRANCH  31  32
HETATM   32  C20 UNL     1      -0.848  52.328 -19.807  1.00  0.00     0.072 C 
BRANCH  32  33
HETATM   33  C21 UNL     1      -0.228  51.992 -18.469  1.00  0.00     0.014 A 
HETATM   34  C22 UNL     1      -0.825  51.061 -17.607  1.00  0.00     0.097 A 
HETATM   35  C23 UNL     1      -0.260  50.732 -16.358  1.00  0.00     0.074 A 
HETATM   36 CL1  UNL     1      -1.109  49.593 -15.356  1.00  0.00    -0.081 Cl
HETATM   37  C24 UNL     1       0.965  51.297 -15.958  1.00  0.00    -0.021 A 
HETATM   38  C25 UNL     1       1.627  50.939 -14.651  1.00  0.00     0.051 C 
HETATM   39  C26 UNL     1       1.578  52.217 -16.838  1.00  0.00     0.043 A 
HETATM   40  C28 UNL     1       0.983  52.569 -18.064  1.00  0.00     0.088 A 
BRANCH  34  41
HETATM   41  O6  UNL     1      -1.989  50.456 -18.023  1.00  0.00    -0.358 OA
HETATM   42  H34 UNL     1      -2.525  50.282 -17.217  1.00  0.00     0.217 HD
ENDBRANCH  34  41
BRANCH  39  43
HETATM   43  C27 UNL     1       2.901  52.798 -16.522  1.00  0.00     0.273 C 
HETATM   44  O7  UNL     1       3.945  52.173 -16.668  1.00  0.00    -0.301 OA
ENDBRANCH  39  43
BRANCH  40  45
HETATM   45  O8  UNL     1       1.561  53.480 -18.912  1.00  0.00    -0.359 OA
HETATM   46  H39 UNL     1       2.109  54.121 -18.422  1.00  0.00     0.217 HD
ENDBRANCH  40  45
ENDBRANCH  32  33
ENDBRANCH  31  32
ENDBRANCH   1  29
TORSDOF 15
ENDMDL
MODEL 7
REMARK minimizedAffinity -9.66557693
REMARK CNNscore 0.241935939
REMARK CNNaffinity 6.78113556
REMARK  15 active torsions:
REMARK  status: ('A' for Active; 'I' for Inactive)
REMARK    1  A    between atoms: O1_2  and  C2_3 
REMARK    2  A    between atoms: C3_4  and  O2_5 
REMARK    3  A    between atoms: C4_6  and  O3_7 
REMARK    4  A    between atoms: C5_8  and  O4_9 
REMARK    5  A    between atoms: O4_9  and  C6_10 
REMARK    6  A    between atoms: C6_10  and  C7_11 
REMARK    7  A    between atoms: C6_10  and  C17_22 
REMARK    8  A    between atoms: C7_11  and  C8_12 
REMARK    9  A    between atoms: C19_24  and  C20_25 
REMARK   10  A    between atoms: C20_25  and  C21_26 
REMARK   11  A    between atoms: C22_27  and  O6_28 
REMARK   12  A    between atoms: C26_33  and  C27_34 
REMARK   13  A    between atoms: C28_36  and  O8_37 
REMARK   14  A    between atoms: C29_39  and  C30_40 
REMARK   15  A    between atoms: C30_40  and  O10_41 
ROOT
HETATM    1  C6  UNL     1      -0.719  52.004 -22.343  1.00  0.00     0.153 C 
ENDROOT
BRANCH   1   2
HETATM    2  O4  UNL     1      -1.339  50.834 -21.780  1.00  0.00    -0.349 OA
BRANCH   2   3
HETATM    3  C5  UNL     1      -2.569  51.086 -21.095  1.00  0.00     0.292 C 
HETATM    4  C4  UNL     1      -3.733  51.305 -22.099  1.00  0.00     0.204 C 
HETATM    5  C3  UNL     1      -4.476  50.006 -22.468  1.00  0.00     0.183 C 
HETATM    6  C2  UNL     1      -3.533  48.808 -22.319  1.00  0.00     0.183 C 
HETATM    7  C29 UNL     1      -3.102  48.752 -20.831  1.00  0.00     0.179 C 
HETATM    8  O9  UNL     1      -2.903  50.029 -20.203  1.00  0.00    -0.348 OA
BRANCH   4   9
HETATM    9  O3  UNL     1      -4.712  52.222 -21.571  1.00  0.00    -0.388 OA
HETATM   10  H8  UNL     1      -4.961  51.904 -20.683  1.00  0.00     0.210 HD
ENDBRANCH   4   9
BRANCH   5  11
HETATM   11  O2  UNL     1      -4.977  50.144 -23.804  1.00  0.00    -0.390 OA
HETATM   12  H6  UNL     1      -5.544  50.940 -23.807  1.00  0.00     0.210 HD
ENDBRANCH   5  11
BRANCH   6  13
HETATM   13  O1  UNL     1      -4.112  47.525 -22.623  1.00  0.00    -0.385 OA
HETATM   14  C1  UNL     1      -5.317  47.252 -21.911  1.00  0.00     0.202 C 
ENDBRANCH   6  13
BRANCH   7  15
HETATM   15  C30 UNL     1      -1.863  47.873 -20.665  1.00  0.00     0.198 C 
BRANCH  15  16
HETATM   16  O10 UNL     1      -1.356  47.840 -19.329  1.00  0.00    -0.398 OA
HETATM   17  H43 UNL     1      -2.123  47.957 -18.728  1.00  0.00     0.209 HD
ENDBRANCH  15  16
ENDBRANCH   7  15
ENDBRANCH   2   3
ENDBRANCH   1   2
BRANCH   1  18
HETATM   18  C7  UNL     1       0.224  51.578 -23.511  1.00  0.00     0.047 C 
BRANCH  18  19
HETATM   19  C8  UNL     1      -0.059  52.083 -24.980  1.00  0.00    -0.028 C 
HETATM   20  C9  UNL     1       0.338  53.568 -25.130  1.00  0.00     0.016 C 
HETATM   21  C10 UNL     1       0.695  51.171 -26.040  1.00  0.00    -0.009 C 
HETATM   22  C11 UNL     1       2.223  51.109 -25.926  1.00  0.00     0.011 C 
HETATM   23  C12 UNL     1       0.339  51.545 -27.494  1.00  0.00     0.012 C 
HETATM   24  C13 UNL     1      -1.151  51.428 -27.754  1.00  0.00     0.079 C 
HETATM   25  C14 UNL     1      -1.920  52.229 -26.736  1.00  0.00     0.131 C 
HETATM   26  O5  UNL     1      -2.787  53.026 -27.092  1.00  0.00    -0.298 OA
HETATM   27  C15 UNL     1      -1.611  51.926 -25.267  1.00  0.00     0.060 C 
HETATM   28  C16 UNL     1      -2.554  52.741 -24.373  1.00  0.00     0.018 C 
ENDBRANCH  18  19
ENDBRANCH   1  18
BRANCH   1  29
HETATM   29  C17 UNL     1       0.066  52.764 -21.260  1.00  0.00    -0.059 C 
HETATM   30  C18 UNL     1       1.094  53.733 -21.773  1.00  0.00     0.046 C 
HETATM   31  C19 UNL     1      -0.087  52.513 -19.940  1.00  0.00    -0.017 C 
BRANCH  31  32
HETATM   32  C20 UNL     1       0.728  52.959 -18.743  1.00  0.00     0.072 C 
BRANCH  32  33
HETATM   33  C21 UNL     1       0.897  52.007 -17.581  1.00  0.00     0.014 A 
HETATM   34  C22 UNL     1       1.808  52.276 -16.550  1.00  0.00     0.097 A 
HETATM   35  C23 UNL     1       1.977  51.403 -15.455  1.00  0.00     0.074 A 
HETATM   36 CL1  UNL     1       3.165  51.820 -14.257  1.00  0.00    -0.081 Cl
HETATM   37  C24 UNL     1       1.186  50.245 -15.338  1.00  0.00    -0.021 A 
HETATM   38  C25 UNL     1       1.302  49.308 -14.163  1.00  0.00     0.051 C 
HETATM   39  C26 UNL     1       0.251  49.986 -16.366  1.00  0.00     0.043 A 
HETATM   40  C28 UNL     1       0.121  50.845 -17.474  1.00  0.00     0.088 A 
BRANCH  34  41
HETATM   41  O6  UNL     1       2.538  53.441 -16.626  1.00  0.00    -0.358 OA
HETATM   42  H34 UNL     1       3.410  53.261 -16.209  1.00  0.00     0.217 HD
ENDBRANCH  34  41
BRANCH  39  43
HETATM   43  C27 UNL     1      -0.668  48.831 -16.278  1.00  0.00     0.273 C 
HETATM   44  O7  UNL     1      -1.874  48.934 -16.465  1.00  0.00    -0.301 OA
ENDBRANCH  39  43
BRANCH  40  45
HETATM   45  O8  UNL     1      -0.769  50.587 -18.487  1.00  0.00    -0.359 OA
HETATM   46  H39 UNL     1      -0.936  49.630 -18.574  1.00  0.00     0.217 HD
ENDBRANCH  40  45
ENDBRANCH  32  33
ENDBRANCH  31  32
ENDBRANCH   1  29
TORSDOF 15
ENDMDL
MODEL 8
REMARK minimizedAffinity -8.98069477
REMARK CNNscore 0.236526474
REMARK CNNaffinity 6.10576963
REMARK  15 active torsions:
REMARK  status: ('A' for Active; 'I' for Inactive)
REMARK    1  A    between atoms: O1_2  and  C2_3 
REMARK    2  A    between atoms: C3_4  and  O2_5 
REMARK    3  A    between atoms: C4_6  and  O3_7 
REMARK    4  A    between atoms: C5_8  and  O4_9 
REMARK    5  A    between atoms: O4_9  and  C6_10 
REMARK    6  A    between atoms: C6_10  and  C7_11 
REMARK    7  A    between atoms: C6_10  and  C17_22 
REMARK    8  A    between atoms: C7_11  and  C8_12 
REMARK    9  A    between atoms: C19_24  and  C20_25 
REMARK   10  A    between atoms: C20_25  and  C21_26 
REMARK   11  A    between atoms: C22_27  and  O6_28 
REMARK   12  A    between atoms: C26_33  and  C27_34 
REMARK   13  A    between atoms: C28_36  and  O8_37 
REMARK   14  A    between atoms: C29_39  and  C30_40 
REMARK   15  A    between atoms: C30_40  and  O10_41 
ROOT
HETATM    1  C6  UNL     1      -2.919  49.794 -22.496  1.00  0.00     0.153 C 
ENDROOT
BRANCH   1   2
HETATM    2  O4  UNL     1      -4.154  49.309 -21.938  1.00  0.00    -0.349 OA
BRANCH   2   3
HETATM    3  C5  UNL     1      -5.147  50.317 -21.732  1.00  0.00     0.292 C 
HETATM    4  C4  UNL     1      -6.508  49.895 -22.350  1.00  0.00     0.204 C 
HETATM    5  C3  UNL     1      -7.416  49.129 -21.366  1.00  0.00     0.183 C 
HETATM    6  C2  UNL     1      -6.559  48.410 -20.320  1.00  0.00     0.183 C 
HETATM    7  C29 UNL     1      -5.770  49.502 -19.553  1.00  0.00     0.179 C 
HETATM    8  O9  UNL     1      -5.324  50.610 -20.350  1.00  0.00    -0.348 OA
BRANCH   4   9
HETATM    9  O3  UNL     1      -7.249  51.041 -22.812  1.00  0.00    -0.388 OA
HETATM   10  H8  UNL     1      -7.289  51.680 -22.075  1.00  0.00     0.210 HD
ENDBRANCH   4   9
BRANCH   5  11
HETATM   11  O2  UNL     1      -8.228  48.222 -22.125  1.00  0.00    -0.390 OA
HETATM   12  H6  UNL     1      -8.715  48.764 -22.776  1.00  0.00     0.210 HD
ENDBRANCH   5  11
BRANCH   6  13
HETATM   13  O1  UNL     1      -7.291  47.665 -19.330  1.00  0.00    -0.385 OA
HETATM   14  C1  UNL     1      -7.135  46.252 -19.439  1.00  0.00     0.202 C 
ENDBRANCH   6  13
BRANCH   7  15
HETATM   15  C30 UNL     1      -4.599  48.881 -18.792  1.00  0.00     0.198 C 
BRANCH  15  16
HETATM   16  O10 UNL     1      -4.946  48.413 -17.486  1.00  0.00    -0.398 OA
HETATM   17  H43 UNL     1      -5.885  48.133 -17.522  1.00  0.00     0.209 HD
ENDBRANCH  15  16
ENDBRANCH   7  15
ENDBRANCH   2   3
ENDBRANCH   1   2
BRANCH   1  18
HETATM   18  C7  UNL     1      -2.571  51.176 -21.861  1.00  0.00     0.047 C 
BRANCH  18  19
HETATM   19  C8  UNL     1      -1.150  51.413 -21.214  1.00  0.00    -0.028 C 
HETATM   20  C9  UNL     1      -0.422  50.068 -20.994  1.00  0.00     0.016 C 
HETATM   21  C10 UNL     1      -0.287  52.401 -22.108  1.00  0.00    -0.009 C 
HETATM   22  C11 UNL     1      -0.001  51.950 -23.546  1.00  0.00     0.011 C 
HETATM   23  C12 UNL     1       1.058  52.767 -21.447  1.00  0.00     0.012 C 
HETATM   24  C13 UNL     1       0.857  53.420 -20.092  1.00  0.00     0.079 C 
HETATM   25  C14 UNL     1      -0.010  52.549 -19.221  1.00  0.00     0.131 C 
HETATM   26  O5  UNL     1       0.342  52.262 -18.077  1.00  0.00    -0.298 OA
HETATM   27  C15 UNL     1      -1.357  52.130 -19.814  1.00  0.00     0.060 C 
HETATM   28  C16 UNL     1      -2.153  51.349 -18.761  1.00  0.00     0.018 C 
ENDBRANCH  18  19
ENDBRANCH   1  18
BRANCH   1  29
HETATM   29  C17 UNL     1      -3.037  49.913 -24.026  1.00  0.00    -0.059 C 
HETATM   30  C18 UNL     1      -3.273  51.304 -24.545  1.00  0.00     0.046 C 
HETATM   31  C19 UNL     1      -3.027  48.835 -24.843  1.00  0.00    -0.017 C 
BRANCH  31  32
HETATM   32  C20 UNL     1      -3.357  48.700 -26.315  1.00  0.00     0.072 C 
BRANCH  32  33
HETATM   33  C21 UNL     1      -4.754  48.280 -26.714  1.00  0.00     0.014 A 
HETATM   34  C22 UNL     1      -5.128  48.195 -28.062  1.00  0.00     0.097 A 
HETATM   35  C23 UNL     1      -6.424  47.801 -28.454  1.00  0.00     0.074 A 
HETATM   36 CL1  UNL     1      -6.787  47.771 -30.153  1.00  0.00    -0.081 Cl
HETATM   37  C24 UNL     1      -7.377  47.425 -27.489  1.00  0.00    -0.021 A 
HETATM   38  C25 UNL     1      -8.759  46.954 -27.866  1.00  0.00     0.051 C 
HETATM   39  C26 UNL     1      -6.992  47.487 -26.131  1.00  0.00     0.043 A 
HETATM   40  C28 UNL     1      -5.708  47.922 -25.751  1.00  0.00     0.088 A 
BRANCH  34  41
HETATM   41  O6  UNL     1      -4.179  48.499 -29.012  1.00  0.00    -0.358 OA
HETATM   42  H34 UNL     1      -4.655  48.893 -29.777  1.00  0.00     0.217 HD
ENDBRANCH  34  41
BRANCH  39  43
HETATM   43  C27 UNL     1      -7.911  47.038 -25.063  1.00  0.00     0.273 C 
HETATM   44  O7  UNL     1      -7.582  46.218 -24.214  1.00  0.00    -0.301 OA
ENDBRANCH  39  43
BRANCH  40  45
HETATM   45  O8  UNL     1      -5.335  48.008 -24.433  1.00  0.00    -0.359 OA
HETATM   46  H39 UNL     1      -6.106  48.167 -23.858  1.00  0.00     0.217 HD
ENDBRANCH  40  45
ENDBRANCH  32  33
ENDBRANCH  31  32
ENDBRANCH   1  29
TORSDOF 15
ENDMDL
MODEL 9
REMARK minimizedAffinity -8.88797188
REMARK CNNscore 0.230245471
REMARK CNNaffinity 6.29508448
REMARK  15 active torsions:
REMARK  status: ('A' for Active; 'I' for Inactive)
REMARK    1  A    between atoms: O1_2  and  C2_3 
REMARK    2  A    between atoms: C3_4  and  O2_5 
REMARK    3  A    between atoms: C4_6  and  O3_7 
REMARK    4  A    between atoms: C5_8  and  O4_9 
REMARK    5  A    between atoms: O4_9  and  C6_10 
REMARK    6  A    between atoms: C6_10  and  C7_11 
REMARK    7  A    between atoms: C6_10  and  C17_22 
REMARK    8  A    between atoms: C7_11  and  C8_12 
REMARK    9  A    between atoms: C19_24  and  C20_25 
REMARK   10  A    between atoms: C20_25  and  C21_26 
REMARK   11  A    between atoms: C22_27  and  O6_28 
REMARK   12  A    between atoms: C26_33  and  C27_34 
REMARK   13  A    between atoms: C28_36  and  O8_37 
REMARK   14  A    between atoms: C29_39  and  C30_40 
REMARK   15  A    between atoms: C30_40  and  O10_41 
ROOT
HETATM    1  C6  UNL     1      -1.843  50.982 -22.437  1.00  0.00     0.153 C 
ENDROOT
BRANCH   1   2
HETATM    2  O4  UNL     1      -0.986  51.156 -23.579  1.00  0.00    -0.349 OA
BRANCH   2   3
HETATM    3  C5  UNL     1      -0.804  52.516 -23.984  1.00  0.00     0.292 C 
HETATM    4  C4  UNL     1       0.682  52.800 -24.331  1.00  0.00     0.204 C 
HETATM    5  C3  UNL     1       1.021  52.559 -25.816  1.00  0.00     0.183 C 
HETATM    6  C2  UNL     1       0.069  51.512 -26.403  1.00  0.00     0.183 C 
HETATM    7  C29 UNL     1      -1.365  52.089 -26.286  1.00  0.00     0.179 C 
HETATM    8  O9  UNL     1      -1.624  52.850 -25.097  1.00  0.00    -0.348 OA
BRANCH   4   9
HETATM    9  O3  UNL     1       1.038  54.164 -24.028  1.00  0.00    -0.388 OA
HETATM   10  H8  UNL     1       0.375  54.740 -24.456  1.00  0.00     0.210 HD
ENDBRANCH   4   9
BRANCH   5  11
HETATM   11  O2  UNL     1       2.395  52.156 -25.899  1.00  0.00    -0.390 OA
HETATM   12  H6  UNL     1       2.919  52.868 -25.483  1.00  0.00     0.210 HD
ENDBRANCH   5  11
BRANCH   6  13
HETATM   13  O1  UNL     1       0.273  51.205 -27.794  1.00  0.00    -0.385 OA
HETATM   14  C1  UNL     1       0.385  52.355 -28.630  1.00  0.00     0.202 C 
ENDBRANCH   6  13
BRANCH   7  15
HETATM   15  C30 UNL     1      -2.403  50.979 -26.451  1.00  0.00     0.198 C 
BRANCH  15  16
HETATM   16  O10 UNL     1      -3.748  51.415 -26.243  1.00  0.00    -0.398 OA
HETATM   17  H43 UNL     1      -3.791  52.355 -26.520  1.00  0.00     0.209 HD
ENDBRANCH  15  16
ENDBRANCH   7  15
ENDBRANCH   2   3
ENDBRANCH   1   2
BRANCH   1  18
HETATM   18  C7  UNL     1      -1.167  50.006 -21.425  1.00  0.00     0.047 C 
BRANCH  18  19
HETATM   19  C8  UNL     1      -1.184  50.332 -19.881  1.00  0.00    -0.028 C 
HETATM   20  C9  UNL     1      -2.419  51.186 -19.519  1.00  0.00     0.016 C 
HETATM   21  C10 UNL     1      -1.134  48.994 -19.026  1.00  0.00    -0.009 C 
HETATM   22  C11 UNL     1      -2.284  48.003 -19.239  1.00  0.00     0.011 C 
HETATM   23  C12 UNL     1      -1.013  49.268 -17.513  1.00  0.00     0.012 C 
HETATM   24  C13 UNL     1       0.229  50.076 -17.188  1.00  0.00     0.079 C 
HETATM   25  C14 UNL     1       0.263  51.333 -18.018  1.00  0.00     0.131 C 
HETATM   26  O5  UNL     1       0.451  52.428 -17.488  1.00  0.00    -0.298 OA
HETATM   27  C15 UNL     1       0.133  51.144 -19.531  1.00  0.00     0.060 C 
HETATM   28  C16 UNL     1       0.300  52.501 -20.226  1.00  0.00     0.018 C 
ENDBRANCH  18  19
ENDBRANCH   1  18
BRANCH   1  29
HETATM   29  C17 UNL     1      -3.215  50.443 -22.879  1.00  0.00    -0.059 C 
HETATM   30  C18 UNL     1      -3.196  49.081 -23.514  1.00  0.00     0.046 C 
HETATM   31  C19 UNL     1      -4.348  51.177 -22.792  1.00  0.00    -0.017 C 
BRANCH  31  32
HETATM   32  C20 UNL     1      -5.729  50.945 -23.369  1.00  0.00     0.072 C 
BRANCH  32  33
HETATM   33  C21 UNL     1      -6.640  49.941 -22.701  1.00  0.00     0.014 A 
HETATM   34  C22 UNL     1      -6.803  49.924 -21.308  1.00  0.00     0.097 A 
HETATM   35  C23 UNL     1      -7.651  48.998 -20.667  1.00  0.00     0.074 A 
HETATM   36 CL1  UNL     1      -7.743  49.044 -18.932  1.00  0.00    -0.081 Cl
HETATM   37  C24 UNL     1      -8.411  48.085 -21.422  1.00  0.00    -0.021 A 
HETATM   38  C25 UNL     1      -9.364  47.108 -20.780  1.00  0.00     0.051 C 
HETATM   39  C26 UNL     1      -8.265  48.119 -22.827  1.00  0.00     0.043 A 
HETATM   40  C28 UNL     1      -7.383  49.021 -23.452  1.00  0.00     0.088 A 
BRANCH  34  41
HETATM   41  O6  UNL     1      -6.112  50.858 -20.570  1.00  0.00    -0.358 OA
HETATM   42  H34 UNL     1      -5.900  50.440 -19.705  1.00  0.00     0.217 HD
ENDBRANCH  34  41
BRANCH  39  43
HETATM   43  C27 UNL     1      -9.083  47.243 -23.693  1.00  0.00     0.273 C 
HETATM   44  O7  UNL     1      -9.938  47.682 -24.452  1.00  0.00    -0.301 OA
ENDBRANCH  39  43
BRANCH  40  45
HETATM   45  O8  UNL     1      -7.218  49.043 -24.814  1.00  0.00    -0.359 OA
HETATM   46  H39 UNL     1      -7.397  48.167 -25.205  1.00  0.00     0.217 HD
ENDBRANCH  40  45
ENDBRANCH  32  33
ENDBRANCH  31  32
ENDBRANCH   1  29
TORSDOF 15
ENDMDL
