MODEL 1
REMARK minimizedAffinity -7.93117666
REMARK CNNscore 0.430436969
REMARK CNNaffinity 6.40506363
REMARK  19 active torsions:
REMARK  status: ('A' for Active; 'I' for Inactive)
REMARK    1  A    between atoms: C2_2  and  C3_3 
REMARK    2  A    between atoms: C3_3  and  C5_5 
REMARK    3  A    between atoms: C5_5  and  N1_6 
REMARK    4  A    between atoms: C5_5  and  C37_46 
REMARK       I    between atoms: N1_6  and  C6_7 
REMARK    5  A    between atoms: C6_7  and  C7_9 
REMARK    6  A    between atoms: C7_9  and  C8_10 
REMARK    7  A    between atoms: C8_10  and  C9_11 
REMARK    8  A    between atoms: C9_11  and  C10_12 
REMARK    9  A    between atoms: C10_12  and  C11_13 
REMARK   10  A    between atoms: C11_13  and  N2_14 
REMARK       I    between atoms: N2_14  and  C12_15 
REMARK   11  A    between atoms: C12_15  and  C13_17 
REMARK   12  A    between atoms: C13_17  and  C14_18 
REMARK   13  A    between atoms: C14_18  and  C15_19 
REMARK   14  A    between atoms: C15_19  and  O4_21 
REMARK   15  A    between atoms: O4_21  and  C16_22 
REMARK   16  A    between atoms: C16_22  and  C17_23 
REMARK   17  A    between atoms: C17_23  and  C18_25 
REMARK   18  A    between atoms: C18_25  and  O6_26 
REMARK   19  A    between atoms: C37_46  and  O9_48 
ROOT
HETATM    1  C15 UNL     1       7.107   8.211  12.811  1.00  0.00     0.259 C 
HETATM    2  O3  UNL     1       7.150   9.300  12.259  1.00  0.00    -0.265 OA
ENDROOT
BRANCH   1   3
HETATM    3  C14 UNL     1       7.737   7.877  14.141  1.00  0.00     0.120 C 
BRANCH   3   4
HETATM    4  C13 UNL     1       8.697   8.971  14.587  1.00  0.00     0.112 C 
BRANCH   4   5
HETATM    5  C12 UNL     1      10.107   8.724  14.092  1.00  0.00     0.217 C 
HETATM    6  N2  UNL     1      11.022   9.608  14.632  1.00  0.00    -0.361 N 
HETATM    7  H22 UNL     1      10.652  10.479  14.986  1.00  0.00     0.162 HD
HETATM    8  O2  UNL     1      10.404   7.802  13.342  1.00  0.00    -0.274 OA
BRANCH   6   9
HETATM    9  C11 UNL     1      12.403   9.597  14.190  1.00  0.00     0.122 C 
BRANCH   9  10
HETATM   10  C10 UNL     1      12.849  10.952  13.642  1.00  0.00     0.020 C 
BRANCH  10  11
HETATM   11  C9  UNL     1      14.367  11.175  13.627  1.00  0.00     0.002 C 
BRANCH  11  12
HETATM   12  C8  UNL     1      14.857  12.299  14.544  1.00  0.00     0.009 C 
BRANCH  12  13
HETATM   13  C7  UNL     1      15.808  11.788  15.628  1.00  0.00     0.103 C 
BRANCH  13  14
HETATM   14  C6  UNL     1      16.086  12.815  16.711  1.00  0.00     0.218 C 
HETATM   15  N1  UNL     1      16.445  12.242  17.911  1.00  0.00    -0.346 N 
HETATM   16  H11 UNL     1      16.172  11.277  18.062  1.00  0.00     0.163 HD
HETATM   17  O1  UNL     1      15.997  14.025  16.539  1.00  0.00    -0.274 OA
BRANCH  15  18
HETATM   18  C5  UNL     1      16.596  13.049  19.126  1.00  0.00     0.186 C 
BRANCH  18  19
HETATM   19  C3  UNL     1      17.856  12.647  19.932  1.00  0.00     0.014 C 
HETATM   20  C4  UNL     1      18.676  11.558  19.226  1.00  0.00     0.012 C 
BRANCH  19  21
HETATM   21  C2  UNL     1      18.717  13.894  20.233  1.00  0.00     0.002 C 
HETATM   22  C1  UNL     1      20.183  13.573  20.490  1.00  0.00     0.005 C 
ENDBRANCH  19  21
ENDBRANCH  18  19
BRANCH  18  23
HETATM   23  C37 UNL     1      15.338  12.963  20.002  1.00  0.00     0.163 C 
HETATM   24  O8  UNL     1      14.240  13.431  19.744  1.00  0.00    -0.648 OA
BRANCH  23  25
HETATM   25  O9  UNL     1      15.539  12.337  21.187  1.00  0.00    -0.775 OA
HETATM   26  H56 UNL     1      14.649  12.354  21.602  1.00  0.00     0.167 HD
ENDBRANCH  23  25
ENDBRANCH  18  23
ENDBRANCH  15  18
ENDBRANCH  13  14
ENDBRANCH  12  13
ENDBRANCH  11  12
ENDBRANCH  10  11
ENDBRANCH   9  10
ENDBRANCH   6   9
ENDBRANCH   4   5
ENDBRANCH   3   4
ENDBRANCH   1   3
BRANCH   1  27
HETATM   27  O4  UNL     1       6.433   7.121  12.343  1.00  0.00    -0.314 OA
BRANCH  27  28
HETATM   28  C16 UNL     1       5.034   7.350  12.168  1.00  0.00     0.260 C 
BRANCH  28  29
HETATM   29  C17 UNL     1       4.543   6.606  10.935  1.00  0.00     0.185 C 
HETATM   30  O5  UNL     1       5.270   5.776  10.381  1.00  0.00    -0.292 OA
BRANCH  29  31
HETATM   31  C18 UNL     1       3.135   6.984  10.382  1.00  0.00     0.128 C 
HETATM   32  C19 UNL     1       2.433   5.689   9.929  1.00  0.00     0.047 C 
HETATM   33  C20 UNL     1       1.432   5.320  11.032  1.00  0.00     0.009 C 
HETATM   34  C21 UNL     1       1.650   6.324  12.178  1.00  0.00     0.002 C 
HETATM   35  C22 UNL     1       0.482   6.556  13.172  1.00  0.00    -0.004 C 
HETATM   36  C35 UNL     1       2.149   7.585  11.443  1.00  0.00    -0.002 C 
HETATM   37  C23 UNL     1      -0.261   5.248  13.523  1.00  0.00     0.010 C 
HETATM   38  C32 UNL     1      -0.450   7.759  12.825  1.00  0.00     0.002 C 
HETATM   39  C24 UNL     1      -1.619   5.119  12.843  1.00  0.00     0.035 C 
HETATM   40  C25 UNL     1      -2.528   6.287  13.132  1.00  0.00    -0.068 C 
HETATM   41  C26 UNL     1      -3.862   6.122  13.066  1.00  0.00     0.053 C 
HETATM   42  C30 UNL     1      -1.883   7.628  13.471  1.00  0.00    -0.016 C 
HETATM   43  C27 UNL     1      -4.809   7.240  13.305  1.00  0.00     0.149 C 
HETATM   44  O7  UNL     1      -6.017   7.013  13.325  1.00  0.00    -0.293 OA
HETATM   45  C28 UNL     1      -4.253   8.624  13.546  1.00  0.00     0.084 C 
HETATM   46  C29 UNL     1      -2.838   8.759  12.988  1.00  0.00     0.022 C 
HETATM   47  C31 UNL     1      -1.741   7.759  15.016  1.00  0.00     0.020 C 
HETATM   48  C33 UNL     1      -0.436   8.038  11.316  1.00  0.00     0.007 C 
HETATM   49  C34 UNL     1       0.962   8.323  10.753  1.00  0.00     0.013 C 
HETATM   50  C36 UNL     1       2.862   8.566  12.393  1.00  0.00     0.019 C 
BRANCH  31  51
HETATM   51  O6  UNL     1       3.255   7.846   9.253  1.00  0.00    -0.381 OA
HETATM   52  H29 UNL     1       3.550   8.715   9.582  1.00  0.00     0.211 HD
ENDBRANCH  31  51
ENDBRANCH  29  31
ENDBRANCH  28  29
ENDBRANCH  27  28
ENDBRANCH   1  27
TORSDOF 19
ENDMDL
MODEL 2
REMARK minimizedAffinity -7.70929003
REMARK CNNscore 0.405867338
REMARK CNNaffinity 7.46430826
REMARK  19 active torsions:
REMARK  status: ('A' for Active; 'I' for Inactive)
REMARK    1  A    between atoms: C2_2  and  C3_3 
REMARK    2  A    between atoms: C3_3  and  C5_5 
REMARK    3  A    between atoms: C5_5  and  N1_6 
REMARK    4  A    between atoms: C5_5  and  C37_46 
REMARK       I    between atoms: N1_6  and  C6_7 
REMARK    5  A    between atoms: C6_7  and  C7_9 
REMARK    6  A    between atoms: C7_9  and  C8_10 
REMARK    7  A    between atoms: C8_10  and  C9_11 
REMARK    8  A    between atoms: C9_11  and  C10_12 
REMARK    9  A    between atoms: C10_12  and  C11_13 
REMARK   10  A    between atoms: C11_13  and  N2_14 
REMARK       I    between atoms: N2_14  and  C12_15 
REMARK   11  A    between atoms: C12_15  and  C13_17 
REMARK   12  A    between atoms: C13_17  and  C14_18 
REMARK   13  A    between atoms: C14_18  and  C15_19 
REMARK   14  A    between atoms: C15_19  and  O4_21 
REMARK   15  A    between atoms: O4_21  and  C16_22 
REMARK   16  A    between atoms: C16_22  and  C17_23 
REMARK   17  A    between atoms: C17_23  and  C18_25 
REMARK   18  A    between atoms: C18_25  and  O6_26 
REMARK   19  A    between atoms: C37_46  and  O9_48 
ROOT
HETATM    1  C15 UNL     1     -10.333   9.576  15.908  1.00  0.00     0.259 C 
HETATM    2  O3  UNL     1     -10.540  10.041  14.797  1.00  0.00    -0.265 OA
ENDROOT
BRANCH   1   3
HETATM    3  C14 UNL     1     -10.997  10.028  17.185  1.00  0.00     0.120 C 
BRANCH   3   4
HETATM    4  C13 UNL     1     -10.746   9.042  18.318  1.00  0.00     0.112 C 
BRANCH   4   5
HETATM    5  C12 UNL     1     -11.559   9.376  19.551  1.00  0.00     0.217 C 
HETATM    6  N2  UNL     1     -12.375   8.333  19.947  1.00  0.00    -0.361 N 
HETATM    7  H22 UNL     1     -12.606   7.649  19.241  1.00  0.00     0.162 HD
HETATM    8  O2  UNL     1     -11.454  10.434  20.159  1.00  0.00    -0.274 OA
BRANCH   6   9
HETATM    9  C11 UNL     1     -13.310   8.507  21.042  1.00  0.00     0.122 C 
BRANCH   9  10
HETATM   10  C10 UNL     1     -12.905   7.711  22.283  1.00  0.00     0.020 C 
BRANCH  10  11
HETATM   11  C9  UNL     1     -13.544   8.190  23.593  1.00  0.00     0.002 C 
BRANCH  11  12
HETATM   12  C8  UNL     1     -14.163   7.079  24.445  1.00  0.00     0.009 C 
BRANCH  12  13
HETATM   13  C7  UNL     1     -14.443   5.814  23.631  1.00  0.00     0.103 C 
BRANCH  13  14
HETATM   14  C6  UNL     1     -14.844   4.627  24.491  1.00  0.00     0.218 C 
HETATM   15  N1  UNL     1     -13.767   4.019  25.096  1.00  0.00    -0.346 N 
HETATM   16  H11 UNL     1     -12.856   4.170  24.678  1.00  0.00     0.163 HD
HETATM   17  O1  UNL     1     -16.000   4.248  24.628  1.00  0.00    -0.274 OA
BRANCH  15  18
HETATM   18  C5  UNL     1     -13.918   2.760  25.834  1.00  0.00     0.186 C 
BRANCH  18  19
HETATM   19  C3  UNL     1     -13.603   2.934  27.340  1.00  0.00     0.014 C 
HETATM   20  C4  UNL     1     -14.847   2.753  28.221  1.00  0.00     0.012 C 
BRANCH  19  21
HETATM   21  C2  UNL     1     -12.469   1.974  27.763  1.00  0.00     0.002 C 
HETATM   22  C1  UNL     1     -11.896   2.277  29.140  1.00  0.00     0.005 C 
ENDBRANCH  19  21
ENDBRANCH  18  19
BRANCH  18  23
HETATM   23  C37 UNL     1     -13.048   1.655  25.218  1.00  0.00     0.163 C 
HETATM   24  O8  UNL     1     -13.445   0.633  24.681  1.00  0.00    -0.648 OA
BRANCH  23  25
HETATM   25  O9  UNL     1     -11.717   1.867  25.359  1.00  0.00    -0.775 OA
HETATM   26  H56 UNL     1     -11.320   1.093  24.903  1.00  0.00     0.167 HD
ENDBRANCH  23  25
ENDBRANCH  18  23
ENDBRANCH  15  18
ENDBRANCH  13  14
ENDBRANCH  12  13
ENDBRANCH  11  12
ENDBRANCH  10  11
ENDBRANCH   9  10
ENDBRANCH   6   9
ENDBRANCH   4   5
ENDBRANCH   3   4
ENDBRANCH   1   3
BRANCH   1  27
HETATM   27  O4  UNL     1      -9.505   8.525  16.176  1.00  0.00    -0.314 OA
BRANCH  27  28
HETATM   28  C16 UNL     1      -8.357   8.476  15.328  1.00  0.00     0.260 C 
BRANCH  28  29
HETATM   29  C17 UNL     1      -8.212   7.079  14.742  1.00  0.00     0.185 C 
HETATM   30  O5  UNL     1      -9.103   6.611  14.026  1.00  0.00    -0.292 OA
BRANCH  29  31
HETATM   31  C18 UNL     1      -6.942   6.264  15.136  1.00  0.00     0.128 C 
HETATM   32  C19 UNL     1      -7.368   4.806  15.396  1.00  0.00     0.047 C 
HETATM   33  C20 UNL     1      -6.979   4.002  14.148  1.00  0.00     0.009 C 
HETATM   34  C21 UNL     1      -6.450   5.017  13.119  1.00  0.00     0.002 C 
HETATM   35  C22 UNL     1      -5.509   4.494  12.002  1.00  0.00    -0.004 C 
HETATM   36  C35 UNL     1      -5.864   6.135  14.004  1.00  0.00    -0.002 C 
HETATM   37  C23 UNL     1      -5.945   3.114  11.462  1.00  0.00     0.010 C 
HETATM   38  C32 UNL     1      -3.984   4.616  12.315  1.00  0.00     0.002 C 
HETATM   39  C24 UNL     1      -5.070   1.966  11.950  1.00  0.00     0.035 C 
HETATM   40  C25 UNL     1      -3.609   2.171  11.633  1.00  0.00    -0.068 C 
HETATM   41  C26 UNL     1      -2.800   1.104  11.514  1.00  0.00     0.053 C 
HETATM   42  C30 UNL     1      -3.107   3.604  11.482  1.00  0.00    -0.016 C 
HETATM   43  C27 UNL     1      -1.347   1.242  11.240  1.00  0.00     0.149 C 
HETATM   44  O7  UNL     1      -0.672   0.232  11.046  1.00  0.00    -0.293 OA
HETATM   45  C28 UNL     1      -0.748   2.626  11.176  1.00  0.00     0.084 C 
HETATM   46  C29 UNL     1      -1.613   3.641  11.920  1.00  0.00     0.022 C 
HETATM   47  C31 UNL     1      -3.167   4.019   9.983  1.00  0.00     0.020 C 
HETATM   48  C33 UNL     1      -3.739   4.601  13.830  1.00  0.00     0.007 C 
HETATM   49  C34 UNL     1      -4.484   5.706  14.588  1.00  0.00     0.013 C 
HETATM   50  C36 UNL     1      -5.689   7.455  13.230  1.00  0.00     0.019 C 
BRANCH  31  51
HETATM   51  O6  UNL     1      -6.365   6.782  16.332  1.00  0.00    -0.381 OA
HETATM   52  H29 UNL     1      -5.957   7.639  16.110  1.00  0.00     0.211 HD
ENDBRANCH  31  51
ENDBRANCH  29  31
ENDBRANCH  28  29
ENDBRANCH  27  28
ENDBRANCH   1  27
TORSDOF 19
ENDMDL
MODEL 3
REMARK minimizedAffinity -8.07249355
REMARK CNNscore 0.36621365
REMARK CNNaffinity 6.97090721
REMARK  19 active torsions:
REMARK  status: ('A' for Active; 'I' for Inactive)
REMARK    1  A    between atoms: C2_2  and  C3_3 
REMARK    2  A    between atoms: C3_3  and  C5_5 
REMARK    3  A    between atoms: C5_5  and  N1_6 
REMARK    4  A    between atoms: C5_5  and  C37_46 
REMARK       I    between atoms: N1_6  and  C6_7 
REMARK    5  A    between atoms: C6_7  and  C7_9 
REMARK    6  A    between atoms: C7_9  and  C8_10 
REMARK    7  A    between atoms: C8_10  and  C9_11 
REMARK    8  A    between atoms: C9_11  and  C10_12 
REMARK    9  A    between atoms: C10_12  and  C11_13 
REMARK   10  A    between atoms: C11_13  and  N2_14 
REMARK       I    between atoms: N2_14  and  C12_15 
REMARK   11  A    between atoms: C12_15  and  C13_17 
REMARK   12  A    between atoms: C13_17  and  C14_18 
REMARK   13  A    between atoms: C14_18  and  C15_19 
REMARK   14  A    between atoms: C15_19  and  O4_21 
REMARK   15  A    between atoms: O4_21  and  C16_22 
REMARK   16  A    between atoms: C16_22  and  C17_23 
REMARK   17  A    between atoms: C17_23  and  C18_25 
REMARK   18  A    between atoms: C18_25  and  O6_26 
REMARK   19  A    between atoms: C37_46  and  O9_48 
ROOT
HETATM    1  C15 UNL     1       1.906   6.500  12.152  1.00  0.00     0.259 C 
HETATM    2  O3  UNL     1       2.096   5.661  11.284  1.00  0.00    -0.265 OA
ENDROOT
BRANCH   1   3
HETATM    3  C14 UNL     1       1.919   7.994  11.945  1.00  0.00     0.120 C 
BRANCH   3   4
HETATM    4  C13 UNL     1       3.028   8.654  12.753  1.00  0.00     0.112 C 
BRANCH   4   5
HETATM    5  C12 UNL     1       4.401   8.182  12.321  1.00  0.00     0.217 C 
HETATM    6  N2  UNL     1       5.072   7.512  13.326  1.00  0.00    -0.361 N 
HETATM    7  H22 UNL     1       4.769   7.697  14.271  1.00  0.00     0.162 HD
HETATM    8  O2  UNL     1       4.836   8.331  11.186  1.00  0.00    -0.274 OA
BRANCH   6   9
HETATM    9  C11 UNL     1       6.445   7.083  13.134  1.00  0.00     0.122 C 
BRANCH   9  10
HETATM   10  C10 UNL     1       7.451   8.089  13.689  1.00  0.00     0.020 C 
BRANCH  10  11
HETATM   11  C9  UNL     1       8.897   7.581  13.766  1.00  0.00     0.002 C 
BRANCH  11  12
HETATM   12  C8  UNL     1       9.774   8.302  14.793  1.00  0.00     0.009 C 
BRANCH  12  13
HETATM   13  C7  UNL     1       9.306   8.056  16.228  1.00  0.00     0.103 C 
BRANCH  13  14
HETATM   14  C6  UNL     1       9.208   9.328  17.051  1.00  0.00     0.218 C 
HETATM   15  N1  UNL     1      10.337  10.111  16.960  1.00  0.00    -0.346 N 
HETATM   16  H11 UNL     1      11.195   9.653  16.673  1.00  0.00     0.163 HD
HETATM   17  O1  UNL     1       8.231   9.626  17.728  1.00  0.00    -0.274 OA
BRANCH  15  18
HETATM   18  C5  UNL     1      10.512  11.298  17.805  1.00  0.00     0.186 C 
BRANCH  18  19
HETATM   19  C3  UNL     1      11.321  12.404  17.083  1.00  0.00     0.014 C 
HETATM   20  C4  UNL     1      10.869  12.602  15.629  1.00  0.00     0.012 C 
BRANCH  19  21
HETATM   21  C2  UNL     1      11.248  13.725  17.880  1.00  0.00     0.002 C 
HETATM   22  C1  UNL     1      10.840  14.924  17.035  1.00  0.00     0.005 C 
ENDBRANCH  19  21
ENDBRANCH  18  19
BRANCH  18  23
HETATM   23  C37 UNL     1      11.167  10.928  19.143  1.00  0.00     0.163 C 
HETATM   24  O8  UNL     1      10.763  11.227  20.256  1.00  0.00    -0.648 OA
BRANCH  23  25
HETATM   25  O9  UNL     1      12.330  10.245  19.011  1.00  0.00    -0.775 OA
HETATM   26  H56 UNL     1      12.596  10.078  19.942  1.00  0.00     0.167 HD
ENDBRANCH  23  25
ENDBRANCH  18  23
ENDBRANCH  15  18
ENDBRANCH  13  14
ENDBRANCH  12  13
ENDBRANCH  11  12
ENDBRANCH  10  11
ENDBRANCH   9  10
ENDBRANCH   6   9
ENDBRANCH   4   5
ENDBRANCH   3   4
ENDBRANCH   1   3
BRANCH   1  27
HETATM   27  O4  UNL     1       1.595   6.226  13.452  1.00  0.00    -0.314 OA
BRANCH  27  28
HETATM   28  C16 UNL     1       0.201   5.998  13.666  1.00  0.00     0.260 C 
BRANCH  28  29
HETATM   29  C17 UNL     1      -0.383   7.135  14.491  1.00  0.00     0.185 C 
HETATM   30  O5  UNL     1       0.076   7.391  15.608  1.00  0.00    -0.292 OA
BRANCH  29  31
HETATM   31  C18 UNL     1      -1.605   7.900  13.896  1.00  0.00     0.128 C 
HETATM   32  C19 UNL     1      -1.990   7.229  12.563  1.00  0.00     0.047 C 
HETATM   33  C20 UNL     1      -3.216   6.352  12.848  1.00  0.00     0.009 C 
HETATM   34  C21 UNL     1      -3.458   6.414  14.366  1.00  0.00     0.002 C 
HETATM   35  C22 UNL     1      -4.883   6.090  14.888  1.00  0.00    -0.004 C 
HETATM   36  C35 UNL     1      -2.919   7.808  14.747  1.00  0.00    -0.002 C 
HETATM   37  C23 UNL     1      -5.538   4.918  14.124  1.00  0.00     0.010 C 
HETATM   38  C32 UNL     1      -5.809   7.331  15.091  1.00  0.00     0.002 C 
HETATM   39  C24 UNL     1      -6.615   5.359  13.141  1.00  0.00     0.035 C 
HETATM   40  C25 UNL     1      -7.700   6.178  13.795  1.00  0.00    -0.068 C 
HETATM   41  C26 UNL     1      -8.928   6.211  13.248  1.00  0.00     0.053 C 
HETATM   42  C30 UNL     1      -7.341   6.961  15.056  1.00  0.00    -0.016 C 
HETATM   43  C27 UNL     1     -10.028   7.026  13.824  1.00  0.00     0.149 C 
HETATM   44  O7  UNL     1     -11.155   6.946  13.339  1.00  0.00    -0.293 OA
HETATM   45  C28 UNL     1      -9.731   7.910  15.012  1.00  0.00     0.084 C 
HETATM   46  C29 UNL     1      -8.241   8.230  15.108  1.00  0.00     0.022 C 
HETATM   47  C31 UNL     1      -7.669   6.100  16.311  1.00  0.00     0.020 C 
HETATM   48  C33 UNL     1      -5.391   8.476  14.159  1.00  0.00     0.007 C 
HETATM   49  C34 UNL     1      -3.934   8.919  14.337  1.00  0.00     0.013 C 
HETATM   50  C36 UNL     1      -2.631   7.926  16.255  1.00  0.00     0.019 C 
BRANCH  31  51
HETATM   51  O6  UNL     1      -1.265   9.259  13.631  1.00  0.00    -0.381 OA
HETATM   52  H29 UNL     1      -1.182   9.710  14.491  1.00  0.00     0.211 HD
ENDBRANCH  31  51
ENDBRANCH  29  31
ENDBRANCH  28  29
ENDBRANCH  27  28
ENDBRANCH   1  27
TORSDOF 19
ENDMDL
MODEL 4
REMARK minimizedAffinity -7.31936932
REMARK CNNscore 0.364756435
REMARK CNNaffinity 6.9113183
REMARK  19 active torsions:
REMARK  status: ('A' for Active; 'I' for Inactive)
REMARK    1  A    between atoms: C2_2  and  C3_3 
REMARK    2  A    between atoms: C3_3  and  C5_5 
REMARK    3  A    between atoms: C5_5  and  N1_6 
REMARK    4  A    between atoms: C5_5  and  C37_46 
REMARK       I    between atoms: N1_6  and  C6_7 
REMARK    5  A    between atoms: C6_7  and  C7_9 
REMARK    6  A    between atoms: C7_9  and  C8_10 
REMARK    7  A    between atoms: C8_10  and  C9_11 
REMARK    8  A    between atoms: C9_11  and  C10_12 
REMARK    9  A    between atoms: C10_12  and  C11_13 
REMARK   10  A    between atoms: C11_13  and  N2_14 
REMARK       I    between atoms: N2_14  and  C12_15 
REMARK   11  A    between atoms: C12_15  and  C13_17 
REMARK   12  A    between atoms: C13_17  and  C14_18 
REMARK   13  A    between atoms: C14_18  and  C15_19 
REMARK   14  A    between atoms: C15_19  and  O4_21 
REMARK   15  A    between atoms: O4_21  and  C16_22 
REMARK   16  A    between atoms: C16_22  and  C17_23 
REMARK   17  A    between atoms: C17_23  and  C18_25 
REMARK   18  A    between atoms: C18_25  and  O6_26 
REMARK   19  A    between atoms: C37_46  and  O9_48 
ROOT
HETATM    1  C15 UNL     1      -6.569   5.570  14.278  1.00  0.00     0.259 C 
HETATM    2  O3  UNL     1      -6.256   5.013  13.236  1.00  0.00    -0.265 OA
ENDROOT
BRANCH   1   3
HETATM    3  C14 UNL     1      -7.973   5.944  14.684  1.00  0.00     0.120 C 
BRANCH   3   4
HETATM    4  C13 UNL     1      -8.008   6.503  16.100  1.00  0.00     0.112 C 
BRANCH   4   5
HETATM    5  C12 UNL     1      -8.939   7.692  16.217  1.00  0.00     0.217 C 
HETATM    6  N2  UNL     1      -9.191   8.289  14.997  1.00  0.00    -0.361 N 
HETATM    7  H22 UNL     1      -8.515   8.124  14.265  1.00  0.00     0.162 HD
HETATM    8  O2  UNL     1      -9.453   8.041  17.272  1.00  0.00    -0.274 OA
BRANCH   6   9
HETATM    9  C11 UNL     1      -9.972   9.510  14.924  1.00  0.00     0.122 C 
BRANCH   9  10
HETATM   10  C10 UNL     1     -11.286   9.315  14.167  1.00  0.00     0.020 C 
BRANCH  10  11
HETATM   11  C9  UNL     1     -11.241   8.255  13.059  1.00  0.00     0.002 C 
BRANCH  11  12
HETATM   12  C8  UNL     1     -12.178   7.063  13.276  1.00  0.00     0.009 C 
BRANCH  12  13
HETATM   13  C7  UNL     1     -12.690   6.986  14.715  1.00  0.00     0.103 C 
BRANCH  13  14
HETATM   14  C6  UNL     1     -14.203   7.075  14.816  1.00  0.00     0.218 C 
HETATM   15  N1  UNL     1     -14.833   6.822  13.618  1.00  0.00    -0.346 N 
HETATM   16  H11 UNL     1     -14.285   6.941  12.773  1.00  0.00     0.163 HD
HETATM   17  O1  UNL     1     -14.800   7.348  15.850  1.00  0.00    -0.274 OA
BRANCH  15  18
HETATM   18  C5  UNL     1     -16.279   7.017  13.461  1.00  0.00     0.186 C 
BRANCH  18  19
HETATM   19  C3  UNL     1     -17.072   5.726  13.778  1.00  0.00     0.014 C 
HETATM   20  C4  UNL     1     -18.492   6.022  14.283  1.00  0.00     0.012 C 
BRANCH  19  21
HETATM   21  C2  UNL     1     -17.096   4.797  12.545  1.00  0.00     0.002 C 
HETATM   22  C1  UNL     1     -18.286   3.847  12.521  1.00  0.00     0.005 C 
ENDBRANCH  19  21
ENDBRANCH  18  19
BRANCH  18  23
HETATM   23  C37 UNL     1     -16.613   7.531  12.053  1.00  0.00     0.163 C 
HETATM   24  O8  UNL     1     -15.815   7.783  11.164  1.00  0.00    -0.648 OA
BRANCH  23  25
HETATM   25  O9  UNL     1     -17.935   7.755  11.853  1.00  0.00    -0.775 OA
HETATM   26  H56 UNL     1     -17.971   8.054  10.919  1.00  0.00     0.167 HD
ENDBRANCH  23  25
ENDBRANCH  18  23
ENDBRANCH  15  18
ENDBRANCH  13  14
ENDBRANCH  12  13
ENDBRANCH  11  12
ENDBRANCH  10  11
ENDBRANCH   9  10
ENDBRANCH   6   9
ENDBRANCH   4   5
ENDBRANCH   3   4
ENDBRANCH   1   3
BRANCH   1  27
HETATM   27  O4  UNL     1      -5.705   5.901  15.280  1.00  0.00    -0.314 OA
BRANCH  27  28
HETATM   28  C16 UNL     1      -5.160   7.216  15.150  1.00  0.00     0.260 C 
BRANCH  28  29
HETATM   29  C17 UNL     1      -4.105   7.227  14.055  1.00  0.00     0.185 C 
HETATM   30  O5  UNL     1      -4.339   7.774  12.973  1.00  0.00    -0.292 OA
BRANCH  29  31
HETATM   31  C18 UNL     1      -2.769   6.474  14.337  1.00  0.00     0.128 C 
HETATM   32  C19 UNL     1      -2.666   5.292  13.354  1.00  0.00     0.047 C 
HETATM   33  C20 UNL     1      -1.695   5.723  12.246  1.00  0.00     0.009 C 
HETATM   34  C21 UNL     1      -1.342   7.195  12.519  1.00  0.00     0.002 C 
HETATM   35  C22 UNL     1      -0.020   7.747  11.923  1.00  0.00    -0.004 C 
HETATM   36  C35 UNL     1      -1.470   7.305  14.051  1.00  0.00    -0.002 C 
HETATM   37  C23 UNL     1       0.251   7.217  10.497  1.00  0.00     0.010 C 
HETATM   38  C32 UNL     1       1.210   7.688  12.882  1.00  0.00     0.002 C 
HETATM   39  C24 UNL     1       1.336   6.149  10.442  1.00  0.00     0.035 C 
HETATM   40  C25 UNL     1       2.640   6.612  11.043  1.00  0.00    -0.068 C 
HETATM   41  C26 UNL     1       3.793   6.049  10.641  1.00  0.00     0.053 C 
HETATM   42  C30 UNL     1       2.586   7.701  12.112  1.00  0.00    -0.016 C 
HETATM   43  C27 UNL     1       5.105   6.436  11.220  1.00  0.00     0.149 C 
HETATM   44  O7  UNL     1       6.135   5.958  10.750  1.00  0.00    -0.293 OA
HETATM   45  C28 UNL     1       5.133   7.433  12.354  1.00  0.00     0.084 C 
HETATM   46  C29 UNL     1       3.789   7.489  13.078  1.00  0.00     0.022 C 
HETATM   47  C31 UNL     1       2.762   9.095  11.441  1.00  0.00     0.020 C 
HETATM   48  C33 UNL     1       1.045   6.556  13.906  1.00  0.00     0.007 C 
HETATM   49  C34 UNL     1      -0.230   6.669  14.751  1.00  0.00     0.013 C 
HETATM   50  C36 UNL     1      -1.612   8.765  14.519  1.00  0.00     0.019 C 
BRANCH  31  51
HETATM   51  O6  UNL     1      -2.758   5.954  15.664  1.00  0.00    -0.381 OA
HETATM   52  H29 UNL     1      -2.661   6.710  16.272  1.00  0.00     0.211 HD
ENDBRANCH  31  51
ENDBRANCH  29  31
ENDBRANCH  28  29
ENDBRANCH  27  28
ENDBRANCH   1  27
TORSDOF 19
ENDMDL
MODEL 5
REMARK minimizedAffinity -7.95127964
REMARK CNNscore 0.327576131
REMARK CNNaffinity 6.62700844
REMARK  19 active torsions:
REMARK  status: ('A' for Active; 'I' for Inactive)
REMARK    1  A    between atoms: C2_2  and  C3_3 
REMARK    2  A    between atoms: C3_3  and  C5_5 
REMARK    3  A    between atoms: C5_5  and  N1_6 
REMARK    4  A    between atoms: C5_5  and  C37_46 
REMARK       I    between atoms: N1_6  and  C6_7 
REMARK    5  A    between atoms: C6_7  and  C7_9 
REMARK    6  A    between atoms: C7_9  and  C8_10 
REMARK    7  A    between atoms: C8_10  and  C9_11 
REMARK    8  A    between atoms: C9_11  and  C10_12 
REMARK    9  A    between atoms: C10_12  and  C11_13 
REMARK   10  A    between atoms: C11_13  and  N2_14 
REMARK       I    between atoms: N2_14  and  C12_15 
REMARK   11  A    between atoms: C12_15  and  C13_17 
REMARK   12  A    between atoms: C13_17  and  C14_18 
REMARK   13  A    between atoms: C14_18  and  C15_19 
REMARK   14  A    between atoms: C15_19  and  O4_21 
REMARK   15  A    between atoms: O4_21  and  C16_22 
REMARK   16  A    between atoms: C16_22  and  C17_23 
REMARK   17  A    between atoms: C17_23  and  C18_25 
REMARK   18  A    between atoms: C18_25  and  O6_26 
REMARK   19  A    between atoms: C37_46  and  O9_48 
ROOT
HETATM    1  C15 UNL     1      -6.009   4.532  13.240  1.00  0.00     0.259 C 
HETATM    2  O3  UNL     1      -6.169   3.324  13.140  1.00  0.00    -0.265 OA
ENDROOT
BRANCH   1   3
HETATM    3  C14 UNL     1      -6.994   5.586  12.798  1.00  0.00     0.120 C 
BRANCH   3   4
HETATM    4  C13 UNL     1      -8.329   5.429  13.513  1.00  0.00     0.112 C 
BRANCH   4   5
HETATM    5  C12 UNL     1      -8.560   6.527  14.531  1.00  0.00     0.217 C 
HETATM    6  N2  UNL     1      -9.896   6.854  14.664  1.00  0.00    -0.361 N 
HETATM    7  H22 UNL     1     -10.498   6.614  13.890  1.00  0.00     0.162 HD
HETATM    8  O2  UNL     1      -7.662   7.023  15.199  1.00  0.00    -0.274 OA
BRANCH   6   9
HETATM    9  C11 UNL     1     -10.301   7.960  15.511  1.00  0.00     0.122 C 
BRANCH   9  10
HETATM   10  C10 UNL     1     -10.241   9.302  14.782  1.00  0.00     0.020 C 
BRANCH  10  11
HETATM   11  C9  UNL     1     -11.461   9.615  13.907  1.00  0.00     0.002 C 
BRANCH  11  12
HETATM   12  C8  UNL     1     -12.532  10.474  14.586  1.00  0.00     0.009 C 
BRANCH  12  13
HETATM   13  C7  UNL     1     -13.461  11.147  13.574  1.00  0.00     0.103 C 
BRANCH  13  14
HETATM   14  C6  UNL     1     -14.320  10.160  12.804  1.00  0.00     0.218 C 
HETATM   15  N1  UNL     1     -15.492   9.850  13.458  1.00  0.00    -0.346 N 
HETATM   16  H11 UNL     1     -15.519  10.007  14.459  1.00  0.00     0.163 HD
HETATM   17  O1  UNL     1     -14.004   9.685  11.720  1.00  0.00    -0.274 OA
BRANCH  15  18
HETATM   18  C5  UNL     1     -16.383   8.794  12.964  1.00  0.00     0.186 C 
BRANCH  18  19
HETATM   19  C3  UNL     1     -16.053   7.419  13.596  1.00  0.00     0.014 C 
HETATM   20  C4  UNL     1     -17.030   6.322  13.150  1.00  0.00     0.012 C 
BRANCH  19  21
HETATM   21  C2  UNL     1     -14.590   7.029  13.290  1.00  0.00     0.002 C 
HETATM   22  C1  UNL     1     -13.953   6.163  14.368  1.00  0.00     0.005 C 
ENDBRANCH  19  21
ENDBRANCH  18  19
BRANCH  18  23
HETATM   23  C37 UNL     1     -16.343   8.714  11.431  1.00  0.00     0.163 C 
HETATM   24  O8  UNL     1     -16.895   9.473  10.650  1.00  0.00    -0.648 OA
BRANCH  23  25
HETATM   25  O9  UNL     1     -15.653   7.648  10.959  1.00  0.00    -0.775 OA
HETATM   26  H56 UNL     1     -15.711   7.760   9.985  1.00  0.00     0.167 HD
ENDBRANCH  23  25
ENDBRANCH  18  23
ENDBRANCH  15  18
ENDBRANCH  13  14
ENDBRANCH  12  13
ENDBRANCH  11  12
ENDBRANCH  10  11
ENDBRANCH   9  10
ENDBRANCH   6   9
ENDBRANCH   4   5
ENDBRANCH   3   4
ENDBRANCH   1   3
BRANCH   1  27
HETATM   27  O4  UNL     1      -4.932   5.134  13.821  1.00  0.00    -0.314 OA
BRANCH  27  28
HETATM   28  C16 UNL     1      -3.878   5.423  12.901  1.00  0.00     0.260 C 
BRANCH  28  29
HETATM   29  C17 UNL     1      -3.378   6.842  13.123  1.00  0.00     0.185 C 
HETATM   30  O5  UNL     1      -4.081   7.805  12.801  1.00  0.00    -0.292 OA
BRANCH  29  31
HETATM   31  C18 UNL     1      -1.940   7.015  13.702  1.00  0.00     0.128 C 
HETATM   32  C19 UNL     1      -1.320   5.615  13.876  1.00  0.00     0.047 C 
HETATM   33  C20 UNL     1      -0.362   5.407  12.696  1.00  0.00     0.009 C 
HETATM   34  C21 UNL     1      -0.527   6.628  11.774  1.00  0.00     0.002 C 
HETATM   35  C22 UNL     1       0.640   6.975  10.813  1.00  0.00    -0.004 C 
HETATM   36  C35 UNL     1      -0.931   7.749  12.752  1.00  0.00    -0.002 C 
HETATM   37  C23 UNL     1       1.290   5.717  10.196  1.00  0.00     0.010 C 
HETATM   38  C32 UNL     1       1.656   8.027  11.363  1.00  0.00     0.002 C 
HETATM   39  C24 UNL     1       2.645   5.372  10.802  1.00  0.00     0.035 C 
HETATM   40  C25 UNL     1       3.627   6.515  10.722  1.00  0.00    -0.068 C 
HETATM   41  C26 UNL     1       4.947   6.256  10.720  1.00  0.00     0.053 C 
HETATM   42  C30 UNL     1       3.068   7.934  10.667  1.00  0.00    -0.016 C 
HETATM   43  C27 UNL     1       5.963   7.338  10.678  1.00  0.00     0.149 C 
HETATM   44  O7  UNL     1       7.153   7.043  10.582  1.00  0.00    -0.293 OA
HETATM   45  C28 UNL     1       5.498   8.774  10.725  1.00  0.00     0.084 C 
HETATM   46  C29 UNL     1       4.103   8.886  11.335  1.00  0.00     0.022 C 
HETATM   47  C31 UNL     1       2.915   8.374   9.182  1.00  0.00     0.020 C 
HETATM   48  C33 UNL     1       1.680   8.005  12.898  1.00  0.00     0.007 C 
HETATM   49  C34 UNL     1       0.313   8.262  13.542  1.00  0.00     0.013 C 
HETATM   50  C36 UNL     1      -1.589   8.940  12.031  1.00  0.00     0.019 C 
BRANCH  31  51
HETATM   51  O6  UNL     1      -1.988   7.646  14.980  1.00  0.00    -0.381 OA
HETATM   52  H29 UNL     1      -2.227   8.579  14.834  1.00  0.00     0.211 HD
ENDBRANCH  31  51
ENDBRANCH  29  31
ENDBRANCH  28  29
ENDBRANCH  27  28
ENDBRANCH   1  27
TORSDOF 19
ENDMDL
MODEL 6
REMARK minimizedAffinity -8.64653587
REMARK CNNscore 0.32228592
REMARK CNNaffinity 6.89377546
REMARK  19 active torsions:
REMARK  status: ('A' for Active; 'I' for Inactive)
REMARK    1  A    between atoms: C2_2  and  C3_3 
REMARK    2  A    between atoms: C3_3  and  C5_5 
REMARK    3  A    between atoms: C5_5  and  N1_6 
REMARK    4  A    between atoms: C5_5  and  C37_46 
REMARK       I    between atoms: N1_6  and  C6_7 
REMARK    5  A    between atoms: C6_7  and  C7_9 
REMARK    6  A    between atoms: C7_9  and  C8_10 
REMARK    7  A    between atoms: C8_10  and  C9_11 
REMARK    8  A    between atoms: C9_11  and  C10_12 
REMARK    9  A    between atoms: C10_12  and  C11_13 
REMARK   10  A    between atoms: C11_13  and  N2_14 
REMARK       I    between atoms: N2_14  and  C12_15 
REMARK   11  A    between atoms: C12_15  and  C13_17 
REMARK   12  A    between atoms: C13_17  and  C14_18 
REMARK   13  A    between atoms: C14_18  and  C15_19 
REMARK   14  A    between atoms: C15_19  and  O4_21 
REMARK   15  A    between atoms: O4_21  and  C16_22 
REMARK   16  A    between atoms: C16_22  and  C17_23 
REMARK   17  A    between atoms: C17_23  and  C18_25 
REMARK   18  A    between atoms: C18_25  and  O6_26 
REMARK   19  A    between atoms: C37_46  and  O9_48 
ROOT
HETATM    1  C15 UNL     1      -0.100  11.885  18.366  1.00  0.00     0.259 C 
HETATM    2  O3  UNL     1      -1.267  12.226  18.246  1.00  0.00    -0.265 OA
ENDROOT
BRANCH   1   3
HETATM    3  C14 UNL     1       0.765  12.131  19.578  1.00  0.00     0.120 C 
BRANCH   3   4
HETATM    4  C13 UNL     1       0.959  10.856  20.387  1.00  0.00     0.112 C 
BRANCH   4   5
HETATM    5  C12 UNL     1       2.424  10.567  20.646  1.00  0.00     0.217 C 
HETATM    6  N2  UNL     1       3.144  11.709  20.943  1.00  0.00    -0.361 N 
HETATM    7  H22 UNL     1       2.749  12.585  20.633  1.00  0.00     0.162 HD
HETATM    8  O2  UNL     1       2.896   9.438  20.648  1.00  0.00    -0.274 OA
BRANCH   6   9
HETATM    9  C11 UNL     1       4.584  11.646  21.111  1.00  0.00     0.122 C 
BRANCH   9  10
HETATM   10  C10 UNL     1       5.001  11.733  22.579  1.00  0.00     0.020 C 
BRANCH  10  11
HETATM   11  C9  UNL     1       6.217  12.628  22.852  1.00  0.00     0.002 C 
BRANCH  11  12
HETATM   12  C8  UNL     1       7.541  11.875  23.014  1.00  0.00     0.009 C 
BRANCH  12  13
HETATM   13  C7  UNL     1       8.703  12.815  23.339  1.00  0.00     0.103 C 
BRANCH  13  14
HETATM   14  C6  UNL     1       9.440  13.302  22.103  1.00  0.00     0.218 C 
HETATM   15  N1  UNL     1       9.912  12.270  21.322  1.00  0.00    -0.346 N 
HETATM   16  H11 UNL     1      10.034  11.369  21.771  1.00  0.00     0.163 HD
HETATM   17  O1  UNL     1       9.603  14.485  21.831  1.00  0.00    -0.274 OA
BRANCH  15  18
HETATM   18  C5  UNL     1      10.790  12.524  20.174  1.00  0.00     0.186 C 
BRANCH  18  19
HETATM   19  C3  UNL     1      10.069  12.257  18.829  1.00  0.00     0.014 C 
HETATM   20  C4  UNL     1       8.885  11.292  18.983  1.00  0.00     0.012 C 
BRANCH  19  21
HETATM   21  C2  UNL     1       9.629  13.590  18.186  1.00  0.00     0.002 C 
HETATM   22  C1  UNL     1      10.782  14.548  17.919  1.00  0.00     0.005 C 
ENDBRANCH  19  21
ENDBRANCH  18  19
BRANCH  18  23
HETATM   23  C37 UNL     1      12.079  11.696  20.276  1.00  0.00     0.163 C 
HETATM   24  O8  UNL     1      13.162  12.088  20.681  1.00  0.00    -0.648 OA
BRANCH  23  25
HETATM   25  O9  UNL     1      11.953  10.430  19.811  1.00  0.00    -0.775 OA
HETATM   26  H56 UNL     1      12.844  10.047  19.966  1.00  0.00     0.167 HD
ENDBRANCH  23  25
ENDBRANCH  18  23
ENDBRANCH  15  18
ENDBRANCH  13  14
ENDBRANCH  12  13
ENDBRANCH  11  12
ENDBRANCH  10  11
ENDBRANCH   9  10
ENDBRANCH   6   9
ENDBRANCH   4   5
ENDBRANCH   3   4
ENDBRANCH   1   3
BRANCH   1  27
HETATM   27  O4  UNL     1       0.607  11.170  17.444  1.00  0.00    -0.314 OA
BRANCH  27  28
HETATM   28  C16 UNL     1       0.176  11.391  16.101  1.00  0.00     0.260 C 
BRANCH  28  29
HETATM   29  C17 UNL     1      -0.017  10.057  15.397  1.00  0.00     0.185 C 
HETATM   30  O5  UNL     1       0.767   9.126  15.606  1.00  0.00    -0.292 OA
BRANCH  29  31
HETATM   31  C18 UNL     1      -1.189   9.947  14.374  1.00  0.00     0.128 C 
HETATM   32  C19 UNL     1      -0.787   8.929  13.290  1.00  0.00     0.047 C 
HETATM   33  C20 UNL     1      -1.517   7.620  13.621  1.00  0.00     0.009 C 
HETATM   34  C21 UNL     1      -2.233   7.843  14.965  1.00  0.00     0.002 C 
HETATM   35  C22 UNL     1      -3.448   6.939  15.299  1.00  0.00    -0.004 C 
HETATM   36  C35 UNL     1      -2.521   9.358  14.957  1.00  0.00    -0.002 C 
HETATM   37  C23 UNL     1      -3.232   5.475  14.858  1.00  0.00     0.010 C 
HETATM   38  C32 UNL     1      -4.839   7.535  14.912  1.00  0.00     0.002 C 
HETATM   39  C24 UNL     1      -4.016   5.094  13.608  1.00  0.00     0.035 C 
HETATM   40  C25 UNL     1      -5.497   5.346  13.749  1.00  0.00    -0.068 C 
HETATM   41  C26 UNL     1      -6.365   4.632  13.010  1.00  0.00     0.053 C 
HETATM   42  C30 UNL     1      -5.947   6.429  14.725  1.00  0.00    -0.016 C 
HETATM   43  C27 UNL     1      -7.831   4.856  13.078  1.00  0.00     0.149 C 
HETATM   44  O7  UNL     1      -8.584   4.113  12.452  1.00  0.00    -0.293 OA
HETATM   45  C28 UNL     1      -8.355   5.978  13.942  1.00  0.00     0.084 C 
HETATM   46  C29 UNL     1      -7.280   7.033  14.194  1.00  0.00     0.022 C 
HETATM   47  C31 UNL     1      -6.241   5.788  16.113  1.00  0.00     0.020 C 
HETATM   48  C33 UNL     1      -4.698   8.524  13.747  1.00  0.00     0.007 C 
HETATM   49  C34 UNL     1      -3.732   9.681  14.029  1.00  0.00     0.013 C 
HETATM   50  C36 UNL     1      -2.815   9.900  16.368  1.00  0.00     0.019 C 
BRANCH  31  51
HETATM   51  O6  UNL     1      -1.422  11.204  13.743  1.00  0.00    -0.381 OA
HETATM   52  H29 UNL     1      -1.828  11.791  14.407  1.00  0.00     0.211 HD
ENDBRANCH  31  51
ENDBRANCH  29  31
ENDBRANCH  28  29
ENDBRANCH  27  28
ENDBRANCH   1  27
TORSDOF 19
ENDMDL
MODEL 7
REMARK minimizedAffinity -7.55361319
REMARK CNNscore 0.311985284
REMARK CNNaffinity 7.0410552
REMARK  19 active torsions:
REMARK  status: ('A' for Active; 'I' for Inactive)
REMARK    1  A    between atoms: C2_2  and  C3_3 
REMARK    2  A    between atoms: C3_3  and  C5_5 
REMARK    3  A    between atoms: C5_5  and  N1_6 
REMARK    4  A    between atoms: C5_5  and  C37_46 
REMARK       I    between atoms: N1_6  and  C6_7 
REMARK    5  A    between atoms: C6_7  and  C7_9 
REMARK    6  A    between atoms: C7_9  and  C8_10 
REMARK    7  A    between atoms: C8_10  and  C9_11 
REMARK    8  A    between atoms: C9_11  and  C10_12 
REMARK    9  A    between atoms: C10_12  and  C11_13 
REMARK   10  A    between atoms: C11_13  and  N2_14 
REMARK       I    between atoms: N2_14  and  C12_15 
REMARK   11  A    between atoms: C12_15  and  C13_17 
REMARK   12  A    between atoms: C13_17  and  C14_18 
REMARK   13  A    between atoms: C14_18  and  C15_19 
REMARK   14  A    between atoms: C15_19  and  O4_21 
REMARK   15  A    between atoms: O4_21  and  C16_22 
REMARK   16  A    between atoms: C16_22  and  C17_23 
REMARK   17  A    between atoms: C17_23  and  C18_25 
REMARK   18  A    between atoms: C18_25  and  O6_26 
REMARK   19  A    between atoms: C37_46  and  O9_48 
ROOT
HETATM    1  C15 UNL     1     -16.362   6.932  14.386  1.00  0.00     0.259 C 
HETATM    2  O3  UNL     1     -17.159   7.310  15.232  1.00  0.00    -0.265 OA
ENDROOT
BRANCH   1   3
HETATM    3  C14 UNL     1     -16.158   5.502  13.952  1.00  0.00     0.120 C 
BRANCH   3   4
HETATM    4  C13 UNL     1     -15.688   4.635  15.112  1.00  0.00     0.112 C 
BRANCH   4   5
HETATM    5  C12 UNL     1     -15.669   3.164  14.749  1.00  0.00     0.217 C 
HETATM    6  N2  UNL     1     -16.824   2.762  14.106  1.00  0.00    -0.361 N 
HETATM    7  H22 UNL     1     -17.643   3.336  14.248  1.00  0.00     0.162 HD
HETATM    8  O2  UNL     1     -14.707   2.434  14.952  1.00  0.00    -0.274 OA
BRANCH   6   9
HETATM    9  C11 UNL     1     -17.035   1.364  13.779  1.00  0.00     0.122 C 
BRANCH   9  10
HETATM   10  C10 UNL     1     -16.536   1.013  12.378  1.00  0.00     0.020 C 
BRANCH  10  11
HETATM   11  C9  UNL     1     -17.052  -0.322  11.826  1.00  0.00     0.002 C 
BRANCH  11  12
HETATM   12  C8  UNL     1     -17.536  -1.310  12.891  1.00  0.00     0.009 C 
BRANCH  12  13
HETATM   13  C7  UNL     1     -16.385  -2.111  13.503  1.00  0.00     0.103 C 
BRANCH  13  14
HETATM   14  C6  UNL     1     -16.303  -1.980  15.014  1.00  0.00     0.218 C 
HETATM   15  N1  UNL     1     -17.513  -2.196  15.634  1.00  0.00    -0.346 N 
HETATM   16  H11 UNL     1     -18.348  -2.080  15.072  1.00  0.00     0.163 HD
HETATM   17  O1  UNL     1     -15.273  -1.706  15.617  1.00  0.00    -0.274 OA
BRANCH  15  18
HETATM   18  C5  UNL     1     -17.686  -1.957  17.071  1.00  0.00     0.186 C 
BRANCH  18  19
HETATM   19  C3  UNL     1     -17.676  -0.445  17.408  1.00  0.00     0.014 C 
HETATM   20  C4  UNL     1     -16.303   0.198  17.166  1.00  0.00     0.012 C 
BRANCH  19  21
HETATM   21  C2  UNL     1     -18.785   0.285  16.619  1.00  0.00     0.002 C 
HETATM   22  C1  UNL     1     -20.193  -0.150  17.005  1.00  0.00     0.005 C 
ENDBRANCH  19  21
ENDBRANCH  18  19
BRANCH  18  23
HETATM   23  C37 UNL     1     -16.619  -2.704  17.884  1.00  0.00     0.163 C 
HETATM   24  O8  UNL     1     -16.253  -2.438  19.018  1.00  0.00    -0.648 OA
BRANCH  23  25
HETATM   25  O9  UNL     1     -16.027  -3.717  17.207  1.00  0.00    -0.775 OA
HETATM   26  H56 UNL     1     -15.401  -4.089  17.866  1.00  0.00     0.167 HD
ENDBRANCH  23  25
ENDBRANCH  18  23
ENDBRANCH  15  18
ENDBRANCH  13  14
ENDBRANCH  12  13
ENDBRANCH  11  12
ENDBRANCH  10  11
ENDBRANCH   9  10
ENDBRANCH   6   9
ENDBRANCH   4   5
ENDBRANCH   3   4
ENDBRANCH   1   3
BRANCH   1  27
HETATM   27  O4  UNL     1     -15.558   7.748  13.646  1.00  0.00    -0.314 OA
BRANCH  27  28
HETATM   28  C16 UNL     1     -15.275   8.996  14.282  1.00  0.00     0.260 C 
BRANCH  28  29
HETATM   29  C17 UNL     1     -13.824   9.023  14.736  1.00  0.00     0.185 C 
HETATM   30  O5  UNL     1     -13.547   9.249  15.917  1.00  0.00    -0.292 OA
BRANCH  29  31
HETATM   31  C18 UNL     1     -12.727   8.821  13.645  1.00  0.00     0.128 C 
HETATM   32  C19 UNL     1     -11.744  10.005  13.727  1.00  0.00     0.047 C 
HETATM   33  C20 UNL     1     -10.501   9.496  14.468  1.00  0.00     0.009 C 
HETATM   34  C21 UNL     1     -10.818   8.062  14.928  1.00  0.00     0.002 C 
HETATM   35  C22 UNL     1      -9.627   7.112  15.219  1.00  0.00    -0.004 C 
HETATM   36  C35 UNL     1     -11.810   7.566  13.857  1.00  0.00    -0.002 C 
HETATM   37  C23 UNL     1      -8.460   7.831  15.931  1.00  0.00     0.010 C 
HETATM   38  C32 UNL     1      -9.198   6.207  14.021  1.00  0.00     0.002 C 
HETATM   39  C24 UNL     1      -7.273   8.114  15.018  1.00  0.00     0.035 C 
HETATM   40  C25 UNL     1      -6.742   6.871  14.350  1.00  0.00    -0.068 C 
HETATM   41  C26 UNL     1      -5.458   6.829  13.951  1.00  0.00     0.053 C 
HETATM   42  C30 UNL     1      -7.707   5.708  14.136  1.00  0.00    -0.016 C 
HETATM   43  C27 UNL     1      -4.886   5.648  13.256  1.00  0.00     0.149 C 
HETATM   44  O7  UNL     1      -3.684   5.625  12.998  1.00  0.00    -0.293 OA
HETATM   45  C28 UNL     1      -5.797   4.493  12.914  1.00  0.00     0.084 C 
HETATM   46  C29 UNL     1      -7.258   4.936  12.860  1.00  0.00     0.022 C 
HETATM   47  C31 UNL     1      -7.609   4.724  15.339  1.00  0.00     0.020 C 
HETATM   48  C33 UNL     1      -9.565   6.868  12.685  1.00  0.00     0.007 C 
HETATM   49  C34 UNL     1     -11.057   7.192  12.544  1.00  0.00     0.013 C 
HETATM   50  C36 UNL     1     -12.617   6.344  14.335  1.00  0.00     0.019 C 
BRANCH  31  51
HETATM   51  O6  UNL     1     -13.310   8.812  12.344  1.00  0.00    -0.381 OA
HETATM   52  H29 UNL     1     -13.800   7.974  12.252  1.00  0.00     0.211 HD
ENDBRANCH  31  51
ENDBRANCH  29  31
ENDBRANCH  28  29
ENDBRANCH  27  28
ENDBRANCH   1  27
TORSDOF 19
ENDMDL
MODEL 8
REMARK minimizedAffinity -7.52528381
REMARK CNNscore 0.304902047
REMARK CNNaffinity 6.8860569
REMARK  19 active torsions:
REMARK  status: ('A' for Active; 'I' for Inactive)
REMARK    1  A    between atoms: C2_2  and  C3_3 
REMARK    2  A    between atoms: C3_3  and  C5_5 
REMARK    3  A    between atoms: C5_5  and  N1_6 
REMARK    4  A    between atoms: C5_5  and  C37_46 
REMARK       I    between atoms: N1_6  and  C6_7 
REMARK    5  A    between atoms: C6_7  and  C7_9 
REMARK    6  A    between atoms: C7_9  and  C8_10 
REMARK    7  A    between atoms: C8_10  and  C9_11 
REMARK    8  A    between atoms: C9_11  and  C10_12 
REMARK    9  A    between atoms: C10_12  and  C11_13 
REMARK   10  A    between atoms: C11_13  and  N2_14 
REMARK       I    between atoms: N2_14  and  C12_15 
REMARK   11  A    between atoms: C12_15  and  C13_17 
REMARK   12  A    between atoms: C13_17  and  C14_18 
REMARK   13  A    between atoms: C14_18  and  C15_19 
REMARK   14  A    between atoms: C15_19  and  O4_21 
REMARK   15  A    between atoms: O4_21  and  C16_22 
REMARK   16  A    between atoms: C16_22  and  C17_23 
REMARK   17  A    between atoms: C17_23  and  C18_25 
REMARK   18  A    between atoms: C18_25  and  O6_26 
REMARK   19  A    between atoms: C37_46  and  O9_48 
ROOT
HETATM    1  C15 UNL     1      -4.593   3.759  11.469  1.00  0.00     0.259 C 
HETATM    2  O3  UNL     1      -4.779   3.590  10.272  1.00  0.00    -0.265 OA
ENDROOT
BRANCH   1   3
HETATM    3  C14 UNL     1      -5.508   3.289  12.573  1.00  0.00     0.120 C 
BRANCH   3   4
HETATM    4  C13 UNL     1      -6.866   3.973  12.494  1.00  0.00     0.112 C 
BRANCH   4   5
HETATM    5  C12 UNL     1      -7.153   4.805  13.727  1.00  0.00     0.217 C 
HETATM    6  N2  UNL     1      -7.453   6.119  13.421  1.00  0.00    -0.361 N 
HETATM    7  H22 UNL     1      -7.129   6.459  12.527  1.00  0.00     0.162 HD
HETATM    8  O2  UNL     1      -7.174   4.342  14.860  1.00  0.00    -0.274 OA
BRANCH   6   9
HETATM    9  C11 UNL     1      -7.648   7.093  14.478  1.00  0.00     0.122 C 
BRANCH   9  10
HETATM   10  C10 UNL     1      -9.010   6.951  15.156  1.00  0.00     0.020 C 
BRANCH  10  11
HETATM   11  C9  UNL     1     -10.179   6.673  14.203  1.00  0.00     0.002 C 
BRANCH  11  12
HETATM   12  C8  UNL     1     -10.900   7.925  13.694  1.00  0.00     0.009 C 
BRANCH  12  13
HETATM   13  C7  UNL     1     -12.188   7.584  12.942  1.00  0.00     0.103 C 
BRANCH  13  14
HETATM   14  C6  UNL     1     -13.009   8.809  12.577  1.00  0.00     0.218 C 
HETATM   15  N1  UNL     1     -14.265   8.797  13.142  1.00  0.00    -0.346 N 
HETATM   16  H11 UNL     1     -14.634   7.898  13.428  1.00  0.00     0.163 HD
HETATM   17  O1  UNL     1     -12.600   9.710  11.855  1.00  0.00    -0.274 OA
BRANCH  15  18
HETATM   18  C5  UNL     1     -15.270   9.804  12.784  1.00  0.00     0.186 C 
BRANCH  18  19
HETATM   19  C3  UNL     1     -15.944  10.415  14.038  1.00  0.00     0.014 C 
HETATM   20  C4  UNL     1     -15.426   9.790  15.341  1.00  0.00     0.012 C 
BRANCH  19  21
HETATM   21  C2  UNL     1     -15.770  11.950  14.042  1.00  0.00     0.002 C 
HETATM   22  C1  UNL     1     -16.239  12.612  15.331  1.00  0.00     0.005 C 
ENDBRANCH  19  21
ENDBRANCH  18  19
BRANCH  18  23
HETATM   23  C37 UNL     1     -16.321   9.215  11.832  1.00  0.00     0.163 C 
HETATM   24  O8  UNL     1     -16.118   8.766  10.715  1.00  0.00    -0.648 OA
BRANCH  23  25
HETATM   25  O9  UNL     1     -17.587   9.273  12.313  1.00  0.00    -0.775 OA
HETATM   26  H56 UNL     1     -18.114   8.848  11.602  1.00  0.00     0.167 HD
ENDBRANCH  23  25
ENDBRANCH  18  23
ENDBRANCH  15  18
ENDBRANCH  13  14
ENDBRANCH  12  13
ENDBRANCH  11  12
ENDBRANCH  10  11
ENDBRANCH   9  10
ENDBRANCH   6   9
ENDBRANCH   4   5
ENDBRANCH   3   4
ENDBRANCH   1   3
BRANCH   1  27
HETATM   27  O4  UNL     1      -3.495   4.355  12.015  1.00  0.00    -0.314 OA
BRANCH  27  28
HETATM   28  C16 UNL     1      -3.736   4.920  13.304  1.00  0.00     0.260 C 
BRANCH  28  29
HETATM   29  C17 UNL     1      -3.284   6.372  13.320  1.00  0.00     0.185 C 
HETATM   30  O5  UNL     1      -4.018   7.256  12.869  1.00  0.00    -0.292 OA
BRANCH  29  31
HETATM   31  C18 UNL     1      -1.853   6.673  13.863  1.00  0.00     0.128 C 
HETATM   32  C19 UNL     1      -1.121   5.331  14.057  1.00  0.00     0.047 C 
HETATM   33  C20 UNL     1      -0.173   5.167  12.862  1.00  0.00     0.009 C 
HETATM   34  C21 UNL     1      -0.453   6.347  11.914  1.00  0.00     0.002 C 
HETATM   35  C22 UNL     1       0.663   6.759  10.919  1.00  0.00    -0.004 C 
HETATM   36  C35 UNL     1      -0.924   7.458  12.873  1.00  0.00    -0.002 C 
HETATM   37  C23 UNL     1       1.398   5.540  10.318  1.00  0.00     0.010 C 
HETATM   38  C32 UNL     1       1.604   7.901  11.420  1.00  0.00     0.002 C 
HETATM   39  C24 UNL     1       2.788   5.319  10.902  1.00  0.00     0.035 C 
HETATM   40  C25 UNL     1       3.674   6.532  10.772  1.00  0.00    -0.068 C 
HETATM   41  C26 UNL     1       5.010   6.378  10.747  1.00  0.00     0.053 C 
HETATM   42  C30 UNL     1       3.004   7.901  10.695  1.00  0.00    -0.016 C 
HETATM   43  C27 UNL     1       5.937   7.535  10.656  1.00  0.00     0.149 C 
HETATM   44  O7  UNL     1       7.144   7.332  10.540  1.00  0.00    -0.293 OA
HETATM   45  C28 UNL     1       5.361   8.931  10.677  1.00  0.00     0.084 C 
HETATM   46  C29 UNL     1       3.974   8.949  11.315  1.00  0.00     0.022 C 
HETATM   47  C31 UNL     1       2.786   8.289   9.203  1.00  0.00     0.020 C 
HETATM   48  C33 UNL     1       1.661   7.922  12.953  1.00  0.00     0.007 C 
HETATM   49  C34 UNL     1       0.291   8.088  13.622  1.00  0.00     0.013 C 
HETATM   50  C36 UNL     1      -1.689   8.574  12.137  1.00  0.00     0.019 C 
BRANCH  31  51
HETATM   51  O6  UNL     1      -1.924   7.331  15.125  1.00  0.00    -0.381 OA
HETATM   52  H29 UNL     1      -2.240   8.238  14.962  1.00  0.00     0.211 HD
ENDBRANCH  31  51
ENDBRANCH  29  31
ENDBRANCH  28  29
ENDBRANCH  27  28
ENDBRANCH   1  27
TORSDOF 19
ENDMDL
MODEL 9
REMARK minimizedAffinity -9.07268047
REMARK CNNscore 0.301976442
REMARK CNNaffinity 7.12989092
REMARK  19 active torsions:
REMARK  status: ('A' for Active; 'I' for Inactive)
REMARK    1  A    between atoms: C2_2  and  C3_3 
REMARK    2  A    between atoms: C3_3  and  C5_5 
REMARK    3  A    between atoms: C5_5  and  N1_6 
REMARK    4  A    between atoms: C5_5  and  C37_46 
REMARK       I    between atoms: N1_6  and  C6_7 
REMARK    5  A    between atoms: C6_7  and  C7_9 
REMARK    6  A    between atoms: C7_9  and  C8_10 
REMARK    7  A    between atoms: C8_10  and  C9_11 
REMARK    8  A    between atoms: C9_11  and  C10_12 
REMARK    9  A    between atoms: C10_12  and  C11_13 
REMARK   10  A    between atoms: C11_13  and  N2_14 
REMARK       I    between atoms: N2_14  and  C12_15 
REMARK   11  A    between atoms: C12_15  and  C13_17 
REMARK   12  A    between atoms: C13_17  and  C14_18 
REMARK   13  A    between atoms: C14_18  and  C15_19 
REMARK   14  A    between atoms: C15_19  and  O4_21 
REMARK   15  A    between atoms: O4_21  and  C16_22 
REMARK   16  A    between atoms: C16_22  and  C17_23 
REMARK   17  A    between atoms: C17_23  and  C18_25 
REMARK   18  A    between atoms: C18_25  and  O6_26 
REMARK   19  A    between atoms: C37_46  and  O9_48 
ROOT
HETATM    1  C15 UNL     1       0.570   8.241   8.963  1.00  0.00     0.259 C 
HETATM    2  O3  UNL     1      -0.256   9.124   8.787  1.00  0.00    -0.265 OA
ENDROOT
BRANCH   1   3
HETATM    3  C14 UNL     1       1.934   8.176   8.322  1.00  0.00     0.120 C 
BRANCH   3   4
HETATM    4  C13 UNL     1       2.177   6.818   7.678  1.00  0.00     0.112 C 
BRANCH   4   5
HETATM    5  C12 UNL     1       3.093   5.950   8.516  1.00  0.00     0.217 C 
HETATM    6  N2  UNL     1       3.603   6.620   9.611  1.00  0.00    -0.361 N 
HETATM    7  H22 UNL     1       3.611   7.629   9.559  1.00  0.00     0.162 HD
HETATM    8  O2  UNL     1       3.305   4.768   8.275  1.00  0.00    -0.274 OA
BRANCH   6   9
HETATM    9  C11 UNL     1       4.586   5.986  10.469  1.00  0.00     0.122 C 
BRANCH   9  10
HETATM   10  C10 UNL     1       4.935   6.843  11.686  1.00  0.00     0.020 C 
BRANCH  10  11
HETATM   11  C9  UNL     1       3.928   7.957  12.000  1.00  0.00     0.002 C 
BRANCH  11  12
HETATM   12  C8  UNL     1       3.585   8.109  13.485  1.00  0.00     0.009 C 
BRANCH  12  13
HETATM   13  C7  UNL     1       4.397   9.219  14.155  1.00  0.00     0.103 C 
BRANCH  13  14
HETATM   14  C6  UNL     1       5.652   8.710  14.842  1.00  0.00     0.218 C 
HETATM   15  N1  UNL     1       6.746   9.517  14.621  1.00  0.00    -0.346 N 
HETATM   16  H11 UNL     1       6.717  10.123  13.809  1.00  0.00     0.163 HD
HETATM   17  O1  UNL     1       5.690   7.689  15.517  1.00  0.00    -0.274 OA
BRANCH  15  18
HETATM   18  C5  UNL     1       8.088   9.118  15.059  1.00  0.00     0.186 C 
BRANCH  18  19
HETATM   19  C3  UNL     1       8.624   7.914  14.244  1.00  0.00     0.014 C 
HETATM   20  C4  UNL     1       7.951   7.794  12.869  1.00  0.00     0.012 C 
BRANCH  19  21
HETATM   21  C2  UNL     1      10.161   8.001  14.112  1.00  0.00     0.002 C 
HETATM   22  C1  UNL     1      10.679   9.425  13.964  1.00  0.00     0.005 C 
ENDBRANCH  19  21
ENDBRANCH  18  19
BRANCH  18  23
HETATM   23  C37 UNL     1       8.106   8.810  16.563  1.00  0.00     0.163 C 
HETATM   24  O8  UNL     1       8.812   7.989  17.127  1.00  0.00    -0.648 OA
BRANCH  23  25
HETATM   25  O9  UNL     1       7.192   9.513  17.275  1.00  0.00    -0.775 OA
HETATM   26  H56 UNL     1       7.351   9.214  18.197  1.00  0.00     0.167 HD
ENDBRANCH  23  25
ENDBRANCH  18  23
ENDBRANCH  15  18
ENDBRANCH  13  14
ENDBRANCH  12  13
ENDBRANCH  11  12
ENDBRANCH  10  11
ENDBRANCH   9  10
ENDBRANCH   6   9
ENDBRANCH   4   5
ENDBRANCH   3   4
ENDBRANCH   1   3
BRANCH   1  27
HETATM   27  O4  UNL     1       0.421   7.187   9.816  1.00  0.00    -0.314 OA
BRANCH  27  28
HETATM   28  C16 UNL     1       0.209   7.579  11.173  1.00  0.00     0.260 C 
BRANCH  28  29
HETATM   29  C17 UNL     1       0.547   6.422  12.101  1.00  0.00     0.185 C 
HETATM   30  O5  UNL     1       1.337   5.546  11.738  1.00  0.00    -0.292 OA
BRANCH  29  31
HETATM   31  C18 UNL     1      -0.190   6.364  13.474  1.00  0.00     0.128 C 
HETATM   32  C19 UNL     1      -0.334   7.804  14.004  1.00  0.00     0.047 C 
HETATM   33  C20 UNL     1      -1.781   8.234  13.726  1.00  0.00     0.009 C 
HETATM   34  C21 UNL     1      -2.431   7.095  12.921  1.00  0.00     0.002 C 
HETATM   35  C22 UNL     1      -3.978   6.979  12.947  1.00  0.00    -0.004 C 
HETATM   36  C35 UNL     1      -1.669   5.847  13.408  1.00  0.00    -0.002 C 
HETATM   37  C23 UNL     1      -4.673   8.358  12.894  1.00  0.00     0.010 C 
HETATM   38  C32 UNL     1      -4.548   6.006  14.028  1.00  0.00     0.002 C 
HETATM   39  C24 UNL     1      -5.252   8.799  14.233  1.00  0.00     0.035 C 
HETATM   40  C25 UNL     1      -6.214   7.792  14.812  1.00  0.00    -0.068 C 
HETATM   41  C26 UNL     1      -7.170   8.202  15.665  1.00  0.00     0.053 C 
HETATM   42  C30 UNL     1      -6.042   6.329  14.413  1.00  0.00    -0.016 C 
HETATM   43  C27 UNL     1      -8.124   7.255  16.296  1.00  0.00     0.149 C 
HETATM   44  O7  UNL     1      -9.037   7.695  16.993  1.00  0.00    -0.293 OA
HETATM   45  C28 UNL     1      -7.961   5.777  16.035  1.00  0.00     0.084 C 
HETATM   46  C29 UNL     1      -6.536   5.445  15.596  1.00  0.00     0.022 C 
HETATM   47  C31 UNL     1      -6.946   6.017  13.184  1.00  0.00     0.020 C 
HETATM   48  C33 UNL     1      -3.579   5.885  15.212  1.00  0.00     0.007 C 
HETATM   49  C34 UNL     1      -2.175   5.410  14.817  1.00  0.00     0.013 C 
HETATM   50  C36 UNL     1      -1.816   4.661  12.436  1.00  0.00     0.019 C 
BRANCH  31  51
HETATM   51  O6  UNL     1       0.570   5.614  14.419  1.00  0.00    -0.381 OA
HETATM   52  H29 UNL     1       0.517   4.677  14.156  1.00  0.00     0.211 HD
ENDBRANCH  31  51
ENDBRANCH  29  31
ENDBRANCH  28  29
ENDBRANCH  27  28
ENDBRANCH   1  27
TORSDOF 19
ENDMDL
