MODEL 1
REMARK minimizedAffinity -8.5363884
REMARK CNNscore 0.691009164
REMARK CNNaffinity 7.82420588
REMARK  12 active torsions:
REMARK  status: ('A' for Active; 'I' for Inactive)
REMARK    1  A    between atoms: C2_2  and  C3_3 
REMARK    2  A    between atoms: C4_4  and  C18_19 
REMARK    3  A    between atoms: C19_20  and  O1_21 
REMARK    4  A    between atoms: N2_22  and  C20_23 
REMARK    5  A    between atoms: C20_23  and  C21_24 
REMARK    6  A    between atoms: C21_24  and  O3_26 
REMARK    7  A    between atoms: O3_26  and  C22_27 
REMARK    8  A    between atoms: C25_30  and  C26_31 
REMARK    9  A    between atoms: C32_38  and  C33_39 
REMARK   10  A    between atoms: C39_47  and  O7_48 
REMARK   11  A    between atoms: C43_52  and  O8_53 
REMARK   12  A    between atoms: C45_55  and  O9_56 
ROOT
HETATM    1  C22 UNL     1      -2.334  13.438  15.538  1.00  0.00     0.135 C 
HETATM    2  C23 UNL     1      -1.311  12.852  14.569  1.00  0.00     0.034 C 
HETATM    3  C24 UNL     1      -1.766  11.501  14.046  1.00  0.00     0.022 C 
HETATM    4  C25 UNL     1      -1.796  10.424  15.171  1.00  0.00     0.048 C 
HETATM    5  C27 UNL     1      -2.704   9.214  14.745  1.00  0.00     0.011 C 
HETATM    6  C28 UNL     1      -2.460   8.673  13.320  1.00  0.00     0.007 C 
HETATM    7  C29 UNL     1      -2.314   7.159  13.230  1.00  0.00     0.013 C 
HETATM    8  C30 UNL     1      -3.388   6.327  13.989  1.00  0.00    -0.005 C 
HETATM    9  C31 UNL     1      -2.847   4.876  13.994  1.00  0.00     0.019 C 
HETATM   10  C32 UNL     1      -4.779   6.459  13.255  1.00  0.00     0.028 C 
HETATM   11  C37 UNL     1      -5.576   7.462  14.101  1.00  0.00     0.013 C 
HETATM   12  C38 UNL     1      -5.117   7.232  15.527  1.00  0.00     0.040 C 
HETATM   13  C39 UNL     1      -3.618   6.890  15.449  1.00  0.00     0.070 C 
HETATM   14  C40 UNL     1      -2.668   8.080  15.799  1.00  0.00     0.026 C 
HETATM   15  C41 UNL     1      -2.832   8.619  17.241  1.00  0.00     0.011 C 
HETATM   16  C42 UNL     1      -3.281  10.075  17.296  1.00  0.00     0.039 C 
HETATM   17  C43 UNL     1      -2.338  11.039  16.528  1.00  0.00     0.074 C 
HETATM   18  C44 UNL     1      -3.117  12.359  16.302  1.00  0.00     0.071 C 
ENDROOT
BRANCH   1  19
HETATM   19  O3  UNL     1      -1.605  14.306  16.434  1.00  0.00    -0.315 OA
BRANCH  19  20
HETATM   20  C21 UNL     1      -2.322  14.884  17.433  1.00  0.00     0.285 C 
HETATM   21  O2  UNL     1      -1.885  15.703  18.229  1.00  0.00    -0.263 OA
BRANCH  20  22
HETATM   22  C20 UNL     1      -3.759  14.385  17.423  1.00  0.00     0.352 C 
BRANCH  22  23
HETATM   23  N2  UNL     1      -4.898  15.462  17.203  1.00  0.00    -0.021 N 
HETATM   24  C6  UNL     1      -4.894  16.420  18.450  1.00  0.00     0.214 C 
HETATM   25  C5  UNL     1      -5.623  17.714  18.035  1.00  0.00     0.041 C 
HETATM   26  C7  UNL     1      -5.638  15.792  19.669  1.00  0.00     0.109 C 
HETATM   27  C4  UNL     1      -6.569  17.407  16.867  1.00  0.00     0.004 C 
HETATM   28  C3  UNL     1      -5.660  17.277  15.622  1.00  0.00     0.047 C 
HETATM   29  C45 UNL     1      -4.549  16.231  15.928  1.00  0.00     0.329 C 
HETATM   30  N1  UNL     1      -4.850  14.822  20.477  1.00  0.00    -0.279 NA
HETATM   31  C15 UNL     1      -6.941  15.026  19.269  1.00  0.00     0.035 C 
HETATM   32  C8  UNL     1      -3.783  15.340  21.334  1.00  0.00     0.117 C 
HETATM   33  C9  UNL     1      -5.919  14.193  21.212  1.00  0.00     0.018 A 
HETATM   34  C10 UNL     1      -5.830  13.492  22.403  1.00  0.00     0.024 A 
HETATM   35  C14 UNL     1      -7.171  14.341  20.571  1.00  0.00    -0.024 A 
HETATM   36  C11 UNL     1      -7.005  12.984  22.971  1.00  0.00     0.002 A 
HETATM   37  C12 UNL     1      -8.247  13.168  22.345  1.00  0.00     0.001 A 
HETATM   38  C13 UNL     1      -8.338  13.841  21.126  1.00  0.00     0.010 A 
HETATM   39  C16 UNL     1      -6.678  13.981  18.182  1.00  0.00     0.053 C 
HETATM   40  C19 UNL     1      -7.936  15.958  18.559  1.00  0.00     0.139 C 
HETATM   41  C17 UNL     1      -6.323  14.880  17.025  1.00  0.00     0.203 C 
HETATM   42  C18 UNL     1      -7.323  16.081  17.128  1.00  0.00     0.051 C 
BRANCH  28  43
HETATM   43  C2  UNL     1      -6.404  16.944  14.314  1.00  0.00     0.005 C 
HETATM   44  C1  UNL     1      -7.613  17.837  14.062  1.00  0.00     0.005 C 
ENDBRANCH  28  43
BRANCH  29  45
HETATM   45  O9  UNL     1      -3.303  16.881  16.060  1.00  0.00    -0.369 OA
HETATM   46  H59 UNL     1      -3.073  17.261  15.191  1.00  0.00     0.212 HD
ENDBRANCH  29  45
BRANCH  40  47
HETATM   47  O1  UNL     1      -9.203  15.321  18.415  1.00  0.00    -0.394 OA
HETATM   48  H24 UNL     1      -9.884  16.005  18.266  1.00  0.00     0.210 HD
ENDBRANCH  40  47
ENDBRANCH  22  23
ENDBRANCH  20  22
ENDBRANCH  19  20
ENDBRANCH   1  19
BRANCH  17  49
HETATM   49  O8  UNL     1      -1.252  11.399  17.406  1.00  0.00    -0.389 OA
HETATM   50  H55 UNL     1      -1.193  10.734  18.120  1.00  0.00     0.210 HD
ENDBRANCH  17  49
BRANCH   4  51
HETATM   51  C26 UNL     1      -0.359   9.897  15.348  1.00  0.00     0.244 C 
HETATM   52  O4  UNL     1       0.653  10.545  15.111  1.00  0.00    -0.306 OA
ENDBRANCH   4  51
BRANCH  13  53
HETATM   53  O7  UNL     1      -3.340   5.867  16.414  1.00  0.00    -0.389 OA
HETATM   54  H49 UNL     1      -3.933   5.960  17.178  1.00  0.00     0.210 HD
ENDBRANCH  13  53
BRANCH  10  55
HETATM   55  C33 UNL     1      -5.538   5.182  12.993  1.00  0.00    -0.045 A 
HETATM   56  C34 UNL     1      -6.671   4.735  13.538  1.00  0.00     0.087 A 
HETATM   57  C35 UNL     1      -6.976   3.447  12.920  1.00  0.00     0.283 A 
HETATM   58  O5  UNL     1      -7.938   2.758  13.207  1.00  0.00    -0.260 OA
HETATM   59  O6  UNL     1      -6.032   3.166  11.986  1.00  0.00    -0.314 OA
HETATM   60  C36 UNL     1      -5.077   4.228  11.952  1.00  0.00     0.213 A 
ENDBRANCH  10  55
TORSDOF 12
ENDMDL
MODEL 2
REMARK minimizedAffinity -8.68379784
REMARK CNNscore 0.394570738
REMARK CNNaffinity 6.58615732
REMARK  12 active torsions:
REMARK  status: ('A' for Active; 'I' for Inactive)
REMARK    1  A    between atoms: C2_2  and  C3_3 
REMARK    2  A    between atoms: C4_4  and  C18_19 
REMARK    3  A    between atoms: C19_20  and  O1_21 
REMARK    4  A    between atoms: N2_22  and  C20_23 
REMARK    5  A    between atoms: C20_23  and  C21_24 
REMARK    6  A    between atoms: C21_24  and  O3_26 
REMARK    7  A    between atoms: O3_26  and  C22_27 
REMARK    8  A    between atoms: C25_30  and  C26_31 
REMARK    9  A    between atoms: C32_38  and  C33_39 
REMARK   10  A    between atoms: C39_47  and  O7_48 
REMARK   11  A    between atoms: C43_52  and  O8_53 
REMARK   12  A    between atoms: C45_55  and  O9_56 
ROOT
HETATM    1  C22 UNL     1     -11.985   9.252  22.933  1.00  0.00     0.135 C 
HETATM    2  C23 UNL     1     -12.215   9.807  21.531  1.00  0.00     0.034 C 
HETATM    3  C24 UNL     1     -11.056  10.687  21.095  1.00  0.00     0.022 C 
HETATM    4  C25 UNL     1     -10.965  11.990  21.946  1.00  0.00     0.048 C 
HETATM    5  C27 UNL     1      -9.532  12.623  21.824  1.00  0.00     0.011 C 
HETATM    6  C28 UNL     1      -8.976  12.732  20.388  1.00  0.00     0.007 C 
HETATM    7  C29 UNL     1      -8.396  14.095  20.032  1.00  0.00     0.013 C 
HETATM    8  C30 UNL     1      -7.423  14.713  21.078  1.00  0.00    -0.005 C 
HETATM    9  C31 UNL     1      -7.229  16.183  20.631  1.00  0.00     0.019 C 
HETATM   10  C32 UNL     1      -6.073  13.896  21.095  1.00  0.00     0.028 C 
HETATM   11  C37 UNL     1      -6.167  13.007  22.343  1.00  0.00     0.013 C 
HETATM   12  C38 UNL     1      -6.960  13.817  23.349  1.00  0.00     0.040 C 
HETATM   13  C39 UNL     1      -8.012  14.599  22.541  1.00  0.00     0.070 C 
HETATM   14  C40 UNL     1      -9.444  13.974  22.574  1.00  0.00     0.026 C 
HETATM   15  C41 UNL     1     -10.070  13.899  23.988  1.00  0.00     0.011 C 
HETATM   16  C42 UNL     1     -10.362  12.473  24.445  1.00  0.00     0.039 C 
HETATM   17  C43 UNL     1     -11.283  11.692  23.470  1.00  0.00     0.074 C 
HETATM   18  C44 UNL     1     -11.144  10.188  23.814  1.00  0.00     0.071 C 
ENDROOT
BRANCH   1  19
HETATM   19  O3  UNL     1     -13.291   9.011  23.501  1.00  0.00    -0.315 OA
BRANCH  19  20
HETATM   20  C21 UNL     1     -13.354   8.097  24.506  1.00  0.00     0.285 C 
HETATM   21  O2  UNL     1     -12.443   7.839  25.279  1.00  0.00    -0.263 OA
BRANCH  20  22
HETATM   22  C20 UNL     1     -14.725   7.441  24.551  1.00  0.00     0.352 C 
BRANCH  22  23
HETATM   23  N2  UNL     1     -15.121   6.508  23.335  1.00  0.00    -0.021 N 
HETATM   24  C6  UNL     1     -16.063   5.379  23.889  1.00  0.00     0.214 C 
HETATM   25  C5  UNL     1     -16.826   4.788  22.686  1.00  0.00     0.041 C 
HETATM   26  C7  UNL     1     -15.259   4.236  24.584  1.00  0.00     0.109 C 
HETATM   27  C4  UNL     1     -16.021   5.039  21.406  1.00  0.00     0.004 C 
HETATM   28  C3  UNL     1     -16.234   6.535  21.069  1.00  0.00     0.047 C 
HETATM   29  C45 UNL     1     -15.859   7.381  22.320  1.00  0.00     0.329 C 
HETATM   30  N1  UNL     1     -14.839   4.503  25.987  1.00  0.00    -0.279 NA
HETATM   31  C15 UNL     1     -13.942   3.862  23.828  1.00  0.00     0.035 C 
HETATM   32  C8  UNL     1     -15.863   4.481  27.032  1.00  0.00     0.117 C 
HETATM   33  C9  UNL     1     -13.842   3.472  26.142  1.00  0.00     0.018 A 
HETATM   34  C10 UNL     1     -13.361   2.930  27.321  1.00  0.00     0.024 A 
HETATM   35  C14 UNL     1     -13.335   3.025  24.900  1.00  0.00    -0.024 A 
HETATM   36  C11 UNL     1     -12.408   1.906  27.250  1.00  0.00     0.002 A 
HETATM   37  C12 UNL     1     -11.938   1.445  26.011  1.00  0.00     0.001 A 
HETATM   38  C13 UNL     1     -12.392   2.014  24.820  1.00  0.00     0.010 A 
HETATM   39  C16 UNL     1     -13.060   5.087  23.577  1.00  0.00     0.053 C 
HETATM   40  C19 UNL     1     -14.238   3.402  22.392  1.00  0.00     0.139 C 
HETATM   41  C17 UNL     1     -13.926   5.846  22.603  1.00  0.00     0.203 C 
HETATM   42  C18 UNL     1     -14.521   4.750  21.656  1.00  0.00     0.051 C 
BRANCH  28  43
HETATM   43  C2  UNL     1     -15.489   7.024  19.813  1.00  0.00     0.005 C 
HETATM   44  C1  UNL     1     -15.198   8.519  19.825  1.00  0.00     0.005 C 
ENDBRANCH  28  43
BRANCH  29  45
HETATM   45  O9  UNL     1     -17.027   7.934  22.891  1.00  0.00    -0.369 OA
HETATM   46  H59 UNL     1     -17.400   8.566  22.249  1.00  0.00     0.212 HD
ENDBRANCH  29  45
BRANCH  40  47
HETATM   47  O1  UNL     1     -13.072   2.839  21.796  1.00  0.00    -0.394 OA
HETATM   48  H24 UNL     1     -13.343   2.281  21.041  1.00  0.00     0.210 HD
ENDBRANCH  40  47
ENDBRANCH  22  23
ENDBRANCH  20  22
ENDBRANCH  19  20
ENDBRANCH   1  19
BRANCH  17  49
HETATM   49  O8  UNL     1     -12.652  12.016  23.788  1.00  0.00    -0.389 OA
HETATM   50  H55 UNL     1     -12.666  12.852  24.294  1.00  0.00     0.210 HD
ENDBRANCH  17  49
BRANCH   4  51
HETATM   51  C26 UNL     1     -11.976  12.996  21.364  1.00  0.00     0.244 C 
HETATM   52  O4  UNL     1     -12.975  13.396  21.951  1.00  0.00    -0.306 OA
ENDBRANCH   4  51
BRANCH  13  53
HETATM   53  O7  UNL     1      -8.140  15.906  23.117  1.00  0.00    -0.389 OA
HETATM   54  H49 UNL     1      -7.971  15.866  24.073  1.00  0.00     0.210 HD
ENDBRANCH  13  53
BRANCH  10  55
HETATM   55  C33 UNL     1      -4.791  14.690  21.038  1.00  0.00    -0.045 A 
HETATM   56  C34 UNL     1      -4.061  15.203  22.030  1.00  0.00     0.087 A 
HETATM   57  C35 UNL     1      -2.911  15.870  21.427  1.00  0.00     0.283 A 
HETATM   58  O5  UNL     1      -2.051  16.461  22.055  1.00  0.00    -0.260 OA
HETATM   59  O6  UNL     1      -2.959  15.712  20.080  1.00  0.00    -0.314 OA
HETATM   60  C36 UNL     1      -4.122  14.956  19.740  1.00  0.00     0.213 A 
ENDBRANCH  10  55
TORSDOF 12
ENDMDL
MODEL 3
REMARK minimizedAffinity -11.9707394
REMARK CNNscore 0.30829522
REMARK CNNaffinity 8.41496277
REMARK  12 active torsions:
REMARK  status: ('A' for Active; 'I' for Inactive)
REMARK    1  A    between atoms: C2_2  and  C3_3 
REMARK    2  A    between atoms: C4_4  and  C18_19 
REMARK    3  A    between atoms: C19_20  and  O1_21 
REMARK    4  A    between atoms: N2_22  and  C20_23 
REMARK    5  A    between atoms: C20_23  and  C21_24 
REMARK    6  A    between atoms: C21_24  and  O3_26 
REMARK    7  A    between atoms: O3_26  and  C22_27 
REMARK    8  A    between atoms: C25_30  and  C26_31 
REMARK    9  A    between atoms: C32_38  and  C33_39 
REMARK   10  A    between atoms: C39_47  and  O7_48 
REMARK   11  A    between atoms: C43_52  and  O8_53 
REMARK   12  A    between atoms: C45_55  and  O9_56 
ROOT
HETATM    1  C22 UNL     1      -1.803   8.992  13.098  1.00  0.00     0.135 C 
HETATM    2  C23 UNL     1      -1.261   8.361  14.377  1.00  0.00     0.034 C 
HETATM    3  C24 UNL     1       0.250   8.498  14.455  1.00  0.00     0.022 C 
HETATM    4  C25 UNL     1       0.965   7.659  13.354  1.00  0.00     0.048 C 
HETATM    5  C27 UNL     1       2.433   8.180  13.139  1.00  0.00     0.011 C 
HETATM    6  C28 UNL     1       3.249   8.410  14.428  1.00  0.00     0.007 C 
HETATM    7  C29 UNL     1       4.647   7.802  14.414  1.00  0.00     0.013 C 
HETATM    8  C30 UNL     1       5.493   8.076  13.137  1.00  0.00    -0.005 C 
HETATM    9  C31 UNL     1       6.708   7.121  13.243  1.00  0.00     0.019 C 
HETATM   10  C32 UNL     1       5.912   9.597  13.093  1.00  0.00     0.028 C 
HETATM   11  C37 UNL     1       4.957  10.239  12.078  1.00  0.00     0.013 C 
HETATM   12  C38 UNL     1       4.681   9.158  11.052  1.00  0.00     0.040 C 
HETATM   13  C39 UNL     1       4.643   7.828  11.827  1.00  0.00     0.070 C 
HETATM   14  C40 UNL     1       3.203   7.299  12.126  1.00  0.00     0.026 C 
HETATM   15  C41 UNL     1       2.365   6.994  10.861  1.00  0.00     0.011 C 
HETATM   16  C42 UNL     1       1.107   7.849  10.749  1.00  0.00     0.039 C 
HETATM   17  C43 UNL     1       0.173   7.733  11.983  1.00  0.00     0.074 C 
HETATM   18  C44 UNL     1      -0.802   8.936  11.935  1.00  0.00     0.071 C 
ENDROOT
BRANCH   1  19
HETATM   19  O3  UNL     1      -3.030   8.298  12.783  1.00  0.00    -0.315 OA
BRANCH  19  20
HETATM   20  C21 UNL     1      -4.004   8.331  13.730  1.00  0.00     0.285 C 
HETATM   21  O2  UNL     1      -3.824   8.570  14.916  1.00  0.00    -0.263 OA
BRANCH  20  22
HETATM   22  C20 UNL     1      -5.364   8.043  13.114  1.00  0.00     0.352 C 
BRANCH  22  23
HETATM   23  N2  UNL     1      -6.449   7.359  14.042  1.00  0.00    -0.021 N 
HETATM   24  C6  UNL     1      -5.695   6.381  15.015  1.00  0.00     0.214 C 
HETATM   25  C5  UNL     1      -6.636   6.102  16.204  1.00  0.00     0.041 C 
HETATM   26  C7  UNL     1      -5.344   5.027  14.323  1.00  0.00     0.109 C 
HETATM   27  C4  UNL     1      -8.086   6.340  15.766  1.00  0.00     0.004 C 
HETATM   28  C3  UNL     1      -8.259   7.877  15.725  1.00  0.00     0.047 C 
HETATM   29  C45 UNL     1      -7.139   8.477  14.826  1.00  0.00     0.329 C 
HETATM   30  N1  UNL     1      -4.125   5.035  13.468  1.00  0.00    -0.279 NA
HETATM   31  C15 UNL     1      -6.487   4.492  13.399  1.00  0.00     0.035 C 
HETATM   32  C8  UNL     1      -2.819   5.092  14.126  1.00  0.00     0.117 C 
HETATM   33  C9  UNL     1      -4.340   3.816  12.728  1.00  0.00     0.018 A 
HETATM   34  C10 UNL     1      -3.396   3.052  12.063  1.00  0.00     0.024 A 
HETATM   35  C14 UNL     1      -5.700   3.429  12.714  1.00  0.00    -0.024 A 
HETATM   36  C11 UNL     1      -3.813   1.876  11.427  1.00  0.00     0.002 A 
HETATM   37  C12 UNL     1      -5.159   1.482  11.449  1.00  0.00     0.001 A 
HETATM   38  C13 UNL     1      -6.121   2.268  12.086  1.00  0.00     0.010 A 
HETATM   39  C16 UNL     1      -6.930   5.540  12.374  1.00  0.00     0.053 C 
HETATM   40  C19 UNL     1      -7.785   4.276  14.192  1.00  0.00     0.139 C 
HETATM   41  C17 UNL     1      -7.548   6.566  13.290  1.00  0.00     0.203 C 
HETATM   42  C18 UNL     1      -8.325   5.731  14.364  1.00  0.00     0.051 C 
BRANCH  28  43
HETATM   43  C2  UNL     1      -9.655   8.356  15.283  1.00  0.00     0.005 C 
HETATM   44  C1  UNL     1      -9.782   9.873  15.216  1.00  0.00     0.005 C 
ENDBRANCH  28  43
BRANCH  29  45
HETATM   45  O9  UNL     1      -6.209   9.178  15.623  1.00  0.00    -0.369 OA
HETATM   46  H59 UNL     1      -6.669   9.944  16.013  1.00  0.00     0.212 HD
ENDBRANCH  29  45
BRANCH  40  47
HETATM   47  O1  UNL     1      -8.740   3.568  13.404  1.00  0.00    -0.394 OA
HETATM   48  H24 UNL     1      -9.404   3.170  13.999  1.00  0.00     0.210 HD
ENDBRANCH  40  47
ENDBRANCH  22  23
ENDBRANCH  20  22
ENDBRANCH  19  20
ENDBRANCH   1  19
BRANCH  17  49
HETATM   49  O8  UNL     1      -0.666   6.574  11.805  1.00  0.00    -0.389 OA
HETATM   50  H55 UNL     1      -0.248   5.984  11.147  1.00  0.00     0.210 HD
ENDBRANCH  17  49
BRANCH   4  51
HETATM   51  C26 UNL     1       1.049   6.206  13.858  1.00  0.00     0.244 C 
HETATM   52  O4  UNL     1       0.746   5.221  13.194  1.00  0.00    -0.306 OA
ENDBRANCH   4  51
BRANCH  13  53
HETATM   53  O7  UNL     1       5.273   6.821  11.022  1.00  0.00    -0.389 OA
HETATM   54  H49 UNL     1       5.134   7.014  10.080  1.00  0.00     0.210 HD
ENDBRANCH  13  53
BRANCH  10  55
HETATM   55  C33 UNL     1       7.362   9.899  12.804  1.00  0.00    -0.045 A 
HETATM   56  C34 UNL     1       8.462   9.472  13.425  1.00  0.00     0.087 A 
HETATM   57  C35 UNL     1       9.609  10.056  12.735  1.00  0.00     0.283 A 
HETATM   58  O5  UNL     1      10.770   9.884  13.062  1.00  0.00    -0.260 OA
HETATM   59  O6  UNL     1       9.169  10.798  11.687  1.00  0.00    -0.314 OA
HETATM   60  C36 UNL     1       7.742  10.743  11.643  1.00  0.00     0.213 A 
ENDBRANCH  10  55
TORSDOF 12
ENDMDL
MODEL 4
REMARK minimizedAffinity -8.28016281
REMARK CNNscore 0.303531289
REMARK CNNaffinity 6.94940805
REMARK  12 active torsions:
REMARK  status: ('A' for Active; 'I' for Inactive)
REMARK    1  A    between atoms: C2_2  and  C3_3 
REMARK    2  A    between atoms: C4_4  and  C18_19 
REMARK    3  A    between atoms: C19_20  and  O1_21 
REMARK    4  A    between atoms: N2_22  and  C20_23 
REMARK    5  A    between atoms: C20_23  and  C21_24 
REMARK    6  A    between atoms: C21_24  and  O3_26 
REMARK    7  A    between atoms: O3_26  and  C22_27 
REMARK    8  A    between atoms: C25_30  and  C26_31 
REMARK    9  A    between atoms: C32_38  and  C33_39 
REMARK   10  A    between atoms: C39_47  and  O7_48 
REMARK   11  A    between atoms: C43_52  and  O8_53 
REMARK   12  A    between atoms: C45_55  and  O9_56 
ROOT
HETATM    1  C22 UNL     1      -1.624  13.226  15.962  1.00  0.00     0.135 C 
HETATM    2  C23 UNL     1      -0.893  12.629  14.763  1.00  0.00     0.034 C 
HETATM    3  C24 UNL     1      -1.646  11.434  14.206  1.00  0.00     0.022 C 
HETATM    4  C25 UNL     1      -1.656  10.237  15.204  1.00  0.00     0.048 C 
HETATM    5  C27 UNL     1      -2.810   9.233  14.841  1.00  0.00     0.011 C 
HETATM    6  C28 UNL     1      -2.908   8.848  13.350  1.00  0.00     0.007 C 
HETATM    7  C29 UNL     1      -3.028   7.352  13.085  1.00  0.00     0.013 C 
HETATM    8  C30 UNL     1      -4.076   6.592  13.948  1.00  0.00    -0.005 C 
HETATM    9  C31 UNL     1      -3.787   5.090  13.707  1.00  0.00     0.019 C 
HETATM   10  C32 UNL     1      -5.532   7.013  13.509  1.00  0.00     0.028 C 
HETATM   11  C37 UNL     1      -5.997   8.004  14.585  1.00  0.00     0.013 C 
HETATM   12  C38 UNL     1      -5.342   7.532  15.869  1.00  0.00     0.040 C 
HETATM   13  C39 UNL     1      -3.956   6.993  15.473  1.00  0.00     0.070 C 
HETATM   14  C40 UNL     1      -2.778   7.982  15.752  1.00  0.00     0.026 C 
HETATM   15  C41 UNL     1      -2.600   8.351  17.245  1.00  0.00     0.011 C 
HETATM   16  C42 UNL     1      -2.790   9.837  17.527  1.00  0.00     0.039 C 
HETATM   17  C43 UNL     1      -1.849  10.746  16.694  1.00  0.00     0.074 C 
HETATM   18  C44 UNL     1      -2.428  12.182  16.751  1.00  0.00     0.071 C 
ENDROOT
BRANCH   1  19
HETATM   19  O3  UNL     1      -0.620  13.861  16.784  1.00  0.00    -0.315 OA
BRANCH  19  20
HETATM   20  C21 UNL     1       0.637  13.917  16.269  1.00  0.00     0.285 C 
HETATM   21  O2  UNL     1       1.014  14.715  15.421  1.00  0.00    -0.263 OA
BRANCH  20  22
HETATM   22  C20 UNL     1       1.525  12.857  16.900  1.00  0.00     0.352 C 
BRANCH  22  23
HETATM   23  N2  UNL     1       3.044  12.828  16.455  1.00  0.00    -0.021 N 
HETATM   24  C6  UNL     1       3.709  11.566  17.115  1.00  0.00     0.214 C 
HETATM   25  C5  UNL     1       4.996  11.259  16.322  1.00  0.00     0.041 C 
HETATM   26  C7  UNL     1       4.087  11.819  18.607  1.00  0.00     0.109 C 
HETATM   27  C4  UNL     1       5.479  12.539  15.629  1.00  0.00     0.004 C 
HETATM   28  C3  UNL     1       4.534  12.735  14.419  1.00  0.00     0.047 C 
HETATM   29  C45 UNL     1       3.064  12.717  14.930  1.00  0.00     0.329 C 
HETATM   30  N1  UNL     1       2.975  11.682  19.587  1.00  0.00    -0.279 NA
HETATM   31  C15 UNL     1       4.680  13.244  18.861  1.00  0.00     0.035 C 
HETATM   32  C8  UNL     1       2.481  10.337  19.891  1.00  0.00     0.117 C 
HETATM   33  C9  UNL     1       3.569  12.342  20.724  1.00  0.00     0.018 A 
HETATM   34  C10 UNL     1       3.221  12.212  22.057  1.00  0.00     0.024 A 
HETATM   35  C14 UNL     1       4.612  13.220  20.348  1.00  0.00    -0.024 A 
HETATM   36  C11 UNL     1       3.953  12.925  23.015  1.00  0.00     0.002 A 
HETATM   37  C12 UNL     1       5.010  13.766  22.634  1.00  0.00     0.001 A 
HETATM   38  C13 UNL     1       5.341  13.930  21.289  1.00  0.00     0.010 A 
HETATM   39  C16 UNL     1       3.763  14.347  18.326  1.00  0.00     0.053 C 
HETATM   40  C19 UNL     1       5.949  13.473  18.025  1.00  0.00     0.139 C 
HETATM   41  C17 UNL     1       3.863  14.085  16.844  1.00  0.00     0.203 C 
HETATM   42  C18 UNL     1       5.372  13.741  16.599  1.00  0.00     0.051 C 
BRANCH  28  43
HETATM   43  C2  UNL     1       4.822  13.993  13.575  1.00  0.00     0.005 C 
HETATM   44  C1  UNL     1       3.599  14.517  12.833  1.00  0.00     0.005 C 
ENDBRANCH  28  43
BRANCH  29  45
HETATM   45  O9  UNL     1       2.425  11.531  14.506  1.00  0.00    -0.369 OA
HETATM   46  H59 UNL     1       2.364  11.559  13.533  1.00  0.00     0.212 HD
ENDBRANCH  29  45
BRANCH  40  47
HETATM   47  O1  UNL     1       6.611  14.666  18.437  1.00  0.00    -0.394 OA
HETATM   48  H24 UNL     1       7.540  14.629  18.137  1.00  0.00     0.210 HD
ENDBRANCH  40  47
ENDBRANCH  22  23
ENDBRANCH  20  22
ENDBRANCH  19  20
ENDBRANCH   1  19
BRANCH  17  49
HETATM   49  O8  UNL     1      -0.584  10.834  17.380  1.00  0.00    -0.389 OA
HETATM   50  H55 UNL     1      -0.512  10.082  18.000  1.00  0.00     0.210 HD
ENDBRANCH  17  49
BRANCH   4  51
HETATM   51  C26 UNL     1      -0.316   9.493  15.051  1.00  0.00     0.244 C 
HETATM   52  O4  UNL     1       0.157   8.734  15.889  1.00  0.00    -0.306 OA
ENDBRANCH   4  51
BRANCH  13  53
HETATM   53  O7  UNL     1      -3.686   5.826  16.263  1.00  0.00    -0.389 OA
HETATM   54  H49 UNL     1      -4.114   5.906  17.131  1.00  0.00     0.210 HD
ENDBRANCH  13  53
BRANCH  10  55
HETATM   55  C33 UNL     1      -6.523   5.901  13.271  1.00  0.00    -0.045 A 
HETATM   56  C34 UNL     1      -6.393   4.587  13.463  1.00  0.00     0.087 A 
HETATM   57  C35 UNL     1      -7.658   3.962  13.083  1.00  0.00     0.283 A 
HETATM   58  O5  UNL     1      -7.871   2.764  13.120  1.00  0.00    -0.260 OA
HETATM   59  O6  UNL     1      -8.535   4.926  12.704  1.00  0.00    -0.314 OA
HETATM   60  C36 UNL     1      -7.901   6.201  12.805  1.00  0.00     0.213 A 
ENDBRANCH  10  55
TORSDOF 12
ENDMDL
MODEL 5
REMARK minimizedAffinity -8.9781971
REMARK CNNscore 0.302249283
REMARK CNNaffinity 6.75751066
REMARK  12 active torsions:
REMARK  status: ('A' for Active; 'I' for Inactive)
REMARK    1  A    between atoms: C2_2  and  C3_3 
REMARK    2  A    between atoms: C4_4  and  C18_19 
REMARK    3  A    between atoms: C19_20  and  O1_21 
REMARK    4  A    between atoms: N2_22  and  C20_23 
REMARK    5  A    between atoms: C20_23  and  C21_24 
REMARK    6  A    between atoms: C21_24  and  O3_26 
REMARK    7  A    between atoms: O3_26  and  C22_27 
REMARK    8  A    between atoms: C25_30  and  C26_31 
REMARK    9  A    between atoms: C32_38  and  C33_39 
REMARK   10  A    between atoms: C39_47  and  O7_48 
REMARK   11  A    between atoms: C43_52  and  O8_53 
REMARK   12  A    between atoms: C45_55  and  O9_56 
ROOT
HETATM    1  C22 UNL     1       3.500   8.428  12.172  1.00  0.00     0.135 C 
HETATM    2  C23 UNL     1       3.333   9.782  12.855  1.00  0.00     0.034 C 
HETATM    3  C24 UNL     1       4.681  10.408  13.163  1.00  0.00     0.022 C 
HETATM    4  C25 UNL     1       5.465   9.600  14.240  1.00  0.00     0.048 C 
HETATM    5  C27 UNL     1       6.994   9.958  14.188  1.00  0.00     0.011 C 
HETATM    6  C28 UNL     1       7.319  11.466  14.128  1.00  0.00     0.007 C 
HETATM    7  C29 UNL     1       8.382  11.927  15.118  1.00  0.00     0.013 C 
HETATM    8  C30 UNL     1       9.671  11.059  15.184  1.00  0.00    -0.005 C 
HETATM    9  C31 UNL     1      10.426  11.549  16.445  1.00  0.00     0.019 C 
HETATM   10  C32 UNL     1      10.507  11.248  13.859  1.00  0.00     0.028 C 
HETATM   11  C37 UNL     1      10.217   9.990  13.028  1.00  0.00     0.013 C 
HETATM   12  C38 UNL     1      10.024   8.880  14.042  1.00  0.00     0.040 C 
HETATM   13  C39 UNL     1       9.319   9.519  15.252  1.00  0.00     0.070 C 
HETATM   14  C40 UNL     1       7.781   9.249  15.316  1.00  0.00     0.026 C 
HETATM   15  C41 UNL     1       7.405   7.752  15.439  1.00  0.00     0.011 C 
HETATM   16  C42 UNL     1       6.585   7.236  14.261  1.00  0.00     0.039 C 
HETATM   17  C43 UNL     1       5.279   8.040  14.022  1.00  0.00     0.074 C 
HETATM   18  C44 UNL     1       4.789   7.705  12.591  1.00  0.00     0.071 C 
ENDROOT
BRANCH   1  19
HETATM   19  O3  UNL     1       2.323   7.654  12.494  1.00  0.00    -0.315 OA
BRANCH  19  20
HETATM   20  C21 UNL     1       1.126   8.213  12.175  1.00  0.00     0.285 C 
HETATM   21  O2  UNL     1       0.949   9.037  11.289  1.00  0.00    -0.263 OA
BRANCH  20  22
HETATM   22  C20 UNL     1       0.022   7.664  13.064  1.00  0.00     0.352 C 
BRANCH  22  23
HETATM   23  N2  UNL     1      -0.542   8.621  14.193  1.00  0.00    -0.021 N 
HETATM   24  C6  UNL     1      -1.080   7.715  15.359  1.00  0.00     0.214 C 
HETATM   25  C5  UNL     1      -1.165   8.597  16.621  1.00  0.00     0.041 C 
HETATM   26  C7  UNL     1      -2.499   7.146  15.048  1.00  0.00     0.109 C 
HETATM   27  C4  UNL     1      -1.291  10.067  16.202  1.00  0.00     0.004 C 
HETATM   28  C3  UNL     1       0.128  10.491  15.751  1.00  0.00     0.047 C 
HETATM   29  C45 UNL     1       0.625   9.486  14.672  1.00  0.00     0.329 C 
HETATM   30  N1  UNL     1      -2.534   5.945  14.168  1.00  0.00    -0.279 NA
HETATM   31  C15 UNL     1      -3.443   8.184  14.357  1.00  0.00     0.035 C 
HETATM   32  C8  UNL     1      -2.091   4.666  14.725  1.00  0.00     0.117 C 
HETATM   33  C9  UNL     1      -3.929   5.955  13.799  1.00  0.00     0.018 A 
HETATM   34  C10 UNL     1      -4.687   4.899  13.325  1.00  0.00     0.024 A 
HETATM   35  C14 UNL     1      -4.515   7.233  13.953  1.00  0.00    -0.024 A 
HETATM   36  C11 UNL     1      -6.044   5.115  13.054  1.00  0.00     0.002 A 
HETATM   37  C12 UNL     1      -6.624   6.378  13.244  1.00  0.00     0.001 A 
HETATM   38  C13 UNL     1      -5.856   7.456  13.686  1.00  0.00     0.010 A 
HETATM   39  C16 UNL     1      -2.804   8.794  13.107  1.00  0.00     0.053 C 
HETATM   40  C19 UNL     1      -3.635   9.429  15.238  1.00  0.00     0.139 C 
HETATM   41  C17 UNL     1      -1.675   9.574  13.735  1.00  0.00     0.203 C 
HETATM   42  C18 UNL     1      -2.294  10.202  15.031  1.00  0.00     0.051 C 
BRANCH  28  43
HETATM   43  C2  UNL     1       0.237  11.947  15.259  1.00  0.00     0.005 C 
HETATM   44  C1  UNL     1      -0.073  12.976  16.340  1.00  0.00     0.005 C 
ENDBRANCH  28  43
BRANCH  29  45
HETATM   45  O9  UNL     1       1.657   8.684  15.205  1.00  0.00    -0.369 OA
HETATM   46  H59 UNL     1       2.418   9.265  15.392  1.00  0.00     0.212 HD
ENDBRANCH  29  45
BRANCH  40  47
HETATM   47  O1  UNL     1      -4.675  10.254  14.718  1.00  0.00    -0.394 OA
HETATM   48  H24 UNL     1      -4.993  10.844  15.428  1.00  0.00     0.210 HD
ENDBRANCH  40  47
ENDBRANCH  22  23
ENDBRANCH  20  22
ENDBRANCH  19  20
ENDBRANCH   1  19
BRANCH  17  49
HETATM   49  O8  UNL     1       4.259   7.512  14.893  1.00  0.00    -0.389 OA
HETATM   50  H55 UNL     1       4.692   7.020  15.619  1.00  0.00     0.210 HD
ENDBRANCH  17  49
BRANCH   4  51
HETATM   51  C26 UNL     1       4.928  10.025  15.621  1.00  0.00     0.244 C 
HETATM   52  O4  UNL     1       4.034   9.446  16.227  1.00  0.00    -0.306 OA
ENDBRANCH   4  51
BRANCH  13  53
HETATM   53  O7  UNL     1       9.869   8.947  16.447  1.00  0.00    -0.389 OA
HETATM   54  H49 UNL     1      10.143   8.030  16.280  1.00  0.00     0.210 HD
ENDBRANCH  13  53
BRANCH  10  55
HETATM   55  C33 UNL     1      11.983  11.520  14.013  1.00  0.00    -0.045 A 
HETATM   56  C34 UNL     1      12.988  10.670  14.235  1.00  0.00     0.087 A 
HETATM   57  C35 UNL     1      14.219  11.454  14.290  1.00  0.00     0.283 A 
HETATM   58  O5  UNL     1      15.324  10.985  14.498  1.00  0.00    -0.260 OA
HETATM   59  O6  UNL     1      13.927  12.760  14.063  1.00  0.00    -0.314 OA
HETATM   60  C36 UNL     1      12.520  12.895  13.861  1.00  0.00     0.213 A 
ENDBRANCH  10  55
TORSDOF 12
ENDMDL
MODEL 6
REMARK minimizedAffinity -8.20871353
REMARK CNNscore 0.299360961
REMARK CNNaffinity 6.41688204
REMARK  12 active torsions:
REMARK  status: ('A' for Active; 'I' for Inactive)
REMARK    1  A    between atoms: C2_2  and  C3_3 
REMARK    2  A    between atoms: C4_4  and  C18_19 
REMARK    3  A    between atoms: C19_20  and  O1_21 
REMARK    4  A    between atoms: N2_22  and  C20_23 
REMARK    5  A    between atoms: C20_23  and  C21_24 
REMARK    6  A    between atoms: C21_24  and  O3_26 
REMARK    7  A    between atoms: O3_26  and  C22_27 
REMARK    8  A    between atoms: C25_30  and  C26_31 
REMARK    9  A    between atoms: C32_38  and  C33_39 
REMARK   10  A    between atoms: C39_47  and  O7_48 
REMARK   11  A    between atoms: C43_52  and  O8_53 
REMARK   12  A    between atoms: C45_55  and  O9_56 
ROOT
HETATM    1  C22 UNL     1     -14.485  10.361  24.311  1.00  0.00     0.135 C 
HETATM    2  C23 UNL     1     -13.235   9.882  25.043  1.00  0.00     0.034 C 
HETATM    3  C24 UNL     1     -12.065  10.817  24.795  1.00  0.00     0.022 C 
HETATM    4  C25 UNL     1     -11.599  10.782  23.309  1.00  0.00     0.048 C 
HETATM    5  C27 UNL     1     -10.755  12.064  22.970  1.00  0.00     0.011 C 
HETATM    6  C28 UNL     1      -9.661  12.427  23.997  1.00  0.00     0.007 C 
HETATM    7  C29 UNL     1      -8.294  12.723  23.391  1.00  0.00     0.013 C 
HETATM    8  C30 UNL     1      -8.286  13.689  22.172  1.00  0.00    -0.005 C 
HETATM    9  C31 UNL     1      -6.860  13.579  21.577  1.00  0.00     0.019 C 
HETATM   10  C32 UNL     1      -8.637  15.151  22.651  1.00  0.00     0.028 C 
HETATM   11  C37 UNL     1     -10.107  15.352  22.256  1.00  0.00     0.013 C 
HETATM   12  C38 UNL     1     -10.289  14.552  20.981  1.00  0.00     0.040 C 
HETATM   13  C39 UNL     1      -9.408  13.298  21.129  1.00  0.00     0.070 C 
HETATM   14  C40 UNL     1     -10.190  12.007  21.530  1.00  0.00     0.026 C 
HETATM   15  C41 UNL     1     -11.259  11.567  20.501  1.00  0.00     0.011 C 
HETATM   16  C42 UNL     1     -12.678  11.574  21.062  1.00  0.00     0.039 C 
HETATM   17  C43 UNL     1     -12.842  10.694  22.329  1.00  0.00     0.074 C 
HETATM   18  C44 UNL     1     -14.161  11.125  23.018  1.00  0.00     0.071 C 
ENDROOT
BRANCH   1  19
HETATM   19  O3  UNL     1     -15.287   9.188  24.053  1.00  0.00    -0.315 OA
BRANCH  19  20
HETATM   20  C21 UNL     1     -15.731   8.507  25.142  1.00  0.00     0.285 C 
HETATM   21  O2  UNL     1     -16.388   8.991  26.054  1.00  0.00    -0.263 OA
BRANCH  20  22
HETATM   22  C20 UNL     1     -15.313   7.047  25.072  1.00  0.00     0.352 C 
BRANCH  22  23
HETATM   23  N2  UNL     1     -15.696   6.247  23.761  1.00  0.00    -0.021 N 
HETATM   24  C6  UNL     1     -16.392   4.909  24.205  1.00  0.00     0.214 C 
HETATM   25  C5  UNL     1     -17.186   4.382  22.993  1.00  0.00     0.041 C 
HETATM   26  C7  UNL     1     -15.354   3.827  24.636  1.00  0.00     0.109 C 
HETATM   27  C4  UNL     1     -16.572   4.944  21.705  1.00  0.00     0.004 C 
HETATM   28  C3  UNL     1     -17.044   6.417  21.632  1.00  0.00     0.047 C 
HETATM   29  C45 UNL     1     -16.665   7.124  22.966  1.00  0.00     0.329 C 
HETATM   30  N1  UNL     1     -14.827   3.954  26.023  1.00  0.00    -0.279 NA
HETATM   31  C15 UNL     1     -14.087   3.788  23.721  1.00  0.00     0.035 C 
HETATM   32  C8  UNL     1     -15.715   3.613  27.135  1.00  0.00     0.117 C 
HETATM   33  C9  UNL     1     -13.676   3.090  25.925  1.00  0.00     0.018 A 
HETATM   34  C10 UNL     1     -12.993   2.470  26.957  1.00  0.00     0.024 A 
HETATM   35  C14 UNL     1     -13.247   2.917  24.589  1.00  0.00    -0.024 A 
HETATM   36  C11 UNL     1     -11.911   1.639  26.641  1.00  0.00     0.002 A 
HETATM   37  C12 UNL     1     -11.516   1.445  25.309  1.00  0.00     0.001 A 
HETATM   38  C13 UNL     1     -12.178   2.098  24.267  1.00  0.00     0.010 A 
HETATM   39  C16 UNL     1     -13.432   5.166  23.594  1.00  0.00     0.053 C 
HETATM   40  C19 UNL     1     -14.467   3.498  22.260  1.00  0.00     0.139 C 
HETATM   41  C17 UNL     1     -14.503   5.904  22.832  1.00  0.00     0.203 C 
HETATM   42  C18 UNL     1     -15.028   4.873  21.776  1.00  0.00     0.051 C 
BRANCH  28  43
HETATM   43  C2  UNL     1     -16.522   7.198  20.411  1.00  0.00     0.005 C 
HETATM   44  C1  UNL     1     -16.423   6.351  19.148  1.00  0.00     0.005 C 
ENDBRANCH  28  43
BRANCH  29  45
HETATM   45  O9  UNL     1     -17.831   7.388  23.715  1.00  0.00    -0.369 OA
HETATM   46  H59 UNL     1     -18.364   8.036  23.217  1.00  0.00     0.212 HD
ENDBRANCH  29  45
BRANCH  40  47
HETATM   47  O1  UNL     1     -13.303   3.228  21.484  1.00  0.00    -0.394 OA
HETATM   48  H24 UNL     1     -13.568   2.748  20.676  1.00  0.00     0.210 HD
ENDBRANCH  40  47
ENDBRANCH  22  23
ENDBRANCH  20  22
ENDBRANCH  19  20
ENDBRANCH   1  19
BRANCH  17  49
HETATM   49  O8  UNL     1     -13.076   9.336  21.907  1.00  0.00    -0.389 OA
HETATM   50  H55 UNL     1     -12.766   9.238  20.984  1.00  0.00     0.210 HD
ENDBRANCH  17  49
BRANCH   4  51
HETATM   51  C26 UNL     1     -10.683   9.555  23.138  1.00  0.00     0.244 C 
HETATM   52  O4  UNL     1     -11.008   8.403  23.399  1.00  0.00    -0.306 OA
ENDBRANCH   4  51
BRANCH  13  53
HETATM   53  O7  UNL     1      -8.811  13.017  19.855  1.00  0.00    -0.389 OA
HETATM   54  H49 UNL     1      -9.405  13.297  19.140  1.00  0.00     0.210 HD
ENDBRANCH  13  53
BRANCH  10  55
HETATM   55  C33 UNL     1      -7.744  16.265  22.162  1.00  0.00    -0.045 A 
HETATM   56  C34 UNL     1      -7.754  16.919  21.000  1.00  0.00     0.087 A 
HETATM   57  C35 UNL     1      -6.683  17.910  21.046  1.00  0.00     0.283 A 
HETATM   58  O5  UNL     1      -6.405  18.666  20.132  1.00  0.00    -0.260 OA
HETATM   59  O6  UNL     1      -6.072  17.851  22.257  1.00  0.00    -0.314 OA
HETATM   60  C36 UNL     1      -6.695  16.835  23.045  1.00  0.00     0.213 A 
ENDBRANCH  10  55
TORSDOF 12
ENDMDL
MODEL 7
REMARK minimizedAffinity -8.146842
REMARK CNNscore 0.274214804
REMARK CNNaffinity 7.07234812
REMARK  12 active torsions:
REMARK  status: ('A' for Active; 'I' for Inactive)
REMARK    1  A    between atoms: C2_2  and  C3_3 
REMARK    2  A    between atoms: C4_4  and  C18_19 
REMARK    3  A    between atoms: C19_20  and  O1_21 
REMARK    4  A    between atoms: N2_22  and  C20_23 
REMARK    5  A    between atoms: C20_23  and  C21_24 
REMARK    6  A    between atoms: C21_24  and  O3_26 
REMARK    7  A    between atoms: O3_26  and  C22_27 
REMARK    8  A    between atoms: C25_30  and  C26_31 
REMARK    9  A    between atoms: C32_38  and  C33_39 
REMARK   10  A    between atoms: C39_47  and  O7_48 
REMARK   11  A    between atoms: C43_52  and  O8_53 
REMARK   12  A    between atoms: C45_55  and  O9_56 
ROOT
HETATM    1  C22 UNL     1      -2.602  12.283  17.788  1.00  0.00     0.135 C 
HETATM    2  C23 UNL     1      -2.519  12.574  16.292  1.00  0.00     0.034 C 
HETATM    3  C24 UNL     1      -3.241  11.509  15.488  1.00  0.00     0.022 C 
HETATM    4  C25 UNL     1      -2.530  10.126  15.586  1.00  0.00     0.048 C 
HETATM    5  C27 UNL     1      -3.518   8.973  15.177  1.00  0.00     0.011 C 
HETATM    6  C28 UNL     1      -4.316   9.215  13.878  1.00  0.00     0.007 C 
HETATM    7  C29 UNL     1      -4.308   8.046  12.900  1.00  0.00     0.013 C 
HETATM    8  C30 UNL     1      -4.607   6.647  13.511  1.00  0.00    -0.005 C 
HETATM    9  C31 UNL     1      -4.242   5.632  12.399  1.00  0.00     0.019 C 
HETATM   10  C32 UNL     1      -6.124   6.567  13.939  1.00  0.00     0.028 C 
HETATM   11  C37 UNL     1      -6.114   6.756  15.462  1.00  0.00     0.013 C 
HETATM   12  C38 UNL     1      -4.818   6.127  15.932  1.00  0.00     0.040 C 
HETATM   13  C39 UNL     1      -3.776   6.415  14.836  1.00  0.00     0.070 C 
HETATM   14  C40 UNL     1      -2.809   7.598  15.164  1.00  0.00     0.026 C 
HETATM   15  C41 UNL     1      -1.941   7.376  16.426  1.00  0.00     0.011 C 
HETATM   16  C42 UNL     1      -2.198   8.402  17.525  1.00  0.00     0.039 C 
HETATM   17  C43 UNL     1      -1.997   9.868  17.056  1.00  0.00     0.074 C 
HETATM   18  C44 UNL     1      -2.689  10.781  18.098  1.00  0.00     0.071 C 
ENDROOT
BRANCH   1  19
HETATM   19  O3  UNL     1      -1.438  12.888  18.392  1.00  0.00    -0.315 OA
BRANCH  19  20
HETATM   20  C21 UNL     1      -0.983  14.033  17.818  1.00  0.00     0.285 C 
HETATM   21  O2  UNL     1      -1.660  15.030  17.607  1.00  0.00    -0.263 OA
BRANCH  20  22
HETATM   22  C20 UNL     1       0.494  13.916  17.479  1.00  0.00     0.352 C 
BRANCH  22  23
HETATM   23  N2  UNL     1       1.473  14.974  18.134  1.00  0.00    -0.021 N 
HETATM   24  C6  UNL     1       2.933  14.403  18.027  1.00  0.00     0.214 C 
HETATM   25  C5  UNL     1       3.902  15.590  18.196  1.00  0.00     0.041 C 
HETATM   26  C7  UNL     1       3.229  13.349  19.139  1.00  0.00     0.109 C 
HETATM   27  C4  UNL     1       3.198  16.710  18.971  1.00  0.00     0.004 C 
HETATM   28  C3  UNL     1       2.237  17.374  17.955  1.00  0.00     0.047 C 
HETATM   29  C45 UNL     1       1.337  16.268  17.330  1.00  0.00     0.329 C 
HETATM   30  N1  UNL     1       2.726  11.973  18.875  1.00  0.00    -0.279 NA
HETATM   31  C15 UNL     1       2.637  13.740  20.533  1.00  0.00     0.035 C 
HETATM   32  C8  UNL     1       3.411  11.167  17.863  1.00  0.00     0.117 C 
HETATM   33  C9  UNL     1       2.820  11.421  20.205  1.00  0.00     0.018 A 
HETATM   34  C10 UNL     1       2.880  10.086  20.566  1.00  0.00     0.024 A 
HETATM   35  C14 UNL     1       2.833  12.424  21.202  1.00  0.00    -0.024 A 
HETATM   36  C11 UNL     1       3.002   9.763  21.923  1.00  0.00     0.002 A 
HETATM   37  C12 UNL     1       3.050  10.767  22.901  1.00  0.00     0.001 A 
HETATM   38  C13 UNL     1       2.952  12.113  22.547  1.00  0.00     0.010 A 
HETATM   39  C16 UNL     1       1.141  14.052  20.450  1.00  0.00     0.053 C 
HETATM   40  C19 UNL     1       3.201  15.085  21.017  1.00  0.00     0.139 C 
HETATM   41  C17 UNL     1       1.175  15.310  19.617  1.00  0.00     0.203 C 
HETATM   42  C18 UNL     1       2.403  16.117  20.159  1.00  0.00     0.051 C 
BRANCH  28  43
HETATM   43  C2  UNL     1       1.396  18.531  18.527  1.00  0.00     0.005 C 
HETATM   44  C1  UNL     1       0.594  19.278  17.468  1.00  0.00     0.005 C 
ENDBRANCH  28  43
BRANCH  29  45
HETATM   45  O9  UNL     1       1.699  16.062  15.982  1.00  0.00    -0.369 OA
HETATM   46  H59 UNL     1       1.492  16.878  15.490  1.00  0.00     0.212 HD
ENDBRANCH  29  45
BRANCH  40  47
HETATM   47  O1  UNL     1       2.847  15.314  22.379  1.00  0.00    -0.394 OA
HETATM   48  H24 UNL     1       3.455  15.981  22.753  1.00  0.00     0.210 HD
ENDBRANCH  40  47
ENDBRANCH  22  23
ENDBRANCH  20  22
ENDBRANCH  19  20
ENDBRANCH   1  19
BRANCH  17  49
HETATM   49  O8  UNL     1      -0.595  10.186  17.163  1.00  0.00    -0.389 OA
HETATM   50  H55 UNL     1      -0.086   9.352  17.191  1.00  0.00     0.210 HD
ENDBRANCH  17  49
BRANCH   4  51
HETATM   51  C26 UNL     1      -1.366  10.129  14.576  1.00  0.00     0.244 C 
HETATM   52  O4  UNL     1      -1.437  10.571  13.435  1.00  0.00    -0.306 OA
ENDBRANCH   4  51
BRANCH  13  53
HETATM   53  O7  UNL     1      -2.944   5.255  14.691  1.00  0.00    -0.389 OA
HETATM   54  H49 UNL     1      -2.862   4.796  15.544  1.00  0.00     0.210 HD
ENDBRANCH  13  53
BRANCH  10  55
HETATM   55  C33 UNL     1      -6.893   5.343  13.506  1.00  0.00    -0.045 A 
HETATM   56  C34 UNL     1      -6.642   4.053  13.734  1.00  0.00     0.087 A 
HETATM   57  C35 UNL     1      -7.708   3.281  13.101  1.00  0.00     0.283 A 
HETATM   58  O5  UNL     1      -7.770   2.065  13.104  1.00  0.00    -0.260 OA
HETATM   59  O6  UNL     1      -8.599   4.133  12.534  1.00  0.00    -0.314 OA
HETATM   60  C36 UNL     1      -8.167   5.476  12.756  1.00  0.00     0.213 A 
ENDBRANCH  10  55
TORSDOF 12
ENDMDL
MODEL 8
REMARK minimizedAffinity -10.2906284
REMARK CNNscore 0.2673271
REMARK CNNaffinity 6.82318687
REMARK  12 active torsions:
REMARK  status: ('A' for Active; 'I' for Inactive)
REMARK    1  A    between atoms: C2_2  and  C3_3 
REMARK    2  A    between atoms: C4_4  and  C18_19 
REMARK    3  A    between atoms: C19_20  and  O1_21 
REMARK    4  A    between atoms: N2_22  and  C20_23 
REMARK    5  A    between atoms: C20_23  and  C21_24 
REMARK    6  A    between atoms: C21_24  and  O3_26 
REMARK    7  A    between atoms: O3_26  and  C22_27 
REMARK    8  A    between atoms: C25_30  and  C26_31 
REMARK    9  A    between atoms: C32_38  and  C33_39 
REMARK   10  A    between atoms: C39_47  and  O7_48 
REMARK   11  A    between atoms: C43_52  and  O8_53 
REMARK   12  A    between atoms: C45_55  and  O9_56 
ROOT
HETATM    1  C22 UNL     1       1.101  10.764  17.977  1.00  0.00     0.135 C 
HETATM    2  C23 UNL     1      -0.268  11.299  18.388  1.00  0.00     0.034 C 
HETATM    3  C24 UNL     1      -1.383  10.446  17.811  1.00  0.00     0.022 C 
HETATM    4  C25 UNL     1      -1.451  10.551  16.258  1.00  0.00     0.048 C 
HETATM    5  C27 UNL     1      -2.247   9.335  15.661  1.00  0.00     0.011 C 
HETATM    6  C28 UNL     1      -3.585   9.013  16.360  1.00  0.00     0.007 C 
HETATM    7  C29 UNL     1      -4.766   8.820  15.415  1.00  0.00     0.013 C 
HETATM    8  C30 UNL     1      -4.513   7.891  14.193  1.00  0.00    -0.005 C 
HETATM    9  C31 UNL     1      -5.730   8.106  13.261  1.00  0.00     0.019 C 
HETATM   10  C32 UNL     1      -4.374   6.396  14.682  1.00  0.00     0.028 C 
HETATM   11  C37 UNL     1      -2.865   6.116  14.666  1.00  0.00     0.013 C 
HETATM   12  C38 UNL     1      -2.321   6.938  13.514  1.00  0.00     0.040 C 
HETATM   13  C39 UNL     1      -3.142   8.239  13.487  1.00  0.00     0.070 C 
HETATM   14  C40 UNL     1      -2.421   9.468  14.129  1.00  0.00     0.026 C 
HETATM   15  C41 UNL     1      -1.102   9.868  13.425  1.00  0.00     0.011 C 
HETATM   16  C42 UNL     1       0.123   9.757  14.326  1.00  0.00     0.039 C 
HETATM   17  C43 UNL     1       0.005  10.589  15.630  1.00  0.00     0.074 C 
HETATM   18  C44 UNL     1       1.078  10.057  16.612  1.00  0.00     0.071 C 
ENDROOT
BRANCH   1  19
HETATM   19  O3  UNL     1       2.004  11.891  17.982  1.00  0.00    -0.315 OA
BRANCH  19  20
HETATM   20  C21 UNL     1       3.274  11.646  18.398  1.00  0.00     0.285 C 
HETATM   21  O2  UNL     1       3.972  10.717  18.017  1.00  0.00    -0.263 OA
BRANCH  20  22
HETATM   22  C20 UNL     1       3.724  12.697  19.401  1.00  0.00     0.352 C 
BRANCH  22  23
HETATM   23  N2  UNL     1       3.945  12.224  20.895  1.00  0.00    -0.021 N 
HETATM   24  C6  UNL     1       3.837  13.492  21.817  1.00  0.00     0.214 C 
HETATM   25  C5  UNL     1       3.560  12.994  23.250  1.00  0.00     0.041 C 
HETATM   26  C7  UNL     1       5.156  14.325  21.820  1.00  0.00     0.109 C 
HETATM   27  C4  UNL     1       4.069  11.554  23.390  1.00  0.00     0.004 C 
HETATM   28  C3  UNL     1       3.024  10.674  22.662  1.00  0.00     0.047 C 
HETATM   29  C45 UNL     1       2.836  11.222  21.218  1.00  0.00     0.329 C 
HETATM   30  N1  UNL     1       5.343  15.244  20.665  1.00  0.00    -0.279 NA
HETATM   31  C15 UNL     1       6.445  13.440  21.849  1.00  0.00     0.035 C 
HETATM   32  C8  UNL     1       4.523  16.455  20.604  1.00  0.00     0.117 C 
HETATM   33  C9  UNL     1       6.753  15.516  20.795  1.00  0.00     0.018 A 
HETATM   34  C10 UNL     1       7.460  16.589  20.282  1.00  0.00     0.024 A 
HETATM   35  C14 UNL     1       7.426  14.515  21.534  1.00  0.00    -0.024 A 
HETATM   36  C11 UNL     1       8.831  16.682  20.554  1.00  0.00     0.002 A 
HETATM   37  C12 UNL     1       9.482  15.702  21.318  1.00  0.00     0.001 A 
HETATM   38  C13 UNL     1       8.782  14.597  21.806  1.00  0.00     0.010 A 
HETATM   39  C16 UNL     1       6.448  12.400  20.725  1.00  0.00     0.053 C 
HETATM   40  C19 UNL     1       6.471  12.539  23.094  1.00  0.00     0.139 C 
HETATM   41  C17 UNL     1       5.302  11.524  21.165  1.00  0.00     0.203 C 
HETATM   42  C18 UNL     1       5.456  11.413  22.720  1.00  0.00     0.051 C 
BRANCH  28  43
HETATM   43  C2  UNL     1       3.345   9.167  22.657  1.00  0.00     0.005 C 
HETATM   44  C1  UNL     1       2.105   8.284  22.599  1.00  0.00     0.005 C 
ENDBRANCH  28  43
BRANCH  29  45
HETATM   45  O9  UNL     1       1.566  11.825  21.097  1.00  0.00    -0.369 OA
HETATM   46  H59 UNL     1       0.894  11.126  21.201  1.00  0.00     0.212 HD
ENDBRANCH  29  45
BRANCH  40  47
HETATM   47  O1  UNL     1       7.747  11.919  23.236  1.00  0.00    -0.394 OA
HETATM   48  H24 UNL     1       7.851  11.624  24.161  1.00  0.00     0.210 HD
ENDBRANCH  40  47
ENDBRANCH  22  23
ENDBRANCH  20  22
ENDBRANCH  19  20
ENDBRANCH   1  19
BRANCH  17  49
HETATM   49  O8  UNL     1       0.411  11.941  15.340  1.00  0.00    -0.389 OA
HETATM   50  H55 UNL     1       0.353  12.084  14.374  1.00  0.00     0.210 HD
ENDBRANCH  17  49
BRANCH   4  51
HETATM   51  C26 UNL     1      -2.226  11.837  15.913  1.00  0.00     0.244 C 
HETATM   52  O4  UNL     1      -3.044  12.375  16.650  1.00  0.00    -0.306 OA
ENDBRANCH   4  51
BRANCH  13  53
HETATM   53  O7  UNL     1      -3.377   8.593  12.117  1.00  0.00    -0.389 OA
HETATM   54  H49 UNL     1      -2.635   8.296  11.564  1.00  0.00     0.210 HD
ENDBRANCH  13  53
BRANCH  10  55
HETATM   55  C33 UNL     1      -5.171   5.355  13.935  1.00  0.00    -0.045 A 
HETATM   56  C34 UNL     1      -6.460   5.031  14.041  1.00  0.00     0.087 A 
HETATM   57  C35 UNL     1      -6.723   3.963  13.080  1.00  0.00     0.283 A 
HETATM   58  O5  UNL     1      -7.804   3.422  12.932  1.00  0.00    -0.260 OA
HETATM   59  O6  UNL     1      -5.586   3.694  12.390  1.00  0.00    -0.314 OA
HETATM   60  C36 UNL     1      -4.542   4.548  12.860  1.00  0.00     0.213 A 
ENDBRANCH  10  55
TORSDOF 12
ENDMDL
MODEL 9
REMARK minimizedAffinity -11.4128389
REMARK CNNscore 0.264567316
REMARK CNNaffinity 7.83727264
REMARK  12 active torsions:
REMARK  status: ('A' for Active; 'I' for Inactive)
REMARK    1  A    between atoms: C2_2  and  C3_3 
REMARK    2  A    between atoms: C4_4  and  C18_19 
REMARK    3  A    between atoms: C19_20  and  O1_21 
REMARK    4  A    between atoms: N2_22  and  C20_23 
REMARK    5  A    between atoms: C20_23  and  C21_24 
REMARK    6  A    between atoms: C21_24  and  O3_26 
REMARK    7  A    between atoms: O3_26  and  C22_27 
REMARK    8  A    between atoms: C25_30  and  C26_31 
REMARK    9  A    between atoms: C32_38  and  C33_39 
REMARK   10  A    between atoms: C39_47  and  O7_48 
REMARK   11  A    between atoms: C43_52  and  O8_53 
REMARK   12  A    between atoms: C45_55  and  O9_56 
ROOT
HETATM    1  C22 UNL     1      -2.278   8.468  15.371  1.00  0.00     0.135 C 
HETATM    2  C23 UNL     1      -1.292   9.269  14.527  1.00  0.00     0.034 C 
HETATM    3  C24 UNL     1      -0.123   9.754  15.365  1.00  0.00     0.022 C 
HETATM    4  C25 UNL     1      -0.566  10.806  16.426  1.00  0.00     0.048 C 
HETATM    5  C27 UNL     1       0.512  10.921  17.565  1.00  0.00     0.011 C 
HETATM    6  C28 UNL     1       1.973  11.044  17.083  1.00  0.00     0.007 C 
HETATM    7  C29 UNL     1       2.768  12.164  17.744  1.00  0.00     0.013 C 
HETATM    8  C30 UNL     1       2.660  12.250  19.293  1.00  0.00    -0.005 C 
HETATM    9  C31 UNL     1       3.291  13.614  19.668  1.00  0.00     0.019 C 
HETATM   10  C32 UNL     1       3.414  11.028  19.947  1.00  0.00     0.028 C 
HETATM   11  C37 UNL     1       2.302  10.050  20.352  1.00  0.00     0.013 C 
HETATM   12  C38 UNL     1       1.121  10.925  20.725  1.00  0.00     0.040 C 
HETATM   13  C39 UNL     1       1.157  12.129  19.767  1.00  0.00     0.070 C 
HETATM   14  C40 UNL     1       0.149  12.034  18.577  1.00  0.00     0.026 C 
HETATM   15  C41 UNL     1      -1.337  11.970  19.008  1.00  0.00     0.011 C 
HETATM   16  C42 UNL     1      -2.033  10.680  18.588  1.00  0.00     0.039 C 
HETATM   17  C43 UNL     1      -1.965  10.414  17.061  1.00  0.00     0.074 C 
HETATM   18  C44 UNL     1      -2.309   8.919  16.840  1.00  0.00     0.071 C 
ENDROOT
BRANCH   1  19
HETATM   19  O3  UNL     1      -3.571   8.607  14.741  1.00  0.00    -0.315 OA
BRANCH  19  20
HETATM   20  C21 UNL     1      -3.678   8.137  13.471  1.00  0.00     0.285 C 
HETATM   21  O2  UNL     1      -2.738   7.803  12.763  1.00  0.00    -0.263 OA
BRANCH  20  22
HETATM   22  C20 UNL     1      -5.135   8.068  13.043  1.00  0.00     0.352 C 
BRANCH  22  23
HETATM   23  N2  UNL     1      -6.156   7.405  14.055  1.00  0.00    -0.021 N 
HETATM   24  C6  UNL     1      -5.347   6.404  14.958  1.00  0.00     0.214 C 
HETATM   25  C5  UNL     1      -6.194   6.140  16.220  1.00  0.00     0.041 C 
HETATM   26  C7  UNL     1      -5.087   5.046  14.235  1.00  0.00     0.109 C 
HETATM   27  C4  UNL     1      -7.669   6.414  15.904  1.00  0.00     0.004 C 
HETATM   28  C3  UNL     1      -7.808   7.955  15.883  1.00  0.00     0.047 C 
HETATM   29  C45 UNL     1      -6.752   8.534  14.896  1.00  0.00     0.329 C 
HETATM   30  N1  UNL     1      -3.942   5.031  13.283  1.00  0.00    -0.279 NA
HETATM   31  C15 UNL     1      -6.313   4.543  13.406  1.00  0.00     0.035 C 
HETATM   32  C8  UNL     1      -2.585   5.054  13.831  1.00  0.00     0.117 C 
HETATM   33  C9  UNL     1      -4.246   3.821  12.558  1.00  0.00     0.018 A 
HETATM   34  C10 UNL     1      -3.378   3.040  11.815  1.00  0.00     0.024 A 
HETATM   35  C14 UNL     1      -5.611   3.466  12.654  1.00  0.00    -0.024 A 
HETATM   36  C11 UNL     1      -3.873   1.877  11.211  1.00  0.00     0.002 A 
HETATM   37  C12 UNL     1      -5.222   1.515  11.343  1.00  0.00     0.001 A 
HETATM   38  C13 UNL     1      -6.109   2.319  12.059  1.00  0.00     0.010 A 
HETATM   39  C16 UNL     1      -6.814   5.606  12.425  1.00  0.00     0.053 C 
HETATM   40  C19 UNL     1      -7.547   4.352  14.302  1.00  0.00     0.139 C 
HETATM   41  C17 UNL     1      -7.331   6.642  13.392  1.00  0.00     0.203 C 
HETATM   42  C18 UNL     1      -8.036   5.819  14.523  1.00  0.00     0.051 C 
BRANCH  28  43
HETATM   43  C2  UNL     1      -9.225   8.468  15.558  1.00  0.00     0.005 C 
HETATM   44  C1  UNL     1      -9.280   9.969  15.298  1.00  0.00     0.005 C 
ENDBRANCH  28  43
BRANCH  29  45
HETATM   45  O9  UNL     1      -5.744   9.208  15.618  1.00  0.00    -0.369 OA
HETATM   46  H59 UNL     1      -6.153   9.983  16.047  1.00  0.00     0.212 HD
ENDBRANCH  29  45
BRANCH  40  47
HETATM   47  O1  UNL     1      -8.580   3.672  13.593  1.00  0.00    -0.394 OA
HETATM   48  H24 UNL     1      -9.202   3.285  14.239  1.00  0.00     0.210 HD
ENDBRANCH  40  47
ENDBRANCH  22  23
ENDBRANCH  20  22
ENDBRANCH  19  20
ENDBRANCH   1  19
BRANCH  17  49
HETATM   49  O8  UNL     1      -3.042  11.135  16.429  1.00  0.00    -0.389 OA
HETATM   50  H55 UNL     1      -3.342  11.841  17.035  1.00  0.00     0.210 HD
ENDBRANCH  17  49
BRANCH   4  51
HETATM   51  C26 UNL     1      -0.652  12.171  15.718  1.00  0.00     0.244 C 
HETATM   52  O4  UNL     1      -1.348  12.402  14.736  1.00  0.00    -0.306 OA
ENDBRANCH   4  51
BRANCH  13  53
HETATM   53  O7  UNL     1       0.784  13.302  20.506  1.00  0.00    -0.389 OA
HETATM   54  H49 UNL     1       0.158  13.066  21.210  1.00  0.00     0.210 HD
ENDBRANCH  13  53
BRANCH  10  55
HETATM   55  C33 UNL     1       4.364  11.335  21.079  1.00  0.00    -0.045 A 
HETATM   56  C34 UNL     1       5.402  12.172  21.118  1.00  0.00     0.087 A 
HETATM   57  C35 UNL     1       5.974  12.097  22.460  1.00  0.00     0.283 A 
HETATM   58  O5  UNL     1       6.951  12.724  22.826  1.00  0.00    -0.260 OA
HETATM   59  O6  UNL     1       5.240  11.237  23.211  1.00  0.00    -0.314 OA
HETATM   60  C36 UNL     1       4.177  10.711  22.414  1.00  0.00     0.213 A 
ENDBRANCH  10  55
TORSDOF 12
ENDMDL
