MODEL 1
REMARK minimizedAffinity -9.74010372
REMARK  11 active torsions:
REMARK  status: ('A' for Active; 'I' for Inactive)
REMARK    1  A    between atoms: C6_6  and  C8_8 
REMARK    2  A    between atoms: C8_8  and  O1_9 
REMARK    3  A    between atoms: O1_9  and  C9_10 
REMARK    4  A    between atoms: C10_12  and  C11_13 
REMARK    5  A    between atoms: C11_13  and  O3_14 
REMARK    6  A    between atoms: C12_15  and  O4_16 
REMARK    7  A    between atoms: C13_17  and  O5_18 
REMARK    8  A    between atoms: C14_19  and  O6_20 
REMARK    9  A    between atoms: C20_26  and  C21_27 
REMARK   10  A    between atoms: C21_27  and  C22_28 
REMARK   11  A    between atoms: C26_34  and  O9_35 
ROOT
HETATM    1  C1  UNL     1       0.027  52.136 -20.920  1.00  0.00     0.015 C 
HETATM    2  C2  UNL     1      -0.401  51.264 -21.850  1.00  0.00    -0.084 C 
HETATM    3  C3  UNL     1      -0.978  49.945 -21.402  1.00  0.00     0.034 C 
HETATM    4  C4  UNL     1      -1.831  49.283 -22.482  1.00  0.00     0.010 C 
HETATM    5  C5  UNL     1      -2.752  50.295 -23.201  1.00  0.00     0.005 C 
HETATM    6  C6  UNL     1      -3.807  49.563 -24.129  1.00  0.00    -0.018 C 
HETATM    7  C7  UNL     1      -3.206  48.367 -24.911  1.00  0.00     0.018 C 
HETATM    8  C15 UNL     1      -4.397  50.574 -25.127  1.00  0.00     0.012 C 
HETATM    9  C16 UNL     1      -3.363  51.222 -26.033  1.00  0.00     0.002 C 
HETATM   10  C17 UNL     1      -1.973  51.374 -25.418  1.00  0.00     0.010 C 
HETATM   11  C18 UNL     1      -1.924  51.491 -23.877  1.00  0.00    -0.032 C 
HETATM   12  C19 UNL     1      -2.593  52.835 -23.477  1.00  0.00     0.016 C 
HETATM   13  C20 UNL     1      -0.408  51.491 -23.368  1.00  0.00     0.025 C 
ENDROOT
BRANCH   6  14
HETATM   14  C8  UNL     1      -4.977  48.970 -23.276  1.00  0.00     0.180 C 
BRANCH  14  15
HETATM   15  O1  UNL     1      -6.230  49.559 -23.616  1.00  0.00    -0.358 OA
BRANCH  15  16
HETATM   16  C9  UNL     1      -7.255  48.610 -23.910  1.00  0.00     0.291 C 
HETATM   17  O2  UNL     1      -8.442  49.262 -24.370  1.00  0.00    -0.348 OA
HETATM   18  C10 UNL     1      -9.474  48.403 -24.878  1.00  0.00     0.179 C 
HETATM   19  C12 UNL     1      -9.174  46.893 -24.772  1.00  0.00     0.180 C 
HETATM   20  C13 UNL     1      -7.743  46.497 -25.181  1.00  0.00     0.183 C 
HETATM   21  C14 UNL     1      -6.727  47.624 -24.970  1.00  0.00     0.204 C 
BRANCH  18  22
HETATM   22  C11 UNL     1      -9.894  48.897 -26.274  1.00  0.00     0.198 C 
BRANCH  22  23
HETATM   23  O3  UNL     1     -11.291  48.809 -26.498  1.00  0.00    -0.398 OA
HETATM   24  H17 UNL     1     -11.565  47.896 -26.251  1.00  0.00     0.209 HD
ENDBRANCH  22  23
ENDBRANCH  18  22
BRANCH  19  25
HETATM   25  O4  UNL     1     -10.108  46.064 -25.466  1.00  0.00    -0.390 OA
HETATM   26  H19 UNL     1     -10.996  46.199 -25.081  1.00  0.00     0.210 HD
ENDBRANCH  19  25
BRANCH  20  27
HETATM   27  O5  UNL     1      -7.676  46.036 -26.539  1.00  0.00    -0.390 OA
HETATM   28  H21 UNL     1      -8.594  45.772 -26.766  1.00  0.00     0.210 HD
ENDBRANCH  20  27
BRANCH  21  29
HETATM   29  O6  UNL     1      -6.495  48.288 -26.231  1.00  0.00    -0.388 OA
HETATM   30  H23 UNL     1      -6.580  47.568 -26.899  1.00  0.00     0.210 HD
ENDBRANCH  21  29
ENDBRANCH  15  16
ENDBRANCH  14  15
ENDBRANCH   6  14
BRANCH  13  31
HETATM   31  C21 UNL     1       0.497  52.688 -23.792  1.00  0.00     0.037 C 
BRANCH  31  32
HETATM   32  C22 UNL     1       0.131  53.386 -25.074  1.00  0.00    -0.010 C 
HETATM   33  C23 UNL     1       0.552  53.031 -26.301  1.00  0.00     0.044 C 
HETATM   34  C24 UNL     1       0.154  53.779 -27.513  1.00  0.00     0.291 C 
HETATM   35  C26 UNL     1       1.371  51.879 -26.729  1.00  0.00     0.181 C 
HETATM   36  O7  UNL     1      -0.434  54.846 -27.543  1.00  0.00    -0.260 OA
HETATM   37  O8  UNL     1       0.515  53.048 -28.603  1.00  0.00    -0.315 OA
HETATM   38  C25 UNL     1       0.971  51.755 -28.186  1.00  0.00     0.215 C 
BRANCH  35  39
HETATM   39  O9  UNL     1       2.745  52.221 -26.594  1.00  0.00    -0.389 OA
HETATM   40  H40 UNL     1       3.270  51.435 -26.819  1.00  0.00     0.210 HD
ENDBRANCH  35  39
ENDBRANCH  31  32
ENDBRANCH  13  31
TORSDOF 11
ENDMDL
MODEL 2
REMARK minimizedAffinity -9.68834686
REMARK  11 active torsions:
REMARK  status: ('A' for Active; 'I' for Inactive)
REMARK    1  A    between atoms: C6_6  and  C8_8 
REMARK    2  A    between atoms: C8_8  and  O1_9 
REMARK    3  A    between atoms: O1_9  and  C9_10 
REMARK    4  A    between atoms: C10_12  and  C11_13 
REMARK    5  A    between atoms: C11_13  and  O3_14 
REMARK    6  A    between atoms: C12_15  and  O4_16 
REMARK    7  A    between atoms: C13_17  and  O5_18 
REMARK    8  A    between atoms: C14_19  and  O6_20 
REMARK    9  A    between atoms: C20_26  and  C21_27 
REMARK   10  A    between atoms: C21_27  and  C22_28 
REMARK   11  A    between atoms: C26_34  and  O9_35 
ROOT
HETATM    1  C1  UNL     1      -2.705  47.694 -18.585  1.00  0.00     0.015 C 
HETATM    2  C2  UNL     1      -1.649  48.378 -19.058  1.00  0.00    -0.084 C 
HETATM    3  C3  UNL     1      -1.321  48.289 -20.527  1.00  0.00     0.034 C 
HETATM    4  C4  UNL     1      -0.437  49.441 -21.000  1.00  0.00     0.010 C 
HETATM    5  C5  UNL     1      -0.886  50.800 -20.416  1.00  0.00     0.005 C 
HETATM    6  C6  UNL     1      -0.132  52.007 -21.111  1.00  0.00    -0.018 C 
HETATM    7  C7  UNL     1       1.372  51.727 -21.356  1.00  0.00     0.018 C 
HETATM    8  C15 UNL     1      -0.275  53.267 -20.239  1.00  0.00     0.012 C 
HETATM    9  C16 UNL     1       0.295  53.116 -18.838  1.00  0.00     0.002 C 
HETATM   10  C17 UNL     1       0.238  51.699 -18.269  1.00  0.00     0.010 C 
HETATM   11  C18 UNL     1      -0.894  50.796 -18.813  1.00  0.00    -0.032 C 
HETATM   12  C19 UNL     1      -2.249  51.383 -18.329  1.00  0.00     0.016 C 
HETATM   13  C20 UNL     1      -0.738  49.309 -18.247  1.00  0.00     0.025 C 
ENDROOT
BRANCH   6  14
HETATM   14  C8  UNL     1      -0.745  52.309 -22.518  1.00  0.00     0.180 C 
BRANCH  14  15
HETATM   15  O1  UNL     1      -0.851  51.131 -23.313  1.00  0.00    -0.358 OA
BRANCH  15  16
HETATM   16  C9  UNL     1      -0.456  51.313 -24.673  1.00  0.00     0.291 C 
HETATM   17  O2  UNL     1      -1.388  50.694 -25.565  1.00  0.00    -0.348 OA
HETATM   18  C10 UNL     1      -1.201  50.973 -26.961  1.00  0.00     0.179 C 
HETATM   19  C12 UNL     1       0.035  51.837 -27.291  1.00  0.00     0.180 C 
HETATM   20  C13 UNL     1       0.236  53.045 -26.358  1.00  0.00     0.183 C 
HETATM   21  C14 UNL     1      -0.347  52.824 -24.958  1.00  0.00     0.204 C 
BRANCH  18  22
HETATM   22  C11 UNL     1      -2.531  51.468 -27.555  1.00  0.00     0.198 C 
BRANCH  22  23
HETATM   23  O3  UNL     1      -2.568  52.873 -27.740  1.00  0.00    -0.398 OA
HETATM   24  H17 UNL     1      -2.283  53.282 -26.891  1.00  0.00     0.209 HD
ENDBRANCH  22  23
ENDBRANCH  18  22
BRANCH  19  25
HETATM   25  O4  UNL     1       0.089  52.278 -28.649  1.00  0.00    -0.390 OA
HETATM   26  H19 UNL     1       0.133  51.496 -29.233  1.00  0.00     0.210 HD
ENDBRANCH  19  25
BRANCH  20  27
HETATM   27  O5  UNL     1      -0.297  54.256 -26.915  1.00  0.00    -0.390 OA
HETATM   28  H21 UNL     1      -0.359  54.088 -27.881  1.00  0.00     0.210 HD
ENDBRANCH  20  27
BRANCH  21  29
HETATM   29  O6  UNL     1      -1.639  53.464 -24.882  1.00  0.00    -0.388 OA
HETATM   30  H23 UNL     1      -1.546  54.257 -25.460  1.00  0.00     0.210 HD
ENDBRANCH  21  29
ENDBRANCH  15  16
ENDBRANCH  14  15
ENDBRANCH   6  14
BRANCH  13  31
HETATM   31  C21 UNL     1      -0.895  49.100 -16.709  1.00  0.00     0.037 C 
BRANCH  31  32
HETATM   32  C22 UNL     1      -0.426  50.225 -15.826  1.00  0.00    -0.010 C 
HETATM   33  C23 UNL     1      -1.131  50.769 -14.818  1.00  0.00     0.044 C 
HETATM   34  C24 UNL     1      -0.601  51.884 -14.003  1.00  0.00     0.291 C 
HETATM   35  C26 UNL     1      -2.447  50.392 -14.266  1.00  0.00     0.181 C 
HETATM   36  O7  UNL     1       0.411  52.526 -14.228  1.00  0.00    -0.260 OA
HETATM   37  O8  UNL     1      -1.411  52.045 -12.923  1.00  0.00    -0.315 OA
HETATM   38  C25 UNL     1      -2.361  50.973 -12.869  1.00  0.00     0.215 C 
BRANCH  35  39
HETATM   39  O9  UNL     1      -3.463  51.028 -15.032  1.00  0.00    -0.389 OA
HETATM   40  H40 UNL     1      -4.322  50.722 -14.697  1.00  0.00     0.210 HD
ENDBRANCH  35  39
ENDBRANCH  31  32
ENDBRANCH  13  31
TORSDOF 11
ENDMDL
MODEL 3
REMARK minimizedAffinity -9.51876545
REMARK  11 active torsions:
REMARK  status: ('A' for Active; 'I' for Inactive)
REMARK    1  A    between atoms: C6_6  and  C8_8 
REMARK    2  A    between atoms: C8_8  and  O1_9 
REMARK    3  A    between atoms: O1_9  and  C9_10 
REMARK    4  A    between atoms: C10_12  and  C11_13 
REMARK    5  A    between atoms: C11_13  and  O3_14 
REMARK    6  A    between atoms: C12_15  and  O4_16 
REMARK    7  A    between atoms: C13_17  and  O5_18 
REMARK    8  A    between atoms: C14_19  and  O6_20 
REMARK    9  A    between atoms: C20_26  and  C21_27 
REMARK   10  A    between atoms: C21_27  and  C22_28 
REMARK   11  A    between atoms: C26_34  and  O9_35 
ROOT
HETATM    1  C1  UNL     1       0.140  53.434 -20.835  1.00  0.00     0.015 C 
HETATM    2  C2  UNL     1       0.042  52.124 -21.119  1.00  0.00    -0.084 C 
HETATM    3  C3  UNL     1       0.137  51.125 -19.993  1.00  0.00     0.034 C 
HETATM    4  C4  UNL     1      -0.449  49.764 -20.368  1.00  0.00     0.010 C 
HETATM    5  C5  UNL     1      -1.780  49.895 -21.141  1.00  0.00     0.005 C 
HETATM    6  C6  UNL     1      -2.501  48.492 -21.295  1.00  0.00    -0.018 C 
HETATM    7  C7  UNL     1      -1.523  47.336 -21.622  1.00  0.00     0.018 C 
HETATM    8  C15 UNL     1      -3.564  48.584 -22.404  1.00  0.00     0.012 C 
HETATM    9  C16 UNL     1      -3.003  48.962 -23.766  1.00  0.00     0.002 C 
HETATM   10  C17 UNL     1      -1.762  49.852 -23.726  1.00  0.00     0.010 C 
HETATM   11  C18 UNL     1      -1.619  50.759 -22.482  1.00  0.00    -0.032 C 
HETATM   12  C19 UNL     1      -2.760  51.814 -22.524  1.00  0.00     0.016 C 
HETATM   13  C20 UNL     1      -0.209  51.514 -22.505  1.00  0.00     0.025 C 
ENDROOT
BRANCH   6  14
HETATM   14  C8  UNL     1      -3.213  48.086 -19.963  1.00  0.00     0.180 C 
BRANCH  14  15
HETATM   15  O1  UNL     1      -4.619  47.934 -20.139  1.00  0.00    -0.358 OA
BRANCH  15  16
HETATM   16  C9  UNL     1      -5.082  48.296 -21.439  1.00  0.00     0.291 C 
HETATM   17  O2  UNL     1      -5.779  47.210 -22.058  1.00  0.00    -0.348 OA
HETATM   18  C10 UNL     1      -6.456  47.516 -23.286  1.00  0.00     0.179 C 
HETATM   19  C12 UNL     1      -6.257  48.959 -23.796  1.00  0.00     0.180 C 
HETATM   20  C13 UNL     1      -6.373  50.042 -22.707  1.00  0.00     0.183 C 
HETATM   21  C14 UNL     1      -5.996  49.531 -21.312  1.00  0.00     0.204 C 
BRANCH  18  22
HETATM   22  C11 UNL     1      -7.918  47.048 -23.182  1.00  0.00     0.198 C 
BRANCH  22  23
HETATM   23  O3  UNL     1      -8.818  47.868 -23.910  1.00  0.00    -0.398 OA
HETATM   24  H17 UNL     1      -8.632  48.799 -23.650  1.00  0.00     0.209 HD
ENDBRANCH  22  23
ENDBRANCH  18  22
BRANCH  19  25
HETATM   25  O4  UNL     1      -7.099  49.308 -24.896  1.00  0.00    -0.390 OA
HETATM   26  H19 UNL     1      -6.895  48.718 -25.648  1.00  0.00     0.210 HD
ENDBRANCH  19  25
BRANCH  20  27
HETATM   27  O5  UNL     1      -7.680  50.633 -22.666  1.00  0.00    -0.390 OA
HETATM   28  H21 UNL     1      -8.074  50.444 -23.546  1.00  0.00     0.210 HD
ENDBRANCH  20  27
BRANCH  21  29
HETATM   29  O6  UNL     1      -7.205  49.213 -20.588  1.00  0.00    -0.388 OA
HETATM   30  H23 UNL     1      -7.859  49.875 -20.914  1.00  0.00     0.210 HD
ENDBRANCH  21  29
ENDBRANCH  15  16
ENDBRANCH  14  15
ENDBRANCH   6  14
BRANCH  13  31
HETATM   31  C21 UNL     1       0.045  52.536 -23.656  1.00  0.00     0.037 C 
BRANCH  31  32
HETATM   32  C22 UNL     1       1.051  52.134 -24.701  1.00  0.00    -0.010 C 
HETATM   33  C23 UNL     1       0.819  52.082 -26.025  1.00  0.00     0.044 C 
HETATM   34  C24 UNL     1       1.861  51.664 -26.988  1.00  0.00     0.291 C 
HETATM   35  C26 UNL     1      -0.382  52.461 -26.796  1.00  0.00     0.181 C 
HETATM   36  O7  UNL     1       2.947  51.183 -26.713  1.00  0.00    -0.260 OA
HETATM   37  O8  UNL     1       1.423  51.953 -28.242  1.00  0.00    -0.315 OA
HETATM   38  C25 UNL     1       0.212  52.717 -28.166  1.00  0.00     0.215 C 
BRANCH  35  39
HETATM   39  O9  UNL     1      -1.279  51.357 -26.815  1.00  0.00    -0.389 OA
HETATM   40  H40 UNL     1      -2.089  51.641 -27.271  1.00  0.00     0.210 HD
ENDBRANCH  35  39
ENDBRANCH  31  32
ENDBRANCH  13  31
TORSDOF 11
ENDMDL
MODEL 4
REMARK minimizedAffinity -9.45626354
REMARK  11 active torsions:
REMARK  status: ('A' for Active; 'I' for Inactive)
REMARK    1  A    between atoms: C6_6  and  C8_8 
REMARK    2  A    between atoms: C8_8  and  O1_9 
REMARK    3  A    between atoms: O1_9  and  C9_10 
REMARK    4  A    between atoms: C10_12  and  C11_13 
REMARK    5  A    between atoms: C11_13  and  O3_14 
REMARK    6  A    between atoms: C12_15  and  O4_16 
REMARK    7  A    between atoms: C13_17  and  O5_18 
REMARK    8  A    between atoms: C14_19  and  O6_20 
REMARK    9  A    between atoms: C20_26  and  C21_27 
REMARK   10  A    between atoms: C21_27  and  C22_28 
REMARK   11  A    between atoms: C26_34  and  O9_35 
ROOT
HETATM    1  C1  UNL     1      -2.701  47.705 -18.642  1.00  0.00     0.015 C 
HETATM    2  C2  UNL     1      -1.646  48.394 -19.113  1.00  0.00    -0.084 C 
HETATM    3  C3  UNL     1      -1.318  48.311 -20.582  1.00  0.00     0.034 C 
HETATM    4  C4  UNL     1      -0.436  49.467 -21.051  1.00  0.00     0.010 C 
HETATM    5  C5  UNL     1      -0.888  50.822 -20.462  1.00  0.00     0.005 C 
HETATM    6  C6  UNL     1      -0.136  52.034 -21.151  1.00  0.00    -0.018 C 
HETATM    7  C7  UNL     1       1.368  51.758 -21.398  1.00  0.00     0.018 C 
HETATM    8  C15 UNL     1      -0.282  53.290 -20.275  1.00  0.00     0.012 C 
HETATM    9  C16 UNL     1       0.289  53.134 -18.874  1.00  0.00     0.002 C 
HETATM   10  C17 UNL     1       0.235  51.715 -18.311  1.00  0.00     0.010 C 
HETATM   11  C18 UNL     1      -0.895  50.812 -18.858  1.00  0.00    -0.032 C 
HETATM   12  C19 UNL     1      -2.252  51.395 -18.372  1.00  0.00     0.016 C 
HETATM   13  C20 UNL     1      -0.736  49.323 -18.298  1.00  0.00     0.025 C 
ENDROOT
BRANCH   6  14
HETATM   14  C8  UNL     1      -0.751  52.340 -22.557  1.00  0.00     0.180 C 
BRANCH  14  15
HETATM   15  O1  UNL     1      -0.065  51.648 -23.596  1.00  0.00    -0.358 OA
BRANCH  15  16
HETATM   16  C9  UNL     1      -0.163  52.278 -24.874  1.00  0.00     0.291 C 
HETATM   17  O2  UNL     1       1.103  52.285 -25.541  1.00  0.00    -0.348 OA
HETATM   18  C10 UNL     1       1.088  52.718 -26.910  1.00  0.00     0.179 C 
HETATM   19  C12 UNL     1      -0.287  53.191 -27.428  1.00  0.00     0.180 C 
HETATM   20  C13 UNL     1      -1.465  52.287 -27.023  1.00  0.00     0.183 C 
HETATM   21  C14 UNL     1      -1.220  51.533 -25.713  1.00  0.00     0.204 C 
BRANCH  18  22
HETATM   22  C11 UNL     1       1.793  51.660 -27.777  1.00  0.00     0.198 C 
BRANCH  22  23
HETATM   23  O3  UNL     1       3.172  51.526 -27.480  1.00  0.00    -0.398 OA
HETATM   24  H17 UNL     1       3.557  52.432 -27.489  1.00  0.00     0.209 HD
ENDBRANCH  22  23
ENDBRANCH  18  22
BRANCH  19  25
HETATM   25  O4  UNL     1      -0.330  53.417 -28.838  1.00  0.00    -0.390 OA
HETATM   26  H19 UNL     1       0.309  54.121 -29.064  1.00  0.00     0.210 HD
ENDBRANCH  19  25
BRANCH  20  27
HETATM   27  O5  UNL     1      -1.813  51.354 -28.058  1.00  0.00    -0.390 OA
HETATM   28  H21 UNL     1      -1.442  51.736 -28.883  1.00  0.00     0.210 HD
ENDBRANCH  20  27
BRANCH  21  29
HETATM   29  O6  UNL     1      -0.789  50.189 -26.019  1.00  0.00    -0.388 OA
HETATM   30  H23 UNL     1      -1.274  49.966 -26.848  1.00  0.00     0.210 HD
ENDBRANCH  21  29
ENDBRANCH  15  16
ENDBRANCH  14  15
ENDBRANCH   6  14
BRANCH  13  31
HETATM   31  C21 UNL     1      -0.893  49.107 -16.761  1.00  0.00     0.037 C 
BRANCH  31  32
HETATM   32  C22 UNL     1      -1.784  50.077 -16.034  1.00  0.00    -0.010 C 
HETATM   33  C23 UNL     1      -1.466  50.728 -14.900  1.00  0.00     0.044 C 
HETATM   34  C24 UNL     1      -2.407  51.659 -14.240  1.00  0.00     0.291 C 
HETATM   35  C26 UNL     1      -0.202  50.744 -14.136  1.00  0.00     0.181 C 
HETATM   36  O7  UNL     1      -3.580  51.823 -14.526  1.00  0.00    -0.260 OA
HETATM   37  O8  UNL     1      -1.726  52.344 -13.282  1.00  0.00    -0.315 OA
HETATM   38  C25 UNL     1      -0.326  52.055 -13.386  1.00  0.00     0.215 C 
BRANCH  35  39
HETATM   39  O9  UNL     1      -0.194  49.634 -13.246  1.00  0.00    -0.389 OA
HETATM   40  H40 UNL     1       0.667  49.622 -12.796  1.00  0.00     0.210 HD
ENDBRANCH  35  39
ENDBRANCH  31  32
ENDBRANCH  13  31
TORSDOF 11
ENDMDL
MODEL 5
REMARK minimizedAffinity -9.43382359
REMARK  11 active torsions:
REMARK  status: ('A' for Active; 'I' for Inactive)
REMARK    1  A    between atoms: C6_6  and  C8_8 
REMARK    2  A    between atoms: C8_8  and  O1_9 
REMARK    3  A    between atoms: O1_9  and  C9_10 
REMARK    4  A    between atoms: C10_12  and  C11_13 
REMARK    5  A    between atoms: C11_13  and  O3_14 
REMARK    6  A    between atoms: C12_15  and  O4_16 
REMARK    7  A    between atoms: C13_17  and  O5_18 
REMARK    8  A    between atoms: C14_19  and  O6_20 
REMARK    9  A    between atoms: C20_26  and  C21_27 
REMARK   10  A    between atoms: C21_27  and  C22_28 
REMARK   11  A    between atoms: C26_34  and  O9_35 
ROOT
HETATM    1  C1  UNL     1       0.321  53.334 -20.850  1.00  0.00     0.015 C 
HETATM    2  C2  UNL     1      -0.080  52.140 -21.319  1.00  0.00    -0.084 C 
HETATM    3  C3  UNL     1      -0.685  51.145 -20.361  1.00  0.00     0.034 C 
HETATM    4  C4  UNL     1      -1.505  50.071 -21.072  1.00  0.00     0.010 C 
HETATM    5  C5  UNL     1      -2.389  50.659 -22.196  1.00  0.00     0.005 C 
HETATM    6  C6  UNL     1      -3.416  49.587 -22.747  1.00  0.00    -0.018 C 
HETATM    7  C7  UNL     1      -2.799  48.175 -22.905  1.00  0.00     0.018 C 
HETATM    8  C15 UNL     1      -3.961  50.055 -24.108  1.00  0.00     0.012 C 
HETATM    9  C16 UNL     1      -2.888  50.248 -25.168  1.00  0.00     0.002 C 
HETATM   10  C17 UNL     1      -1.520  50.665 -24.630  1.00  0.00     0.010 C 
HETATM   11  C18 UNL     1      -1.526  51.445 -23.295  1.00  0.00    -0.032 C 
HETATM   12  C19 UNL     1      -2.197  52.824 -23.549  1.00  0.00     0.016 C 
HETATM   13  C20 UNL     1      -0.030  51.679 -22.782  1.00  0.00     0.025 C 
ENDROOT
BRANCH   6  14
HETATM   14  C8  UNL     1      -4.623  49.419 -21.765  1.00  0.00     0.180 C 
BRANCH  14  15
HETATM   15  O1  UNL     1      -4.962  48.049 -21.574  1.00  0.00    -0.358 OA
BRANCH  15  16
HETATM   16  C9  UNL     1      -4.982  47.642 -20.205  1.00  0.00     0.291 C 
HETATM   17  O2  UNL     1      -3.891  48.219 -19.482  1.00  0.00    -0.348 OA
HETATM   18  C10 UNL     1      -3.916  48.038 -18.058  1.00  0.00     0.179 C 
HETATM   19  C12 UNL     1      -5.081  47.173 -17.533  1.00  0.00     0.180 C 
HETATM   20  C13 UNL     1      -6.447  47.489 -18.169  1.00  0.00     0.183 C 
HETATM   21  C14 UNL     1      -6.331  48.059 -19.586  1.00  0.00     0.204 C 
BRANCH  18  22
HETATM   22  C11 UNL     1      -3.752  49.408 -17.376  1.00  0.00     0.198 C 
BRANCH  22  23
HETATM   23  O3  UNL     1      -3.408  49.309 -16.004  1.00  0.00    -0.398 OA
HETATM   24  H17 UNL     1      -4.047  48.684 -15.593  1.00  0.00     0.209 HD
ENDBRANCH  22  23
ENDBRANCH  18  22
BRANCH  19  25
HETATM   25  O4  UNL     1      -5.212  47.176 -16.110  1.00  0.00    -0.390 OA
HETATM   26  H19 UNL     1      -4.395  46.810 -15.717  1.00  0.00     0.210 HD
ENDBRANCH  19  25
BRANCH  20  27
HETATM   27  O5  UNL     1      -7.231  48.376 -17.356  1.00  0.00    -0.390 OA
HETATM   28  H21 UNL     1      -6.851  48.299 -16.453  1.00  0.00     0.210 HD
ENDBRANCH  20  27
BRANCH  21  29
HETATM   29  O6  UNL     1      -6.454  49.497 -19.524  1.00  0.00    -0.388 OA
HETATM   30  H23 UNL     1      -7.084  49.650 -18.782  1.00  0.00     0.210 HD
ENDBRANCH  21  29
ENDBRANCH  15  16
ENDBRANCH  14  15
ENDBRANCH   6  14
BRANCH  13  31
HETATM   31  C21 UNL     1       0.902  52.577 -23.654  1.00  0.00     0.037 C 
BRANCH  31  32
HETATM   32  C22 UNL     1       0.294  53.167 -24.898  1.00  0.00    -0.010 C 
HETATM   33  C23 UNL     1       0.609  52.817 -26.158  1.00  0.00     0.044 C 
HETATM   34  C24 UNL     1      -0.028  53.456 -27.331  1.00  0.00     0.291 C 
HETATM   35  C26 UNL     1       1.518  51.765 -26.655  1.00  0.00     0.181 C 
HETATM   36  O7  UNL     1      -0.754  54.435 -27.315  1.00  0.00    -0.260 OA
HETATM   37  O8  UNL     1       0.294  52.732 -28.437  1.00  0.00    -0.315 OA
HETATM   38  C25 UNL     1       0.966  51.528 -28.047  1.00  0.00     0.215 C 
BRANCH  35  39
HETATM   39  O9  UNL     1       2.839  52.288 -26.701  1.00  0.00    -0.389 OA
HETATM   40  H40 UNL     1       3.434  51.568 -26.969  1.00  0.00     0.210 HD
ENDBRANCH  35  39
ENDBRANCH  31  32
ENDBRANCH  13  31
TORSDOF 11
ENDMDL
MODEL 6
REMARK minimizedAffinity -9.39072323
REMARK  11 active torsions:
REMARK  status: ('A' for Active; 'I' for Inactive)
REMARK    1  A    between atoms: C6_6  and  C8_8 
REMARK    2  A    between atoms: C8_8  and  O1_9 
REMARK    3  A    between atoms: O1_9  and  C9_10 
REMARK    4  A    between atoms: C10_12  and  C11_13 
REMARK    5  A    between atoms: C11_13  and  O3_14 
REMARK    6  A    between atoms: C12_15  and  O4_16 
REMARK    7  A    between atoms: C13_17  and  O5_18 
REMARK    8  A    between atoms: C14_19  and  O6_20 
REMARK    9  A    between atoms: C20_26  and  C21_27 
REMARK   10  A    between atoms: C21_27  and  C22_28 
REMARK   11  A    between atoms: C26_34  and  O9_35 
ROOT
HETATM    1  C1  UNL     1       0.207  52.385 -20.839  1.00  0.00     0.015 C 
HETATM    2  C2  UNL     1      -0.281  51.426 -21.645  1.00  0.00    -0.084 C 
HETATM    3  C3  UNL     1      -0.902  50.199 -21.025  1.00  0.00     0.034 C 
HETATM    4  C4  UNL     1      -1.811  49.449 -21.996  1.00  0.00     0.010 C 
HETATM    5  C5  UNL     1      -2.706  50.406 -22.816  1.00  0.00     0.005 C 
HETATM    6  C6  UNL     1      -3.815  49.614 -23.623  1.00  0.00    -0.018 C 
HETATM    7  C7  UNL     1      -3.287  48.306 -24.263  1.00  0.00     0.018 C 
HETATM    8  C15 UNL     1      -4.389  50.520 -24.726  1.00  0.00     0.012 C 
HETATM    9  C16 UNL     1      -3.352  51.005 -25.728  1.00  0.00     0.002 C 
HETATM   10  C17 UNL     1      -1.941  51.167 -25.165  1.00  0.00     0.010 C 
HETATM   11  C18 UNL     1      -1.846  51.471 -23.652  1.00  0.00    -0.032 C 
HETATM   12  C19 UNL     1      -2.447  52.883 -23.407  1.00  0.00     0.016 C 
HETATM   13  C20 UNL     1      -0.319  51.464 -23.178  1.00  0.00     0.025 C 
ENDROOT
BRANCH   6  14
HETATM   14  C8  UNL     1      -4.987  49.185 -22.679  1.00  0.00     0.180 C 
BRANCH  14  15
HETATM   15  O1  UNL     1      -5.282  50.189 -21.712  1.00  0.00    -0.358 OA
BRANCH  15  16
HETATM   16  C9  UNL     1      -5.687  49.670 -20.445  1.00  0.00     0.291 C 
HETATM   17  O2  UNL     1      -7.097  49.822 -20.254  1.00  0.00    -0.348 OA
HETATM   18  C10 UNL     1      -7.649  49.167 -19.102  1.00  0.00     0.179 C 
HETATM   19  C12 UNL     1      -6.615  48.465 -18.196  1.00  0.00     0.180 C 
HETATM   20  C13 UNL     1      -5.551  47.651 -18.955  1.00  0.00     0.183 C 
HETATM   21  C14 UNL     1      -5.280  48.186 -20.364  1.00  0.00     0.204 C 
BRANCH  18  22
HETATM   22  C11 UNL     1      -8.839  48.296 -19.543  1.00  0.00     0.198 C 
BRANCH  22  23
HETATM   23  O3  UNL     1      -8.807  47.970 -20.923  1.00  0.00    -0.398 OA
HETATM   24  H17 UNL     1      -8.667  48.811 -21.414  1.00  0.00     0.209 HD
ENDBRANCH  22  23
ENDBRANCH  18  22
BRANCH  19  25
HETATM   25  O4  UNL     1      -7.195  47.646 -17.178  1.00  0.00    -0.390 OA
HETATM   26  H19 UNL     1      -7.739  48.209 -16.593  1.00  0.00     0.210 HD
ENDBRANCH  19  25
BRANCH  20  27
HETATM   27  O5  UNL     1      -5.882  46.256 -19.025  1.00  0.00    -0.390 OA
HETATM   28  H21 UNL     1      -6.526  46.109 -18.297  1.00  0.00     0.210 HD
ENDBRANCH  20  27
BRANCH  21  29
HETATM   29  O6  UNL     1      -6.018  47.391 -21.317  1.00  0.00    -0.388 OA
HETATM   30  H23 UNL     1      -6.018  46.487 -20.924  1.00  0.00     0.210 HD
ENDBRANCH  21  29
ENDBRANCH  15  16
ENDBRANCH  14  15
ENDBRANCH   6  14
BRANCH  13  31
HETATM   31  C21 UNL     1       0.625  52.558 -23.767  1.00  0.00     0.037 C 
BRANCH  31  32
HETATM   32  C22 UNL     1       0.166  53.233 -25.030  1.00  0.00    -0.010 C 
HETATM   33  C23 UNL     1       0.536  52.888 -26.276  1.00  0.00     0.044 C 
HETATM   34  C24 UNL     1       0.047  53.613 -27.469  1.00  0.00     0.291 C 
HETATM   35  C26 UNL     1       1.378  51.768 -26.742  1.00  0.00     0.181 C 
HETATM   36  O7  UNL     1      -0.585  54.655 -27.472  1.00  0.00    -0.260 OA
HETATM   37  O8  UNL     1       0.380  52.891 -28.573  1.00  0.00    -0.315 OA
HETATM   38  C25 UNL     1       0.909  51.619 -28.176  1.00  0.00     0.215 C 
BRANCH  35  39
HETATM   39  O9  UNL     1       2.742  52.165 -26.680  1.00  0.00    -0.389 OA
HETATM   40  H40 UNL     1       3.286  51.400 -26.929  1.00  0.00     0.210 HD
ENDBRANCH  35  39
ENDBRANCH  31  32
ENDBRANCH  13  31
TORSDOF 11
ENDMDL
MODEL 7
REMARK minimizedAffinity -9.38216591
REMARK  11 active torsions:
REMARK  status: ('A' for Active; 'I' for Inactive)
REMARK    1  A    between atoms: C6_6  and  C8_8 
REMARK    2  A    between atoms: C8_8  and  O1_9 
REMARK    3  A    between atoms: O1_9  and  C9_10 
REMARK    4  A    between atoms: C10_12  and  C11_13 
REMARK    5  A    between atoms: C11_13  and  O3_14 
REMARK    6  A    between atoms: C12_15  and  O4_16 
REMARK    7  A    between atoms: C13_17  and  O5_18 
REMARK    8  A    between atoms: C14_19  and  O6_20 
REMARK    9  A    between atoms: C20_26  and  C21_27 
REMARK   10  A    between atoms: C21_27  and  C22_28 
REMARK   11  A    between atoms: C26_34  and  O9_35 
ROOT
HETATM    1  C1  UNL     1       0.104  52.018 -20.851  1.00  0.00     0.015 C 
HETATM    2  C2  UNL     1      -0.369  51.169 -21.781  1.00  0.00    -0.084 C 
HETATM    3  C3  UNL     1      -0.939  49.846 -21.337  1.00  0.00     0.034 C 
HETATM    4  C4  UNL     1      -1.842  49.214 -22.394  1.00  0.00     0.010 C 
HETATM    5  C5  UNL     1      -2.781  50.249 -23.054  1.00  0.00     0.005 C 
HETATM    6  C6  UNL     1      -3.880  49.545 -23.953  1.00  0.00    -0.018 C 
HETATM    7  C7  UNL     1      -3.323  48.361 -24.783  1.00  0.00     0.018 C 
HETATM    8  C15 UNL     1      -4.501  50.581 -24.905  1.00  0.00     0.012 C 
HETATM    9  C16 UNL     1      -3.499  51.239 -25.840  1.00  0.00     0.002 C 
HETATM   10  C17 UNL     1      -2.084  51.367 -25.278  1.00  0.00     0.010 C 
HETATM   11  C18 UNL     1      -1.971  51.451 -23.738  1.00  0.00    -0.032 C 
HETATM   12  C19 UNL     1      -2.611  52.793 -23.284  1.00  0.00     0.016 C 
HETATM   13  C20 UNL     1      -0.435  51.428 -23.292  1.00  0.00     0.025 C 
ENDROOT
BRANCH   6  14
HETATM   14  C8  UNL     1      -5.020  48.945 -23.066  1.00  0.00     0.180 C 
BRANCH  14  15
HETATM   15  O1  UNL     1      -5.029  49.513 -21.759  1.00  0.00    -0.358 OA
BRANCH  15  16
HETATM   16  C9  UNL     1      -5.556  48.646 -20.754  1.00  0.00     0.291 C 
HETATM   17  O2  UNL     1      -5.160  47.291 -20.985  1.00  0.00    -0.348 OA
HETATM   18  C10 UNL     1      -5.468  46.359 -19.937  1.00  0.00     0.179 C 
HETATM   19  C12 UNL     1      -6.259  46.952 -18.752  1.00  0.00     0.180 C 
HETATM   20  C13 UNL     1      -5.751  48.323 -18.269  1.00  0.00     0.183 C 
HETATM   21  C14 UNL     1      -5.066  49.132 -19.376  1.00  0.00     0.204 C 
BRANCH  18  22
HETATM   22  C11 UNL     1      -4.190  45.589 -19.560  1.00  0.00     0.198 C 
BRANCH  22  23
HETATM   23  O3  UNL     1      -3.810  44.632 -20.533  1.00  0.00    -0.398 OA
HETATM   24  H17 UNL     1      -4.609  44.092 -20.733  1.00  0.00     0.209 HD
ENDBRANCH  22  23
ENDBRANCH  18  22
BRANCH  19  25
HETATM   25  O4  UNL     1      -6.374  46.073 -17.632  1.00  0.00    -0.390 OA
HETATM   26  H19 UNL     1      -6.854  45.269 -17.911  1.00  0.00     0.210 HD
ENDBRANCH  19  25
BRANCH  20  27
HETATM   27  O5  UNL     1      -4.870  48.209 -17.142  1.00  0.00    -0.390 OA
HETATM   28  H21 UNL     1      -5.067  47.330 -16.750  1.00  0.00     0.210 HD
ENDBRANCH  20  27
BRANCH  21  29
HETATM   29  O6  UNL     1      -3.636  48.983 -19.248  1.00  0.00    -0.388 OA
HETATM   30  H23 UNL     1      -3.490  48.906 -18.277  1.00  0.00     0.210 HD
ENDBRANCH  21  29
ENDBRANCH  15  16
ENDBRANCH  14  15
ENDBRANCH   6  14
BRANCH  13  31
HETATM   31  C21 UNL     1       0.463  52.626 -23.728  1.00  0.00     0.037 C 
BRANCH  31  32
HETATM   32  C22 UNL     1       0.086  53.317 -25.011  1.00  0.00    -0.010 C 
HETATM   33  C23 UNL     1       0.502  52.960 -26.238  1.00  0.00     0.044 C 
HETATM   34  C24 UNL     1       0.093  53.701 -27.452  1.00  0.00     0.291 C 
HETATM   35  C26 UNL     1       1.327  51.812 -26.667  1.00  0.00     0.181 C 
HETATM   36  O7  UNL     1      -0.502  54.764 -27.482  1.00  0.00    -0.260 OA
HETATM   37  O8  UNL     1       0.453  52.969 -28.540  1.00  0.00    -0.315 OA
HETATM   38  C25 UNL     1       0.920  51.680 -28.121  1.00  0.00     0.215 C 
BRANCH  35  39
HETATM   39  O9  UNL     1       2.699  52.164 -26.540  1.00  0.00    -0.389 OA
HETATM   40  H40 UNL     1       3.228  51.380 -26.765  1.00  0.00     0.210 HD
ENDBRANCH  35  39
ENDBRANCH  31  32
ENDBRANCH  13  31
TORSDOF 11
ENDMDL
MODEL 8
REMARK minimizedAffinity -9.35114574
REMARK  11 active torsions:
REMARK  status: ('A' for Active; 'I' for Inactive)
REMARK    1  A    between atoms: C6_6  and  C8_8 
REMARK    2  A    between atoms: C8_8  and  O1_9 
REMARK    3  A    between atoms: O1_9  and  C9_10 
REMARK    4  A    between atoms: C10_12  and  C11_13 
REMARK    5  A    between atoms: C11_13  and  O3_14 
REMARK    6  A    between atoms: C12_15  and  O4_16 
REMARK    7  A    between atoms: C13_17  and  O5_18 
REMARK    8  A    between atoms: C14_19  and  O6_20 
REMARK    9  A    between atoms: C20_26  and  C21_27 
REMARK   10  A    between atoms: C21_27  and  C22_28 
REMARK   11  A    between atoms: C26_34  and  O9_35 
ROOT
HETATM    1  C1  UNL     1      -6.523  47.770 -25.796  1.00  0.00     0.015 C 
HETATM    2  C2  UNL     1      -5.507  48.097 -24.979  1.00  0.00    -0.084 C 
HETATM    3  C3  UNL     1      -4.248  48.676 -25.575  1.00  0.00     0.034 C 
HETATM    4  C4  UNL     1      -3.402  49.421 -24.544  1.00  0.00     0.010 C 
HETATM    5  C5  UNL     1      -4.261  50.304 -23.611  1.00  0.00     0.005 C 
HETATM    6  C6  UNL     1      -3.360  51.260 -22.726  1.00  0.00    -0.018 C 
HETATM    7  C7  UNL     1      -2.085  50.568 -22.183  1.00  0.00     0.018 C 
HETATM    8  C15 UNL     1      -4.188  51.792 -21.544  1.00  0.00     0.012 C 
HETATM    9  C16 UNL     1      -4.733  50.704 -20.633  1.00  0.00     0.002 C 
HETATM   10  C17 UNL     1      -5.026  49.374 -21.324  1.00  0.00     0.010 C 
HETATM   11  C18 UNL     1      -5.373  49.454 -22.829  1.00  0.00    -0.032 C 
HETATM   12  C19 UNL     1      -6.736  50.188 -22.968  1.00  0.00     0.016 C 
HETATM   13  C20 UNL     1      -5.505  47.985 -23.448  1.00  0.00     0.025 C 
ENDROOT
BRANCH   6  14
HETATM   14  C8  UNL     1      -2.858  52.482 -23.565  1.00  0.00     0.180 C 
BRANCH  14  15
HETATM   15  O1  UNL     1      -1.436  52.521 -23.645  1.00  0.00    -0.358 OA
BRANCH  15  16
HETATM   16  C9  UNL     1      -0.915  52.120 -24.912  1.00  0.00     0.291 C 
HETATM   17  O2  UNL     1      -1.399  52.969 -25.958  1.00  0.00    -0.348 OA
HETATM   18  C10 UNL     1      -0.794  52.784 -27.247  1.00  0.00     0.179 C 
HETATM   19  C12 UNL     1       0.232  51.634 -27.325  1.00  0.00     0.180 C 
HETATM   20  C13 UNL     1       1.210  51.571 -26.137  1.00  0.00     0.183 C 
HETATM   21  C14 UNL     1       0.625  52.155 -24.847  1.00  0.00     0.204 C 
BRANCH  18  22
HETATM   22  C11 UNL     1      -0.302  54.145 -27.769  1.00  0.00     0.198 C 
BRANCH  22  23
HETATM   23  O3  UNL     1       0.088  55.030 -26.731  1.00  0.00    -0.398 OA
HETATM   24  H17 UNL     1      -0.648  55.047 -26.077  1.00  0.00     0.209 HD
ENDBRANCH  22  23
ENDBRANCH  18  22
BRANCH  19  25
HETATM   25  O4  UNL     1       0.973  51.597 -28.545  1.00  0.00    -0.390 OA
HETATM   26  H19 UNL     1       0.351  51.465 -29.288  1.00  0.00     0.210 HD
ENDBRANCH  19  25
BRANCH  20  27
HETATM   27  O5  UNL     1       2.461  52.210 -26.430  1.00  0.00    -0.390 OA
HETATM   28  H21 UNL     1       2.512  52.236 -27.411  1.00  0.00     0.210 HD
ENDBRANCH  20  27
BRANCH  21  29
HETATM   29  O6  UNL     1       1.109  53.505 -24.683  1.00  0.00    -0.388 OA
HETATM   30  H23 UNL     1       2.018  53.480 -25.064  1.00  0.00     0.210 HD
ENDBRANCH  21  29
ENDBRANCH  15  16
ENDBRANCH  14  15
ENDBRANCH   6  14
BRANCH  13  31
HETATM   31  C21 UNL     1      -6.659  47.079 -22.919  1.00  0.00     0.037 C 
BRANCH  31  32
HETATM   32  C22 UNL     1      -6.271  45.990 -21.956  1.00  0.00    -0.010 C 
HETATM   33  C23 UNL     1      -6.709  44.719 -22.000  1.00  0.00     0.044 C 
HETATM   34  C24 UNL     1      -6.287  43.709 -21.005  1.00  0.00     0.291 C 
HETATM   35  C26 UNL     1      -7.573  44.045 -22.990  1.00  0.00     0.181 C 
HETATM   36  O7  UNL     1      -5.658  43.921 -19.983  1.00  0.00    -0.260 OA
HETATM   37  O8  UNL     1      -6.679  42.485 -21.448  1.00  0.00    -0.315 OA
HETATM   38  C25 UNL     1      -7.183  42.594 -22.786  1.00  0.00     0.215 C 
BRANCH  35  39
HETATM   39  O9  UNL     1      -8.932  44.273 -22.638  1.00  0.00    -0.389 OA
HETATM   40  H40 UNL     1      -9.488  43.877 -23.330  1.00  0.00     0.210 HD
ENDBRANCH  35  39
ENDBRANCH  31  32
ENDBRANCH  13  31
TORSDOF 11
ENDMDL
MODEL 9
REMARK minimizedAffinity -9.33552265
REMARK  11 active torsions:
REMARK  status: ('A' for Active; 'I' for Inactive)
REMARK    1  A    between atoms: C6_6  and  C8_8 
REMARK    2  A    between atoms: C8_8  and  O1_9 
REMARK    3  A    between atoms: O1_9  and  C9_10 
REMARK    4  A    between atoms: C10_12  and  C11_13 
REMARK    5  A    between atoms: C11_13  and  O3_14 
REMARK    6  A    between atoms: C12_15  and  O4_16 
REMARK    7  A    between atoms: C13_17  and  O5_18 
REMARK    8  A    between atoms: C14_19  and  O6_20 
REMARK    9  A    between atoms: C20_26  and  C21_27 
REMARK   10  A    between atoms: C21_27  and  C22_28 
REMARK   11  A    between atoms: C26_34  and  O9_35 
ROOT
HETATM    1  C1  UNL     1       0.713  54.078 -20.369  1.00  0.00     0.015 C 
HETATM    2  C2  UNL     1       0.728  52.912 -19.700  1.00  0.00    -0.084 C 
HETATM    3  C3  UNL     1       0.877  52.934 -18.199  1.00  0.00     0.034 C 
HETATM    4  C4  UNL     1       0.413  51.634 -17.546  1.00  0.00     0.010 C 
HETATM    5  C5  UNL     1      -0.906  51.111 -18.159  1.00  0.00     0.005 C 
HETATM    6  C6  UNL     1      -1.507  49.916 -17.308  1.00  0.00    -0.018 C 
HETATM    7  C7  UNL     1      -0.431  48.918 -16.814  1.00  0.00     0.018 C 
HETATM    8  C15 UNL     1      -2.547  49.161 -18.154  1.00  0.00     0.012 C 
HETATM    9  C16 UNL     1      -1.986  48.572 -19.439  1.00  0.00     0.002 C 
HETATM   10  C17 UNL     1      -0.823  49.351 -20.050  1.00  0.00     0.010 C 
HETATM   11  C18 UNL     1      -0.783  50.864 -19.738  1.00  0.00    -0.032 C 
HETATM   12  C19 UNL     1      -2.005  51.529 -20.433  1.00  0.00     0.016 C 
HETATM   13  C20 UNL     1       0.560  51.515 -20.312  1.00  0.00     0.025 C 
ENDROOT
BRANCH   6  14
HETATM   14  C8  UNL     1      -2.215  50.454 -16.021  1.00  0.00     0.180 C 
BRANCH  14  15
HETATM   15  O1  UNL     1      -2.003  49.596 -14.903  1.00  0.00    -0.358 OA
BRANCH  15  16
HETATM   16  C9  UNL     1      -1.844  50.288 -13.665  1.00  0.00     0.291 C 
HETATM   17  O2  UNL     1      -2.377  51.614 -13.744  1.00  0.00    -0.348 OA
HETATM   18  C10 UNL     1      -2.447  52.338 -12.506  1.00  0.00     0.179 C 
HETATM   19  C12 UNL     1      -1.857  51.599 -11.287  1.00  0.00     0.180 C 
HETATM   20  C13 UNL     1      -2.249  50.113 -11.190  1.00  0.00     0.183 C 
HETATM   21  C14 UNL     1      -2.546  49.482 -12.554  1.00  0.00     0.204 C 
BRANCH  18  22
HETATM   22  C11 UNL     1      -3.877  52.877 -12.323  1.00  0.00     0.198 C 
BRANCH  22  23
HETATM   23  O3  UNL     1      -4.250  53.813 -13.321  1.00  0.00    -0.398 OA
HETATM   24  H17 UNL     1      -3.528  54.481 -13.373  1.00  0.00     0.209 HD
ENDBRANCH  22  23
ENDBRANCH  18  22
BRANCH  19  25
HETATM   25  O4  UNL     1      -2.123  52.237 -10.036  1.00  0.00    -0.390 OA
HETATM   26  H19 UNL     1      -1.718  53.127 -10.044  1.00  0.00     0.210 HD
ENDBRANCH  19  25
BRANCH  20  27
HETATM   27  O5  UNL     1      -3.363  49.902 -10.310  1.00  0.00    -0.390 OA
HETATM   28  H21 UNL     1      -3.390  50.698  -9.734  1.00  0.00     0.210 HD
ENDBRANCH  20  27
BRANCH  21  29
HETATM   29  O6  UNL     1      -3.976  49.453 -12.756  1.00  0.00    -0.388 OA
HETATM   30  H23 UNL     1      -4.341  49.314 -11.851  1.00  0.00     0.210 HD
ENDBRANCH  21  29
ENDBRANCH  15  16
ENDBRANCH  14  15
ENDBRANCH   6  14
BRANCH  13  31
HETATM   31  C21 UNL     1       0.758  51.519 -21.859  1.00  0.00     0.037 C 
BRANCH  31  32
HETATM   32  C22 UNL     1      -0.455  51.835 -22.692  1.00  0.00    -0.010 C 
HETATM   33  C23 UNL     1      -0.443  52.491 -23.866  1.00  0.00     0.044 C 
HETATM   34  C24 UNL     1      -1.685  52.774 -24.618  1.00  0.00     0.291 C 
HETATM   35  C26 UNL     1       0.694  52.985 -24.668  1.00  0.00     0.181 C 
HETATM   36  O7  UNL     1      -2.825  52.606 -24.220  1.00  0.00    -0.260 OA
HETATM   37  O8  UNL     1      -1.341  53.210 -25.859  1.00  0.00    -0.315 OA
HETATM   38  C25 UNL     1       0.072  53.062 -26.049  1.00  0.00     0.215 C 
BRANCH  35  39
HETATM   39  O9  UNL     1       1.063  54.273 -24.192  1.00  0.00    -0.389 OA
HETATM   40  H40 UNL     1       1.850  54.558 -24.687  1.00  0.00     0.210 HD
ENDBRANCH  35  39
ENDBRANCH  31  32
ENDBRANCH  13  31
TORSDOF 11
ENDMDL
