MODEL 1
REMARK minimizedAffinity -8.21544838
REMARK CNNscore 0.681102812
REMARK CNNaffinity 7.13371038
REMARK  10 active torsions:
REMARK  status: ('A' for Active; 'I' for Inactive)
REMARK    1  A    between atoms: O1_2  and  C2_3 
REMARK    2  A    between atoms: C4_5  and  O2_6 
REMARK    3  A    between atoms: O2_6  and  C5_7 
REMARK    4  A    between atoms: C6_8  and  O3_9 
REMARK    5  A    between atoms: C8_11  and  O4_12 
REMARK    6  A    between atoms: O4_12  and  C9_13 
REMARK    7  A    between atoms: C20_24  and  C21_25 
REMARK    8  A    between atoms: C21_25  and  O5_27 
REMARK    9  A    between atoms: C25_30  and  O6_31 
REMARK   10  A    between atoms: C34_42  and  O9_43 
ROOT
HETATM    1  C9  UNL     1      -2.850  11.250  17.028  1.00  0.00     0.046 C 
HETATM    2  C10 UNL     1      -3.491  12.163  16.283  1.00  0.00     0.011 C 
HETATM    3  C11 UNL     1      -4.163  13.400  16.847  1.00  0.00     0.019 C 
HETATM    4  C12 UNL     1      -5.638  13.381  16.403  1.00  0.00     0.010 C 
HETATM    5  C13 UNL     1      -6.495  14.378  17.171  1.00  0.00     0.009 C 
HETATM    6  C14 UNL     1      -6.586  14.011  18.670  1.00  0.00     0.025 C 
HETATM    7  C15 UNL     1      -5.297  13.279  19.166  1.00  0.00     0.001 C 
HETATM    8  C16 UNL     1      -5.178  13.222  20.698  1.00  0.00     0.007 C 
HETATM    9  C17 UNL     1      -6.490  13.544  21.408  1.00  0.00     0.013 C 
HETATM   10  C18 UNL     1      -6.986  14.987  21.106  1.00  0.00    -0.007 C 
HETATM   11  C19 UNL     1      -5.994  15.977  21.758  1.00  0.00     0.019 C 
HETATM   12  C20 UNL     1      -8.443  15.135  21.703  1.00  0.00     0.025 C 
HETATM   13  C23 UNL     1      -9.335  14.740  20.520  1.00  0.00     0.011 C 
HETATM   14  C24 UNL     1      -8.659  15.348  19.299  1.00  0.00     0.039 C 
HETATM   15  C25 UNL     1      -7.132  15.190  19.551  1.00  0.00     0.070 C 
HETATM   16  C26 UNL     1      -3.968  13.637  18.401  1.00  0.00    -0.033 C 
HETATM   17  C27 UNL     1      -3.569  15.118  18.621  1.00  0.00     0.016 C 
HETATM   18  C28 UNL     1      -2.754  12.805  18.929  1.00  0.00     0.016 C 
HETATM   19  C29 UNL     1      -2.796  11.338  18.523  1.00  0.00     0.065 C 
ENDROOT
BRANCH   1  20
HETATM   20  O4  UNL     1      -2.151  10.209  16.435  1.00  0.00    -0.325 OA
BRANCH  20  21
HETATM   21  C8  UNL     1      -2.898   9.658  15.322  1.00  0.00     0.269 C 
HETATM   22  C7  UNL     1      -4.080   8.869  15.890  1.00  0.00     0.095 C 
HETATM   23  C6  UNL     1      -3.870   7.362  15.822  1.00  0.00     0.154 C 
HETATM   24  C5  UNL     1      -3.550   6.908  14.382  1.00  0.00     0.182 C 
HETATM   25  C30 UNL     1      -2.734   7.975  13.605  1.00  0.00     0.152 C 
HETATM   26  O7  UNL     1      -2.057   8.868  14.484  1.00  0.00    -0.353 OA
HETATM   27  C31 UNL     1      -3.508   8.752  12.538  1.00  0.00     0.042 C 
BRANCH  23  28
HETATM   28  O3  UNL     1      -2.814   6.955  16.701  1.00  0.00    -0.393 OA
HETATM   29  H10 UNL     1      -2.911   7.453  17.535  1.00  0.00     0.210 HD
ENDBRANCH  23  28
BRANCH  24  30
HETATM   30  O2  UNL     1      -4.730   6.607  13.624  1.00  0.00    -0.351 OA
BRANCH  30  31
HETATM   31  C4  UNL     1      -5.386   5.396  13.987  1.00  0.00     0.263 C 
HETATM   32  C3  UNL     1      -5.115   4.394  12.866  1.00  0.00     0.095 C 
HETATM   33  C2  UNL     1      -6.246   3.386  12.744  1.00  0.00     0.156 C 
HETATM   34  C34 UNL     1      -7.605   4.097  12.524  1.00  0.00     0.175 C 
HETATM   35  C32 UNL     1      -7.527   5.573  12.969  1.00  0.00     0.151 C 
HETATM   36  O8  UNL     1      -6.780   5.635  14.195  1.00  0.00    -0.354 OA
HETATM   37  C33 UNL     1      -8.891   6.211  13.200  1.00  0.00     0.042 C 
BRANCH  33  38
HETATM   38  O1  UNL     1      -5.913   2.525  11.643  1.00  0.00    -0.388 OA
HETATM   39  C1  UNL     1      -5.083   3.153  10.671  1.00  0.00     0.202 C 
ENDBRANCH  33  38
BRANCH  34  40
HETATM   40  O9  UNL     1      -8.593   3.383  13.296  1.00  0.00    -0.390 OA
HETATM   41  H56 UNL     1      -8.450   3.635  14.221  1.00  0.00     0.210 HD
ENDBRANCH  34  40
ENDBRANCH  30  31
ENDBRANCH  24  30
ENDBRANCH  20  21
ENDBRANCH   1  20
BRANCH  15  42
HETATM   42  O6  UNL     1      -6.451  16.386  19.168  1.00  0.00    -0.389 OA
HETATM   43  H39 UNL     1      -7.106  17.043  18.867  1.00  0.00     0.210 HD
ENDBRANCH  15  42
BRANCH  12  44
HETATM   44  C21 UNL     1      -8.809  16.519  22.304  1.00  0.00     0.119 C 
HETATM   45  C22 UNL     1      -8.604  16.597  23.813  1.00  0.00     0.040 C 
BRANCH  44  46
HETATM   46  O5  UNL     1     -10.162  16.878  22.027  1.00  0.00    -0.396 OA
HETATM   47  H34 UNL     1     -10.224  17.840  22.117  1.00  0.00     0.210 HD
ENDBRANCH  44  46
ENDBRANCH  12  44
TORSDOF 10
ENDMDL
MODEL 2
REMARK minimizedAffinity -10.5100346
REMARK CNNscore 0.626084924
REMARK CNNaffinity 7.43164396
REMARK  10 active torsions:
REMARK  status: ('A' for Active; 'I' for Inactive)
REMARK    1  A    between atoms: O1_2  and  C2_3 
REMARK    2  A    between atoms: C4_5  and  O2_6 
REMARK    3  A    between atoms: O2_6  and  C5_7 
REMARK    4  A    between atoms: C6_8  and  O3_9 
REMARK    5  A    between atoms: C8_11  and  O4_12 
REMARK    6  A    between atoms: O4_12  and  C9_13 
REMARK    7  A    between atoms: C20_24  and  C21_25 
REMARK    8  A    between atoms: C21_25  and  O5_27 
REMARK    9  A    between atoms: C25_30  and  O6_31 
REMARK   10  A    between atoms: C34_42  and  O9_43 
ROOT
HETATM    1  C9  UNL     1      -4.662   4.677  13.115  1.00  0.00     0.046 C 
HETATM    2  C10 UNL     1      -4.636   5.433  14.222  1.00  0.00     0.011 C 
HETATM    3  C11 UNL     1      -5.874   5.884  14.972  1.00  0.00     0.019 C 
HETATM    4  C12 UNL     1      -5.843   7.422  15.058  1.00  0.00     0.010 C 
HETATM    5  C13 UNL     1      -7.179   8.014  15.486  1.00  0.00     0.009 C 
HETATM    6  C14 UNL     1      -8.278   7.753  14.431  1.00  0.00     0.025 C 
HETATM    7  C15 UNL     1      -8.030   6.421  13.653  1.00  0.00     0.001 C 
HETATM    8  C16 UNL     1      -9.260   5.933  12.869  1.00  0.00     0.007 C 
HETATM    9  C17 UNL     1     -10.325   7.015  12.702  1.00  0.00     0.013 C 
HETATM   10  C18 UNL     1     -10.895   7.495  14.067  1.00  0.00    -0.007 C 
HETATM   11  C19 UNL     1     -11.691   6.325  14.689  1.00  0.00     0.019 C 
HETATM   12  C20 UNL     1     -11.815   8.753  13.793  1.00  0.00     0.025 C 
HETATM   13  C23 UNL     1     -10.840   9.925  13.955  1.00  0.00     0.011 C 
HETATM   14  C24 UNL     1      -9.953   9.540  15.130  1.00  0.00     0.039 C 
HETATM   15  C25 UNL     1      -9.724   8.007  14.988  1.00  0.00     0.070 C 
HETATM   16  C26 UNL     1      -7.248   5.303  14.440  1.00  0.00    -0.033 C 
HETATM   17  C27 UNL     1      -8.062   4.789  15.653  1.00  0.00     0.016 C 
HETATM   18  C28 UNL     1      -6.996   4.040  13.552  1.00  0.00     0.016 C 
HETATM   19  C29 UNL     1      -5.947   4.255  12.469  1.00  0.00     0.065 C 
ENDROOT
BRANCH   1  20
HETATM   20  O4  UNL     1      -3.489   4.198  12.551  1.00  0.00    -0.325 OA
BRANCH  20  21
HETATM   21  C8  UNL     1      -2.433   5.186  12.647  1.00  0.00     0.269 C 
HETATM   22  C7  UNL     1      -1.523   5.025  11.426  1.00  0.00     0.095 C 
HETATM   23  C6  UNL     1      -0.204   4.339  11.760  1.00  0.00     0.154 C 
HETATM   24  C5  UNL     1       0.533   5.074  12.900  1.00  0.00     0.182 C 
HETATM   25  C30 UNL     1      -0.454   5.694  13.924  1.00  0.00     0.152 C 
HETATM   26  O7  UNL     1      -1.729   5.061  13.881  1.00  0.00    -0.353 OA
HETATM   27  C31 UNL     1      -0.604   7.216  13.862  1.00  0.00     0.042 C 
BRANCH  23  28
HETATM   28  O3  UNL     1      -0.420   2.972  12.129  1.00  0.00    -0.393 OA
HETATM   29  H10 UNL     1      -1.087   2.600  11.521  1.00  0.00     0.210 HD
ENDBRANCH  23  28
BRANCH  24  30
HETATM   30  O2  UNL     1       1.392   6.117  12.418  1.00  0.00    -0.351 OA
BRANCH  30  31
HETATM   31  C4  UNL     1       2.016   5.854  11.166  1.00  0.00     0.263 C 
HETATM   32  C3  UNL     1       3.420   6.452  11.238  1.00  0.00     0.095 C 
HETATM   33  C2  UNL     1       3.910   6.873   9.863  1.00  0.00     0.156 C 
HETATM   34  C34 UNL     1       2.925   7.869   9.200  1.00  0.00     0.175 C 
HETATM   35  C32 UNL     1       1.535   7.782   9.863  1.00  0.00     0.151 C 
HETATM   36  O8  UNL     1       1.234   6.397  10.101  1.00  0.00    -0.354 OA
HETATM   37  C33 UNL     1       0.419   8.381   9.015  1.00  0.00     0.042 C 
BRANCH  33  38
HETATM   38  O1  UNL     1       5.210   7.456  10.049  1.00  0.00    -0.388 OA
HETATM   39  C1  UNL     1       5.875   6.983  11.215  1.00  0.00     0.202 C 
ENDBRANCH  33  38
BRANCH  34  40
HETATM   40  O9  UNL     1       2.845   7.526   7.800  1.00  0.00    -0.390 OA
HETATM   41  H56 UNL     1       2.298   6.729   7.745  1.00  0.00     0.210 HD
ENDBRANCH  34  40
ENDBRANCH  30  31
ENDBRANCH  24  30
ENDBRANCH  20  21
ENDBRANCH   1  20
BRANCH  15  42
HETATM   42  O6  UNL     1      -9.827   7.381  16.268  1.00  0.00    -0.389 OA
HETATM   43  H39 UNL     1     -10.051   8.056  16.935  1.00  0.00     0.210 HD
ENDBRANCH  15  42
BRANCH  12  44
HETATM   44  C21 UNL     1     -13.083   8.890  14.678  1.00  0.00     0.119 C 
HETATM   45  C22 UNL     1     -13.733  10.267  14.595  1.00  0.00     0.040 C 
BRANCH  44  46
HETATM   46  O5  UNL     1     -12.806   8.618  16.050  1.00  0.00    -0.396 OA
HETATM   47  H34 UNL     1     -13.649   8.390  16.470  1.00  0.00     0.210 HD
ENDBRANCH  44  46
ENDBRANCH  12  44
TORSDOF 10
ENDMDL
MODEL 3
REMARK minimizedAffinity -9.95627975
REMARK CNNscore 0.551840067
REMARK CNNaffinity 7.08983278
REMARK  10 active torsions:
REMARK  status: ('A' for Active; 'I' for Inactive)
REMARK    1  A    between atoms: O1_2  and  C2_3 
REMARK    2  A    between atoms: C4_5  and  O2_6 
REMARK    3  A    between atoms: O2_6  and  C5_7 
REMARK    4  A    between atoms: C6_8  and  O3_9 
REMARK    5  A    between atoms: C8_11  and  O4_12 
REMARK    6  A    between atoms: O4_12  and  C9_13 
REMARK    7  A    between atoms: C20_24  and  C21_25 
REMARK    8  A    between atoms: C21_25  and  O5_27 
REMARK    9  A    between atoms: C25_30  and  O6_31 
REMARK   10  A    between atoms: C34_42  and  O9_43 
ROOT
HETATM    1  C9  UNL     1      -3.841   5.330  12.828  1.00  0.00     0.046 C 
HETATM    2  C10 UNL     1      -2.925   4.352  12.882  1.00  0.00     0.011 C 
HETATM    3  C11 UNL     1      -1.427   4.590  12.893  1.00  0.00     0.019 C 
HETATM    4  C12 UNL     1      -0.815   3.812  11.713  1.00  0.00     0.010 C 
HETATM    5  C13 UNL     1       0.618   4.230  11.414  1.00  0.00     0.009 C 
HETATM    6  C14 UNL     1       0.690   5.697  10.929  1.00  0.00     0.025 C 
HETATM    7  C15 UNL     1      -0.449   6.569  11.549  1.00  0.00     0.001 C 
HETATM    8  C16 UNL     1      -0.211   8.080  11.400  1.00  0.00     0.007 C 
HETATM    9  C17 UNL     1       0.866   8.413  10.370  1.00  0.00     0.013 C 
HETATM   10  C18 UNL     1       2.255   7.835  10.762  1.00  0.00    -0.007 C 
HETATM   11  C19 UNL     1       2.745   8.584  12.023  1.00  0.00     0.019 C 
HETATM   12  C20 UNL     1       3.233   8.044   9.537  1.00  0.00     0.025 C 
HETATM   13  C23 UNL     1       3.075   6.737   8.751  1.00  0.00     0.011 C 
HETATM   14  C24 UNL     1       2.979   5.650   9.813  1.00  0.00     0.039 C 
HETATM   15  C25 UNL     1       2.149   6.277  10.970  1.00  0.00     0.070 C 
HETATM   16  C26 UNL     1      -0.975   6.106  12.960  1.00  0.00    -0.033 C 
HETATM   17  C27 UNL     1       0.123   6.240  14.045  1.00  0.00     0.016 C 
HETATM   18  C28 UNL     1      -2.155   7.004  13.459  1.00  0.00     0.016 C 
HETATM   19  C29 UNL     1      -3.458   6.774  12.705  1.00  0.00     0.065 C 
ENDROOT
BRANCH   1  20
HETATM   20  O4  UNL     1      -5.194   5.048  12.947  1.00  0.00    -0.325 OA
BRANCH  20  21
HETATM   21  C8  UNL     1      -5.787   5.823  14.018  1.00  0.00     0.269 C 
HETATM   22  C7  UNL     1      -6.931   5.001  14.617  1.00  0.00     0.095 C 
HETATM   23  C6  UNL     1      -8.305   5.504  14.191  1.00  0.00     0.154 C 
HETATM   24  C5  UNL     1      -8.477   7.002  14.519  1.00  0.00     0.182 C 
HETATM   25  C30 UNL     1      -7.141   7.782  14.385  1.00  0.00     0.152 C 
HETATM   26  O7  UNL     1      -6.211   7.101  13.548  1.00  0.00    -0.353 OA
HETATM   27  C31 UNL     1      -6.481   8.195  15.702  1.00  0.00     0.042 C 
BRANCH  23  28
HETATM   28  O3  UNL     1      -8.513   5.290  12.790  1.00  0.00    -0.393 OA
HETATM   29  H10 UNL     1      -8.164   4.405  12.568  1.00  0.00     0.210 HD
ENDBRANCH  23  28
BRANCH  24  30
HETATM   30  O2  UNL     1      -8.992   7.223  15.839  1.00  0.00    -0.351 OA
BRANCH  30  31
HETATM   31  C4  UNL     1     -10.278   7.832  15.889  1.00  0.00     0.263 C 
HETATM   32  C3  UNL     1     -10.950   7.555  14.545  1.00  0.00     0.095 C 
HETATM   33  C2  UNL     1     -11.934   8.656  14.184  1.00  0.00     0.156 C 
HETATM   34  C34 UNL     1     -11.241  10.041  14.172  1.00  0.00     0.175 C 
HETATM   35  C32 UNL     1      -9.926  10.000  14.979  1.00  0.00     0.151 C 
HETATM   36  O8  UNL     1     -10.152   9.227  16.170  1.00  0.00    -0.354 OA
HETATM   37  C33 UNL     1      -9.418  11.378  15.385  1.00  0.00     0.042 C 
BRANCH  33  38
HETATM   38  O1  UNL     1     -12.473   8.321  12.895  1.00  0.00    -0.388 OA
HETATM   39  C1  UNL     1     -13.396   7.237  12.938  1.00  0.00     0.202 C 
ENDBRANCH  33  38
BRANCH  34  40
HETATM   40  O9  UNL     1     -12.164  10.988  14.750  1.00  0.00    -0.390 OA
HETATM   41  H56 UNL     1     -12.152  10.833  15.706  1.00  0.00     0.210 HD
ENDBRANCH  34  40
ENDBRANCH  30  31
ENDBRANCH  24  30
ENDBRANCH  20  21
ENDBRANCH   1  20
BRANCH  15  42
HETATM   42  O6  UNL     1       2.733   5.930  12.227  1.00  0.00    -0.389 OA
HETATM   43  H39 UNL     1       3.540   5.406  12.070  1.00  0.00     0.210 HD
ENDBRANCH  15  42
BRANCH  12  44
HETATM   44  C21 UNL     1       4.711   8.374   9.877  1.00  0.00     0.119 C 
HETATM   45  C22 UNL     1       5.383   7.318  10.747  1.00  0.00     0.040 C 
BRANCH  44  46
HETATM   46  O5  UNL     1       4.836   9.631  10.539  1.00  0.00    -0.396 OA
HETATM   47  H34 UNL     1       5.751   9.926  10.418  1.00  0.00     0.210 HD
ENDBRANCH  44  46
ENDBRANCH  12  44
TORSDOF 10
ENDMDL
MODEL 4
REMARK minimizedAffinity -7.96634722
REMARK CNNscore 0.511615992
REMARK CNNaffinity 6.66626883
REMARK  10 active torsions:
REMARK  status: ('A' for Active; 'I' for Inactive)
REMARK    1  A    between atoms: O1_2  and  C2_3 
REMARK    2  A    between atoms: C4_5  and  O2_6 
REMARK    3  A    between atoms: O2_6  and  C5_7 
REMARK    4  A    between atoms: C6_8  and  O3_9 
REMARK    5  A    between atoms: C8_11  and  O4_12 
REMARK    6  A    between atoms: O4_12  and  C9_13 
REMARK    7  A    between atoms: C20_24  and  C21_25 
REMARK    8  A    between atoms: C21_25  and  O5_27 
REMARK    9  A    between atoms: C25_30  and  O6_31 
REMARK   10  A    between atoms: C34_42  and  O9_43 
ROOT
HETATM    1  C9  UNL     1      -3.397  11.814  17.145  1.00  0.00     0.046 C 
HETATM    2  C10 UNL     1      -4.234  12.702  16.590  1.00  0.00     0.011 C 
HETATM    3  C11 UNL     1      -4.936  13.805  17.359  1.00  0.00     0.019 C 
HETATM    4  C12 UNL     1      -6.452  13.651  17.132  1.00  0.00     0.010 C 
HETATM    5  C13 UNL     1      -7.279  14.479  18.105  1.00  0.00     0.009 C 
HETATM    6  C14 UNL     1      -7.100  13.989  19.560  1.00  0.00     0.025 C 
HETATM    7  C15 UNL     1      -5.683  13.375  19.795  1.00  0.00     0.001 C 
HETATM    8  C16 UNL     1      -5.325  13.213  21.281  1.00  0.00     0.007 C 
HETATM    9  C17 UNL     1      -6.539  13.325  22.199  1.00  0.00     0.013 C 
HETATM   10  C18 UNL     1      -7.221  14.720  22.109  1.00  0.00    -0.007 C 
HETATM   11  C19 UNL     1      -6.247  15.765  22.701  1.00  0.00     0.019 C 
HETATM   12  C20 UNL     1      -8.576  14.653  22.920  1.00  0.00     0.025 C 
HETATM   13  C23 UNL     1      -9.594  14.250  21.846  1.00  0.00     0.011 C 
HETATM   14  C24 UNL     1      -9.179  15.025  20.603  1.00  0.00     0.039 C 
HETATM   15  C25 UNL     1      -7.623  15.025  20.617  1.00  0.00     0.070 C 
HETATM   16  C26 UNL     1      -4.530  13.942  18.883  1.00  0.00    -0.033 C 
HETATM   17  C27 UNL     1      -4.257  15.438  19.182  1.00  0.00     0.016 C 
HETATM   18  C28 UNL     1      -3.171  13.217  19.151  1.00  0.00     0.016 C 
HETATM   19  C29 UNL     1      -3.124  11.791  18.619  1.00  0.00     0.065 C 
ENDROOT
BRANCH   1  20
HETATM   20  O4  UNL     1      -2.694  10.910  16.363  1.00  0.00    -0.325 OA
BRANCH  20  21
HETATM   21  C8  UNL     1      -3.558   9.833  15.922  1.00  0.00     0.269 C 
HETATM   22  C7  UNL     1      -2.890   8.508  16.296  1.00  0.00     0.095 C 
HETATM   23  C6  UNL     1      -2.266   7.803  15.098  1.00  0.00     0.154 C 
HETATM   24  C5  UNL     1      -3.302   7.596  13.972  1.00  0.00     0.182 C 
HETATM   25  C30 UNL     1      -4.331   8.756  13.910  1.00  0.00     0.152 C 
HETATM   26  O7  UNL     1      -3.834   9.939  14.527  1.00  0.00    -0.353 OA
HETATM   27  C31 UNL     1      -5.733   8.425  14.428  1.00  0.00     0.042 C 
BRANCH  23  28
HETATM   28  O3  UNL     1      -1.150   8.546  14.594  1.00  0.00    -0.393 OA
HETATM   29  H10 UNL     1      -0.639   8.873  15.360  1.00  0.00     0.210 HD
ENDBRANCH  23  28
BRANCH  24  30
HETATM   30  O2  UNL     1      -4.024   6.364  14.107  1.00  0.00    -0.351 OA
BRANCH  30  31
HETATM   31  C4  UNL     1      -4.516   5.818  12.887  1.00  0.00     0.263 C 
HETATM   32  C3  UNL     1      -5.552   4.761  13.263  1.00  0.00     0.095 C 
HETATM   33  C2  UNL     1      -5.629   3.666  12.212  1.00  0.00     0.156 C 
HETATM   34  C34 UNL     1      -4.242   3.014  11.983  1.00  0.00     0.175 C 
HETATM   35  C32 UNL     1      -3.115   3.939  12.488  1.00  0.00     0.151 C 
HETATM   36  O8  UNL     1      -3.437   5.289  12.113  1.00  0.00    -0.354 OA
HETATM   37  C33 UNL     1      -1.744   3.593  11.920  1.00  0.00     0.042 C 
BRANCH  33  38
HETATM   38  O1  UNL     1      -6.593   2.711  12.680  1.00  0.00    -0.388 OA
HETATM   39  C1  UNL     1      -7.760   3.315  13.230  1.00  0.00     0.202 C 
ENDBRANCH  33  38
BRANCH  34  40
HETATM   40  O9  UNL     1      -4.108   2.775  10.566  1.00  0.00    -0.390 OA
HETATM   41  H56 UNL     1      -3.929   3.636  10.159  1.00  0.00     0.210 HD
ENDBRANCH  34  40
ENDBRANCH  30  31
ENDBRANCH  24  30
ENDBRANCH  20  21
ENDBRANCH   1  20
BRANCH  15  42
HETATM   42  O6  UNL     1      -7.136  16.318  20.255  1.00  0.00    -0.389 OA
HETATM   43  H39 UNL     1      -7.893  16.916  20.114  1.00  0.00     0.210 HD
ENDBRANCH  15  42
BRANCH  12  44
HETATM   44  C21 UNL     1      -8.986  15.934  23.695  1.00  0.00     0.119 C 
HETATM   45  C22 UNL     1      -8.775  15.825  25.201  1.00  0.00     0.040 C 
BRANCH  44  46
HETATM   46  O5  UNL     1     -10.352  16.278  23.469  1.00  0.00    -0.396 OA
HETATM   47  H34 UNL     1     -10.447  17.218  23.682  1.00  0.00     0.210 HD
ENDBRANCH  44  46
ENDBRANCH  12  44
TORSDOF 10
ENDMDL
MODEL 5
REMARK minimizedAffinity -8.54284382
REMARK CNNscore 0.500207365
REMARK CNNaffinity 6.96486807
REMARK  10 active torsions:
REMARK  status: ('A' for Active; 'I' for Inactive)
REMARK    1  A    between atoms: O1_2  and  C2_3 
REMARK    2  A    between atoms: C4_5  and  O2_6 
REMARK    3  A    between atoms: O2_6  and  C5_7 
REMARK    4  A    between atoms: C6_8  and  O3_9 
REMARK    5  A    between atoms: C8_11  and  O4_12 
REMARK    6  A    between atoms: O4_12  and  C9_13 
REMARK    7  A    between atoms: C20_24  and  C21_25 
REMARK    8  A    between atoms: C21_25  and  O5_27 
REMARK    9  A    between atoms: C25_30  and  O6_31 
REMARK   10  A    between atoms: C34_42  and  O9_43 
ROOT
HETATM    1  C9  UNL     1      -7.556   6.325  13.514  1.00  0.00     0.046 C 
HETATM    2  C10 UNL     1      -6.922   5.150  13.639  1.00  0.00     0.011 C 
HETATM    3  C11 UNL     1      -5.451   5.010  13.981  1.00  0.00     0.019 C 
HETATM    4  C12 UNL     1      -4.782   4.182  12.868  1.00  0.00     0.010 C 
HETATM    5  C13 UNL     1      -3.262   4.252  12.917  1.00  0.00     0.009 C 
HETATM    6  C14 UNL     1      -2.752   5.683  12.631  1.00  0.00     0.025 C 
HETATM    7  C15 UNL     1      -3.773   6.767  13.103  1.00  0.00     0.001 C 
HETATM    8  C16 UNL     1      -3.171   8.180  13.182  1.00  0.00     0.007 C 
HETATM    9  C17 UNL     1      -1.843   8.302  12.439  1.00  0.00     0.013 C 
HETATM   10  C18 UNL     1      -0.746   7.375  13.035  1.00  0.00    -0.007 C 
HETATM   11  C19 UNL     1      -0.396   7.897  14.447  1.00  0.00     0.019 C 
HETATM   12  C20 UNL     1       0.503   7.414  12.067  1.00  0.00     0.025 C 
HETATM   13  C23 UNL     1       0.234   6.240  11.119  1.00  0.00     0.011 C 
HETATM   14  C24 UNL     1      -0.343   5.145  12.004  1.00  0.00     0.039 C 
HETATM   15  C25 UNL     1      -1.247   5.881  13.034  1.00  0.00     0.070 C 
HETATM   16  C26 UNL     1      -4.694   6.360  14.314  1.00  0.00    -0.033 C 
HETATM   17  C27 UNL     1      -3.868   6.149  15.608  1.00  0.00     0.016 C 
HETATM   18  C28 UNL     1      -5.720   7.487  14.665  1.00  0.00     0.016 C 
HETATM   19  C29 UNL     1      -6.838   7.634  13.640  1.00  0.00     0.065 C 
ENDROOT
BRANCH   1  20
HETATM   20  O4  UNL     1      -8.928   6.378  13.322  1.00  0.00    -0.325 OA
BRANCH  20  21
HETATM   21  C8  UNL     1      -9.584   6.970  14.470  1.00  0.00     0.269 C 
HETATM   22  C7  UNL     1     -11.078   6.644  14.382  1.00  0.00     0.095 C 
HETATM   23  C6  UNL     1     -11.917   7.837  13.939  1.00  0.00     0.154 C 
HETATM   24  C5  UNL     1     -11.676   9.057  14.853  1.00  0.00     0.182 C 
HETATM   25  C30 UNL     1     -10.213   9.116  15.369  1.00  0.00     0.152 C 
HETATM   26  O7  UNL     1      -9.328   8.372  14.538  1.00  0.00    -0.353 OA
HETATM   27  C31 UNL     1     -10.015   8.744  16.840  1.00  0.00     0.042 C 
BRANCH  23  28
HETATM   28  O3  UNL     1     -11.626   8.187  12.581  1.00  0.00    -0.393 OA
HETATM   29  H10 UNL     1     -11.546   7.359  12.069  1.00  0.00     0.210 HD
ENDBRANCH  23  28
BRANCH  24  30
HETATM   30  O2  UNL     1     -12.552   9.077  15.988  1.00  0.00    -0.351 OA
BRANCH  30  31
HETATM   31  C4  UNL     1     -13.589  10.051  15.931  1.00  0.00     0.263 C 
HETATM   32  C3  UNL     1     -12.992  11.293  15.271  1.00  0.00     0.095 C 
HETATM   33  C2  UNL     1     -13.680  12.559  15.757  1.00  0.00     0.156 C 
HETATM   34  C34 UNL     1     -13.612  12.674  17.301  1.00  0.00     0.175 C 
HETATM   35  C32 UNL     1     -13.323  11.298  17.937  1.00  0.00     0.151 C 
HETATM   36  O8  UNL     1     -14.098  10.308  17.241  1.00  0.00    -0.354 OA
HETATM   37  C33 UNL     1     -13.669  11.230  19.420  1.00  0.00     0.042 C 
BRANCH  33  38
HETATM   38  O1  UNL     1     -13.020  13.660  15.113  1.00  0.00    -0.388 OA
HETATM   39  C1  UNL     1     -12.914  13.502  13.701  1.00  0.00     0.202 C 
ENDBRANCH  33  38
BRANCH  34  40
HETATM   40  O9  UNL     1     -14.883  13.187  17.750  1.00  0.00    -0.390 OA
HETATM   41  H56 UNL     1     -15.511  12.451  17.691  1.00  0.00     0.210 HD
ENDBRANCH  34  40
ENDBRANCH  30  31
ENDBRANCH  24  30
ENDBRANCH  20  21
ENDBRANCH   1  20
BRANCH  15  42
HETATM   42  O6  UNL     1      -1.056   5.321  14.335  1.00  0.00    -0.389 OA
HETATM   43  H39 UNL     1      -0.374   4.626  14.285  1.00  0.00     0.210 HD
ENDBRANCH  15  42
BRANCH  12  44
HETATM   44  C21 UNL     1       1.903   7.346  12.736  1.00  0.00     0.119 C 
HETATM   45  C22 UNL     1       3.032   7.064  11.751  1.00  0.00     0.040 C 
BRANCH  44  46
HETATM   46  O5  UNL     1       1.955   6.354  13.759  1.00  0.00    -0.396 OA
HETATM   47  H34 UNL     1       2.695   6.584  14.340  1.00  0.00     0.210 HD
ENDBRANCH  44  46
ENDBRANCH  12  44
TORSDOF 10
ENDMDL
MODEL 6
REMARK minimizedAffinity -8.0836916
REMARK CNNscore 0.480633885
REMARK CNNaffinity 6.82067871
REMARK  10 active torsions:
REMARK  status: ('A' for Active; 'I' for Inactive)
REMARK    1  A    between atoms: O1_2  and  C2_3 
REMARK    2  A    between atoms: C4_5  and  O2_6 
REMARK    3  A    between atoms: O2_6  and  C5_7 
REMARK    4  A    between atoms: C6_8  and  O3_9 
REMARK    5  A    between atoms: C8_11  and  O4_12 
REMARK    6  A    between atoms: O4_12  and  C9_13 
REMARK    7  A    between atoms: C20_24  and  C21_25 
REMARK    8  A    between atoms: C21_25  and  O5_27 
REMARK    9  A    between atoms: C25_30  and  O6_31 
REMARK   10  A    between atoms: C34_42  and  O9_43 
ROOT
HETATM    1  C9  UNL     1     -16.016   6.907  14.558  1.00  0.00     0.046 C 
HETATM    2  C10 UNL     1     -17.016   6.559  13.735  1.00  0.00     0.011 C 
HETATM    3  C11 UNL     1     -17.724   5.219  13.776  1.00  0.00     0.019 C 
HETATM    4  C12 UNL     1     -17.612   4.580  12.378  1.00  0.00     0.010 C 
HETATM    5  C13 UNL     1     -17.984   3.104  12.375  1.00  0.00     0.009 C 
HETATM    6  C14 UNL     1     -16.990   2.268  13.213  1.00  0.00     0.025 C 
HETATM    7  C15 UNL     1     -16.385   3.097  14.392  1.00  0.00     0.001 C 
HETATM    8  C16 UNL     1     -15.691   2.230  15.455  1.00  0.00     0.007 C 
HETATM    9  C17 UNL     1     -15.406   0.811  14.971  1.00  0.00     0.013 C 
HETATM   10  C18 UNL     1     -16.707   0.034  14.621  1.00  0.00    -0.007 C 
HETATM   11  C19 UNL     1     -17.488  -0.203  15.933  1.00  0.00     0.019 C 
HETATM   12  C20 UNL     1     -16.291  -1.325  13.929  1.00  0.00     0.025 C 
HETATM   13  C23 UNL     1     -16.284  -0.959  12.440  1.00  0.00     0.011 C 
HETATM   14  C24 UNL     1     -17.483  -0.040  12.256  1.00  0.00     0.039 C 
HETATM   15  C25 UNL     1     -17.534   0.833  13.543  1.00  0.00     0.070 C 
HETATM   16  C26 UNL     1     -17.294   4.253  14.954  1.00  0.00    -0.033 C 
HETATM   17  C27 UNL     1     -18.578   3.692  15.617  1.00  0.00     0.016 C 
HETATM   18  C28 UNL     1     -16.572   5.060  16.083  1.00  0.00     0.016 C 
HETATM   19  C29 UNL     1     -15.452   5.956  15.570  1.00  0.00     0.065 C 
ENDROOT
BRANCH   1  20
HETATM   20  O4  UNL     1     -15.498   8.193  14.548  1.00  0.00    -0.325 OA
BRANCH  20  21
HETATM   21  C8  UNL     1     -14.168   8.205  13.972  1.00  0.00     0.269 C 
HETATM   22  C7  UNL     1     -13.269   7.320  14.840  1.00  0.00     0.095 C 
HETATM   23  C6  UNL     1     -12.329   8.125  15.728  1.00  0.00     0.154 C 
HETATM   24  C5  UNL     1     -11.485   9.113  14.895  1.00  0.00     0.182 C 
HETATM   25  C30 UNL     1     -12.269   9.658  13.672  1.00  0.00     0.152 C 
HETATM   26  O7  UNL     1     -13.678   9.539  13.849  1.00  0.00    -0.353 OA
HETATM   27  C31 UNL     1     -11.847   9.099  12.311  1.00  0.00     0.042 C 
BRANCH  23  28
HETATM   28  O3  UNL     1     -13.063   8.843  16.728  1.00  0.00    -0.393 OA
HETATM   29  H10 UNL     1     -13.760   8.250  17.069  1.00  0.00     0.210 HD
ENDBRANCH  23  28
BRANCH  24  30
HETATM   30  O2  UNL     1     -10.264   8.530  14.420  1.00  0.00    -0.351 OA
BRANCH  30  31
HETATM   31  C4  UNL     1     -10.011   7.206  14.877  1.00  0.00     0.263 C 
HETATM   32  C3  UNL     1      -8.699   7.251  15.658  1.00  0.00     0.095 C 
HETATM   33  C2  UNL     1      -7.971   5.919  15.590  1.00  0.00     0.156 C 
HETATM   34  C34 UNL     1      -7.717   5.497  14.121  1.00  0.00     0.175 C 
HETATM   35  C32 UNL     1      -8.665   6.252  13.165  1.00  0.00     0.151 C 
HETATM   36  O8  UNL     1      -9.968   6.303  13.770  1.00  0.00    -0.354 OA
HETATM   37  C33 UNL     1      -8.793   5.598  11.795  1.00  0.00     0.042 C 
BRANCH  33  38
HETATM   38  O1  UNL     1      -6.742   6.083  16.315  1.00  0.00    -0.388 OA
HETATM   39  C1  UNL     1      -5.862   7.032  15.720  1.00  0.00     0.202 C 
ENDBRANCH  33  38
BRANCH  34  40
HETATM   40  O9  UNL     1      -7.937   4.073  14.039  1.00  0.00    -0.390 OA
HETATM   41  H56 UNL     1      -8.897   3.944  14.059  1.00  0.00     0.210 HD
ENDBRANCH  34  40
ENDBRANCH  30  31
ENDBRANCH  24  30
ENDBRANCH  20  21
ENDBRANCH   1  20
BRANCH  15  42
HETATM   42  O6  UNL     1     -18.886   0.959  13.989  1.00  0.00    -0.389 OA
HETATM   43  H39 UNL     1     -19.465   0.439  13.402  1.00  0.00     0.210 HD
ENDBRANCH  15  42
BRANCH  12  44
HETATM   44  C21 UNL     1     -17.172  -2.563  14.246  1.00  0.00     0.119 C 
HETATM   45  C22 UNL     1     -16.495  -3.567  15.173  1.00  0.00     0.040 C 
BRANCH  44  46
HETATM   46  O5  UNL     1     -17.563  -3.255  13.062  1.00  0.00    -0.396 OA
HETATM   47  H34 UNL     1     -18.348  -3.778  13.283  1.00  0.00     0.210 HD
ENDBRANCH  44  46
ENDBRANCH  12  44
TORSDOF 10
ENDMDL
MODEL 7
REMARK minimizedAffinity -8.51900578
REMARK CNNscore 0.412656963
REMARK CNNaffinity 7.10609293
REMARK  10 active torsions:
REMARK  status: ('A' for Active; 'I' for Inactive)
REMARK    1  A    between atoms: O1_2  and  C2_3 
REMARK    2  A    between atoms: C4_5  and  O2_6 
REMARK    3  A    between atoms: O2_6  and  C5_7 
REMARK    4  A    between atoms: C6_8  and  O3_9 
REMARK    5  A    between atoms: C8_11  and  O4_12 
REMARK    6  A    between atoms: O4_12  and  C9_13 
REMARK    7  A    between atoms: C20_24  and  C21_25 
REMARK    8  A    between atoms: C21_25  and  O5_27 
REMARK    9  A    between atoms: C25_30  and  O6_31 
REMARK   10  A    between atoms: C34_42  and  O9_43 
ROOT
HETATM    1  C9  UNL     1      -6.660   6.241  13.258  1.00  0.00     0.046 C 
HETATM    2  C10 UNL     1      -5.916   5.132  13.375  1.00  0.00     0.011 C 
HETATM    3  C11 UNL     1      -4.452   5.129  13.770  1.00  0.00     0.019 C 
HETATM    4  C12 UNL     1      -3.663   4.407  12.662  1.00  0.00     0.010 C 
HETATM    5  C13 UNL     1      -2.160   4.627  12.771  1.00  0.00     0.009 C 
HETATM    6  C14 UNL     1      -1.787   6.110  12.544  1.00  0.00     0.025 C 
HETATM    7  C15 UNL     1      -2.929   7.072  13.007  1.00  0.00     0.001 C 
HETATM    8  C16 UNL     1      -2.476   8.535  13.148  1.00  0.00     0.007 C 
HETATM    9  C17 UNL     1      -1.142   8.811  12.460  1.00  0.00     0.013 C 
HETATM   10  C18 UNL     1       0.021   7.981  13.073  1.00  0.00    -0.007 C 
HETATM   11  C19 UNL     1       0.266   8.491  14.511  1.00  0.00     0.019 C 
HETATM   12  C20 UNL     1       1.294   8.175  12.155  1.00  0.00     0.025 C 
HETATM   13  C23 UNL     1       1.179   7.010  11.165  1.00  0.00     0.011 C 
HETATM   14  C24 UNL     1       0.685   5.835  11.997  1.00  0.00     0.039 C 
HETATM   15  C25 UNL     1      -0.326   6.445  13.011  1.00  0.00     0.070 C 
HETATM   16  C26 UNL     1      -3.847   6.537  14.169  1.00  0.00    -0.033 C 
HETATM   17  C27 UNL     1      -3.050   6.369  15.488  1.00  0.00     0.016 C 
HETATM   18  C28 UNL     1      -4.994   7.544  14.510  1.00  0.00     0.016 C 
HETATM   19  C29 UNL     1      -6.083   7.611  13.448  1.00  0.00     0.065 C 
ENDROOT
BRANCH   1  20
HETATM   20  O4  UNL     1      -8.023   6.163  13.014  1.00  0.00    -0.325 OA
BRANCH  20  21
HETATM   21  C8  UNL     1      -8.777   6.649  14.153  1.00  0.00     0.269 C 
HETATM   22  C7  UNL     1     -10.203   6.105  14.042  1.00  0.00     0.095 C 
HETATM   23  C6  UNL     1     -11.204   7.161  13.587  1.00  0.00     0.154 C 
HETATM   24  C5  UNL     1     -11.160   8.401  14.504  1.00  0.00     0.182 C 
HETATM   25  C30 UNL     1      -9.730   8.675  15.042  1.00  0.00     0.152 C 
HETATM   26  O7  UNL     1      -8.732   8.072  14.224  1.00  0.00    -0.353 OA
HETATM   27  C31 UNL     1      -9.500   8.334  16.516  1.00  0.00     0.042 C 
BRANCH  23  28
HETATM   28  O3  UNL     1     -10.949   7.553  12.233  1.00  0.00    -0.393 OA
HETATM   29  H10 UNL     1     -10.739   6.747  11.723  1.00  0.00     0.210 HD
ENDBRANCH  23  28
BRANCH  24  30
HETATM   30  O2  UNL     1     -12.046   8.289  15.627  1.00  0.00    -0.351 OA
BRANCH  30  31
HETATM   31  C4  UNL     1     -13.221   9.090  15.548  1.00  0.00     0.263 C 
HETATM   32  C3  UNL     1     -14.097   8.704  16.739  1.00  0.00     0.095 C 
HETATM   33  C2  UNL     1     -15.571   8.906  16.426  1.00  0.00     0.156 C 
HETATM   34  C34 UNL     1     -15.987   8.112  15.162  1.00  0.00     0.175 C 
HETATM   35  C32 UNL     1     -14.749   7.752  14.313  1.00  0.00     0.151 C 
HETATM   36  O8  UNL     1     -13.871   8.889  14.292  1.00  0.00    -0.354 OA
HETATM   37  C33 UNL     1     -15.087   7.374  12.876  1.00  0.00     0.042 C 
BRANCH  33  38
HETATM   38  O1  UNL     1     -16.301   8.478  17.586  1.00  0.00    -0.388 OA
HETATM   39  C1  UNL     1     -16.555   7.076  17.603  1.00  0.00     0.202 C 
ENDBRANCH  33  38
BRANCH  34  40
HETATM   40  O9  UNL     1     -16.895   8.945  14.412  1.00  0.00    -0.390 OA
HETATM   41  H56 UNL     1     -16.352   9.622  13.981  1.00  0.00     0.210 HD
ENDBRANCH  34  40
ENDBRANCH  30  31
ENDBRANCH  24  30
ENDBRANCH  20  21
ENDBRANCH   1  20
BRANCH  15  42
HETATM   42  O6  UNL     1      -0.126   5.867  14.302  1.00  0.00    -0.389 OA
HETATM   43  H39 UNL     1       0.624   5.245  14.260  1.00  0.00     0.210 HD
ENDBRANCH  15  42
BRANCH  12  44
HETATM   44  C21 UNL     1       2.668   8.227  12.875  1.00  0.00     0.119 C 
HETATM   45  C22 UNL     1       3.843   8.434  11.926  1.00  0.00     0.040 C 
BRANCH  44  46
HETATM   46  O5  UNL     1       2.918   7.042  13.629  1.00  0.00    -0.396 OA
HETATM   47  H34 UNL     1       3.586   7.264  14.295  1.00  0.00     0.210 HD
ENDBRANCH  44  46
ENDBRANCH  12  44
TORSDOF 10
ENDMDL
MODEL 8
REMARK minimizedAffinity -8.36893749
REMARK CNNscore 0.402853698
REMARK CNNaffinity 6.90418005
REMARK  10 active torsions:
REMARK  status: ('A' for Active; 'I' for Inactive)
REMARK    1  A    between atoms: O1_2  and  C2_3 
REMARK    2  A    between atoms: C4_5  and  O2_6 
REMARK    3  A    between atoms: O2_6  and  C5_7 
REMARK    4  A    between atoms: C6_8  and  O3_9 
REMARK    5  A    between atoms: C8_11  and  O4_12 
REMARK    6  A    between atoms: O4_12  and  C9_13 
REMARK    7  A    between atoms: C20_24  and  C21_25 
REMARK    8  A    between atoms: C21_25  and  O5_27 
REMARK    9  A    between atoms: C25_30  and  O6_31 
REMARK   10  A    between atoms: C34_42  and  O9_43 
ROOT
HETATM    1  C9  UNL     1      -7.491   6.407  13.492  1.00  0.00     0.046 C 
HETATM    2  C10 UNL     1      -6.862   5.230  13.619  1.00  0.00     0.011 C 
HETATM    3  C11 UNL     1      -5.395   5.082  13.975  1.00  0.00     0.019 C 
HETATM    4  C12 UNL     1      -4.720   4.254  12.866  1.00  0.00     0.010 C 
HETATM    5  C13 UNL     1      -3.200   4.318  12.928  1.00  0.00     0.009 C 
HETATM    6  C14 UNL     1      -2.681   5.748  12.651  1.00  0.00     0.025 C 
HETATM    7  C15 UNL     1      -3.702   6.835  13.117  1.00  0.00     0.001 C 
HETATM    8  C16 UNL     1      -3.095   8.245  13.204  1.00  0.00     0.007 C 
HETATM    9  C17 UNL     1      -1.760   8.363  12.473  1.00  0.00     0.013 C 
HETATM   10  C18 UNL     1      -0.672   7.431  13.077  1.00  0.00    -0.007 C 
HETATM   11  C19 UNL     1      -0.334   7.948  14.494  1.00  0.00     0.019 C 
HETATM   12  C20 UNL     1       0.586   7.467  12.120  1.00  0.00     0.025 C 
HETATM   13  C23 UNL     1       0.320   6.296  11.167  1.00  0.00     0.011 C 
HETATM   14  C24 UNL     1      -0.269   5.201  12.045  1.00  0.00     0.039 C 
HETATM   15  C25 UNL     1      -1.180   5.939  13.068  1.00  0.00     0.070 C 
HETATM   16  C26 UNL     1      -4.636   6.429  14.318  1.00  0.00    -0.033 C 
HETATM   17  C27 UNL     1      -3.822   6.211  15.619  1.00  0.00     0.016 C 
HETATM   18  C28 UNL     1      -5.661   7.559  14.662  1.00  0.00     0.016 C 
HETATM   19  C29 UNL     1      -6.768   7.713  13.628  1.00  0.00     0.065 C 
ENDROOT
BRANCH   1  20
HETATM   20  O4  UNL     1      -8.861   6.466  13.287  1.00  0.00    -0.325 OA
BRANCH  20  21
HETATM   21  C8  UNL     1      -9.531   7.003  14.455  1.00  0.00     0.269 C 
HETATM   22  C7  UNL     1     -10.992   6.547  14.412  1.00  0.00     0.095 C 
HETATM   23  C6  UNL     1     -11.945   7.659  13.995  1.00  0.00     0.154 C 
HETATM   24  C5  UNL     1     -11.785   8.900  14.899  1.00  0.00     0.182 C 
HETATM   25  C30 UNL     1     -10.318   9.089  15.370  1.00  0.00     0.152 C 
HETATM   26  O7  UNL     1      -9.396   8.422  14.513  1.00  0.00    -0.353 OA
HETATM   27  C31 UNL     1     -10.043   8.741  16.834  1.00  0.00     0.042 C 
BRANCH  23  28
HETATM   28  O3  UNL     1     -11.729   8.029  12.627  1.00  0.00    -0.393 OA
HETATM   29  H10 UNL     1     -11.592   7.209  12.115  1.00  0.00     0.210 HD
ENDBRANCH  23  28
BRANCH  24  30
HETATM   30  O2  UNL     1     -12.624   8.848  16.061  1.00  0.00    -0.351 OA
BRANCH  30  31
HETATM   31  C4  UNL     1     -13.995   8.561  15.801  1.00  0.00     0.263 C 
HETATM   32  C3  UNL     1     -14.684   9.899  15.540  1.00  0.00     0.095 C 
HETATM   33  C2  UNL     1     -16.149   9.850  15.940  1.00  0.00     0.156 C 
HETATM   34  C34 UNL     1     -16.309   9.435  17.424  1.00  0.00     0.175 C 
HETATM   35  C32 UNL     1     -15.034   8.729  17.932  1.00  0.00     0.151 C 
HETATM   36  O8  UNL     1     -14.565   7.847  16.899  1.00  0.00    -0.354 OA
HETATM   37  C33 UNL     1     -15.255   7.915  19.201  1.00  0.00     0.042 C 
BRANCH  33  38
HETATM   38  O1  UNL     1     -16.687  11.160  15.695  1.00  0.00    -0.388 OA
HETATM   39  C1  UNL     1     -16.612  11.550  14.327  1.00  0.00     0.202 C 
ENDBRANCH  33  38
BRANCH  34  40
HETATM   40  O9  UNL     1     -17.447   8.551  17.503  1.00  0.00    -0.390 OA
HETATM   41  H56 UNL     1     -17.155   7.698  17.148  1.00  0.00     0.210 HD
ENDBRANCH  34  40
ENDBRANCH  30  31
ENDBRANCH  24  30
ENDBRANCH  20  21
ENDBRANCH   1  20
BRANCH  15  42
HETATM   42  O6  UNL     1      -1.002   5.376  14.369  1.00  0.00    -0.389 OA
HETATM   43  H39 UNL     1      -0.323   4.677  14.324  1.00  0.00     0.210 HD
ENDBRANCH  15  42
BRANCH  12  44
HETATM   44  C21 UNL     1       1.979   7.393  12.802  1.00  0.00     0.119 C 
HETATM   45  C22 UNL     1       3.125   7.188  11.818  1.00  0.00     0.040 C 
BRANCH  44  46
HETATM   46  O5  UNL     1       2.041   6.347  13.770  1.00  0.00    -0.396 OA
HETATM   47  H34 UNL     1       2.769   6.560  14.372  1.00  0.00     0.210 HD
ENDBRANCH  44  46
ENDBRANCH  12  44
TORSDOF 10
ENDMDL
MODEL 9
REMARK minimizedAffinity -9.62570381
REMARK CNNscore 0.397945493
REMARK CNNaffinity 7.11580086
REMARK  10 active torsions:
REMARK  status: ('A' for Active; 'I' for Inactive)
REMARK    1  A    between atoms: O1_2  and  C2_3 
REMARK    2  A    between atoms: C4_5  and  O2_6 
REMARK    3  A    between atoms: O2_6  and  C5_7 
REMARK    4  A    between atoms: C6_8  and  O3_9 
REMARK    5  A    between atoms: C8_11  and  O4_12 
REMARK    6  A    between atoms: O4_12  and  C9_13 
REMARK    7  A    between atoms: C20_24  and  C21_25 
REMARK    8  A    between atoms: C21_25  and  O5_27 
REMARK    9  A    between atoms: C25_30  and  O6_31 
REMARK   10  A    between atoms: C34_42  and  O9_43 
ROOT
HETATM    1  C9  UNL     1      -6.486   5.159  13.334  1.00  0.00     0.046 C 
HETATM    2  C10 UNL     1      -5.596   4.186  13.094  1.00  0.00     0.011 C 
HETATM    3  C11 UNL     1      -4.095   4.354  13.233  1.00  0.00     0.019 C 
HETATM    4  C12 UNL     1      -3.449   3.984  11.885  1.00  0.00     0.010 C 
HETATM    5  C13 UNL     1      -1.995   4.427  11.788  1.00  0.00     0.009 C 
HETATM    6  C14 UNL     1      -1.869   5.967  11.817  1.00  0.00     0.025 C 
HETATM    7  C15 UNL     1      -3.014   6.627  12.650  1.00  0.00     0.001 C 
HETATM    8  C16 UNL     1      -2.736   8.095  13.015  1.00  0.00     0.007 C 
HETATM    9  C17 UNL     1      -1.608   8.708  12.190  1.00  0.00     0.013 C 
HETATM   10  C18 UNL     1      -0.250   7.984  12.417  1.00  0.00    -0.007 C 
HETATM   11  C19 UNL     1       0.200   8.260  13.870  1.00  0.00     0.019 C 
HETATM   12  C20 UNL     1       0.784   8.549  11.362  1.00  0.00     0.025 C 
HETATM   13  C23 UNL     1       0.631   7.579  10.185  1.00  0.00     0.011 C 
HETATM   14  C24 UNL     1       0.464   6.208  10.825  1.00  0.00     0.039 C 
HETATM   15  C25 UNL     1      -0.401   6.449  12.096  1.00  0.00     0.070 C 
HETATM   16  C26 UNL     1      -3.612   5.747  13.811  1.00  0.00    -0.033 C 
HETATM   17  C27 UNL     1      -2.560   5.478  14.917  1.00  0.00     0.016 C 
HETATM   18  C28 UNL     1      -4.792   6.472  14.538  1.00  0.00     0.016 C 
HETATM   19  C29 UNL     1      -6.066   6.549  13.707  1.00  0.00     0.065 C 
ENDROOT
BRANCH   1  20
HETATM   20  O4  UNL     1      -7.849   4.902  13.307  1.00  0.00    -0.325 OA
BRANCH  20  21
HETATM   21  C8  UNL     1      -8.602   6.137  13.212  1.00  0.00     0.269 C 
HETATM   22  C7  UNL     1      -8.163   7.047  14.362  1.00  0.00     0.095 C 
HETATM   23  C6  UNL     1      -9.189   7.114  15.486  1.00  0.00     0.154 C 
HETATM   24  C5  UNL     1     -10.574   7.536  14.952  1.00  0.00     0.182 C 
HETATM   25  C30 UNL     1     -10.830   7.000  13.518  1.00  0.00     0.152 C 
HETATM   26  O7  UNL     1     -10.004   5.880  13.215  1.00  0.00    -0.353 OA
HETATM   27  C31 UNL     1     -10.758   8.043  12.399  1.00  0.00     0.042 C 
BRANCH  23  28
HETATM   28  O3  UNL     1      -9.295   5.851  16.155  1.00  0.00    -0.393 OA
HETATM   29  H10 UNL     1      -8.392   5.494  16.263  1.00  0.00     0.210 HD
ENDBRANCH  23  28
BRANCH  24  30
HETATM   30  O2  UNL     1     -10.750   8.959  14.936  1.00  0.00    -0.351 OA
BRANCH  30  31
HETATM   31  C4  UNL     1     -10.060   9.662  15.964  1.00  0.00     0.263 C 
HETATM   32  C3  UNL     1     -11.081   9.952  17.063  1.00  0.00     0.095 C 
HETATM   33  C2  UNL     1     -10.726  11.219  17.824  1.00  0.00     0.156 C 
HETATM   34  C34 UNL     1     -10.598  12.428  16.864  1.00  0.00     0.175 C 
HETATM   35  C32 UNL     1     -10.379  11.952  15.413  1.00  0.00     0.151 C 
HETATM   36  O8  UNL     1      -9.461  10.847  15.435  1.00  0.00    -0.354 OA
HETATM   37  C33 UNL     1      -9.815  13.032  14.498  1.00  0.00     0.042 C 
BRANCH  33  38
HETATM   38  O1  UNL     1     -11.765  11.420  18.796  1.00  0.00    -0.388 OA
HETATM   39  C1  UNL     1     -11.430  10.918  20.086  1.00  0.00     0.202 C 
ENDBRANCH  33  38
BRANCH  34  40
HETATM   40  O9  UNL     1      -9.478  13.218  17.316  1.00  0.00    -0.390 OA
HETATM   41  H56 UNL     1      -8.680  12.740  17.047  1.00  0.00     0.210 HD
ENDBRANCH  34  40
ENDBRANCH  30  31
ENDBRANCH  24  30
ENDBRANCH  20  21
ENDBRANCH   1  20
BRANCH  15  42
HETATM   42  O6  UNL     1       0.119   5.689  13.188  1.00  0.00    -0.389 OA
HETATM   43  H39 UNL     1       0.921   5.217  12.894  1.00  0.00     0.210 HD
ENDBRANCH  15  42
BRANCH  12  44
HETATM   44  C21 UNL     1       2.253   8.696  11.842  1.00  0.00     0.119 C 
HETATM   45  C22 UNL     1       2.770   7.476  12.596  1.00  0.00     0.040 C 
BRANCH  44  46
HETATM   46  O5  UNL     1       2.426   9.836  12.682  1.00  0.00    -0.396 OA
HETATM   47  H34 UNL     1       3.368  10.062  12.665  1.00  0.00     0.210 HD
ENDBRANCH  44  46
ENDBRANCH  12  44
TORSDOF 10
ENDMDL
