MODEL 1
REMARK minimizedAffinity -8.82459068
REMARK CNNscore 0.591105044
REMARK CNNaffinity 7.30174637
REMARK  13 active torsions:
REMARK  status: ('A' for Active; 'I' for Inactive)
REMARK    1  A    between atoms: C19_21  and  O3_22 
REMARK    2  A    between atoms: C19_21  and  C20_23 
REMARK    3  A    between atoms: C20_23  and  C21_25 
REMARK    4  A    between atoms: C21_25  and  O5_26 
REMARK    5  A    between atoms: O5_26  and  C22_27 
REMARK    6  A    between atoms: C22_27  and  C23_29 
REMARK    7  A    between atoms: C23_29  and  C24_30 
REMARK    8  A    between atoms: C24_30  and  C25_31 
REMARK       I    between atoms: C25_31  and  N1_33 
REMARK    9  A    between atoms: N1_33  and  C26_34 
REMARK   10  A    between atoms: C26_34  and  C27_35 
REMARK   11  A    between atoms: C26_34  and  C34_42 
REMARK   12  A    between atoms: C27_35  and  C28_36 
REMARK   13  A    between atoms: C34_42  and  O9_44 
ROOT
HETATM    1  C20 UNL     1      -5.960   4.531  13.573  1.00  0.00     0.185 C 
HETATM    2  O4  UNL     1      -6.459   4.057  12.545  1.00  0.00    -0.292 OA
ENDROOT
BRANCH   1   3
HETATM    3  C19 UNL     1      -6.904   5.080  14.657  1.00  0.00     0.128 C 
HETATM    4  C14 UNL     1      -7.924   6.133  14.128  1.00  0.00     0.005 C 
HETATM    5  C13 UNL     1      -9.066   5.606  13.250  1.00  0.00     0.091 C 
HETATM    6  C15 UNL     1      -7.185   7.269  13.369  1.00  0.00     0.019 C 
HETATM    7  C16 UNL     1      -8.548   6.590  15.473  1.00  0.00     0.002 C 
HETATM    8  C12 UNL     1     -10.103   6.707  13.074  1.00  0.00     0.133 C 
HETATM    9  C11 UNL     1     -10.700   7.303  14.365  1.00  0.00     0.072 C 
HETATM   10  O2  UNL     1     -10.439   7.061  11.945  1.00  0.00    -0.297 OA
HETATM   11  C2  UNL     1     -11.792   8.415  14.159  1.00  0.00    -0.009 C 
HETATM   12  C10 UNL     1      -9.549   7.745  15.317  1.00  0.00     0.003 C 
HETATM   13  C1  UNL     1     -11.270   9.622  13.345  1.00  0.00     0.021 C 
HETATM   14  C3  UNL     1     -13.016   7.780  13.432  1.00  0.00     0.022 C 
HETATM   15  C7  UNL     1     -12.232   8.944  15.536  1.00  0.00    -0.067 C 
HETATM   16  C4  UNL     1     -14.279   8.626  13.499  1.00  0.00     0.084 C 
HETATM   17  C5  UNL     1     -14.628   8.932  14.929  1.00  0.00     0.149 C 
HETATM   18  O1  UNL     1     -15.786   9.090  15.308  1.00  0.00    -0.293 OA
HETATM   19  C6  UNL     1     -13.517   9.132  15.886  1.00  0.00     0.053 C 
HETATM   20  C8  UNL     1     -11.138   9.294  16.515  1.00  0.00     0.035 C 
HETATM   21  C9  UNL     1     -10.129   8.165  16.674  1.00  0.00     0.010 C 
HETATM   22  C17 UNL     1      -7.341   6.798  16.381  1.00  0.00     0.009 C 
HETATM   23  C18 UNL     1      -6.289   5.782  15.886  1.00  0.00     0.047 C 
BRANCH   3  24
HETATM   24  O3  UNL     1      -7.618   3.930  15.152  1.00  0.00    -0.381 OA
HETATM   25  H25 UNL     1      -7.816   3.369  14.374  1.00  0.00     0.211 HD
ENDBRANCH   3  24
ENDBRANCH   1   3
BRANCH   1  26
HETATM   26  C21 UNL     1      -4.445   4.644  13.728  1.00  0.00     0.260 C 
BRANCH  26  27
HETATM   27  O5  UNL     1      -3.719   5.200  12.638  1.00  0.00    -0.314 OA
BRANCH  27  28
HETATM   28  C22 UNL     1      -2.367   5.069  12.712  1.00  0.00     0.259 C 
HETATM   29  O6  UNL     1      -1.737   4.143  12.221  1.00  0.00    -0.265 OA
BRANCH  28  30
HETATM   30  C23 UNL     1      -1.737   6.147  13.566  1.00  0.00     0.120 C 
BRANCH  30  31
HETATM   31  C24 UNL     1      -0.225   6.031  13.729  1.00  0.00     0.112 C 
BRANCH  31  32
HETATM   32  C25 UNL     1       0.522   6.573  12.528  1.00  0.00     0.218 C 
HETATM   33  O7  UNL     1      -0.009   7.230  11.642  1.00  0.00    -0.274 OA
HETATM   34  N1  UNL     1       1.856   6.248  12.525  1.00  0.00    -0.346 N 
HETATM   35  H32 UNL     1       2.288   5.852  13.355  1.00  0.00     0.163 HD
BRANCH  34  36
HETATM   36  C26 UNL     1       2.779   6.773  11.506  1.00  0.00     0.186 C 
BRANCH  36  37
HETATM   37  C27 UNL     1       3.019   5.748  10.387  1.00  0.00     0.074 C 
BRANCH  37  38
HETATM   38  C28 UNL     1       2.564   6.248   9.036  1.00  0.00    -0.056 A 
HETATM   39  C29 UNL     1       2.893   5.559   7.863  1.00  0.00     0.007 A 
HETATM   40  C30 UNL     1       2.478   6.042   6.620  1.00  0.00     0.001 A 
HETATM   41  C31 UNL     1       1.730   7.216   6.539  1.00  0.00     0.000 A 
HETATM   42  C32 UNL     1       1.404   7.912   7.700  1.00  0.00     0.001 A 
HETATM   43  C33 UNL     1       1.819   7.433   8.944  1.00  0.00     0.007 A 
ENDBRANCH  37  38
ENDBRANCH  36  37
BRANCH  36  44
HETATM   44  C34 UNL     1       4.112   7.137  12.178  1.00  0.00     0.163 C 
HETATM   45  O8  UNL     1       4.334   8.068  12.933  1.00  0.00    -0.648 OA
BRANCH  44  46
HETATM   46  O9  UNL     1       5.125   6.293  11.851  1.00  0.00    -0.775 OA
HETATM   47  H41 UNL     1       5.888   6.664  12.345  1.00  0.00     0.167 HD
ENDBRANCH  44  46
ENDBRANCH  36  44
ENDBRANCH  34  36
ENDBRANCH  31  32
ENDBRANCH  30  31
ENDBRANCH  28  30
ENDBRANCH  27  28
ENDBRANCH  26  27
ENDBRANCH   1  26
TORSDOF 13
ENDMDL
MODEL 2
REMARK minimizedAffinity -8.94179153
REMARK CNNscore 0.536815941
REMARK CNNaffinity 7.58513069
REMARK  13 active torsions:
REMARK  status: ('A' for Active; 'I' for Inactive)
REMARK    1  A    between atoms: C19_21  and  O3_22 
REMARK    2  A    between atoms: C19_21  and  C20_23 
REMARK    3  A    between atoms: C20_23  and  C21_25 
REMARK    4  A    between atoms: C21_25  and  O5_26 
REMARK    5  A    between atoms: O5_26  and  C22_27 
REMARK    6  A    between atoms: C22_27  and  C23_29 
REMARK    7  A    between atoms: C23_29  and  C24_30 
REMARK    8  A    between atoms: C24_30  and  C25_31 
REMARK       I    between atoms: C25_31  and  N1_33 
REMARK    9  A    between atoms: N1_33  and  C26_34 
REMARK   10  A    between atoms: C26_34  and  C27_35 
REMARK   11  A    between atoms: C26_34  and  C34_42 
REMARK   12  A    between atoms: C27_35  and  C28_36 
REMARK   13  A    between atoms: C34_42  and  O9_44 
ROOT
HETATM    1  C20 UNL     1      -0.572   4.109  11.698  1.00  0.00     0.185 C 
HETATM    2  O4  UNL     1       0.062   3.074  11.941  1.00  0.00    -0.292 OA
ENDROOT
BRANCH   1   3
HETATM    3  C19 UNL     1      -2.094   4.004  11.498  1.00  0.00     0.128 C 
HETATM    4  C14 UNL     1      -2.925   4.595  12.676  1.00  0.00     0.005 C 
HETATM    5  C13 UNL     1      -2.941   6.123  12.809  1.00  0.00     0.091 C 
HETATM    6  C15 UNL     1      -2.470   3.975  14.026  1.00  0.00     0.019 C 
HETATM    7  C16 UNL     1      -4.347   4.154  12.240  1.00  0.00     0.002 C 
HETATM    8  C12 UNL     1      -4.016   6.521  13.813  1.00  0.00     0.133 C 
HETATM    9  C11 UNL     1      -5.448   6.030  13.519  1.00  0.00     0.072 C 
HETATM   10  O2  UNL     1      -3.723   7.217  14.784  1.00  0.00    -0.297 OA
HETATM   11  C2  UNL     1      -6.546   6.480  14.550  1.00  0.00    -0.009 C 
HETATM   12  C10 UNL     1      -5.432   4.492  13.273  1.00  0.00     0.003 C 
HETATM   13  C1  UNL     1      -6.235   6.018  15.993  1.00  0.00     0.021 C 
HETATM   14  C3  UNL     1      -6.660   8.033  14.507  1.00  0.00     0.022 C 
HETATM   15  C7  UNL     1      -7.894   5.855  14.148  1.00  0.00    -0.067 C 
HETATM   16  C4  UNL     1      -7.920   8.577  15.165  1.00  0.00     0.084 C 
HETATM   17  C5  UNL     1      -9.142   7.951  14.552  1.00  0.00     0.149 C 
HETATM   18  O1  UNL     1     -10.217   8.539  14.471  1.00  0.00    -0.293 OA
HETATM   19  C6  UNL     1      -9.051   6.541  14.110  1.00  0.00     0.053 C 
HETATM   20  C8  UNL     1      -7.893   4.383  13.813  1.00  0.00     0.035 C 
HETATM   21  C9  UNL     1      -6.816   4.027  12.798  1.00  0.00     0.010 C 
HETATM   22  C17 UNL     1      -4.166   2.696  11.833  1.00  0.00     0.009 C 
HETATM   23  C18 UNL     1      -2.719   2.606  11.302  1.00  0.00     0.047 C 
BRANCH   3  24
HETATM   24  O3  UNL     1      -2.369   4.751  10.297  1.00  0.00    -0.381 OA
HETATM   25  H25 UNL     1      -1.793   5.543  10.324  1.00  0.00     0.211 HD
ENDBRANCH   3  24
ENDBRANCH   1   3
BRANCH   1  26
HETATM   26  C21 UNL     1       0.148   5.445  11.522  1.00  0.00     0.260 C 
BRANCH  26  27
HETATM   27  O5  UNL     1       0.550   5.797  10.203  1.00  0.00    -0.314 OA
BRANCH  27  28
HETATM   28  C22 UNL     1       0.851   7.111  10.018  1.00  0.00     0.259 C 
HETATM   29  O6  UNL     1       0.560   8.001  10.805  1.00  0.00    -0.265 OA
BRANCH  28  30
HETATM   30  C23 UNL     1       1.496   7.363   8.673  1.00  0.00     0.120 C 
BRANCH  30  31
HETATM   31  C24 UNL     1       2.922   7.900   8.740  1.00  0.00     0.112 C 
BRANCH  31  32
HETATM   32  C25 UNL     1       3.787   7.107   9.697  1.00  0.00     0.218 C 
HETATM   33  O7  UNL     1       4.024   5.913   9.564  1.00  0.00    -0.274 OA
HETATM   34  N1  UNL     1       4.276   7.857  10.737  1.00  0.00    -0.346 N 
HETATM   35  H32 UNL     1       4.200   8.870  10.719  1.00  0.00     0.163 HD
BRANCH  34  36
HETATM   36  C26 UNL     1       5.229   7.302  11.713  1.00  0.00     0.186 C 
BRANCH  36  37
HETATM   37  C27 UNL     1       5.148   8.042  13.057  1.00  0.00     0.074 C 
BRANCH  37  38
HETATM   38  C28 UNL     1       6.510   8.364  13.625  1.00  0.00    -0.056 A 
HETATM   39  C29 UNL     1       7.121   9.599  13.379  1.00  0.00     0.007 A 
HETATM   40  C30 UNL     1       8.388   9.877  13.897  1.00  0.00     0.001 A 
HETATM   41  C31 UNL     1       9.054   8.923  14.666  1.00  0.00     0.000 A 
HETATM   42  C32 UNL     1       8.457   7.689  14.910  1.00  0.00     0.001 A 
HETATM   43  C33 UNL     1       7.192   7.407  14.392  1.00  0.00     0.007 A 
ENDBRANCH  37  38
ENDBRANCH  36  37
BRANCH  36  44
HETATM   44  C34 UNL     1       6.651   7.409  11.142  1.00  0.00     0.163 C 
HETATM   45  O8  UNL     1       7.566   6.615  11.274  1.00  0.00    -0.648 OA
BRANCH  44  46
HETATM   46  O9  UNL     1       6.856   8.542  10.422  1.00  0.00    -0.775 OA
HETATM   47  H41 UNL     1       7.794   8.460  10.144  1.00  0.00     0.167 HD
ENDBRANCH  44  46
ENDBRANCH  36  44
ENDBRANCH  34  36
ENDBRANCH  31  32
ENDBRANCH  30  31
ENDBRANCH  28  30
ENDBRANCH  27  28
ENDBRANCH  26  27
ENDBRANCH   1  26
TORSDOF 13
ENDMDL
MODEL 3
REMARK minimizedAffinity -8.63137817
REMARK CNNscore 0.508296728
REMARK CNNaffinity 6.26965141
REMARK  13 active torsions:
REMARK  status: ('A' for Active; 'I' for Inactive)
REMARK    1  A    between atoms: C19_21  and  O3_22 
REMARK    2  A    between atoms: C19_21  and  C20_23 
REMARK    3  A    between atoms: C20_23  and  C21_25 
REMARK    4  A    between atoms: C21_25  and  O5_26 
REMARK    5  A    between atoms: O5_26  and  C22_27 
REMARK    6  A    between atoms: C22_27  and  C23_29 
REMARK    7  A    between atoms: C23_29  and  C24_30 
REMARK    8  A    between atoms: C24_30  and  C25_31 
REMARK       I    between atoms: C25_31  and  N1_33 
REMARK    9  A    between atoms: N1_33  and  C26_34 
REMARK   10  A    between atoms: C26_34  and  C27_35 
REMARK   11  A    between atoms: C26_34  and  C34_42 
REMARK   12  A    between atoms: C27_35  and  C28_36 
REMARK   13  A    between atoms: C34_42  and  O9_44 
ROOT
HETATM    1  C20 UNL     1      -0.792  10.656  17.183  1.00  0.00     0.185 C 
HETATM    2  O4  UNL     1      -1.974  10.373  17.415  1.00  0.00    -0.292 OA
ENDROOT
BRANCH   1   3
HETATM    3  C19 UNL     1      -0.179  11.874  17.897  1.00  0.00     0.128 C 
HETATM    4  C14 UNL     1       0.727  11.502  19.108  1.00  0.00     0.005 C 
HETATM    5  C13 UNL     1       2.088  10.874  18.784  1.00  0.00     0.091 C 
HETATM    6  C15 UNL     1      -0.037  10.573  20.091  1.00  0.00     0.019 C 
HETATM    7  C16 UNL     1       0.996  12.919  19.678  1.00  0.00     0.002 C 
HETATM    8  C12 UNL     1       2.936  10.849  20.049  1.00  0.00     0.133 C 
HETATM    9  C11 UNL     1       3.165  12.203  20.750  1.00  0.00     0.072 C 
HETATM   10  O2  UNL     1       3.414   9.788  20.448  1.00  0.00    -0.297 OA
HETATM   11  C2  UNL     1       4.070  12.158  22.035  1.00  0.00    -0.009 C 
HETATM   12  C10 UNL     1       1.796  12.906  20.990  1.00  0.00     0.003 C 
HETATM   13  C1  UNL     1       3.513  11.214  23.126  1.00  0.00     0.021 C 
HETATM   14  C3  UNL     1       5.499  11.699  21.620  1.00  0.00     0.022 C 
HETATM   15  C7  UNL     1       4.142  13.571  22.643  1.00  0.00    -0.067 C 
HETATM   16  C4  UNL     1       6.564  11.964  22.675  1.00  0.00     0.084 C 
HETATM   17  C5  UNL     1       6.577  13.421  23.049  1.00  0.00     0.149 C 
HETATM   18  O1  UNL     1       7.597  14.002  23.411  1.00  0.00    -0.293 OA
HETATM   19  C6  UNL     1       5.286  14.146  23.057  1.00  0.00     0.053 C 
HETATM   20  C8  UNL     1       2.838  14.315  22.803  1.00  0.00     0.035 C 
HETATM   21  C9  UNL     1       2.026  14.329  21.516  1.00  0.00     0.010 C 
HETATM   22  C17 UNL     1      -0.379  13.578  19.678  1.00  0.00     0.009 C 
HETATM   23  C18 UNL     1      -1.128  12.938  18.488  1.00  0.00     0.047 C 
BRANCH   3  24
HETATM   24  O3  UNL     1       0.614  12.540  16.894  1.00  0.00    -0.381 OA
HETATM   25  H25 UNL     1       1.048  11.836  16.371  1.00  0.00     0.211 HD
ENDBRANCH   3  24
ENDBRANCH   1   3
BRANCH   1  26
HETATM   26  C21 UNL     1       0.015   9.868  16.153  1.00  0.00     0.260 C 
BRANCH  26  27
HETATM   27  O5  UNL     1      -0.618   8.744  15.554  1.00  0.00    -0.314 OA
BRANCH  27  28
HETATM   28  C22 UNL     1       0.102   7.590  15.579  1.00  0.00     0.259 C 
HETATM   29  O6  UNL     1       0.933   7.315  16.433  1.00  0.00    -0.265 OA
BRANCH  28  30
HETATM   30  C23 UNL     1      -0.166   6.725  14.367  1.00  0.00     0.120 C 
BRANCH  30  31
HETATM   31  C24 UNL     1       1.055   5.988  13.825  1.00  0.00     0.112 C 
BRANCH  31  32
HETATM   32  C25 UNL     1       1.728   6.748  12.700  1.00  0.00     0.218 C 
HETATM   33  O7  UNL     1       1.266   7.765  12.200  1.00  0.00    -0.274 OA
HETATM   34  N1  UNL     1       2.907   6.178  12.289  1.00  0.00    -0.346 N 
HETATM   35  H32 UNL     1       3.338   5.440  12.838  1.00  0.00     0.163 HD
BRANCH  34  36
HETATM   36  C26 UNL     1       3.771   6.823  11.287  1.00  0.00     0.186 C 
BRANCH  36  37
HETATM   37  C27 UNL     1       3.887   5.969  10.015  1.00  0.00     0.074 C 
BRANCH  37  38
HETATM   38  C28 UNL     1       3.092   6.535   8.862  1.00  0.00    -0.056 A 
HETATM   39  C29 UNL     1       2.559   7.829   8.919  1.00  0.00     0.007 A 
HETATM   40  C30 UNL     1       1.812   8.333   7.852  1.00  0.00     0.001 A 
HETATM   41  C31 UNL     1       1.593   7.549   6.720  1.00  0.00     0.000 A 
HETATM   42  C32 UNL     1       2.114   6.260   6.657  1.00  0.00     0.001 A 
HETATM   43  C33 UNL     1       2.858   5.752   7.722  1.00  0.00     0.007 A 
ENDBRANCH  37  38
ENDBRANCH  36  37
BRANCH  36  44
HETATM   44  C34 UNL     1       5.164   7.047  11.896  1.00  0.00     0.163 C 
HETATM   45  O8  UNL     1       5.628   8.089  12.326  1.00  0.00    -0.648 OA
BRANCH  44  46
HETATM   46  O9  UNL     1       5.923   5.921  11.926  1.00  0.00    -0.775 OA
HETATM   47  H41 UNL     1       6.764   6.233  12.326  1.00  0.00     0.167 HD
ENDBRANCH  44  46
ENDBRANCH  36  44
ENDBRANCH  34  36
ENDBRANCH  31  32
ENDBRANCH  30  31
ENDBRANCH  28  30
ENDBRANCH  27  28
ENDBRANCH  26  27
ENDBRANCH   1  26
TORSDOF 13
ENDMDL
MODEL 4
REMARK minimizedAffinity -9.13031387
REMARK CNNscore 0.453274697
REMARK CNNaffinity 6.77110434
REMARK  13 active torsions:
REMARK  status: ('A' for Active; 'I' for Inactive)
REMARK    1  A    between atoms: C19_21  and  O3_22 
REMARK    2  A    between atoms: C19_21  and  C20_23 
REMARK    3  A    between atoms: C20_23  and  C21_25 
REMARK    4  A    between atoms: C21_25  and  O5_26 
REMARK    5  A    between atoms: O5_26  and  C22_27 
REMARK    6  A    between atoms: C22_27  and  C23_29 
REMARK    7  A    between atoms: C23_29  and  C24_30 
REMARK    8  A    between atoms: C24_30  and  C25_31 
REMARK       I    between atoms: C25_31  and  N1_33 
REMARK    9  A    between atoms: N1_33  and  C26_34 
REMARK   10  A    between atoms: C26_34  and  C27_35 
REMARK   11  A    between atoms: C26_34  and  C34_42 
REMARK   12  A    between atoms: C27_35  and  C28_36 
REMARK   13  A    between atoms: C34_42  and  O9_44 
ROOT
HETATM    1  C20 UNL     1      -2.751   9.579  15.714  1.00  0.00     0.185 C 
HETATM    2  O4  UNL     1      -3.184  10.529  15.051  1.00  0.00    -0.292 OA
ENDROOT
BRANCH   1   3
HETATM    3  C19 UNL     1      -3.373   8.189  15.491  1.00  0.00     0.128 C 
HETATM    4  C14 UNL     1      -2.874   7.478  14.198  1.00  0.00     0.005 C 
HETATM    5  C13 UNL     1      -1.435   6.948  14.213  1.00  0.00     0.091 C 
HETATM    6  C15 UNL     1      -3.058   8.404  12.964  1.00  0.00     0.019 C 
HETATM    7  C16 UNL     1      -3.819   6.247  14.195  1.00  0.00     0.002 C 
HETATM    8  C12 UNL     1      -1.226   6.047  13.004  1.00  0.00     0.133 C 
HETATM    9  C11 UNL     1      -2.194   4.856  12.857  1.00  0.00     0.072 C 
HETATM   10  O2  UNL     1      -0.307   6.276  12.217  1.00  0.00    -0.297 OA
HETATM   11  C2  UNL     1      -1.939   3.921  11.619  1.00  0.00    -0.009 C 
HETATM   12  C10 UNL     1      -3.664   5.364  12.948  1.00  0.00     0.003 C 
HETATM   13  C1  UNL     1      -2.005   4.679  10.273  1.00  0.00     0.021 C 
HETATM   14  C3  UNL     1      -0.539   3.255  11.781  1.00  0.00     0.022 C 
HETATM   15  C7  UNL     1      -3.024   2.830  11.586  1.00  0.00    -0.067 C 
HETATM   16  C4  UNL     1      -0.317   2.058  10.867  1.00  0.00     0.084 C 
HETATM   17  C5  UNL     1      -1.402   1.037  11.069  1.00  0.00     0.149 C 
HETATM   18  O1  UNL     1      -1.214  -0.168  10.918  1.00  0.00    -0.293 OA
HETATM   19  C6  UNL     1      -2.764   1.526  11.381  1.00  0.00     0.053 C 
HETATM   20  C8  UNL     1      -4.454   3.282  11.764  1.00  0.00     0.035 C 
HETATM   21  C9  UNL     1      -4.625   4.168  12.990  1.00  0.00     0.010 C 
HETATM   22  C17 UNL     1      -5.191   6.843  14.492  1.00  0.00     0.009 C 
HETATM   23  C18 UNL     1      -4.908   8.075  15.378  1.00  0.00     0.047 C 
BRANCH   3  24
HETATM   24  O3  UNL     1      -2.985   7.413  16.642  1.00  0.00    -0.381 OA
HETATM   25  H25 UNL     1      -2.060   7.661  16.846  1.00  0.00     0.211 HD
ENDBRANCH   3  24
ENDBRANCH   1   3
BRANCH   1  26
HETATM   26  C21 UNL     1      -1.683   9.793  16.785  1.00  0.00     0.260 C 
BRANCH  26  27
HETATM   27  O5  UNL     1      -0.361   9.362  16.479  1.00  0.00    -0.314 OA
BRANCH  27  28
HETATM   28  C22 UNL     1       0.551  10.358  16.318  1.00  0.00     0.259 C 
HETATM   29  O6  UNL     1       0.541  11.159  15.394  1.00  0.00    -0.265 OA
BRANCH  28  30
HETATM   30  C23 UNL     1       1.648  10.298  17.359  1.00  0.00     0.120 C 
BRANCH  30  31
HETATM   31  C24 UNL     1       1.248  10.810  18.739  1.00  0.00     0.112 C 
BRANCH  31  32
HETATM   32  C25 UNL     1       2.283  10.477  19.794  1.00  0.00     0.218 C 
HETATM   33  O7  UNL     1       3.464  10.275  19.542  1.00  0.00    -0.274 OA
HETATM   34  N1  UNL     1       1.765  10.415  21.063  1.00  0.00    -0.346 N 
HETATM   35  H32 UNL     1       0.826  10.755  21.250  1.00  0.00     0.163 HD
BRANCH  34  36
HETATM   36  C26 UNL     1       2.624  10.218  22.242  1.00  0.00     0.186 C 
BRANCH  36  37
HETATM   37  C27 UNL     1       4.111  10.360  21.881  1.00  0.00     0.074 C 
BRANCH  37  38
HETATM   38  C28 UNL     1       4.691  11.682  22.323  1.00  0.00    -0.056 A 
HETATM   39  C29 UNL     1       6.054  11.811  22.618  1.00  0.00     0.007 A 
HETATM   40  C30 UNL     1       6.573  13.037  23.041  1.00  0.00     0.001 A 
HETATM   41  C31 UNL     1       5.735  14.144  23.172  1.00  0.00     0.000 A 
HETATM   42  C32 UNL     1       4.378  14.024  22.887  1.00  0.00     0.001 A 
HETATM   43  C33 UNL     1       3.855  12.800  22.467  1.00  0.00     0.007 A 
ENDBRANCH  37  38
ENDBRANCH  36  37
BRANCH  36  44
HETATM   44  C34 UNL     1       2.359   8.823  22.828  1.00  0.00     0.163 C 
HETATM   45  O8  UNL     1       1.991   7.825  22.232  1.00  0.00    -0.648 OA
BRANCH  44  46
HETATM   46  O9  UNL     1       2.567   8.755  24.168  1.00  0.00    -0.775 OA
HETATM   47  H41 UNL     1       2.348   7.821  24.378  1.00  0.00     0.167 HD
ENDBRANCH  44  46
ENDBRANCH  36  44
ENDBRANCH  34  36
ENDBRANCH  31  32
ENDBRANCH  30  31
ENDBRANCH  28  30
ENDBRANCH  27  28
ENDBRANCH  26  27
ENDBRANCH   1  26
TORSDOF 13
ENDMDL
MODEL 5
REMARK minimizedAffinity -8.36664867
REMARK CNNscore 0.447939426
REMARK CNNaffinity 6.9557004
REMARK  13 active torsions:
REMARK  status: ('A' for Active; 'I' for Inactive)
REMARK    1  A    between atoms: C19_21  and  O3_22 
REMARK    2  A    between atoms: C19_21  and  C20_23 
REMARK    3  A    between atoms: C20_23  and  C21_25 
REMARK    4  A    between atoms: C21_25  and  O5_26 
REMARK    5  A    between atoms: O5_26  and  C22_27 
REMARK    6  A    between atoms: C22_27  and  C23_29 
REMARK    7  A    between atoms: C23_29  and  C24_30 
REMARK    8  A    between atoms: C24_30  and  C25_31 
REMARK       I    between atoms: C25_31  and  N1_33 
REMARK    9  A    between atoms: N1_33  and  C26_34 
REMARK   10  A    between atoms: C26_34  and  C27_35 
REMARK   11  A    between atoms: C26_34  and  C34_42 
REMARK   12  A    between atoms: C27_35  and  C28_36 
REMARK   13  A    between atoms: C34_42  and  O9_44 
ROOT
HETATM    1  C20 UNL     1      -3.904   6.003  14.359  1.00  0.00     0.185 C 
HETATM    2  O4  UNL     1      -3.333   5.082  14.957  1.00  0.00    -0.292 OA
ENDROOT
BRANCH   1   3
HETATM    3  C19 UNL     1      -4.971   6.814  15.116  1.00  0.00     0.128 C 
HETATM    4  C14 UNL     1      -6.334   6.911  14.369  1.00  0.00     0.005 C 
HETATM    5  C13 UNL     1      -7.186   5.637  14.321  1.00  0.00     0.091 C 
HETATM    6  C15 UNL     1      -6.124   7.433  12.921  1.00  0.00     0.019 C 
HETATM    7  C16 UNL     1      -7.066   7.922  15.291  1.00  0.00     0.002 C 
HETATM    8  C12 UNL     1      -8.580   5.991  13.819  1.00  0.00     0.133 C 
HETATM    9  C11 UNL     1      -9.342   7.072  14.611  1.00  0.00     0.072 C 
HETATM   10  O2  UNL     1      -9.048   5.409  12.841  1.00  0.00    -0.297 OA
HETATM   11  C2  UNL     1     -10.791   7.398  14.094  1.00  0.00    -0.009 C 
HETATM   12  C10 UNL     1      -8.447   8.338  14.762  1.00  0.00     0.003 C 
HETATM   13  C1  UNL     1     -10.808   7.871  12.622  1.00  0.00     0.021 C 
HETATM   14  C3  UNL     1     -11.671   6.122  14.248  1.00  0.00     0.022 C 
HETATM   15  C7  UNL     1     -11.381   8.534  14.949  1.00  0.00    -0.067 C 
HETATM   16  C4  UNL     1     -13.166   6.388  14.141  1.00  0.00     0.084 C 
HETATM   17  C5  UNL     1     -13.584   7.429  15.143  1.00  0.00     0.149 C 
HETATM   18  O1  UNL     1     -14.702   7.446  15.652  1.00  0.00    -0.293 OA
HETATM   19  C6  UNL     1     -12.629   8.516  15.453  1.00  0.00     0.053 C 
HETATM   20  C8  UNL     1     -10.501   9.737  15.191  1.00  0.00     0.035 C 
HETATM   21  C9  UNL     1      -9.123   9.343  15.705  1.00  0.00     0.010 C 
HETATM   22  C17 UNL     1      -6.027   9.011  15.532  1.00  0.00     0.009 C 
HETATM   23  C18 UNL     1      -4.665   8.285  15.471  1.00  0.00     0.047 C 
BRANCH   3  24
HETATM   24  O3  UNL     1      -5.158   6.119  16.364  1.00  0.00    -0.381 OA
HETATM   25  H25 UNL     1      -5.128   5.162  16.157  1.00  0.00     0.211 HD
ENDBRANCH   3  24
ENDBRANCH   1   3
BRANCH   1  26
HETATM   26  C21 UNL     1      -3.618   6.275  12.884  1.00  0.00     0.260 C 
BRANCH  26  27
HETATM   27  O5  UNL     1      -2.253   6.313  12.483  1.00  0.00    -0.314 OA
BRANCH  27  28
HETATM   28  C22 UNL     1      -1.654   7.531  12.578  1.00  0.00     0.259 C 
HETATM   29  O6  UNL     1      -2.177   8.520  13.072  1.00  0.00    -0.265 OA
BRANCH  28  30
HETATM   30  C23 UNL     1      -0.300   7.553  11.903  1.00  0.00     0.120 C 
BRANCH  30  31
HETATM   31  C24 UNL     1       0.686   8.564  12.481  1.00  0.00     0.112 C 
BRANCH  31  32
HETATM   32  C25 UNL     1       2.102   8.027  12.513  1.00  0.00     0.218 C 
HETATM   33  O7  UNL     1       2.418   6.987  13.078  1.00  0.00    -0.274 OA
HETATM   34  N1  UNL     1       3.001   8.825  11.851  1.00  0.00    -0.346 N 
HETATM   35  H32 UNL     1       2.674   9.580  11.256  1.00  0.00     0.163 HD
BRANCH  34  36
HETATM   36  C26 UNL     1       4.406   8.423  11.668  1.00  0.00     0.186 C 
BRANCH  36  37
HETATM   37  C27 UNL     1       4.518   7.156  10.806  1.00  0.00     0.074 C 
BRANCH  37  38
HETATM   38  C28 UNL     1       3.698   7.243   9.540  1.00  0.00    -0.056 A 
HETATM   39  C29 UNL     1       3.104   6.102   8.985  1.00  0.00     0.007 A 
HETATM   40  C30 UNL     1       2.362   6.195   7.806  1.00  0.00     0.001 A 
HETATM   41  C31 UNL     1       2.208   7.427   7.171  1.00  0.00     0.000 A 
HETATM   42  C32 UNL     1       2.800   8.565   7.712  1.00  0.00     0.001 A 
HETATM   43  C33 UNL     1       3.544   8.476   8.889  1.00  0.00     0.007 A 
ENDBRANCH  37  38
ENDBRANCH  36  37
BRANCH  36  44
HETATM   44  C34 UNL     1       5.040   8.177  13.045  1.00  0.00     0.163 C 
HETATM   45  O8  UNL     1       5.231   8.992  13.932  1.00  0.00    -0.648 OA
BRANCH  44  46
HETATM   46  O9  UNL     1       5.418   6.887  13.239  1.00  0.00    -0.775 OA
HETATM   47  H41 UNL     1       5.804   6.903  14.141  1.00  0.00     0.167 HD
ENDBRANCH  44  46
ENDBRANCH  36  44
ENDBRANCH  34  36
ENDBRANCH  31  32
ENDBRANCH  30  31
ENDBRANCH  28  30
ENDBRANCH  27  28
ENDBRANCH  26  27
ENDBRANCH   1  26
TORSDOF 13
ENDMDL
MODEL 6
REMARK minimizedAffinity -8.6973629
REMARK CNNscore 0.436582148
REMARK CNNaffinity 6.99370337
REMARK  13 active torsions:
REMARK  status: ('A' for Active; 'I' for Inactive)
REMARK    1  A    between atoms: C19_21  and  O3_22 
REMARK    2  A    between atoms: C19_21  and  C20_23 
REMARK    3  A    between atoms: C20_23  and  C21_25 
REMARK    4  A    between atoms: C21_25  and  O5_26 
REMARK    5  A    between atoms: O5_26  and  C22_27 
REMARK    6  A    between atoms: C22_27  and  C23_29 
REMARK    7  A    between atoms: C23_29  and  C24_30 
REMARK    8  A    between atoms: C24_30  and  C25_31 
REMARK       I    between atoms: C25_31  and  N1_33 
REMARK    9  A    between atoms: N1_33  and  C26_34 
REMARK   10  A    between atoms: C26_34  and  C27_35 
REMARK   11  A    between atoms: C26_34  and  C34_42 
REMARK   12  A    between atoms: C27_35  and  C28_36 
REMARK   13  A    between atoms: C34_42  and  O9_44 
ROOT
HETATM    1  C20 UNL     1      -0.627   8.724  13.973  1.00  0.00     0.185 C 
HETATM    2  O4  UNL     1      -0.726   9.956  14.029  1.00  0.00    -0.292 OA
ENDROOT
BRANCH   1   3
HETATM    3  C19 UNL     1      -1.757   7.931  13.292  1.00  0.00     0.128 C 
HETATM    4  C14 UNL     1      -3.030   7.767  14.173  1.00  0.00     0.005 C 
HETATM    5  C13 UNL     1      -3.891   9.019  14.382  1.00  0.00     0.091 C 
HETATM    6  C15 UNL     1      -2.657   7.174  15.560  1.00  0.00     0.019 C 
HETATM    7  C16 UNL     1      -3.842   6.791  13.281  1.00  0.00     0.002 C 
HETATM    8  C12 UNL     1      -5.217   8.609  15.010  1.00  0.00     0.133 C 
HETATM    9  C11 UNL     1      -6.044   7.556  14.246  1.00  0.00     0.072 C 
HETATM   10  O2  UNL     1      -5.585   9.130  16.062  1.00  0.00    -0.297 OA
HETATM   11  C2  UNL     1      -7.423   7.173  14.897  1.00  0.00    -0.009 C 
HETATM   12  C10 UNL     1      -5.151   6.319  13.931  1.00  0.00     0.003 C 
HETATM   13  C1  UNL     1      -7.274   6.623  16.334  1.00  0.00     0.021 C 
HETATM   14  C3  UNL     1      -8.334   8.437  14.908  1.00  0.00     0.022 C 
HETATM   15  C7  UNL     1      -8.085   6.072  14.049  1.00  0.00    -0.067 C 
HETATM   16  C4  UNL     1      -9.805   8.134  15.159  1.00  0.00     0.084 C 
HETATM   17  C5  UNL     1     -10.313   7.139  14.152  1.00  0.00     0.149 C 
HETATM   18  O1  UNL     1     -11.479   7.125  13.766  1.00  0.00    -0.293 OA
HETATM   19  C6  UNL     1      -9.380   6.090  13.683  1.00  0.00     0.053 C 
HETATM   20  C8  UNL     1      -7.218   4.902  13.649  1.00  0.00     0.035 C 
HETATM   21  C9  UNL     1      -5.910   5.351  13.013  1.00  0.00     0.010 C 
HETATM   22  C17 UNL     1      -2.818   5.738  12.871  1.00  0.00     0.009 C 
HETATM   23  C18 UNL     1      -1.470   6.488  12.826  1.00  0.00     0.047 C 
BRANCH   3  24
HETATM   24  O3  UNL     1      -2.088   8.687  12.110  1.00  0.00    -0.381 OA
HETATM   25  H25 UNL     1      -2.051   9.632  12.365  1.00  0.00     0.211 HD
ENDBRANCH   3  24
ENDBRANCH   1   3
BRANCH   1  26
HETATM   26  C21 UNL     1       0.545   8.001  14.633  1.00  0.00     0.260 C 
BRANCH  26  27
HETATM   27  O5  UNL     1       0.728   8.201  16.030  1.00  0.00    -0.314 OA
BRANCH  27  28
HETATM   28  C22 UNL     1       1.927   8.735  16.388  1.00  0.00     0.259 C 
HETATM   29  O6  UNL     1       2.218   9.075  17.526  1.00  0.00    -0.265 OA
BRANCH  28  30
HETATM   30  C23 UNL     1       2.828   8.961  15.193  1.00  0.00     0.120 C 
BRANCH  30  31
HETATM   31  C24 UNL     1       3.663   7.750  14.785  1.00  0.00     0.112 C 
BRANCH  31  32
HETATM   32  C25 UNL     1       4.578   8.055  13.617  1.00  0.00     0.218 C 
HETATM   33  O7  UNL     1       4.476   9.059  12.923  1.00  0.00    -0.274 OA
HETATM   34  N1  UNL     1       5.531   7.091  13.407  1.00  0.00    -0.346 N 
HETATM   35  H32 UNL     1       5.690   6.367  14.103  1.00  0.00     0.163 HD
BRANCH  34  36
HETATM   36  C26 UNL     1       6.588   7.252  12.395  1.00  0.00     0.186 C 
BRANCH  36  37
HETATM   37  C27 UNL     1       7.035   8.718  12.282  1.00  0.00     0.074 C 
BRANCH  37  38
HETATM   38  C28 UNL     1       8.327   8.989  13.015  1.00  0.00    -0.056 A 
HETATM   39  C29 UNL     1       9.009   7.961  13.679  1.00  0.00     0.007 A 
HETATM   40  C30 UNL     1      10.195   8.230  14.367  1.00  0.00     0.001 A 
HETATM   41  C31 UNL     1      10.709   9.526  14.396  1.00  0.00     0.000 A 
HETATM   42  C32 UNL     1      10.035  10.554  13.744  1.00  0.00     0.001 A 
HETATM   43  C33 UNL     1       8.848  10.290  13.058  1.00  0.00     0.007 A 
ENDBRANCH  37  38
ENDBRANCH  36  37
BRANCH  36  44
HETATM   44  C34 UNL     1       6.063   6.759  11.039  1.00  0.00     0.163 C 
HETATM   45  O8  UNL     1       5.231   7.293  10.325  1.00  0.00    -0.648 OA
BRANCH  44  46
HETATM   46  O9  UNL     1       6.619   5.586  10.643  1.00  0.00    -0.775 OA
HETATM   47  H41 UNL     1       6.177   5.411   9.783  1.00  0.00     0.167 HD
ENDBRANCH  44  46
ENDBRANCH  36  44
ENDBRANCH  34  36
ENDBRANCH  31  32
ENDBRANCH  30  31
ENDBRANCH  28  30
ENDBRANCH  27  28
ENDBRANCH  26  27
ENDBRANCH   1  26
TORSDOF 13
ENDMDL
MODEL 7
REMARK minimizedAffinity -10.4725227
REMARK CNNscore 0.422854096
REMARK CNNaffinity 7.20639181
REMARK  13 active torsions:
REMARK  status: ('A' for Active; 'I' for Inactive)
REMARK    1  A    between atoms: C19_21  and  O3_22 
REMARK    2  A    between atoms: C19_21  and  C20_23 
REMARK    3  A    between atoms: C20_23  and  C21_25 
REMARK    4  A    between atoms: C21_25  and  O5_26 
REMARK    5  A    between atoms: O5_26  and  C22_27 
REMARK    6  A    between atoms: C22_27  and  C23_29 
REMARK    7  A    between atoms: C23_29  and  C24_30 
REMARK    8  A    between atoms: C24_30  and  C25_31 
REMARK       I    between atoms: C25_31  and  N1_33 
REMARK    9  A    between atoms: N1_33  and  C26_34 
REMARK   10  A    between atoms: C26_34  and  C27_35 
REMARK   11  A    between atoms: C26_34  and  C34_42 
REMARK   12  A    between atoms: C27_35  and  C28_36 
REMARK   13  A    between atoms: C34_42  and  O9_44 
ROOT
HETATM    1  C20 UNL     1       0.356   7.627  13.307  1.00  0.00     0.185 C 
HETATM    2  O4  UNL     1       0.513   8.824  13.037  1.00  0.00    -0.292 OA
ENDROOT
BRANCH   1   3
HETATM    3  C19 UNL     1      -0.842   6.889  12.684  1.00  0.00     0.128 C 
HETATM    4  C14 UNL     1      -2.092   6.826  13.611  1.00  0.00     0.005 C 
HETATM    5  C13 UNL     1      -2.868   8.134  13.813  1.00  0.00     0.091 C 
HETATM    6  C15 UNL     1      -1.709   6.247  15.001  1.00  0.00     0.019 C 
HETATM    7  C16 UNL     1      -2.992   5.880  12.772  1.00  0.00     0.002 C 
HETATM    8  C12 UNL     1      -4.194   7.823  14.494  1.00  0.00     0.133 C 
HETATM    9  C11 UNL     1      -5.109   6.804  13.787  1.00  0.00     0.072 C 
HETATM   10  O2  UNL     1      -4.494   8.392  15.544  1.00  0.00    -0.297 OA
HETATM   11  C2  UNL     1      -6.487   6.524  14.492  1.00  0.00    -0.009 C 
HETATM   12  C10 UNL     1      -4.305   5.507  13.477  1.00  0.00     0.003 C 
HETATM   13  C1  UNL     1      -6.323   6.002  15.939  1.00  0.00     0.021 C 
HETATM   14  C3  UNL     1      -7.318   7.842  14.498  1.00  0.00     0.022 C 
HETATM   15  C7  UNL     1      -7.243   5.445  13.697  1.00  0.00    -0.067 C 
HETATM   16  C4  UNL     1      -8.795   7.638  14.805  1.00  0.00     0.084 C 
HETATM   17  C5  UNL     1      -9.397   6.651  13.843  1.00  0.00     0.149 C 
HETATM   18  O1  UNL     1     -10.574   6.699  13.494  1.00  0.00    -0.293 OA
HETATM   19  C6  UNL     1      -8.546   5.534  13.372  1.00  0.00     0.053 C 
HETATM   20  C8  UNL     1      -6.464   4.214  13.301  1.00  0.00     0.035 C 
HETATM   21  C9  UNL     1      -5.153   4.564  12.611  1.00  0.00     0.010 C 
HETATM   22  C17 UNL     1      -2.050   4.755  12.358  1.00  0.00     0.009 C 
HETATM   23  C18 UNL     1      -0.660   5.419  12.249  1.00  0.00     0.047 C 
BRANCH   3  24
HETATM   24  O3  UNL     1      -1.167   7.634  11.494  1.00  0.00    -0.381 OA
HETATM   25  H25 UNL     1      -1.063   8.581  11.721  1.00  0.00     0.211 HD
ENDBRANCH   3  24
ENDBRANCH   1   3
BRANCH   1  26
HETATM   26  C21 UNL     1       1.280   6.920  14.297  1.00  0.00     0.260 C 
BRANCH  26  27
HETATM   27  O5  UNL     1       1.231   7.350  15.652  1.00  0.00    -0.314 OA
BRANCH  27  28
HETATM   28  C22 UNL     1       2.369   7.934  16.116  1.00  0.00     0.259 C 
HETATM   29  O6  UNL     1       2.402   8.758  17.020  1.00  0.00    -0.265 OA
BRANCH  28  30
HETATM   30  C23 UNL     1       3.585   7.527  15.314  1.00  0.00     0.120 C 
BRANCH  30  31
HETATM   31  C24 UNL     1       4.362   8.687  14.698  1.00  0.00     0.112 C 
BRANCH  31  32
HETATM   32  C25 UNL     1       4.401   8.609  13.186  1.00  0.00     0.218 C 
HETATM   33  O7  UNL     1       4.207   9.571  12.454  1.00  0.00    -0.274 OA
HETATM   34  N1  UNL     1       4.667   7.348  12.713  1.00  0.00    -0.346 N 
HETATM   35  H32 UNL     1       4.988   6.621  13.346  1.00  0.00     0.163 HD
BRANCH  34  36
HETATM   36  C26 UNL     1       4.861   7.083  11.278  1.00  0.00     0.186 C 
BRANCH  36  37
HETATM   37  C27 UNL     1       3.760   6.164  10.725  1.00  0.00     0.074 C 
BRANCH  37  38
HETATM   38  C28 UNL     1       3.226   6.636   9.394  1.00  0.00    -0.056 A 
HETATM   39  C29 UNL     1       3.003   7.996   9.146  1.00  0.00     0.007 A 
HETATM   40  C30 UNL     1       2.494   8.416   7.915  1.00  0.00     0.001 A 
HETATM   41  C31 UNL     1       2.204   7.481   6.922  1.00  0.00     0.000 A 
HETATM   42  C32 UNL     1       2.416   6.126   7.161  1.00  0.00     0.001 A 
HETATM   43  C33 UNL     1       2.923   5.703   8.391  1.00  0.00     0.007 A 
ENDBRANCH  37  38
ENDBRANCH  36  37
BRANCH  36  44
HETATM   44  C34 UNL     1       6.237   6.434  11.069  1.00  0.00     0.163 C 
HETATM   45  O8  UNL     1       7.332   6.947  11.226  1.00  0.00    -0.648 OA
BRANCH  44  46
HETATM   46  O9  UNL     1       6.165   5.143  10.657  1.00  0.00    -0.775 OA
HETATM   47  H41 UNL     1       7.108   4.887  10.564  1.00  0.00     0.167 HD
ENDBRANCH  44  46
ENDBRANCH  36  44
ENDBRANCH  34  36
ENDBRANCH  31  32
ENDBRANCH  30  31
ENDBRANCH  28  30
ENDBRANCH  27  28
ENDBRANCH  26  27
ENDBRANCH   1  26
TORSDOF 13
ENDMDL
MODEL 8
REMARK minimizedAffinity -9.47938728
REMARK CNNscore 0.384188801
REMARK CNNaffinity 6.36958694
REMARK  13 active torsions:
REMARK  status: ('A' for Active; 'I' for Inactive)
REMARK    1  A    between atoms: C19_21  and  O3_22 
REMARK    2  A    between atoms: C19_21  and  C20_23 
REMARK    3  A    between atoms: C20_23  and  C21_25 
REMARK    4  A    between atoms: C21_25  and  O5_26 
REMARK    5  A    between atoms: O5_26  and  C22_27 
REMARK    6  A    between atoms: C22_27  and  C23_29 
REMARK    7  A    between atoms: C23_29  and  C24_30 
REMARK    8  A    between atoms: C24_30  and  C25_31 
REMARK       I    between atoms: C25_31  and  N1_33 
REMARK    9  A    between atoms: N1_33  and  C26_34 
REMARK   10  A    between atoms: C26_34  and  C27_35 
REMARK   11  A    between atoms: C26_34  and  C34_42 
REMARK   12  A    between atoms: C27_35  and  C28_36 
REMARK   13  A    between atoms: C34_42  and  O9_44 
ROOT
HETATM    1  C20 UNL     1      -0.775  10.527  14.072  1.00  0.00     0.185 C 
HETATM    2  O4  UNL     1      -1.449  11.541  13.854  1.00  0.00    -0.292 OA
ENDROOT
BRANCH   1   3
HETATM    3  C19 UNL     1      -1.166   9.222  13.356  1.00  0.00     0.128 C 
HETATM    4  C14 UNL     1      -2.374   8.485  14.007  1.00  0.00     0.005 C 
HETATM    5  C13 UNL     1      -3.755   9.126  13.822  1.00  0.00     0.091 C 
HETATM    6  C15 UNL     1      -2.119   8.264  15.524  1.00  0.00     0.019 C 
HETATM    7  C16 UNL     1      -2.358   7.174  13.178  1.00  0.00     0.002 C 
HETATM    8  C12 UNL     1      -4.824   8.135  14.264  1.00  0.00     0.133 C 
HETATM    9  C11 UNL     1      -4.815   6.758  13.571  1.00  0.00     0.072 C 
HETATM   10  O2  UNL     1      -5.648   8.460  15.118  1.00  0.00    -0.297 OA
HETATM   11  C2  UNL     1      -5.947   5.764  14.021  1.00  0.00    -0.009 C 
HETATM   12  C10 UNL     1      -3.388   6.139  13.657  1.00  0.00     0.003 C 
HETATM   13  C1  UNL     1      -5.915   5.467  15.538  1.00  0.00     0.021 C 
HETATM   14  C3  UNL     1      -7.327   6.376  13.634  1.00  0.00     0.022 C 
HETATM   15  C7  UNL     1      -5.756   4.425  13.286  1.00  0.00    -0.067 C 
HETATM   16  C4  UNL     1      -8.475   5.377  13.666  1.00  0.00     0.084 C 
HETATM   17  C5  UNL     1      -8.167   4.197  12.785  1.00  0.00     0.149 C 
HETATM   18  O1  UNL     1      -9.040   3.559  12.203  1.00  0.00    -0.293 OA
HETATM   19  C6  UNL     1      -6.759   3.750  12.694  1.00  0.00     0.053 C 
HETATM   20  C8  UNL     1      -4.362   3.845  13.272  1.00  0.00     0.035 C 
HETATM   21  C9  UNL     1      -3.325   4.860  12.811  1.00  0.00     0.010 C 
HETATM   22  C17 UNL     1      -0.887   6.773  13.162  1.00  0.00     0.009 C 
HETATM   23  C18 UNL     1      -0.109   8.105  13.224  1.00  0.00     0.047 C 
BRANCH   3  24
HETATM   24  O3  UNL     1      -1.516   9.619  12.015  1.00  0.00    -0.381 OA
HETATM   25  H25 UNL     1      -2.007  10.463  12.093  1.00  0.00     0.211 HD
ENDBRANCH   3  24
ENDBRANCH   1   3
BRANCH   1  26
HETATM   26  C21 UNL     1       0.366  10.547  15.087  1.00  0.00     0.260 C 
BRANCH  26  27
HETATM   27  O5  UNL     1       0.052  10.971  16.409  1.00  0.00    -0.314 OA
BRANCH  27  28
HETATM   28  C22 UNL     1       0.908  10.541  17.375  1.00  0.00     0.259 C 
HETATM   29  O6  UNL     1       1.462   9.451  17.369  1.00  0.00    -0.265 OA
BRANCH  28  30
HETATM   30  C23 UNL     1       1.018  11.527  18.517  1.00  0.00     0.120 C 
BRANCH  30  31
HETATM   31  C24 UNL     1       0.666  10.957  19.888  1.00  0.00     0.112 C 
BRANCH  31  32
HETATM   32  C25 UNL     1       1.613  11.441  20.967  1.00  0.00     0.218 C 
HETATM   33  O7  UNL     1       1.806  12.624  21.217  1.00  0.00    -0.274 OA
HETATM   34  N1  UNL     1       2.244  10.420  21.635  1.00  0.00    -0.346 N 
HETATM   35  H32 UNL     1       1.932   9.461  21.516  1.00  0.00     0.163 HD
BRANCH  34  36
HETATM   36  C26 UNL     1       3.115  10.674  22.793  1.00  0.00     0.186 C 
BRANCH  36  37
HETATM   37  C27 UNL     1       4.600  10.608  22.402  1.00  0.00     0.074 C 
BRANCH  37  38
HETATM   38  C28 UNL     1       5.333  11.896  22.693  1.00  0.00    -0.056 A 
HETATM   39  C29 UNL     1       4.665  13.126  22.682  1.00  0.00     0.007 A 
HETATM   40  C30 UNL     1       5.359  14.310  22.937  1.00  0.00     0.001 A 
HETATM   41  C31 UNL     1       6.727  14.275  23.206  1.00  0.00     0.000 A 
HETATM   42  C32 UNL     1       7.402  13.057  23.213  1.00  0.00     0.001 A 
HETATM   43  C33 UNL     1       6.711  11.872  22.956  1.00  0.00     0.007 A 
ENDBRANCH  37  38
ENDBRANCH  36  37
BRANCH  36  44
HETATM   44  C34 UNL     1       2.815   9.634  23.884  1.00  0.00     0.163 C 
HETATM   45  O8  UNL     1       2.571   9.841  25.060  1.00  0.00    -0.648 OA
BRANCH  44  46
HETATM   46  O9  UNL     1       2.847   8.356  23.429  1.00  0.00    -0.775 OA
HETATM   47  H41 UNL     1       2.649   7.830  24.234  1.00  0.00     0.167 HD
ENDBRANCH  44  46
ENDBRANCH  36  44
ENDBRANCH  34  36
ENDBRANCH  31  32
ENDBRANCH  30  31
ENDBRANCH  28  30
ENDBRANCH  27  28
ENDBRANCH  26  27
ENDBRANCH   1  26
TORSDOF 13
ENDMDL
MODEL 9
REMARK minimizedAffinity -7.90094519
REMARK CNNscore 0.376758844
REMARK CNNaffinity 6.06764078
REMARK  13 active torsions:
REMARK  status: ('A' for Active; 'I' for Inactive)
REMARK    1  A    between atoms: C19_21  and  O3_22 
REMARK    2  A    between atoms: C19_21  and  C20_23 
REMARK    3  A    between atoms: C20_23  and  C21_25 
REMARK    4  A    between atoms: C21_25  and  O5_26 
REMARK    5  A    between atoms: O5_26  and  C22_27 
REMARK    6  A    between atoms: C22_27  and  C23_29 
REMARK    7  A    between atoms: C23_29  and  C24_30 
REMARK    8  A    between atoms: C24_30  and  C25_31 
REMARK       I    between atoms: C25_31  and  N1_33 
REMARK    9  A    between atoms: N1_33  and  C26_34 
REMARK   10  A    between atoms: C26_34  and  C27_35 
REMARK   11  A    between atoms: C26_34  and  C34_42 
REMARK   12  A    between atoms: C27_35  and  C28_36 
REMARK   13  A    between atoms: C34_42  and  O9_44 
ROOT
HETATM    1  C20 UNL     1     -15.997   5.302  14.820  1.00  0.00     0.185 C 
HETATM    2  O4  UNL     1     -15.864   5.569  16.021  1.00  0.00    -0.292 OA
ENDROOT
BRANCH   1   3
HETATM    3  C19 UNL     1     -16.901   4.120  14.431  1.00  0.00     0.128 C 
HETATM    4  C14 UNL     1     -16.374   2.738  14.920  1.00  0.00     0.005 C 
HETATM    5  C13 UNL     1     -16.474   2.456  16.424  1.00  0.00     0.091 C 
HETATM    6  C15 UNL     1     -14.905   2.524  14.462  1.00  0.00     0.019 C 
HETATM    7  C16 UNL     1     -17.388   1.804  14.207  1.00  0.00     0.002 C 
HETATM    8  C12 UNL     1     -16.191   0.980  16.671  1.00  0.00     0.133 C 
HETATM    9  C11 UNL     1     -17.080  -0.028  15.914  1.00  0.00     0.072 C 
HETATM   10  O2  UNL     1     -15.304   0.646  17.457  1.00  0.00    -0.297 OA
HETATM   11  C2  UNL     1     -16.791  -1.545  16.209  1.00  0.00    -0.009 C 
HETATM   12  C10 UNL     1     -17.076   0.312  14.394  1.00  0.00     0.003 C 
HETATM   13  C1  UNL     1     -15.334  -1.950  15.886  1.00  0.00     0.021 C 
HETATM   14  C3  UNL     1     -17.094  -1.824  17.712  1.00  0.00     0.022 C 
HETATM   15  C7  UNL     1     -17.714  -2.408  15.331  1.00  0.00    -0.067 C 
HETATM   16  C4  UNL     1     -17.218  -3.303  18.051  1.00  0.00     0.084 C 
HETATM   17  C5  UNL     1     -18.261  -3.952  17.183  1.00  0.00     0.149 C 
HETATM   18  O1  UNL     1     -18.938  -4.905  17.562  1.00  0.00    -0.293 OA
HETATM   19  C6  UNL     1     -18.406  -3.466  15.793  1.00  0.00     0.053 C 
HETATM   20  C8  UNL     1     -17.803  -2.045  13.868  1.00  0.00     0.035 C 
HETATM   21  C9  UNL     1     -18.100  -0.567  13.663  1.00  0.00     0.010 C 
HETATM   22  C17 UNL     1     -17.452   2.356  12.787  1.00  0.00     0.009 C 
HETATM   23  C18 UNL     1     -17.188   3.870  12.935  1.00  0.00     0.047 C 
BRANCH   3  24
HETATM   24  O3  UNL     1     -18.171   4.395  15.054  1.00  0.00    -0.381 OA
HETATM   25  H25 UNL     1     -17.973   4.768  15.937  1.00  0.00     0.211 HD
ENDBRANCH   3  24
ENDBRANCH   1   3
BRANCH   1  26
HETATM   26  C21 UNL     1     -15.220   6.074  13.756  1.00  0.00     0.260 C 
BRANCH  26  27
HETATM   27  O5  UNL     1     -13.853   6.362  14.030  1.00  0.00    -0.314 OA
BRANCH  27  28
HETATM   28  C22 UNL     1     -13.261   7.237  13.172  1.00  0.00     0.259 C 
HETATM   29  O6  UNL     1     -13.868   7.945  12.382  1.00  0.00    -0.265 OA
BRANCH  28  30
HETATM   30  C23 UNL     1     -11.751   7.159  13.233  1.00  0.00     0.120 C 
BRANCH  30  31
HETATM   31  C24 UNL     1     -11.171   7.114  14.643  1.00  0.00     0.112 C 
BRANCH  31  32
HETATM   32  C25 UNL     1      -9.678   6.858  14.638  1.00  0.00     0.218 C 
HETATM   33  O7  UNL     1      -8.880   7.497  15.312  1.00  0.00    -0.274 OA
HETATM   34  N1  UNL     1      -9.303   5.842  13.795  1.00  0.00    -0.346 N 
HETATM   35  H32 UNL     1     -10.004   5.230  13.387  1.00  0.00     0.163 HD
BRANCH  34  36
HETATM   36  C26 UNL     1      -7.913   5.362  13.729  1.00  0.00     0.186 C 
BRANCH  36  37
HETATM   37  C27 UNL     1      -6.968   6.452  13.201  1.00  0.00     0.074 C 
BRANCH  37  38
HETATM   38  C28 UNL     1      -5.595   6.382  13.826  1.00  0.00    -0.056 A 
HETATM   39  C29 UNL     1      -5.308   7.064  15.015  1.00  0.00     0.007 A 
HETATM   40  C30 UNL     1      -4.029   7.003  15.573  1.00  0.00     0.001 A 
HETATM   41  C31 UNL     1      -3.027   6.260  14.949  1.00  0.00     0.000 A 
HETATM   42  C32 UNL     1      -3.302   5.584  13.763  1.00  0.00     0.001 A 
HETATM   43  C33 UNL     1      -4.578   5.645  13.201  1.00  0.00     0.007 A 
ENDBRANCH  37  38
ENDBRANCH  36  37
BRANCH  36  44
HETATM   44  C34 UNL     1      -7.851   4.128  12.816  1.00  0.00     0.163 C 
HETATM   45  O8  UNL     1      -7.090   3.931  11.885  1.00  0.00    -0.648 OA
BRANCH  44  46
HETATM   46  O9  UNL     1      -8.779   3.186  13.123  1.00  0.00    -0.775 OA
HETATM   47  H41 UNL     1      -8.614   2.487  12.455  1.00  0.00     0.167 HD
ENDBRANCH  44  46
ENDBRANCH  36  44
ENDBRANCH  34  36
ENDBRANCH  31  32
ENDBRANCH  30  31
ENDBRANCH  28  30
ENDBRANCH  27  28
ENDBRANCH  26  27
ENDBRANCH   1  26
TORSDOF 13
ENDMDL
