MODEL 1
REMARK minimizedAffinity -8.03742695
REMARK CNNscore 0.596901953
REMARK CNNaffinity 6.82117081
REMARK  8 active torsions:
REMARK  status: ('A' for Active; 'I' for Inactive)
REMARK    1  A    between atoms: C2_2  and  C3_3 
REMARK    2  A    between atoms: C2_2  and  C27_30 
REMARK    3  A    between atoms: C3_3  and  C4_4 
REMARK    4  A    between atoms: C4_4  and  C5_5 
REMARK    5  A    between atoms: C5_5  and  C7_7 
REMARK    6  A    between atoms: C26_28  and  O3_29 
REMARK    7  A    between atoms: C27_30  and  C29_32 
REMARK    8  A    between atoms: C29_32  and  O5_34 
ROOT
HETATM    1  C7  UNL     1      -8.146   7.877  14.670  1.00  0.00    -0.002 C 
HETATM    2  C8  UNL     1      -7.242   8.977  15.294  1.00  0.00     0.006 C 
HETATM    3  C9  UNL     1      -5.798   8.632  14.900  1.00  0.00     0.010 C 
HETATM    4  C10 UNL     1      -5.950   7.535  13.845  1.00  0.00     0.027 C 
HETATM    5  C11 UNL     1      -4.771   6.683  13.434  1.00  0.00    -0.036 C 
HETATM    6  C12 UNL     1      -4.954   5.441  12.918  1.00  0.00     0.002 C 
HETATM    7  C13 UNL     1      -6.371   4.900  12.814  1.00  0.00     0.157 C 
HETATM    8  O1  UNL     1      -6.590   3.777  12.362  1.00  0.00    -0.293 OA
HETATM    9  C14 UNL     1      -7.545   5.766  13.248  1.00  0.00     0.093 C 
HETATM   10  C15 UNL     1      -7.152   6.714  14.380  1.00  0.00    -0.026 C 
HETATM   11  C16 UNL     1      -6.811   5.893  15.646  1.00  0.00     0.016 C 
HETATM   12  C17 UNL     1      -3.793   4.538  12.442  1.00  0.00    -0.008 C 
HETATM   13  C18 UNL     1      -3.623   3.440  13.527  1.00  0.00     0.021 C 
HETATM   14  C19 UNL     1      -4.089   3.856  11.067  1.00  0.00     0.022 C 
HETATM   15  C20 UNL     1      -2.874   3.602  10.173  1.00  0.00     0.080 C 
HETATM   16  C21 UNL     1      -1.613   3.397  10.973  1.00  0.00     0.131 C 
HETATM   17  O2  UNL     1      -0.879   2.428  10.778  1.00  0.00    -0.298 OA
HETATM   18  C22 UNL     1      -1.246   4.484  11.973  1.00  0.00     0.056 C 
HETATM   19  C23 UNL     1      -0.061   5.271  11.416  1.00  0.00     0.018 C 
HETATM   20  C24 UNL     1      -2.477   5.376  12.261  1.00  0.00     0.012 C 
HETATM   21  C25 UNL     1      -2.249   6.312  13.456  1.00  0.00     0.042 C 
HETATM   22  C26 UNL     1      -3.404   7.304  13.584  1.00  0.00     0.148 C 
ENDROOT
BRANCH   1  23
HETATM   23  C5  UNL     1      -9.488   7.687  15.432  1.00  0.00    -0.014 C 
HETATM   24  C6  UNL     1     -10.592   6.927  14.684  1.00  0.00     0.010 C 
BRANCH  23  25
HETATM   25  C4  UNL     1     -10.101   8.987  16.006  1.00  0.00     0.009 C 
BRANCH  25  26
HETATM   26  C3  UNL     1     -10.459   8.980  17.502  1.00  0.00     0.034 C 
BRANCH  26  27
HETATM   27  C2  UNL     1     -11.599   9.860  18.004  1.00  0.00    -0.075 C 
HETATM   28  C1  UNL     1     -12.830   9.854  17.460  1.00  0.00     0.015 C 
BRANCH  27  29
HETATM   29  C27 UNL     1     -11.194  10.797  19.152  1.00  0.00     0.107 C 
HETATM   30  C28 UNL     1     -11.676  12.246  19.026  1.00  0.00     0.026 C 
BRANCH  29  31
HETATM   31  C29 UNL     1     -11.652  10.245  20.501  1.00  0.00     0.147 C 
HETATM   32  O4  UNL     1     -11.278   9.233  21.071  1.00  0.00    -0.650 OA
BRANCH  31  33
HETATM   33  O5  UNL     1     -12.586  11.032  21.083  1.00  0.00    -0.776 OA
HETATM   34  H42 UNL     1     -12.794  10.570  21.922  1.00  0.00     0.167 HD
ENDBRANCH  31  33
ENDBRANCH  29  31
ENDBRANCH  27  29
ENDBRANCH  26  27
ENDBRANCH  25  26
ENDBRANCH  23  25
ENDBRANCH   1  23
BRANCH  22  35
HETATM   35  O3  UNL     1      -3.253   8.285  12.561  1.00  0.00    -0.391 OA
HETATM   36  H37 UNL     1      -3.931   8.968  12.699  1.00  0.00     0.210 HD
ENDBRANCH  22  35
TORSDOF 8
ENDMDL
MODEL 2
REMARK minimizedAffinity -8.09080791
REMARK CNNscore 0.539755464
REMARK CNNaffinity 7.13550377
REMARK  8 active torsions:
REMARK  status: ('A' for Active; 'I' for Inactive)
REMARK    1  A    between atoms: C2_2  and  C3_3 
REMARK    2  A    between atoms: C2_2  and  C27_30 
REMARK    3  A    between atoms: C3_3  and  C4_4 
REMARK    4  A    between atoms: C4_4  and  C5_5 
REMARK    5  A    between atoms: C5_5  and  C7_7 
REMARK    6  A    between atoms: C26_28  and  O3_29 
REMARK    7  A    between atoms: C27_30  and  C29_32 
REMARK    8  A    between atoms: C29_32  and  O5_34 
ROOT
HETATM    1  C7  UNL     1      -5.028   6.448  15.192  1.00  0.00    -0.002 C 
HETATM    2  C8  UNL     1      -4.790   7.881  15.746  1.00  0.00     0.006 C 
HETATM    3  C9  UNL     1      -6.138   8.612  15.662  1.00  0.00     0.010 C 
HETATM    4  C10 UNL     1      -7.145   7.505  15.343  1.00  0.00     0.027 C 
HETATM    5  C11 UNL     1      -8.535   7.838  14.850  1.00  0.00    -0.036 C 
HETATM    6  C12 UNL     1      -9.244   6.948  14.111  1.00  0.00     0.002 C 
HETATM    7  C13 UNL     1      -8.588   5.628  13.737  1.00  0.00     0.157 C 
HETATM    8  O1  UNL     1      -9.184   4.793  13.060  1.00  0.00    -0.293 OA
HETATM    9  C14 UNL     1      -7.181   5.319  14.227  1.00  0.00     0.093 C 
HETATM   10  C15 UNL     1      -6.348   6.590  14.377  1.00  0.00    -0.026 C 
HETATM   11  C16 UNL     1      -6.122   7.227  12.985  1.00  0.00     0.016 C 
HETATM   12  C17 UNL     1     -10.684   7.212  13.613  1.00  0.00    -0.008 C 
HETATM   13  C18 UNL     1     -10.570   7.517  12.094  1.00  0.00     0.021 C 
HETATM   14  C19 UNL     1     -11.625   5.980  13.818  1.00  0.00     0.022 C 
HETATM   15  C20 UNL     1     -13.094   6.301  14.092  1.00  0.00     0.080 C 
HETATM   16  C21 UNL     1     -13.519   7.602  13.460  1.00  0.00     0.131 C 
HETATM   17  O2  UNL     1     -14.526   7.676  12.756  1.00  0.00    -0.298 OA
HETATM   18  C22 UNL     1     -12.694   8.835  13.799  1.00  0.00     0.056 C 
HETATM   19  C23 UNL     1     -13.507   9.713  14.749  1.00  0.00     0.018 C 
HETATM   20  C24 UNL     1     -11.329   8.412  14.394  1.00  0.00     0.012 C 
HETATM   21  C25 UNL     1     -10.353   9.591  14.501  1.00  0.00     0.042 C 
HETATM   22  C26 UNL     1      -9.097   9.175  15.266  1.00  0.00     0.148 C 
ENDROOT
BRANCH   1  23
HETATM   23  C5  UNL     1      -3.738   5.792  14.625  1.00  0.00    -0.014 C 
HETATM   24  C6  UNL     1      -2.423   6.538  14.893  1.00  0.00     0.010 C 
BRANCH  23  25
HETATM   25  C4  UNL     1      -3.794   5.440  13.119  1.00  0.00     0.009 C 
BRANCH  25  26
HETATM   26  C3  UNL     1      -3.698   3.948  12.755  1.00  0.00     0.034 C 
BRANCH  26  27
HETATM   27  C2  UNL     1      -3.686   3.534  11.287  1.00  0.00    -0.075 C 
HETATM   28  C1  UNL     1      -4.802   3.240  10.594  1.00  0.00     0.015 C 
BRANCH  27  29
HETATM   29  C27 UNL     1      -2.275   3.427  10.690  1.00  0.00     0.107 C 
HETATM   30  C28 UNL     1      -1.347   4.614  10.966  1.00  0.00     0.026 C 
BRANCH  29  31
HETATM   31  C29 UNL     1      -1.579   2.146  11.147  1.00  0.00     0.147 C 
HETATM   32  O4  UNL     1      -0.450   2.016  11.594  1.00  0.00    -0.650 OA
BRANCH  31  33
HETATM   33  O5  UNL     1      -2.373   1.059  11.016  1.00  0.00    -0.776 OA
HETATM   34  H42 UNL     1      -1.815   0.318  11.331  1.00  0.00     0.167 HD
ENDBRANCH  31  33
ENDBRANCH  29  31
ENDBRANCH  27  29
ENDBRANCH  26  27
ENDBRANCH  25  26
ENDBRANCH  23  25
ENDBRANCH   1  23
BRANCH  22  35
HETATM   35  O3  UNL     1      -9.433   9.100  16.649  1.00  0.00    -0.391 OA
HETATM   36  H37 UNL     1      -8.616   8.928  17.146  1.00  0.00     0.210 HD
ENDBRANCH  22  35
TORSDOF 8
ENDMDL
MODEL 3
REMARK minimizedAffinity -9.16031456
REMARK CNNscore 0.536279798
REMARK CNNaffinity 6.35400534
REMARK  8 active torsions:
REMARK  status: ('A' for Active; 'I' for Inactive)
REMARK    1  A    between atoms: C2_2  and  C3_3 
REMARK    2  A    between atoms: C2_2  and  C27_30 
REMARK    3  A    between atoms: C3_3  and  C4_4 
REMARK    4  A    between atoms: C4_4  and  C5_5 
REMARK    5  A    between atoms: C5_5  and  C7_7 
REMARK    6  A    between atoms: C26_28  and  O3_29 
REMARK    7  A    between atoms: C27_30  and  C29_32 
REMARK    8  A    between atoms: C29_32  and  O5_34 
ROOT
HETATM    1  C7  UNL     1      -0.634  10.366  17.897  1.00  0.00    -0.002 C 
HETATM    2  C8  UNL     1      -2.146  10.428  18.255  1.00  0.00     0.006 C 
HETATM    3  C9  UNL     1      -2.853   9.413  17.344  1.00  0.00     0.010 C 
HETATM    4  C10 UNL     1      -1.710   8.614  16.716  1.00  0.00     0.027 C 
HETATM    5  C11 UNL     1      -1.948   7.736  15.509  1.00  0.00    -0.036 C 
HETATM    6  C12 UNL     1      -0.936   7.432  14.658  1.00  0.00     0.002 C 
HETATM    7  C13 UNL     1       0.434   8.041  14.911  1.00  0.00     0.157 C 
HETATM    8  O1  UNL     1       1.382   7.805  14.163  1.00  0.00    -0.293 OA
HETATM    9  C14 UNL     1       0.650   8.937  16.121  1.00  0.00     0.093 C 
HETATM   10  C15 UNL     1      -0.623   9.697  16.490  1.00  0.00    -0.026 C 
HETATM   11  C16 UNL     1      -0.980  10.688  15.357  1.00  0.00     0.016 C 
HETATM   12  C17 UNL     1      -1.105   6.508  13.430  1.00  0.00    -0.008 C 
HETATM   13  C18 UNL     1      -1.113   7.435  12.184  1.00  0.00     0.021 C 
HETATM   14  C19 UNL     1       0.060   5.474  13.291  1.00  0.00     0.022 C 
HETATM   15  C20 UNL     1      -0.315   4.125  12.677  1.00  0.00     0.080 C 
HETATM   16  C21 UNL     1      -1.472   4.238  11.718  1.00  0.00     0.131 C 
HETATM   17  O2  UNL     1      -1.413   3.767  10.582  1.00  0.00    -0.298 OA
HETATM   18  C22 UNL     1      -2.743   4.887  12.245  1.00  0.00     0.056 C 
HETATM   19  C23 UNL     1      -3.791   3.795  12.455  1.00  0.00     0.018 C 
HETATM   20  C24 UNL     1      -2.436   5.680  13.538  1.00  0.00     0.012 C 
HETATM   21  C25 UNL     1      -3.610   6.574  13.963  1.00  0.00     0.042 C 
HETATM   22  C26 UNL     1      -3.342   7.186  15.337  1.00  0.00     0.148 C 
ENDROOT
BRANCH   1  23
HETATM   23  C5  UNL     1       0.124  11.682  18.225  1.00  0.00    -0.014 C 
HETATM   24  C6  UNL     1       1.418  11.935  17.438  1.00  0.00     0.010 C 
BRANCH  23  25
HETATM   25  C4  UNL     1       0.423  11.905  19.727  1.00  0.00     0.009 C 
BRANCH  25  26
HETATM   26  C3  UNL     1       0.995  10.705  20.503  1.00  0.00     0.034 C 
BRANCH  26  27
HETATM   27  C2  UNL     1       2.224  10.900  21.385  1.00  0.00    -0.075 C 
HETATM   28  C1  UNL     1       2.606  12.100  21.862  1.00  0.00     0.015 C 
BRANCH  27  29
HETATM   29  C27 UNL     1       3.018   9.609  21.630  1.00  0.00     0.107 C 
HETATM   30  C28 UNL     1       4.456   9.799  22.123  1.00  0.00     0.026 C 
BRANCH  29  31
HETATM   31  C29 UNL     1       2.284   8.688  22.605  1.00  0.00     0.147 C 
HETATM   32  O4  UNL     1       1.507   7.783  22.351  1.00  0.00    -0.650 OA
BRANCH  31  33
HETATM   33  O5  UNL     1       2.587   8.966  23.894  1.00  0.00    -0.776 OA
HETATM   34  H42 UNL     1       2.056   8.321  24.406  1.00  0.00     0.167 HD
ENDBRANCH  31  33
ENDBRANCH  29  31
ENDBRANCH  27  29
ENDBRANCH  26  27
ENDBRANCH  25  26
ENDBRANCH  23  25
ENDBRANCH   1  23
BRANCH  22  35
HETATM   35  O3  UNL     1      -3.536   6.166  16.314  1.00  0.00    -0.391 OA
HETATM   36  H37 UNL     1      -3.459   6.575  17.193  1.00  0.00     0.210 HD
ENDBRANCH  22  35
TORSDOF 8
ENDMDL
MODEL 4
REMARK minimizedAffinity -6.8409853
REMARK CNNscore 0.53590107
REMARK CNNaffinity 6.03704643
REMARK  8 active torsions:
REMARK  status: ('A' for Active; 'I' for Inactive)
REMARK    1  A    between atoms: C2_2  and  C3_3 
REMARK    2  A    between atoms: C2_2  and  C27_30 
REMARK    3  A    between atoms: C3_3  and  C4_4 
REMARK    4  A    between atoms: C4_4  and  C5_5 
REMARK    5  A    between atoms: C5_5  and  C7_7 
REMARK    6  A    between atoms: C26_28  and  O3_29 
REMARK    7  A    between atoms: C27_30  and  C29_32 
REMARK    8  A    between atoms: C29_32  and  O5_34 
ROOT
HETATM    1  C7  UNL     1     -16.207   2.633  14.230  1.00  0.00    -0.002 C 
HETATM    2  C8  UNL     1     -15.649   2.281  15.638  1.00  0.00     0.006 C 
HETATM    3  C9  UNL     1     -15.514   0.752  15.686  1.00  0.00     0.010 C 
HETATM    4  C10 UNL     1     -15.718   0.312  14.235  1.00  0.00     0.027 C 
HETATM    5  C11 UNL     1     -15.993  -1.134  13.893  1.00  0.00    -0.036 C 
HETATM    6  C12 UNL     1     -16.648  -1.468  12.753  1.00  0.00     0.002 C 
HETATM    7  C13 UNL     1     -17.155  -0.352  11.853  1.00  0.00     0.157 C 
HETATM    8  O1  UNL     1     -17.764  -0.603  10.814  1.00  0.00    -0.293 OA
HETATM    9  C14 UNL     1     -16.885   1.098  12.223  1.00  0.00     0.093 C 
HETATM   10  C15 UNL     1     -16.817   1.287  13.738  1.00  0.00    -0.026 C 
HETATM   11  C16 UNL     1     -18.206   1.001  14.356  1.00  0.00     0.016 C 
HETATM   12  C17 UNL     1     -16.924  -2.929  12.327  1.00  0.00    -0.008 C 
HETATM   13  C18 UNL     1     -18.433  -3.183  12.594  1.00  0.00     0.021 C 
HETATM   14  C19 UNL     1     -16.623  -3.179  10.814  1.00  0.00     0.022 C 
HETATM   15  C20 UNL     1     -16.129  -4.581  10.455  1.00  0.00     0.080 C 
HETATM   16  C21 UNL     1     -16.651  -5.628  11.404  1.00  0.00     0.131 C 
HETATM   17  O2  UNL     1     -17.199  -6.652  10.994  1.00  0.00    -0.298 OA
HETATM   18  C22 UNL     1     -16.397  -5.402  12.887  1.00  0.00     0.056 C 
HETATM   19  C23 UNL     1     -15.313  -6.377  13.344  1.00  0.00     0.018 C 
HETATM   20  C24 UNL     1     -16.020  -3.923  13.141  1.00  0.00     0.012 C 
HETATM   21  C25 UNL     1     -16.020  -3.573  14.635  1.00  0.00     0.042 C 
HETATM   22  C26 UNL     1     -15.458  -2.169  14.853  1.00  0.00     0.148 C 
ENDROOT
BRANCH   1  23
HETATM   23  C5  UNL     1     -16.975   3.983  14.199  1.00  0.00    -0.014 C 
HETATM   24  C6  UNL     1     -17.514   4.427  12.832  1.00  0.00     0.010 C 
BRANCH  23  25
HETATM   25  C4  UNL     1     -16.219   5.178  14.830  1.00  0.00     0.009 C 
BRANCH  25  26
HETATM   26  C3  UNL     1     -14.760   5.384  14.384  1.00  0.00     0.034 C 
BRANCH  26  27
HETATM   27  C2  UNL     1     -14.371   6.673  13.666  1.00  0.00    -0.075 C 
HETATM   28  C1  UNL     1     -13.108   6.961  13.301  1.00  0.00     0.015 C 
BRANCH  27  29
HETATM   29  C27 UNL     1     -15.548   7.637  13.452  1.00  0.00     0.107 C 
HETATM   30  C28 UNL     1     -15.660   8.779  14.466  1.00  0.00     0.026 C 
BRANCH  29  31
HETATM   31  C29 UNL     1     -15.522   8.233  12.045  1.00  0.00     0.147 C 
HETATM   32  O4  UNL     1     -15.237   9.372  11.711  1.00  0.00    -0.650 OA
BRANCH  31  33
HETATM   33  O5  UNL     1     -15.862   7.326  11.101  1.00  0.00    -0.776 OA
HETATM   34  H42 UNL     1     -15.813   7.829  10.261  1.00  0.00     0.167 HD
ENDBRANCH  31  33
ENDBRANCH  29  31
ENDBRANCH  27  29
ENDBRANCH  26  27
ENDBRANCH  25  26
ENDBRANCH  23  25
ENDBRANCH   1  23
BRANCH  22  35
HETATM   35  O3  UNL     1     -14.044  -2.233  14.687  1.00  0.00    -0.391 OA
HETATM   36  H37 UNL     1     -13.676  -1.364  14.917  1.00  0.00     0.210 HD
ENDBRANCH  22  35
TORSDOF 8
ENDMDL
MODEL 5
REMARK minimizedAffinity -7.56112337
REMARK CNNscore 0.494237989
REMARK CNNaffinity 7.03166199
REMARK  8 active torsions:
REMARK  status: ('A' for Active; 'I' for Inactive)
REMARK    1  A    between atoms: C2_2  and  C3_3 
REMARK    2  A    between atoms: C2_2  and  C27_30 
REMARK    3  A    between atoms: C3_3  and  C4_4 
REMARK    4  A    between atoms: C4_4  and  C5_5 
REMARK    5  A    between atoms: C5_5  and  C7_7 
REMARK    6  A    between atoms: C26_28  and  O3_29 
REMARK    7  A    between atoms: C27_30  and  C29_32 
REMARK    8  A    between atoms: C29_32  and  O5_34 
ROOT
HETATM    1  C7  UNL     1      -9.809   7.165  14.951  1.00  0.00    -0.002 C 
HETATM    2  C8  UNL     1      -9.144   8.570  14.941  1.00  0.00     0.006 C 
HETATM    3  C9  UNL     1     -10.268   9.585  14.687  1.00  0.00     0.010 C 
HETATM    4  C10 UNL     1     -11.552   8.769  14.847  1.00  0.00     0.027 C 
HETATM    5  C11 UNL     1     -12.878   9.304  14.357  1.00  0.00    -0.036 C 
HETATM    6  C12 UNL     1     -13.891   8.462  14.030  1.00  0.00     0.002 C 
HETATM    7  C13 UNL     1     -13.645   6.964  14.111  1.00  0.00     0.157 C 
HETATM    8  O1  UNL     1     -14.527   6.159  13.815  1.00  0.00    -0.293 OA
HETATM    9  C14 UNL     1     -12.297   6.444  14.589  1.00  0.00     0.093 C 
HETATM   10  C15 UNL     1     -11.165   7.403  14.223  1.00  0.00    -0.026 C 
HETATM   11  C16 UNL     1     -11.013   7.459  12.685  1.00  0.00     0.016 C 
HETATM   12  C17 UNL     1     -15.282   8.947  13.562  1.00  0.00    -0.008 C 
HETATM   13  C18 UNL     1     -15.339   8.695  12.030  1.00  0.00     0.021 C 
HETATM   14  C19 UNL     1     -16.451   8.171  14.252  1.00  0.00     0.022 C 
HETATM   15  C20 UNL     1     -17.735   8.968  14.485  1.00  0.00     0.080 C 
HETATM   16  C21 UNL     1     -17.923  10.055  13.459  1.00  0.00     0.131 C 
HETATM   17  O2  UNL     1     -18.980  10.179  12.840  1.00  0.00    -0.298 OA
HETATM   18  C22 UNL     1     -16.779  11.043  13.283  1.00  0.00     0.056 C 
HETATM   19  C23 UNL     1     -17.192  12.376  13.906  1.00  0.00     0.018 C 
HETATM   20  C24 UNL     1     -15.483  10.467  13.903  1.00  0.00     0.012 C 
HETATM   21  C25 UNL     1     -14.244  11.288  13.520  1.00  0.00     0.042 C 
HETATM   22  C26 UNL     1     -13.023  10.805  14.303  1.00  0.00     0.148 C 
ENDROOT
BRANCH   1  23
HETATM   23  C5  UNL     1      -8.825   6.022  14.576  1.00  0.00    -0.014 C 
HETATM   24  C6  UNL     1      -7.804   5.624  15.651  1.00  0.00     0.010 C 
BRANCH  23  25
HETATM   25  C4  UNL     1      -8.065   6.228  13.243  1.00  0.00     0.009 C 
BRANCH  25  26
HETATM   26  C3  UNL     1      -8.067   5.047  12.257  1.00  0.00     0.034 C 
BRANCH  26  27
HETATM   27  C2  UNL     1      -7.200   3.826  12.550  1.00  0.00    -0.075 C 
HETATM   28  C1  UNL     1      -7.600   2.810  13.339  1.00  0.00     0.015 C 
BRANCH  27  29
HETATM   29  C27 UNL     1      -5.807   3.891  11.906  1.00  0.00     0.107 C 
HETATM   30  C28 UNL     1      -4.641   4.112  12.874  1.00  0.00     0.026 C 
BRANCH  29  31
HETATM   31  C29 UNL     1      -5.524   2.638  11.078  1.00  0.00     0.147 C 
HETATM   32  O4  UNL     1      -5.403   1.487  11.465  1.00  0.00    -0.650 OA
BRANCH  31  33
HETATM   33  O5  UNL     1      -5.412   2.914   9.759  1.00  0.00    -0.776 OA
HETATM   34  H42 UNL     1      -5.228   2.043   9.350  1.00  0.00     0.167 HD
ENDBRANCH  31  33
ENDBRANCH  29  31
ENDBRANCH  27  29
ENDBRANCH  26  27
ENDBRANCH  25  26
ENDBRANCH  23  25
ENDBRANCH   1  23
BRANCH  22  35
HETATM   35  O3  UNL     1     -13.144  11.283  15.640  1.00  0.00    -0.391 OA
HETATM   36  H37 UNL     1     -12.326  11.058  16.114  1.00  0.00     0.210 HD
ENDBRANCH  22  35
TORSDOF 8
ENDMDL
MODEL 6
REMARK minimizedAffinity -8.40456009
REMARK CNNscore 0.465823948
REMARK CNNaffinity 6.700418
REMARK  8 active torsions:
REMARK  status: ('A' for Active; 'I' for Inactive)
REMARK    1  A    between atoms: C2_2  and  C3_3 
REMARK    2  A    between atoms: C2_2  and  C27_30 
REMARK    3  A    between atoms: C3_3  and  C4_4 
REMARK    4  A    between atoms: C4_4  and  C5_5 
REMARK    5  A    between atoms: C5_5  and  C7_7 
REMARK    6  A    between atoms: C26_28  and  O3_29 
REMARK    7  A    between atoms: C27_30  and  C29_32 
REMARK    8  A    between atoms: C29_32  and  O5_34 
ROOT
HETATM    1  C7  UNL     1      -8.181   7.675  14.758  1.00  0.00    -0.002 C 
HETATM    2  C8  UNL     1      -7.413   8.915  15.297  1.00  0.00     0.006 C 
HETATM    3  C9  UNL     1      -5.943   8.727  14.896  1.00  0.00     0.010 C 
HETATM    4  C10 UNL     1      -5.970   7.557  13.911  1.00  0.00     0.027 C 
HETATM    5  C11 UNL     1      -4.699   6.834  13.528  1.00  0.00    -0.036 C 
HETATM    6  C12 UNL     1      -4.732   5.550  13.090  1.00  0.00     0.002 C 
HETATM    7  C13 UNL     1      -6.072   4.833  13.046  1.00  0.00     0.157 C 
HETATM    8  O1  UNL     1      -6.154   3.665  12.667  1.00  0.00    -0.293 OA
HETATM    9  C14 UNL     1      -7.338   5.571  13.452  1.00  0.00     0.093 C 
HETATM   10  C15 UNL     1      -7.053   6.628  14.518  1.00  0.00    -0.026 C 
HETATM   11  C16 UNL     1      -6.597   5.935  15.823  1.00  0.00     0.016 C 
HETATM   12  C17 UNL     1      -3.473   4.770  12.646  1.00  0.00    -0.008 C 
HETATM   13  C18 UNL     1      -3.154   3.770  13.791  1.00  0.00     0.021 C 
HETATM   14  C19 UNL     1      -3.698   3.973  11.319  1.00  0.00     0.022 C 
HETATM   15  C20 UNL     1      -2.472   3.818  10.419  1.00  0.00     0.080 C 
HETATM   16  C21 UNL     1      -1.186   3.819  11.204  1.00  0.00     0.131 C 
HETATM   17  O2  UNL     1      -0.339   2.939  11.052  1.00  0.00    -0.298 OA
HETATM   18  C22 UNL     1      -0.946   5.002  12.131  1.00  0.00     0.056 C 
HETATM   19  C23 UNL     1       0.126   5.895  11.505  1.00  0.00     0.018 C 
HETATM   20  C24 UNL     1      -2.275   5.752  12.389  1.00  0.00     0.012 C 
HETATM   21  C25 UNL     1      -2.150   6.780  13.522  1.00  0.00     0.042 C 
HETATM   22  C26 UNL     1      -3.418   7.627  13.614  1.00  0.00     0.148 C 
ENDROOT
BRANCH   1  23
HETATM   23  C5  UNL     1      -9.479   7.368  15.556  1.00  0.00    -0.014 C 
HETATM   24  C6  UNL     1     -10.767   7.230  14.732  1.00  0.00     0.010 C 
BRANCH  23  25
HETATM   25  C4  UNL     1      -9.762   8.330  16.735  1.00  0.00     0.009 C 
BRANCH  25  26
HETATM   26  C3  UNL     1     -10.911   9.336  16.544  1.00  0.00     0.034 C 
BRANCH  26  27
HETATM   27  C2  UNL     1     -10.893  10.650  17.319  1.00  0.00    -0.075 C 
HETATM   28  C1  UNL     1     -11.041  10.720  18.655  1.00  0.00     0.015 C 
BRANCH  27  29
HETATM   29  C27 UNL     1     -10.747  11.890  16.425  1.00  0.00     0.107 C 
HETATM   30  C28 UNL     1      -9.458  12.695  16.613  1.00  0.00     0.026 C 
BRANCH  29  31
HETATM   31  C29 UNL     1     -10.883  11.522  14.947  1.00  0.00     0.147 C 
HETATM   32  O4  UNL     1     -11.833  11.008  14.380  1.00  0.00    -0.650 OA
BRANCH  31  33
HETATM   33  O5  UNL     1      -9.775  11.841  14.239  1.00  0.00    -0.776 OA
HETATM   34  H42 UNL     1      -9.987  11.553  13.327  1.00  0.00     0.167 HD
ENDBRANCH  31  33
ENDBRANCH  29  31
ENDBRANCH  27  29
ENDBRANCH  26  27
ENDBRANCH  25  26
ENDBRANCH  23  25
ENDBRANCH   1  23
BRANCH  22  35
HETATM   35  O3  UNL     1      -3.403   8.555  12.532  1.00  0.00    -0.391 OA
HETATM   36  H37 UNL     1      -4.159   9.156  12.643  1.00  0.00     0.210 HD
ENDBRANCH  22  35
TORSDOF 8
ENDMDL
MODEL 7
REMARK minimizedAffinity -7.50718403
REMARK CNNscore 0.405439019
REMARK CNNaffinity 6.07803297
REMARK  8 active torsions:
REMARK  status: ('A' for Active; 'I' for Inactive)
REMARK    1  A    between atoms: C2_2  and  C3_3 
REMARK    2  A    between atoms: C2_2  and  C27_30 
REMARK    3  A    between atoms: C3_3  and  C4_4 
REMARK    4  A    between atoms: C4_4  and  C5_5 
REMARK    5  A    between atoms: C5_5  and  C7_7 
REMARK    6  A    between atoms: C26_28  and  O3_29 
REMARK    7  A    between atoms: C27_30  and  C29_32 
REMARK    8  A    between atoms: C29_32  and  O5_34 
ROOT
HETATM    1  C7  UNL     1     -12.464 -12.391  26.473  1.00  0.00    -0.002 C 
HETATM    2  C8  UNL     1     -13.406 -12.411  25.236  1.00  0.00     0.006 C 
HETATM    3  C9  UNL     1     -14.142 -11.063  25.224  1.00  0.00     0.010 C 
HETATM    4  C10 UNL     1     -13.399 -10.222  26.263  1.00  0.00     0.027 C 
HETATM    5  C11 UNL     1     -14.001  -8.945  26.803  1.00  0.00    -0.036 C 
HETATM    6  C12 UNL     1     -13.644  -8.466  28.021  1.00  0.00     0.002 C 
HETATM    7  C13 UNL     1     -12.666  -9.274  28.860  1.00  0.00     0.157 C 
HETATM    8  O1  UNL     1     -12.319  -8.888  29.976  1.00  0.00    -0.293 OA
HETATM    9  C14 UNL     1     -12.085 -10.566  28.308  1.00  0.00     0.093 C 
HETATM   10  C15 UNL     1     -13.063 -11.262  27.364  1.00  0.00    -0.026 C 
HETATM   11  C16 UNL     1     -14.306 -11.727  28.158  1.00  0.00     0.016 C 
HETATM   12  C17 UNL     1     -14.192  -7.146  28.611  1.00  0.00    -0.008 C 
HETATM   13  C18 UNL     1     -15.219  -7.550  29.704  1.00  0.00     0.021 C 
HETATM   14  C19 UNL     1     -13.072  -6.269  29.261  1.00  0.00     0.022 C 
HETATM   15  C20 UNL     1     -13.281  -4.756  29.182  1.00  0.00     0.080 C 
HETATM   16  C21 UNL     1     -14.740  -4.384  29.145  1.00  0.00     0.131 C 
HETATM   17  O2  UNL     1     -15.209  -3.542  29.910  1.00  0.00    -0.298 OA
HETATM   18  C22 UNL     1     -15.590  -5.035  28.063  1.00  0.00     0.056 C 
HETATM   19  C23 UNL     1     -15.904  -3.985  26.998  1.00  0.00     0.018 C 
HETATM   20  C24 UNL     1     -14.860  -6.273  27.489  1.00  0.00     0.012 C 
HETATM   21  C25 UNL     1     -15.774  -7.124  26.597  1.00  0.00     0.042 C 
HETATM   22  C26 UNL     1     -14.968  -8.219  25.900  1.00  0.00     0.148 C 
ENDROOT
BRANCH   1  23
HETATM   23  C5  UNL     1     -12.126 -13.812  27.004  1.00  0.00    -0.014 C 
HETATM   24  C6  UNL     1     -11.712 -13.905  28.479  1.00  0.00     0.010 C 
BRANCH  23  25
HETATM   25  C4  UNL     1     -11.087 -14.591  26.162  1.00  0.00     0.009 C 
BRANCH  25  26
HETATM   26  C3  UNL     1     -10.399 -13.816  25.024  1.00  0.00     0.034 C 
BRANCH  26  27
HETATM   27  C2  UNL     1      -9.014 -13.219  25.255  1.00  0.00    -0.075 C 
HETATM   28  C1  UNL     1      -8.609 -12.734  26.444  1.00  0.00     0.015 C 
BRANCH  27  29
HETATM   29  C27 UNL     1      -8.145 -13.171  23.989  1.00  0.00     0.107 C 
HETATM   30  C28 UNL     1      -8.732 -13.866  22.757  1.00  0.00     0.026 C 
BRANCH  29  31
HETATM   31  C29 UNL     1      -7.794 -11.731  23.617  1.00  0.00     0.147 C 
HETATM   32  O4  UNL     1      -6.708 -11.277  23.295  1.00  0.00    -0.650 OA
BRANCH  31  33
HETATM   33  O5  UNL     1      -8.871 -10.914  23.667  1.00  0.00    -0.776 OA
HETATM   34  H42 UNL     1      -8.513 -10.037  23.418  1.00  0.00     0.167 HD
ENDBRANCH  31  33
ENDBRANCH  29  31
ENDBRANCH  27  29
ENDBRANCH  26  27
ENDBRANCH  25  26
ENDBRANCH  23  25
ENDBRANCH   1  23
BRANCH  22  35
HETATM   35  O3  UNL     1     -14.218  -7.610  24.852  1.00  0.00    -0.391 OA
HETATM   36  H37 UNL     1     -13.779  -8.316  24.349  1.00  0.00     0.210 HD
ENDBRANCH  22  35
TORSDOF 8
ENDMDL
MODEL 8
REMARK minimizedAffinity -9.19859409
REMARK CNNscore 0.396054536
REMARK CNNaffinity 6.9034934
REMARK  8 active torsions:
REMARK  status: ('A' for Active; 'I' for Inactive)
REMARK    1  A    between atoms: C2_2  and  C3_3 
REMARK    2  A    between atoms: C2_2  and  C27_30 
REMARK    3  A    between atoms: C3_3  and  C4_4 
REMARK    4  A    between atoms: C4_4  and  C5_5 
REMARK    5  A    between atoms: C5_5  and  C7_7 
REMARK    6  A    between atoms: C26_28  and  O3_29 
REMARK    7  A    between atoms: C27_30  and  C29_32 
REMARK    8  A    between atoms: C29_32  and  O5_34 
ROOT
HETATM    1  C7  UNL     1      -2.161   5.504  12.517  1.00  0.00    -0.002 C 
HETATM    2  C8  UNL     1      -2.765   4.205  11.912  1.00  0.00     0.006 C 
HETATM    3  C9  UNL     1      -4.262   4.219  12.250  1.00  0.00     0.010 C 
HETATM    4  C10 UNL     1      -4.515   5.635  12.772  1.00  0.00     0.027 C 
HETATM    5  C11 UNL     1      -5.782   5.972  13.523  1.00  0.00    -0.036 C 
HETATM    6  C12 UNL     1      -5.820   7.010  14.396  1.00  0.00     0.002 C 
HETATM    7  C13 UNL     1      -4.542   7.793  14.649  1.00  0.00     0.157 C 
HETATM    8  O1  UNL     1      -4.522   8.736  15.439  1.00  0.00    -0.293 OA
HETATM    9  C14 UNL     1      -3.271   7.428  13.897  1.00  0.00     0.093 C 
HETATM   10  C15 UNL     1      -3.221   5.936  13.573  1.00  0.00    -0.026 C 
HETATM   11  C16 UNL     1      -3.118   5.125  14.886  1.00  0.00     0.016 C 
HETATM   12  C17 UNL     1      -7.095   7.429  15.164  1.00  0.00    -0.008 C 
HETATM   13  C18 UNL     1      -6.901   6.948  16.628  1.00  0.00     0.021 C 
HETATM   14  C19 UNL     1      -7.315   8.977  15.160  1.00  0.00     0.022 C 
HETATM   15  C20 UNL     1      -8.771   9.444  15.176  1.00  0.00     0.080 C 
HETATM   16  C21 UNL     1      -9.677   8.457  15.864  1.00  0.00     0.131 C 
HETATM   17  O2  UNL     1     -10.456   8.808  16.751  1.00  0.00    -0.298 OA
HETATM   18  C22 UNL     1      -9.646   7.022  15.357  1.00  0.00     0.056 C 
HETATM   19  C23 UNL     1     -10.933   6.759  14.576  1.00  0.00     0.018 C 
HETATM   20  C24 UNL     1      -8.372   6.787  14.511  1.00  0.00     0.012 C 
HETATM   21  C25 UNL     1      -8.146   5.301  14.203  1.00  0.00     0.042 C 
HETATM   22  C26 UNL     1      -6.996   5.131  13.211  1.00  0.00     0.148 C 
ENDROOT
BRANCH   1  23
HETATM   23  C5  UNL     1      -0.643   5.383  12.827  1.00  0.00    -0.014 C 
HETATM   24  C6  UNL     1      -0.053   6.451  13.758  1.00  0.00     0.010 C 
BRANCH  23  25
HETATM   25  C4  UNL     1       0.270   5.271  11.582  1.00  0.00     0.009 C 
BRANCH  25  26
HETATM   26  C3  UNL     1       0.110   6.363  10.509  1.00  0.00     0.034 C 
BRANCH  26  27
HETATM   27  C2  UNL     1       1.294   7.264  10.175  1.00  0.00    -0.075 C 
HETATM   28  C1  UNL     1       1.713   8.259  10.980  1.00  0.00     0.015 C 
BRANCH  27  29
HETATM   29  C27 UNL     1       1.928   6.967   8.808  1.00  0.00     0.107 C 
HETATM   30  C28 UNL     1       2.307   8.194   7.973  1.00  0.00     0.026 C 
BRANCH  29  31
HETATM   31  C29 UNL     1       3.161   6.076   8.955  1.00  0.00     0.147 C 
HETATM   32  O4  UNL     1       4.075   6.175   9.757  1.00  0.00    -0.650 OA
BRANCH  31  33
HETATM   33  O5  UNL     1       3.172   5.068   8.053  1.00  0.00    -0.776 OA
HETATM   34  H42 UNL     1       4.002   4.586   8.247  1.00  0.00     0.167 HD
ENDBRANCH  31  33
ENDBRANCH  29  31
ENDBRANCH  27  29
ENDBRANCH  26  27
ENDBRANCH  25  26
ENDBRANCH  23  25
ENDBRANCH   1  23
BRANCH  22  35
HETATM   35  O3  UNL     1      -7.472   5.508  11.922  1.00  0.00    -0.391 OA
HETATM   36  H37 UNL     1      -6.773   5.311  11.276  1.00  0.00     0.210 HD
ENDBRANCH  22  35
TORSDOF 8
ENDMDL
MODEL 9
REMARK minimizedAffinity -8.04582214
REMARK CNNscore 0.39361605
REMARK CNNaffinity 6.38159895
REMARK  8 active torsions:
REMARK  status: ('A' for Active; 'I' for Inactive)
REMARK    1  A    between atoms: C2_2  and  C3_3 
REMARK    2  A    between atoms: C2_2  and  C27_30 
REMARK    3  A    between atoms: C3_3  and  C4_4 
REMARK    4  A    between atoms: C4_4  and  C5_5 
REMARK    5  A    between atoms: C5_5  and  C7_7 
REMARK    6  A    between atoms: C26_28  and  O3_29 
REMARK    7  A    between atoms: C27_30  and  C29_32 
REMARK    8  A    between atoms: C29_32  and  O5_34 
ROOT
HETATM    1  C7  UNL     1      -2.026   7.019  12.653  1.00  0.00    -0.002 C 
HETATM    2  C8  UNL     1      -3.425   6.529  13.122  1.00  0.00     0.006 C 
HETATM    3  C9  UNL     1      -3.848   7.453  14.274  1.00  0.00     0.010 C 
HETATM    4  C10 UNL     1      -2.830   8.594  14.232  1.00  0.00     0.027 C 
HETATM    5  C11 UNL     1      -2.682   9.547  15.396  1.00  0.00    -0.036 C 
HETATM    6  C12 UNL     1      -1.519  10.213  15.608  1.00  0.00     0.002 C 
HETATM    7  C13 UNL     1      -0.345   9.937  14.682  1.00  0.00     0.157 C 
HETATM    8  O1  UNL     1       0.734  10.506  14.839  1.00  0.00    -0.293 OA
HETATM    9  C14 UNL     1      -0.507   8.961  13.527  1.00  0.00     0.093 C 
HETATM   10  C15 UNL     1      -1.515   7.862  13.859  1.00  0.00    -0.026 C 
HETATM   11  C16 UNL     1      -0.963   6.984  15.007  1.00  0.00     0.016 C 
HETATM   12  C17 UNL     1      -1.318  11.230  16.755  1.00  0.00    -0.008 C 
HETATM   13  C18 UNL     1      -0.441  10.517  17.821  1.00  0.00     0.021 C 
HETATM   14  C19 UNL     1      -0.592  12.531  16.283  1.00  0.00     0.022 C 
HETATM   15  C20 UNL     1      -0.984  13.816  17.012  1.00  0.00     0.080 C 
HETATM   16  C21 UNL     1      -1.428  13.554  18.428  1.00  0.00     0.131 C 
HETATM   17  O2  UNL     1      -0.955  14.182  19.376  1.00  0.00    -0.298 OA
HETATM   18  C22 UNL     1      -2.544  12.539  18.624  1.00  0.00     0.056 C 
HETATM   19  C23 UNL     1      -3.822  13.292  18.991  1.00  0.00     0.018 C 
HETATM   20  C24 UNL     1      -2.702  11.673  17.352  1.00  0.00     0.012 C 
HETATM   21  C25 UNL     1      -3.617  10.463  17.584  1.00  0.00     0.042 C 
HETATM   22  C26 UNL     1      -3.900   9.748  16.263  1.00  0.00     0.148 C 
ENDROOT
BRANCH   1  23
HETATM   23  C5  UNL     1      -1.187   5.902  11.972  1.00  0.00    -0.014 C 
HETATM   24  C6  UNL     1      -1.364   4.483  12.531  1.00  0.00     0.010 C 
BRANCH  23  25
HETATM   25  C4  UNL     1       0.330   6.194  11.874  1.00  0.00     0.009 C 
BRANCH  25  26
HETATM   26  C3  UNL     1       0.976   6.031  10.487  1.00  0.00     0.034 C 
BRANCH  26  27
HETATM   27  C2  UNL     1       1.056   7.234   9.552  1.00  0.00    -0.075 C 
HETATM   28  C1  UNL     1       0.277   8.324   9.684  1.00  0.00     0.015 C 
BRANCH  27  29
HETATM   29  C27 UNL     1       2.070   7.060   8.411  1.00  0.00     0.107 C 
HETATM   30  C28 UNL     1       2.647   8.357   7.835  1.00  0.00     0.026 C 
BRANCH  29  31
HETATM   31  C29 UNL     1       3.227   6.156   8.835  1.00  0.00     0.147 C 
HETATM   32  O4  UNL     1       4.076   6.364   9.686  1.00  0.00    -0.650 OA
BRANCH  31  33
HETATM   33  O5  UNL     1       3.246   4.995   8.142  1.00  0.00    -0.776 OA
HETATM   34  H42 UNL     1       4.025   4.520   8.499  1.00  0.00     0.167 HD
ENDBRANCH  31  33
ENDBRANCH  29  31
ENDBRANCH  27  29
ENDBRANCH  26  27
ENDBRANCH  25  26
ENDBRANCH  23  25
ENDBRANCH   1  23
BRANCH  22  35
HETATM   35  O3  UNL     1      -4.835  10.537  15.532  1.00  0.00    -0.391 OA
HETATM   36  H37 UNL     1      -5.088  10.040  14.736  1.00  0.00     0.210 HD
ENDBRANCH  22  35
TORSDOF 8
ENDMDL
