MODEL 1
REMARK minimizedAffinity -9.94475937
REMARK  7 active torsions:
REMARK  status: ('A' for Active; 'I' for Inactive)
REMARK    1  A    between atoms: N1_2  and  C2_3 
REMARK    2  A    between atoms: C2_3  and  C3_4 
REMARK    3  A    between atoms: C5_6  and  O1_7 
REMARK    4  A    between atoms: C25_28  and  N2_29 
REMARK    5  A    between atoms: C25_28  and  C26_30 
REMARK    6  A    between atoms: C26_30  and  C27_31 
REMARK    7  A    between atoms: C27_31  and  O3_32 
ROOT
HETATM    1  C3  UNL     1      -5.054  50.690 -23.939  1.00  0.00    -0.021 A 
HETATM    2  C4  UNL     1      -4.423  51.887 -24.344  1.00  0.00     0.045 A 
HETATM    3  C5  UNL     1      -3.586  51.914 -25.448  1.00  0.00     0.066 A 
HETATM    4  C6  UNL     1      -3.300  50.745 -26.130  1.00  0.00     0.045 A 
HETATM    5  C7  UNL     1      -3.867  49.514 -25.738  1.00  0.00    -0.037 A 
HETATM    6  C8  UNL     1      -4.816  49.480 -24.674  1.00  0.00    -0.042 A 
HETATM    7  C9  UNL     1      -5.506  48.184 -24.249  1.00  0.00     0.044 C 
HETATM    8  C10 UNL     1      -6.897  47.793 -24.842  1.00  0.00    -0.010 C 
HETATM    9  C11 UNL     1      -7.995  48.861 -24.767  1.00  0.00     0.005 C 
HETATM   10  C12 UNL     1      -9.255  48.405 -25.502  1.00  0.00     0.001 C 
HETATM   11  C13 UNL     1      -9.018  48.141 -26.990  1.00  0.00     0.007 C 
HETATM   12  C14 UNL     1      -7.530  47.939 -27.356  1.00  0.00     0.022 C 
HETATM   13  C15 UNL     1      -6.850  47.118 -26.231  1.00  0.00     0.012 C 
HETATM   14  C16 UNL     1      -7.330  47.357 -28.813  1.00  0.00     0.082 C 
HETATM   15  C17 UNL     1      -7.331  45.806 -28.828  1.00  0.00     0.045 C 
HETATM   16  C18 UNL     1      -7.203  45.246 -30.261  1.00  0.00    -0.002 C 
HETATM   17  C19 UNL     1      -8.315  44.248 -30.621  1.00  0.00     0.005 C 
HETATM   18  C20 UNL     1      -9.447  44.876 -31.420  1.00  0.00     0.003 C 
HETATM   19  C21 UNL     1      -9.746  46.286 -30.939  1.00  0.00     0.038 C 
HETATM   20  C22 UNL     1      -8.499  47.224 -30.950  1.00  0.00     0.065 C 
HETATM   21  C23 UNL     1      -8.789  48.374 -31.921  1.00  0.00     0.046 C 
HETATM   22  O2  UNL     1      -8.450  47.814 -29.629  1.00  0.00    -0.367 OA
HETATM   23  C24 UNL     1      -7.161  46.457 -31.237  1.00  0.00     0.064 C 
HETATM   24  C25 UNL     1      -5.860  47.291 -30.928  1.00  0.00     0.180 C 
HETATM   25  C28 UNL     1      -6.082  47.976 -29.532  1.00  0.00     0.139 C 
HETATM   26  C29 UNL     1      -4.893  48.034 -28.663  1.00  0.00    -0.096 C 
HETATM   27  C30 UNL     1      -4.099  48.143 -27.773  1.00  0.00    -0.101 C 
HETATM   28  C31 UNL     1      -3.367  48.301 -26.512  1.00  0.00     0.133 C 
ENDROOT
BRANCH  24  29
HETATM   29  N2  UNL     1      -4.706  46.350 -30.913  1.00  0.00     0.090 N 
HETATM   30  H35 UNL     1      -3.851  46.844 -30.642  1.00  0.00     0.313 HD
HETATM   31  H36 UNL     1      -4.531  45.958 -31.837  1.00  0.00     0.313 HD
ENDBRANCH  24  29
BRANCH  24  32
HETATM   32  C26 UNL     1      -5.487  48.376 -31.986  1.00  0.00     0.069 C 
BRANCH  32  33
HETATM   33  C27 UNL     1      -4.772  47.873 -33.239  1.00  0.00     0.166 C 
BRANCH  33  34
HETATM   34  O3  UNL     1      -3.367  48.053 -33.092  1.00  0.00    -0.401 OA
HETATM   35  H41 UNL     1      -3.197  49.004 -32.977  1.00  0.00     0.209 HD
ENDBRANCH  33  34
ENDBRANCH  32  33
ENDBRANCH  24  32
BRANCH   3  36
HETATM   36  O1  UNL     1      -2.999  53.062 -25.878  1.00  0.00    -0.361 OA
HETATM   37  H8  UNL     1      -3.337  53.797 -25.341  1.00  0.00     0.217 HD
ENDBRANCH   3  36
BRANCH   1  38
HETATM   38  C2  UNL     1      -5.848  50.690 -22.634  1.00  0.00     0.308 C 
BRANCH  38  39
HETATM   39  N1  UNL     1      -5.260  51.497 -21.553  1.00  0.00     0.083 N 
HETATM   40  C1  UNL     1      -4.724  50.636 -20.504  1.00  0.00     0.307 C 
HETATM   41  H4  UNL     1      -5.995  52.083 -21.152  1.00  0.00     0.315 HD
ENDBRANCH  38  39
ENDBRANCH   1  38
TORSDOF 7
ENDMDL
MODEL 2
REMARK minimizedAffinity -9.29790306
REMARK  7 active torsions:
REMARK  status: ('A' for Active; 'I' for Inactive)
REMARK    1  A    between atoms: N1_2  and  C2_3 
REMARK    2  A    between atoms: C2_3  and  C3_4 
REMARK    3  A    between atoms: C5_6  and  O1_7 
REMARK    4  A    between atoms: C25_28  and  N2_29 
REMARK    5  A    between atoms: C25_28  and  C26_30 
REMARK    6  A    between atoms: C26_30  and  C27_31 
REMARK    7  A    between atoms: C27_31  and  O3_32 
ROOT
HETATM    1  C3  UNL     1      -3.414  51.335 -24.695  1.00  0.00    -0.021 A 
HETATM    2  C4  UNL     1      -3.057  52.336 -25.625  1.00  0.00     0.045 A 
HETATM    3  C5  UNL     1      -2.894  52.036 -26.968  1.00  0.00     0.066 A 
HETATM    4  C6  UNL     1      -3.010  50.728 -27.405  1.00  0.00     0.045 A 
HETATM    5  C7  UNL     1      -3.319  49.684 -26.509  1.00  0.00    -0.037 A 
HETATM    6  C8  UNL     1      -3.599  49.984 -25.144  1.00  0.00    -0.042 A 
HETATM    7  C9  UNL     1      -4.000  48.899 -24.144  1.00  0.00     0.044 C 
HETATM    8  C10 UNL     1      -5.506  48.587 -23.871  1.00  0.00    -0.010 C 
HETATM    9  C11 UNL     1      -6.398  49.784 -23.522  1.00  0.00     0.005 C 
HETATM   10  C12 UNL     1      -7.863  49.363 -23.417  1.00  0.00     0.001 C 
HETATM   11  C13 UNL     1      -8.416  48.785 -24.721  1.00  0.00     0.007 C 
HETATM   12  C14 UNL     1      -7.321  48.321 -25.708  1.00  0.00     0.022 C 
HETATM   13  C15 UNL     1      -6.178  47.653 -24.902  1.00  0.00     0.012 C 
HETATM   14  C16 UNL     1      -7.895  47.444 -26.892  1.00  0.00     0.082 C 
HETATM   15  C17 UNL     1      -7.927  45.933 -26.540  1.00  0.00     0.045 C 
HETATM   16  C18 UNL     1      -8.550  45.092 -27.674  1.00  0.00    -0.002 C 
HETATM   17  C19 UNL     1      -9.707  44.199 -27.199  1.00  0.00     0.005 C 
HETATM   18  C20 UNL     1     -11.077  44.802 -27.465  1.00  0.00     0.003 C 
HETATM   19  C21 UNL     1     -11.070  46.306 -27.246  1.00  0.00     0.038 C 
HETATM   20  C22 UNL     1      -9.987  47.051 -28.085  1.00  0.00     0.065 C 
HETATM   21  C23 UNL     1     -10.710  48.017 -29.029  1.00  0.00     0.046 C 
HETATM   22  O2  UNL     1      -9.267  47.876 -27.138  1.00  0.00    -0.367 OA
HETATM   23  C24 UNL     1      -8.989  46.074 -28.800  1.00  0.00     0.064 C 
HETATM   24  C25 UNL     1      -7.698  46.773 -29.372  1.00  0.00     0.180 C 
HETATM   25  C28 UNL     1      -7.172  47.740 -28.252  1.00  0.00     0.139 C 
HETATM   26  C29 UNL     1      -5.707  47.810 -28.117  1.00  0.00    -0.096 C 
HETATM   27  C30 UNL     1      -4.570  47.985 -27.783  1.00  0.00    -0.101 C 
HETATM   28  C31 UNL     1      -3.298  48.288 -27.119  1.00  0.00     0.133 C 
ENDROOT
BRANCH  24  29
HETATM   29  N2  UNL     1      -6.709  45.708 -29.702  1.00  0.00     0.090 N 
HETATM   30  H35 UNL     1      -5.828  46.129 -30.009  1.00  0.00     0.313 HD
HETATM   31  H36 UNL     1      -7.032  45.124 -30.472  1.00  0.00     0.313 HD
ENDBRANCH  24  29
BRANCH  24  32
HETATM   32  C26 UNL     1      -7.895  47.571 -30.699  1.00  0.00     0.069 C 
BRANCH  32  33
HETATM   33  C27 UNL     1      -7.319  48.986 -30.723  1.00  0.00     0.166 C 
BRANCH  33  34
HETATM   34  O3  UNL     1      -8.381  49.934 -30.751  1.00  0.00    -0.401 OA
HETATM   35  H41 UNL     1      -8.901  49.778 -31.558  1.00  0.00     0.209 HD
ENDBRANCH  33  34
ENDBRANCH  32  33
ENDBRANCH  24  32
BRANCH   3  36
HETATM   36  O1  UNL     1      -2.587  52.990 -27.886  1.00  0.00    -0.361 OA
HETATM   37  H8  UNL     1      -2.596  53.854 -27.443  1.00  0.00     0.217 HD
ENDBRANCH   3  36
BRANCH   1  38
HETATM   38  C2  UNL     1      -3.439  51.695 -23.210  1.00  0.00     0.308 C 
BRANCH  38  39
HETATM   39  N1  UNL     1      -2.153  52.160 -22.666  1.00  0.00     0.083 N 
HETATM   40  C1  UNL     1      -1.198  51.059 -22.595  1.00  0.00     0.307 C 
HETATM   41  H4  UNL     1      -2.313  52.516 -21.721  1.00  0.00     0.315 HD
ENDBRANCH  38  39
ENDBRANCH   1  38
TORSDOF 7
ENDMDL
MODEL 3
REMARK minimizedAffinity -9.13246727
REMARK  7 active torsions:
REMARK  status: ('A' for Active; 'I' for Inactive)
REMARK    1  A    between atoms: N1_2  and  C2_3 
REMARK    2  A    between atoms: C2_3  and  C3_4 
REMARK    3  A    between atoms: C5_6  and  O1_7 
REMARK    4  A    between atoms: C25_28  and  N2_29 
REMARK    5  A    between atoms: C25_28  and  C26_30 
REMARK    6  A    between atoms: C26_30  and  C27_31 
REMARK    7  A    between atoms: C27_31  and  O3_32 
ROOT
HETATM    1  C3  UNL     1      -2.056  52.182 -24.208  1.00  0.00    -0.021 A 
HETATM    2  C4  UNL     1      -3.421  52.246 -24.566  1.00  0.00     0.045 A 
HETATM    3  C5  UNL     1      -4.311  51.265 -24.159  1.00  0.00     0.066 A 
HETATM    4  C6  UNL     1      -3.857  50.165 -23.453  1.00  0.00     0.045 A 
HETATM    5  C7  UNL     1      -2.495  50.029 -23.110  1.00  0.00    -0.037 A 
HETATM    6  C8  UNL     1      -1.580  51.078 -23.422  1.00  0.00    -0.042 A 
HETATM    7  C9  UNL     1      -0.107  51.010 -23.020  1.00  0.00     0.044 C 
HETATM    8  C10 UNL     1       0.382  51.650 -21.682  1.00  0.00    -0.010 C 
HETATM    9  C11 UNL     1      -0.020  53.109 -21.437  1.00  0.00     0.005 C 
HETATM   10  C12 UNL     1       0.399  53.567 -20.040  1.00  0.00     0.001 C 
HETATM   11  C13 UNL     1      -0.252  52.752 -18.921  1.00  0.00     0.007 C 
HETATM   12  C14 UNL     1      -0.813  51.390 -19.392  1.00  0.00     0.022 C 
HETATM   13  C15 UNL     1       0.169  50.779 -20.423  1.00  0.00     0.012 C 
HETATM   14  C16 UNL     1      -1.187  50.433 -18.188  1.00  0.00     0.082 C 
HETATM   15  C17 UNL     1       0.012  49.554 -17.745  1.00  0.00     0.045 C 
HETATM   16  C18 UNL     1      -0.341  48.672 -16.529  1.00  0.00    -0.002 C 
HETATM   17  C19 UNL     1       0.642  48.835 -15.359  1.00  0.00     0.005 C 
HETATM   18  C20 UNL     1       0.140  49.785 -14.283  1.00  0.00     0.003 C 
HETATM   19  C21 UNL     1      -0.601  50.965 -14.891  1.00  0.00     0.038 C 
HETATM   20  C22 UNL     1      -1.778  50.545 -15.824  1.00  0.00     0.065 C 
HETATM   21  C23 UNL     1      -3.074  51.095 -15.219  1.00  0.00     0.046 C 
HETATM   22  O2  UNL     1      -1.569  51.273 -17.058  1.00  0.00    -0.367 OA
HETATM   23  C24 UNL     1      -1.805  49.004 -16.117  1.00  0.00     0.064 C 
HETATM   24  C25 UNL     1      -2.754  48.589 -17.305  1.00  0.00     0.180 C 
HETATM   25  C28 UNL     1      -2.484  49.600 -18.476  1.00  0.00     0.139 C 
HETATM   26  C29 UNL     1      -2.499  49.016 -19.828  1.00  0.00    -0.096 C 
HETATM   27  C30 UNL     1      -2.404  48.766 -20.996  1.00  0.00    -0.101 C 
HETATM   28  C31 UNL     1      -2.131  48.714 -22.436  1.00  0.00     0.133 C 
ENDROOT
BRANCH  24  29
HETATM   29  N2  UNL     1      -2.423  47.188 -17.687  1.00  0.00     0.090 N 
HETATM   30  H35 UNL     1      -2.970  46.907 -18.506  1.00  0.00     0.313 HD
HETATM   31  H36 UNL     1      -2.660  46.532 -16.944  1.00  0.00     0.313 HD
ENDBRANCH  24  29
BRANCH  24  32
HETATM   32  C26 UNL     1      -4.279  48.571 -16.975  1.00  0.00     0.069 C 
BRANCH  32  33
HETATM   33  C27 UNL     1      -5.223  48.429 -18.168  1.00  0.00     0.166 C 
BRANCH  33  34
HETATM   34  O3  UNL     1      -6.573  48.478 -17.718  1.00  0.00    -0.401 OA
HETATM   35  H41 UNL     1      -6.710  47.737 -17.101  1.00  0.00     0.209 HD
ENDBRANCH  33  34
ENDBRANCH  32  33
ENDBRANCH  24  32
BRANCH   3  36
HETATM   36  O1  UNL     1      -5.636  51.326 -24.460  1.00  0.00    -0.361 OA
HETATM   37  H8  UNL     1      -5.809  52.173 -24.902  1.00  0.00     0.217 HD
ENDBRANCH   3  36
BRANCH   1  38
HETATM   38  C2  UNL     1      -1.097  53.211 -24.804  1.00  0.00     0.308 C 
BRANCH  38  39
HETATM   39  N1  UNL     1      -1.033  53.217 -26.274  1.00  0.00     0.083 N 
HETATM   40  C1  UNL     1       0.334  52.985 -26.728  1.00  0.00     0.307 C 
HETATM   41  H4  UNL     1      -1.337  54.134 -26.606  1.00  0.00     0.315 HD
ENDBRANCH  38  39
ENDBRANCH   1  38
TORSDOF 7
ENDMDL
MODEL 4
REMARK minimizedAffinity -8.83315086
REMARK  7 active torsions:
REMARK  status: ('A' for Active; 'I' for Inactive)
REMARK    1  A    between atoms: N1_2  and  C2_3 
REMARK    2  A    between atoms: C2_3  and  C3_4 
REMARK    3  A    between atoms: C5_6  and  O1_7 
REMARK    4  A    between atoms: C25_28  and  N2_29 
REMARK    5  A    between atoms: C25_28  and  C26_30 
REMARK    6  A    between atoms: C26_30  and  C27_31 
REMARK    7  A    between atoms: C27_31  and  O3_32 
ROOT
HETATM    1  C3  UNL     1      -0.194  52.130 -24.953  1.00  0.00    -0.021 A 
HETATM    2  C4  UNL     1       0.790  52.116 -23.939  1.00  0.00     0.045 A 
HETATM    3  C5  UNL     1       0.442  52.261 -22.606  1.00  0.00     0.066 A 
HETATM    4  C6  UNL     1      -0.876  52.493 -22.254  1.00  0.00     0.045 A 
HETATM    5  C7  UNL     1      -1.891  52.562 -23.231  1.00  0.00    -0.037 A 
HETATM    6  C8  UNL     1      -1.574  52.307 -24.598  1.00  0.00    -0.042 A 
HETATM    7  C9  UNL     1      -2.645  52.308 -25.689  1.00  0.00     0.044 C 
HETATM    8  C10 UNL     1      -3.345  50.979 -26.117  1.00  0.00    -0.010 C 
HETATM    9  C11 UNL     1      -2.422  49.809 -26.480  1.00  0.00     0.005 C 
HETATM   10  C12 UNL     1      -3.228  48.537 -26.743  1.00  0.00     0.001 C 
HETATM   11  C13 UNL     1      -4.040  48.080 -25.530  1.00  0.00     0.007 C 
HETATM   12  C14 UNL     1      -4.254  49.187 -24.473  1.00  0.00     0.022 C 
HETATM   13  C15 UNL     1      -4.509  50.529 -25.206  1.00  0.00     0.012 C 
HETATM   14  C16 UNL     1      -5.348  48.804 -23.397  1.00  0.00     0.082 C 
HETATM   15  C17 UNL     1      -6.774  49.232 -23.834  1.00  0.00     0.045 C 
HETATM   16  C18 UNL     1      -7.844  48.795 -22.811  1.00  0.00    -0.002 C 
HETATM   17  C19 UNL     1      -8.985  47.981 -23.440  1.00  0.00     0.005 C 
HETATM   18  C20 UNL     1      -8.814  46.479 -23.268  1.00  0.00     0.003 C 
HETATM   19  C21 UNL     1      -7.356  46.071 -23.402  1.00  0.00     0.038 C 
HETATM   20  C22 UNL     1      -6.407  46.832 -22.426  1.00  0.00     0.065 C 
HETATM   21  C23 UNL     1      -5.760  45.795 -21.500  1.00  0.00     0.046 C 
HETATM   22  O2  UNL     1      -5.340  47.352 -23.255  1.00  0.00    -0.367 OA
HETATM   23  C24 UNL     1      -7.118  48.013 -21.678  1.00  0.00     0.064 C 
HETATM   24  C25 UNL     1      -6.132  49.005 -20.951  1.00  0.00     0.180 C 
HETATM   25  C28 UNL     1      -4.970  49.311 -21.962  1.00  0.00     0.139 C 
HETATM   26  C29 UNL     1      -4.482  50.700 -21.958  1.00  0.00    -0.096 C 
HETATM   27  C30 UNL     1      -3.968  51.761 -22.175  1.00  0.00    -0.101 C 
HETATM   28  C31 UNL     1      -3.268  52.937 -22.701  1.00  0.00     0.133 C 
ENDROOT
BRANCH  24  29
HETATM   29  N2  UNL     1      -6.899  50.230 -20.590  1.00  0.00     0.090 N 
HETATM   30  H35 UNL     1      -6.274  50.929 -20.181  1.00  0.00     0.313 HD
HETATM   31  H36 UNL     1      -7.610  50.033 -19.888  1.00  0.00     0.313 HD
ENDBRANCH  24  29
BRANCH  24  32
HETATM   32  C26 UNL     1      -5.530  48.491 -19.606  1.00  0.00     0.069 C 
BRANCH  32  33
HETATM   33  C27 UNL     1      -6.526  48.249 -18.473  1.00  0.00     0.166 C 
BRANCH  33  34
HETATM   34  O3  UNL     1      -5.838  47.758 -17.328  1.00  0.00    -0.401 OA
HETATM   35  H41 UNL     1      -5.409  46.919 -17.572  1.00  0.00     0.209 HD
ENDBRANCH  33  34
ENDBRANCH  32  33
ENDBRANCH  24  32
BRANCH   3  36
HETATM   36  O1  UNL     1       1.368  52.214 -21.611  1.00  0.00    -0.361 OA
HETATM   37  H8  UNL     1       2.226  51.990 -22.005  1.00  0.00     0.217 HD
ENDBRANCH   3  36
BRANCH   1  38
HETATM   38  C2  UNL     1       0.261  52.111 -26.411  1.00  0.00     0.308 C 
BRANCH  38  39
HETATM   39  N1  UNL     1       1.633  52.595 -26.636  1.00  0.00     0.083 N 
HETATM   40  C1  UNL     1       2.566  51.476 -26.712  1.00  0.00     0.307 C 
HETATM   41  H4  UNL     1       1.898  53.190 -25.849  1.00  0.00     0.315 HD
ENDBRANCH  38  39
ENDBRANCH   1  38
TORSDOF 7
ENDMDL
MODEL 5
REMARK minimizedAffinity -8.49735832
REMARK  7 active torsions:
REMARK  status: ('A' for Active; 'I' for Inactive)
REMARK    1  A    between atoms: N1_2  and  C2_3 
REMARK    2  A    between atoms: C2_3  and  C3_4 
REMARK    3  A    between atoms: C5_6  and  O1_7 
REMARK    4  A    between atoms: C25_28  and  N2_29 
REMARK    5  A    between atoms: C25_28  and  C26_30 
REMARK    6  A    between atoms: C26_30  and  C27_31 
REMARK    7  A    between atoms: C27_31  and  O3_32 
ROOT
HETATM    1  C3  UNL     1       7.736  63.703 -34.314  1.00  0.00    -0.021 A 
HETATM    2  C4  UNL     1       7.506  62.375 -34.735  1.00  0.00     0.045 A 
HETATM    3  C5  UNL     1       6.221  61.917 -34.978  1.00  0.00     0.066 A 
HETATM    4  C6  UNL     1       5.134  62.740 -34.740  1.00  0.00     0.045 A 
HETATM    5  C7  UNL     1       5.307  64.060 -34.274  1.00  0.00    -0.037 A 
HETATM    6  C8  UNL     1       6.622  64.590 -34.122  1.00  0.00    -0.042 A 
HETATM    7  C9  UNL     1       6.866  66.032 -33.680  1.00  0.00     0.044 C 
HETATM    8  C10 UNL     1       7.066  67.164 -34.738  1.00  0.00    -0.010 C 
HETATM    9  C11 UNL     1       8.120  66.907 -35.821  1.00  0.00     0.005 C 
HETATM   10  C12 UNL     1       8.117  68.023 -36.865  1.00  0.00     0.001 C 
HETATM   11  C13 UNL     1       6.780  68.158 -37.595  1.00  0.00     0.007 C 
HETATM   12  C14 UNL     1       5.599  67.492 -36.854  1.00  0.00     0.022 C 
HETATM   13  C15 UNL     1       5.763  67.742 -35.333  1.00  0.00     0.012 C 
HETATM   14  C16 UNL     1       4.191  67.909 -37.444  1.00  0.00     0.082 C 
HETATM   15  C17 UNL     1       3.627  69.185 -36.766  1.00  0.00     0.045 C 
HETATM   16  C18 UNL     1       2.287  69.624 -37.393  1.00  0.00    -0.002 C 
HETATM   17  C19 UNL     1       2.288  71.089 -37.859  1.00  0.00     0.005 C 
HETATM   18  C20 UNL     1       2.551  71.242 -39.349  1.00  0.00     0.003 C 
HETATM   19  C21 UNL     1       3.581  70.236 -39.834  1.00  0.00     0.038 C 
HETATM   20  C22 UNL     1       3.206  68.757 -39.508  1.00  0.00     0.065 C 
HETATM   21  C23 UNL     1       3.054  68.010 -40.837  1.00  0.00     0.046 C 
HETATM   22  O2  UNL     1       4.375  68.197 -38.862  1.00  0.00    -0.367 OA
HETATM   23  C24 UNL     1       1.967  68.638 -38.554  1.00  0.00     0.064 C 
HETATM   24  C25 UNL     1       1.763  67.202 -37.936  1.00  0.00     0.180 C 
HETATM   25  C28 UNL     1       3.173  66.716 -37.445  1.00  0.00     0.139 C 
HETATM   26  C29 UNL     1       3.174  65.963 -36.180  1.00  0.00    -0.096 C 
HETATM   27  C30 UNL     1       3.430  65.391 -35.159  1.00  0.00    -0.101 C 
HETATM   28  C31 UNL     1       4.016  64.801 -33.951  1.00  0.00     0.133 C 
ENDROOT
BRANCH  24  29
HETATM   29  N2  UNL     1       0.789  67.321 -36.815  1.00  0.00     0.090 N 
HETATM   30  H35 UNL     1       0.687  66.419 -36.340  1.00  0.00     0.313 HD
HETATM   31  H36 UNL     1      -0.138  67.576 -37.150  1.00  0.00     0.313 HD
ENDBRANCH  24  29
BRANCH  24  32
HETATM   32  C26 UNL     1       1.150  66.136 -38.897  1.00  0.00     0.069 C 
BRANCH  32  33
HETATM   33  C27 UNL     1       0.151  66.657 -39.928  1.00  0.00     0.166 C 
BRANCH  33  34
HETATM   34  O3  UNL     1      -0.714  65.601 -40.333  1.00  0.00    -0.401 OA
HETATM   35  H41 UNL     1      -0.167  64.901 -40.731  1.00  0.00     0.209 HD
ENDBRANCH  33  34
ENDBRANCH  32  33
ENDBRANCH  24  32
BRANCH   3  36
HETATM   36  O1  UNL     1       5.979  60.654 -35.419  1.00  0.00    -0.361 OA
HETATM   37  H8  UNL     1       6.831  60.223 -35.592  1.00  0.00     0.217 HD
ENDBRANCH   3  36
BRANCH   1  38
HETATM   38  C2  UNL     1       9.156  64.108 -33.924  1.00  0.00     0.308 C 
BRANCH  38  39
HETATM   39  N1  UNL     1      10.121  62.999 -33.864  1.00  0.00     0.083 N 
HETATM   40  C1  UNL     1      10.865  63.033 -32.609  1.00  0.00     0.307 C 
HETATM   41  H4  UNL     1      10.780  63.103 -34.638  1.00  0.00     0.315 HD
ENDBRANCH  38  39
ENDBRANCH   1  38
TORSDOF 7
ENDMDL
MODEL 6
REMARK minimizedAffinity -8.25506401
REMARK  7 active torsions:
REMARK  status: ('A' for Active; 'I' for Inactive)
REMARK    1  A    between atoms: N1_2  and  C2_3 
REMARK    2  A    between atoms: C2_3  and  C3_4 
REMARK    3  A    between atoms: C5_6  and  O1_7 
REMARK    4  A    between atoms: C25_28  and  N2_29 
REMARK    5  A    between atoms: C25_28  and  C26_30 
REMARK    6  A    between atoms: C26_30  and  C27_31 
REMARK    7  A    between atoms: C27_31  and  O3_32 
ROOT
HETATM    1  C3  UNL     1      -0.906  52.239 -24.448  1.00  0.00    -0.021 A 
HETATM    2  C4  UNL     1       0.286  52.102 -23.703  1.00  0.00     0.045 A 
HETATM    3  C5  UNL     1       0.253  51.962 -22.325  1.00  0.00     0.066 A 
HETATM    4  C6  UNL     1      -0.953  52.026 -21.650  1.00  0.00     0.045 A 
HETATM    5  C7  UNL     1      -2.169  52.208 -22.342  1.00  0.00    -0.037 A 
HETATM    6  C8  UNL     1      -2.171  52.245 -23.768  1.00  0.00    -0.042 A 
HETATM    7  C9  UNL     1      -3.465  52.379 -24.570  1.00  0.00     0.044 C 
HETATM    8  C10 UNL     1      -4.210  51.110 -25.094  1.00  0.00    -0.010 C 
HETATM    9  C11 UNL     1      -3.367  50.101 -25.883  1.00  0.00     0.005 C 
HETATM   10  C12 UNL     1      -4.178  48.849 -26.214  1.00  0.00     0.001 C 
HETATM   11  C13 UNL     1      -4.675  48.110 -24.971  1.00  0.00     0.007 C 
HETATM   12  C14 UNL     1      -4.667  48.975 -23.690  1.00  0.00     0.022 C 
HETATM   13  C15 UNL     1      -5.119  50.410 -24.058  1.00  0.00     0.012 C 
HETATM   14  C16 UNL     1      -5.471  48.314 -22.499  1.00  0.00     0.082 C 
HETATM   15  C17 UNL     1      -6.970  48.714 -22.512  1.00  0.00     0.045 C 
HETATM   16  C18 UNL     1      -7.762  48.013 -21.388  1.00  0.00    -0.002 C 
HETATM   17  C19 UNL     1      -8.996  47.254 -21.900  1.00  0.00     0.005 C 
HETATM   18  C20 UNL     1      -8.751  45.764 -22.080  1.00  0.00     0.003 C 
HETATM   19  C21 UNL     1      -7.354  45.495 -22.615  1.00  0.00     0.038 C 
HETATM   20  C22 UNL     1      -6.224  46.120 -21.740  1.00  0.00     0.065 C 
HETATM   21  C23 UNL     1      -5.354  44.975 -21.212  1.00  0.00     0.046 C 
HETATM   22  O2  UNL     1      -5.392  46.866 -22.661  1.00  0.00    -0.367 OA
HETATM   23  C24 UNL     1      -6.773  47.081 -20.628  1.00  0.00     0.064 C 
HETATM   24  C25 UNL     1      -5.671  47.983 -19.951  1.00  0.00     0.180 C 
HETATM   25  C28 UNL     1      -4.784  48.561 -21.111  1.00  0.00     0.139 C 
HETATM   26  C29 UNL     1      -4.344  49.955 -20.932  1.00  0.00    -0.096 C 
HETATM   27  C30 UNL     1      -3.923  51.072 -21.037  1.00  0.00    -0.101 C 
HETATM   28  C31 UNL     1      -3.394  52.374 -21.455  1.00  0.00     0.133 C 
ENDROOT
BRANCH  24  29
HETATM   29  N2  UNL     1      -6.365  49.057 -19.188  1.00  0.00     0.090 N 
HETATM   30  H35 UNL     1      -5.680  49.708 -18.794  1.00  0.00     0.313 HD
HETATM   31  H36 UNL     1      -6.888  48.678 -18.400  1.00  0.00     0.313 HD
ENDBRANCH  24  29
BRANCH  24  32
HETATM   32  C26 UNL     1      -4.760  47.265 -18.908  1.00  0.00     0.069 C 
BRANCH  32  33
HETATM   33  C27 UNL     1      -3.285  47.134 -19.282  1.00  0.00     0.166 C 
BRANCH  33  34
HETATM   34  O3  UNL     1      -2.569  46.538 -18.205  1.00  0.00    -0.401 OA
HETATM   35  H41 UNL     1      -2.660  47.118 -17.428  1.00  0.00     0.209 HD
ENDBRANCH  33  34
ENDBRANCH  32  33
ENDBRANCH  24  32
BRANCH   3  36
HETATM   36  O1  UNL     1       1.385  51.791 -21.592  1.00  0.00    -0.361 OA
HETATM   37  H8  UNL     1       2.135  51.710 -22.203  1.00  0.00     0.217 HD
ENDBRANCH   3  36
BRANCH   1  38
HETATM   38  C2  UNL     1      -0.801  52.534 -25.943  1.00  0.00     0.308 C 
BRANCH  38  39
HETATM   39  N1  UNL     1      -0.315  53.883 -26.275  1.00  0.00     0.083 N 
HETATM   40  C1  UNL     1      -0.273  54.072 -27.721  1.00  0.00     0.307 C 
HETATM   41  H4  UNL     1       0.632  53.984 -25.903  1.00  0.00     0.315 HD
ENDBRANCH  38  39
ENDBRANCH   1  38
TORSDOF 7
ENDMDL
MODEL 7
REMARK minimizedAffinity -8.14225769
REMARK  7 active torsions:
REMARK  status: ('A' for Active; 'I' for Inactive)
REMARK    1  A    between atoms: N1_2  and  C2_3 
REMARK    2  A    between atoms: C2_3  and  C3_4 
REMARK    3  A    between atoms: C5_6  and  O1_7 
REMARK    4  A    between atoms: C25_28  and  N2_29 
REMARK    5  A    between atoms: C25_28  and  C26_30 
REMARK    6  A    between atoms: C26_30  and  C27_31 
REMARK    7  A    between atoms: C27_31  and  O3_32 
ROOT
HETATM    1  C3  UNL     1      -8.166  45.233 -24.667  1.00  0.00    -0.021 A 
HETATM    2  C4  UNL     1      -8.001  45.303 -26.069  1.00  0.00     0.045 A 
HETATM    3  C5  UNL     1      -7.814  46.520 -26.704  1.00  0.00     0.066 A 
HETATM    4  C6  UNL     1      -7.858  47.696 -25.978  1.00  0.00     0.045 A 
HETATM    5  C7  UNL     1      -8.067  47.685 -24.582  1.00  0.00    -0.037 A 
HETATM    6  C8  UNL     1      -8.152  46.441 -23.891  1.00  0.00    -0.042 A 
HETATM    7  C9  UNL     1      -8.316  46.370 -22.373  1.00  0.00     0.044 C 
HETATM    8  C10 UNL     1      -7.067  46.237 -21.444  1.00  0.00    -0.010 C 
HETATM    9  C11 UNL     1      -6.084  45.110 -21.780  1.00  0.00     0.005 C 
HETATM   10  C12 UNL     1      -4.846  45.178 -20.887  1.00  0.00     0.001 C 
HETATM   11  C13 UNL     1      -4.066  46.484 -21.042  1.00  0.00     0.007 C 
HETATM   12  C14 UNL     1      -4.887  47.625 -21.685  1.00  0.00     0.022 C 
HETATM   13  C15 UNL     1      -6.335  47.563 -21.137  1.00  0.00     0.012 C 
HETATM   14  C16 UNL     1      -4.188  49.037 -21.546  1.00  0.00     0.082 C 
HETATM   15  C17 UNL     1      -4.592  49.764 -20.235  1.00  0.00     0.045 C 
HETATM   16  C18 UNL     1      -3.854  51.110 -20.075  1.00  0.00    -0.002 C 
HETATM   17  C19 UNL     1      -3.117  51.238 -18.732  1.00  0.00     0.005 C 
HETATM   18  C20 UNL     1      -1.633  50.919 -18.832  1.00  0.00     0.003 C 
HETATM   19  C21 UNL     1      -1.379  49.768 -19.790  1.00  0.00     0.038 C 
HETATM   20  C22 UNL     1      -1.972  50.003 -21.214  1.00  0.00     0.065 C 
HETATM   21  C23 UNL     1      -0.807  50.010 -22.210  1.00  0.00     0.046 C 
HETATM   22  O2  UNL     1      -2.746  48.815 -21.509  1.00  0.00    -0.367 OA
HETATM   23  C24 UNL     1      -2.895  51.268 -21.290  1.00  0.00     0.064 C 
HETATM   24  C25 UNL     1      -3.771  51.352 -22.598  1.00  0.00     0.180 C 
HETATM   25  C28 UNL     1      -4.386  49.924 -22.824  1.00  0.00     0.139 C 
HETATM   26  C29 UNL     1      -5.772  49.907 -23.321  1.00  0.00    -0.096 C 
HETATM   27  C30 UNL     1      -6.891  49.644 -23.659  1.00  0.00    -0.101 C 
HETATM   28  C31 UNL     1      -8.205  49.060 -23.943  1.00  0.00     0.133 C 
ENDROOT
BRANCH  24  29
HETATM   29  N2  UNL     1      -4.820  52.386 -22.381  1.00  0.00     0.090 N 
HETATM   30  H35 UNL     1      -5.456  52.417 -23.183  1.00  0.00     0.313 HD
HETATM   31  H36 UNL     1      -4.416  53.318 -22.297  1.00  0.00     0.313 HD
ENDBRANCH  24  29
BRANCH  24  32
HETATM   32  C26 UNL     1      -3.016  51.802 -23.887  1.00  0.00     0.069 C 
BRANCH  32  33
HETATM   33  C27 UNL     1      -3.885  52.073 -25.114  1.00  0.00     0.166 C 
BRANCH  33  34
HETATM   34  O3  UNL     1      -3.157  52.861 -26.051  1.00  0.00    -0.401 OA
HETATM   35  H41 UNL     1      -2.927  53.703 -25.620  1.00  0.00     0.209 HD
ENDBRANCH  33  34
ENDBRANCH  32  33
ENDBRANCH  24  32
BRANCH   3  36
HETATM   36  O1  UNL     1      -7.616  46.607 -28.047  1.00  0.00    -0.361 OA
HETATM   37  H8  UNL     1      -7.553  45.707 -28.405  1.00  0.00     0.217 HD
ENDBRANCH   3  36
BRANCH   1  38
HETATM   38  C2  UNL     1      -8.511  43.883 -24.041  1.00  0.00     0.308 C 
BRANCH  38  39
HETATM   39  N1  UNL     1      -7.530  42.816 -24.292  1.00  0.00     0.083 N 
HETATM   40  C1  UNL     1      -7.777  41.675 -23.416  1.00  0.00     0.307 C 
HETATM   41  H4  UNL     1      -6.597  43.183 -24.095  1.00  0.00     0.315 HD
ENDBRANCH  38  39
ENDBRANCH   1  38
TORSDOF 7
ENDMDL
MODEL 8
REMARK minimizedAffinity -8.10712337
REMARK  7 active torsions:
REMARK  status: ('A' for Active; 'I' for Inactive)
REMARK    1  A    between atoms: N1_2  and  C2_3 
REMARK    2  A    between atoms: C2_3  and  C3_4 
REMARK    3  A    between atoms: C5_6  and  O1_7 
REMARK    4  A    between atoms: C25_28  and  N2_29 
REMARK    5  A    between atoms: C25_28  and  C26_30 
REMARK    6  A    between atoms: C26_30  and  C27_31 
REMARK    7  A    between atoms: C27_31  and  O3_32 
ROOT
HETATM    1  C3  UNL     1      -3.042  48.173 -16.913  1.00  0.00    -0.021 A 
HETATM    2  C4  UNL     1      -3.507  46.849 -16.753  1.00  0.00     0.045 A 
HETATM    3  C5  UNL     1      -4.627  46.400 -17.434  1.00  0.00     0.066 A 
HETATM    4  C6  UNL     1      -5.350  47.271 -18.230  1.00  0.00     0.045 A 
HETATM    5  C7  UNL     1      -4.955  48.616 -18.388  1.00  0.00    -0.037 A 
HETATM    6  C8  UNL     1      -3.746  49.072 -17.785  1.00  0.00    -0.042 A 
HETATM    7  C9  UNL     1      -3.239  50.501 -17.973  1.00  0.00     0.044 C 
HETATM    8  C10 UNL     1      -2.221  50.840 -19.108  1.00  0.00    -0.010 C 
HETATM    9  C11 UNL     1      -0.960  49.970 -19.177  1.00  0.00     0.005 C 
HETATM   10  C12 UNL     1      -0.123  50.313 -20.408  1.00  0.00     0.001 C 
HETATM   11  C13 UNL     1      -0.869  50.087 -21.724  1.00  0.00     0.007 C 
HETATM   12  C14 UNL     1      -2.404  50.008 -21.560  1.00  0.00     0.022 C 
HETATM   13  C15 UNL     1      -2.845  51.054 -20.506  1.00  0.00     0.012 C 
HETATM   14  C16 UNL     1      -3.172  50.097 -22.940  1.00  0.00     0.082 C 
HETATM   15  C17 UNL     1      -3.497  51.561 -23.337  1.00  0.00     0.045 C 
HETATM   16  C18 UNL     1      -4.186  51.644 -24.715  1.00  0.00    -0.002 C 
HETATM   17  C19 UNL     1      -3.478  52.599 -25.689  1.00  0.00     0.005 C 
HETATM   18  C20 UNL     1      -2.555  51.883 -26.664  1.00  0.00     0.003 C 
HETATM   19  C21 UNL     1      -1.834  50.726 -25.993  1.00  0.00     0.038 C 
HETATM   20  C22 UNL     1      -2.798  49.701 -25.319  1.00  0.00     0.065 C 
HETATM   21  C23 UNL     1      -2.602  48.349 -26.012  1.00  0.00     0.046 C 
HETATM   22  O2  UNL     1      -2.302  49.536 -23.968  1.00  0.00    -0.367 OA
HETATM   23  C24 UNL     1      -4.286  50.196 -25.278  1.00  0.00     0.064 C 
HETATM   24  C25 UNL     1      -5.220  49.361 -24.322  1.00  0.00     0.180 C 
HETATM   25  C28 UNL     1      -4.429  49.159 -22.980  1.00  0.00     0.139 C 
HETATM   26  C29 UNL     1      -5.240  49.240 -21.753  1.00  0.00    -0.096 C 
HETATM   27  C30 UNL     1      -5.670  49.322 -20.638  1.00  0.00    -0.101 C 
HETATM   28  C31 UNL     1      -5.913  49.476 -19.200  1.00  0.00     0.133 C 
ENDROOT
BRANCH  24  29
HETATM   29  N2  UNL     1      -6.477  50.134 -24.121  1.00  0.00     0.090 N 
HETATM   30  H35 UNL     1      -7.080  49.657 -23.445  1.00  0.00     0.313 HD
HETATM   31  H36 UNL     1      -7.014  50.207 -24.984  1.00  0.00     0.313 HD
ENDBRANCH  24  29
BRANCH  24  32
HETATM   32  C26 UNL     1      -5.677  47.974 -24.870  1.00  0.00     0.069 C 
BRANCH  32  33
HETATM   33  C27 UNL     1      -7.173  47.818 -25.137  1.00  0.00     0.166 C 
BRANCH  33  34
HETATM   34  O3  UNL     1      -7.471  48.255 -26.459  1.00  0.00    -0.401 OA
HETATM   35  H41 UNL     1      -7.221  49.193 -26.529  1.00  0.00     0.209 HD
ENDBRANCH  33  34
ENDBRANCH  32  33
ENDBRANCH  24  32
BRANCH   3  36
HETATM   36  O1  UNL     1      -5.071  45.120 -17.323  1.00  0.00    -0.361 OA
HETATM   37  H8  UNL     1      -4.435  44.623 -16.784  1.00  0.00     0.217 HD
ENDBRANCH   3  36
BRANCH   1  38
HETATM   38  C2  UNL     1      -1.892  48.654 -16.029  1.00  0.00     0.308 C 
BRANCH  38  39
HETATM   39  N1  UNL     1      -0.626  47.926 -16.213  1.00  0.00     0.083 N 
HETATM   40  C1  UNL     1       0.494  48.708 -15.700  1.00  0.00     0.307 C 
HETATM   41  H4  UNL     1      -0.486  47.771 -17.214  1.00  0.00     0.315 HD
ENDBRANCH  38  39
ENDBRANCH   1  38
TORSDOF 7
ENDMDL
MODEL 9
REMARK minimizedAffinity -8.05796337
REMARK  7 active torsions:
REMARK  status: ('A' for Active; 'I' for Inactive)
REMARK    1  A    between atoms: N1_2  and  C2_3 
REMARK    2  A    between atoms: C2_3  and  C3_4 
REMARK    3  A    between atoms: C5_6  and  O1_7 
REMARK    4  A    between atoms: C25_28  and  N2_29 
REMARK    5  A    between atoms: C25_28  and  C26_30 
REMARK    6  A    between atoms: C26_30  and  C27_31 
REMARK    7  A    between atoms: C27_31  and  O3_32 
ROOT
HETATM    1  C3  UNL     1       5.810  69.288 -40.434  1.00  0.00    -0.021 A 
HETATM    2  C4  UNL     1       6.834  68.876 -41.316  1.00  0.00     0.045 A 
HETATM    3  C5  UNL     1       8.051  68.421 -40.833  1.00  0.00     0.066 A 
HETATM    4  C6  UNL     1       8.305  68.432 -39.473  1.00  0.00     0.045 A 
HETATM    5  C7  UNL     1       7.334  68.878 -38.552  1.00  0.00    -0.037 A 
HETATM    6  C8  UNL     1       6.037  69.246 -39.016  1.00  0.00    -0.042 A 
HETATM    7  C9  UNL     1       4.928  69.677 -38.057  1.00  0.00     0.044 C 
HETATM    8  C10 UNL     1       3.897  68.636 -37.515  1.00  0.00    -0.010 C 
HETATM    9  C11 UNL     1       3.188  67.770 -38.562  1.00  0.00     0.005 C 
HETATM   10  C12 UNL     1       2.317  66.706 -37.895  1.00  0.00     0.001 C 
HETATM   11  C13 UNL     1       3.115  65.743 -37.014  1.00  0.00     0.007 C 
HETATM   12  C14 UNL     1       4.507  66.281 -36.609  1.00  0.00     0.022 C 
HETATM   13  C15 UNL     1       4.384  67.797 -36.312  1.00  0.00     0.012 C 
HETATM   14  C16 UNL     1       5.179  65.434 -35.455  1.00  0.00     0.082 C 
HETATM   15  C17 UNL     1       4.795  65.956 -34.045  1.00  0.00     0.045 C 
HETATM   16  C18 UNL     1       5.400  65.085 -32.925  1.00  0.00    -0.002 C 
HETATM   17  C19 UNL     1       4.353  64.578 -31.920  1.00  0.00     0.005 C 
HETATM   18  C20 UNL     1       3.893  63.156 -32.200  1.00  0.00     0.003 C 
HETATM   19  C21 UNL     1       3.777  62.897 -33.693  1.00  0.00     0.038 C 
HETATM   20  C22 UNL     1       5.090  63.199 -34.480  1.00  0.00     0.065 C 
HETATM   21  C23 UNL     1       5.561  61.890 -35.121  1.00  0.00     0.046 C 
HETATM   22  O2  UNL     1       4.694  64.063 -35.572  1.00  0.00    -0.367 OA
HETATM   23  C24 UNL     1       6.175  63.918 -33.604  1.00  0.00     0.064 C 
HETATM   24  C25 UNL     1       7.366  64.536 -34.430  1.00  0.00     0.180 C 
HETATM   25  C28 UNL     1       6.728  65.289 -35.652  1.00  0.00     0.139 C 
HETATM   26  C29 UNL     1       7.378  66.558 -36.020  1.00  0.00    -0.096 C 
HETATM   27  C30 UNL     1       7.694  67.627 -36.460  1.00  0.00    -0.101 C 
HETATM   28  C31 UNL     1       7.802  68.939 -37.105  1.00  0.00     0.133 C 
ENDROOT
BRANCH  24  29
HETATM   29  N2  UNL     1       8.115  65.459 -33.533  1.00  0.00     0.090 N 
HETATM   30  H35 UNL     1       8.854  65.937 -34.056  1.00  0.00     0.313 HD
HETATM   31  H36 UNL     1       8.577  64.955 -32.778  1.00  0.00     0.313 HD
ENDBRANCH  24  29
BRANCH  24  32
HETATM   32  C26 UNL     1       8.430  63.517 -34.945  1.00  0.00     0.069 C 
BRANCH  32  33
HETATM   33  C27 UNL     1       9.728  63.440 -34.144  1.00  0.00     0.166 C 
BRANCH  33  34
HETATM   34  O3  UNL     1       9.481  62.809 -32.892  1.00  0.00    -0.401 OA
HETATM   35  H41 UNL     1       8.829  63.347 -32.408  1.00  0.00     0.209 HD
ENDBRANCH  33  34
ENDBRANCH  32  33
ENDBRANCH  24  32
BRANCH   3  36
HETATM   36  O1  UNL     1       9.036  67.985 -41.662  1.00  0.00    -0.361 OA
HETATM   37  H8  UNL     1       8.692  67.983 -42.570  1.00  0.00     0.217 HD
ENDBRANCH   3  36
BRANCH   1  38
HETATM   38  C2  UNL     1       4.548  69.913 -41.024  1.00  0.00     0.308 C 
BRANCH  38  39
HETATM   39  N1  UNL     1       3.669  68.974 -41.739  1.00  0.00     0.083 N 
HETATM   40  C1  UNL     1       2.723  69.698 -42.582  1.00  0.00     0.307 C 
HETATM   41  H4  UNL     1       3.145  68.434 -41.048  1.00  0.00     0.315 HD
ENDBRANCH  38  39
ENDBRANCH   1  38
TORSDOF 7
ENDMDL
