MODEL 1
REMARK minimizedAffinity -8.88862419
REMARK  10 active torsions:
REMARK  status: ('A' for Active; 'I' for Inactive)
REMARK    1  A    between atoms: C14_14  and  C15_15 
REMARK    2  A    between atoms: C15_15  and  C17_17 
REMARK    3  A    between atoms: C17_17  and  C18_18 
REMARK    4  A    between atoms: C18_18  and  C19_19 
REMARK    5  A    between atoms: C20_20  and  C22_22 
REMARK    6  A    between atoms: C22_22  and  O2_24 
REMARK    7  A    between atoms: C27_29  and  C28_30 
REMARK    8  A    between atoms: C28_30  and  C29_31 
REMARK    9  A    between atoms: C29_31  and  C30_32 
REMARK   10  A    between atoms: C30_32  and  O3_33 
ROOT
HETATM    1  C1  UNL     1      -5.063  48.441 -24.905  1.00  0.00     0.043 C 
HETATM    2  C2  UNL     1      -3.775  49.234 -24.968  1.00  0.00    -0.085 C 
HETATM    3  C3  UNL     1      -2.780  48.611 -25.920  1.00  0.00     0.043 C 
HETATM    4  C4  UNL     1      -3.557  50.374 -24.258  1.00  0.00    -0.073 C 
HETATM    5  C5  UNL     1      -4.608  50.922 -23.318  1.00  0.00     0.035 C 
HETATM    6  C6  UNL     1      -4.140  51.954 -22.293  1.00  0.00     0.010 C 
HETATM    7  C7  UNL     1      -2.699  51.813 -21.764  1.00  0.00     0.003 C 
HETATM    8  C8  UNL     1      -1.622  51.441 -22.882  1.00  0.00    -0.032 C 
HETATM    9  C9  UNL     1      -0.558  52.564 -23.042  1.00  0.00     0.016 C 
HETATM   10  C10 UNL     1      -0.803  50.156 -22.484  1.00  0.00     0.011 C 
HETATM   11  C11 UNL     1      -0.313  50.010 -21.028  1.00  0.00     0.011 C 
HETATM   12  C12 UNL     1      -1.111  50.809 -19.988  1.00  0.00    -0.032 C 
HETATM   13  C13 UNL     1      -0.438  52.194 -19.750  1.00  0.00     0.016 C 
HETATM   14  C14 UNL     1      -1.281  50.105 -18.604  1.00  0.00    -0.002 C 
HETATM   15  C23 UNL     1      -2.538  50.792 -18.008  1.00  0.00     0.006 C 
HETATM   16  C24 UNL     1      -3.238  51.527 -19.181  1.00  0.00     0.011 C 
HETATM   17  C25 UNL     1      -2.607  50.927 -20.463  1.00  0.00    -0.032 C 
HETATM   18  C26 UNL     1      -3.346  49.566 -20.688  1.00  0.00     0.016 C 
HETATM   19  C27 UNL     1      -2.258  51.172 -24.316  1.00  0.00     0.023 C 
ENDROOT
BRANCH  14  20
HETATM   20  C15 UNL     1      -0.075  49.819 -17.662  1.00  0.00    -0.014 C 
HETATM   21  C16 UNL     1      -0.498  48.809 -16.578  1.00  0.00     0.010 C 
BRANCH  20  22
HETATM   22  C17 UNL     1       0.745  50.959 -17.018  1.00  0.00     0.008 C 
BRANCH  22  23
HETATM   23  C18 UNL     1       0.509  51.261 -15.534  1.00  0.00     0.028 C 
BRANCH  23  24
HETATM   24  C19 UNL     1       1.606  50.659 -14.696  1.00  0.00    -0.013 C 
HETATM   25  C20 UNL     1       2.909  51.002 -14.664  1.00  0.00     0.008 C 
HETATM   26  C21 UNL     1       3.566  52.064 -15.492  1.00  0.00     0.055 C 
BRANCH  25  27
HETATM   27  C22 UNL     1       3.767  50.238 -13.721  1.00  0.00     0.171 C 
HETATM   28  O1  UNL     1       4.849  49.734 -13.966  1.00  0.00    -0.646 OA
BRANCH  27  29
HETATM   29  O2  UNL     1       3.220  50.133 -12.498  1.00  0.00    -0.773 OA
HETATM   30  H35 UNL     1       3.886  49.619 -11.997  1.00  0.00     0.167 HD
ENDBRANCH  27  29
ENDBRANCH  25  27
ENDBRANCH  23  24
ENDBRANCH  22  23
ENDBRANCH  20  22
ENDBRANCH  14  20
BRANCH  19  31
HETATM   31  C28 UNL     1      -2.346  52.331 -25.358  1.00  0.00     0.012 C 
BRANCH  31  32
HETATM   32  C29 UNL     1      -2.225  52.001 -26.846  1.00  0.00     0.027 C 
BRANCH  32  33
HETATM   33  C30 UNL     1      -1.206  52.885 -27.561  1.00  0.00     0.164 C 
BRANCH  33  34
HETATM   34  O3  UNL     1      -1.846  53.936 -28.271  1.00  0.00    -0.401 OA
HETATM   35  H50 UNL     1      -2.243  53.549 -29.070  1.00  0.00     0.209 HD
ENDBRANCH  33  34
ENDBRANCH  32  33
ENDBRANCH  31  32
ENDBRANCH  19  31
TORSDOF 10
ENDMDL
MODEL 2
REMARK minimizedAffinity -8.5999527
REMARK  10 active torsions:
REMARK  status: ('A' for Active; 'I' for Inactive)
REMARK    1  A    between atoms: C14_14  and  C15_15 
REMARK    2  A    between atoms: C15_15  and  C17_17 
REMARK    3  A    between atoms: C17_17  and  C18_18 
REMARK    4  A    between atoms: C18_18  and  C19_19 
REMARK    5  A    between atoms: C20_20  and  C22_22 
REMARK    6  A    between atoms: C22_22  and  O2_24 
REMARK    7  A    between atoms: C27_29  and  C28_30 
REMARK    8  A    between atoms: C28_30  and  C29_31 
REMARK    9  A    between atoms: C29_31  and  C30_32 
REMARK   10  A    between atoms: C30_32  and  O3_33 
ROOT
HETATM    1  C1  UNL     1      -5.310  48.181 -25.320  1.00  0.00     0.043 C 
HETATM    2  C2  UNL     1      -4.081  49.054 -25.459  1.00  0.00    -0.085 C 
HETATM    3  C3  UNL     1      -3.064  48.446 -26.398  1.00  0.00     0.043 C 
HETATM    4  C4  UNL     1      -3.929  50.246 -24.820  1.00  0.00    -0.073 C 
HETATM    5  C5  UNL     1      -4.997  50.775 -23.888  1.00  0.00     0.035 C 
HETATM    6  C6  UNL     1      -4.581  51.894 -22.934  1.00  0.00     0.010 C 
HETATM    7  C7  UNL     1      -3.123  51.883 -22.433  1.00  0.00     0.003 C 
HETATM    8  C8  UNL     1      -2.046  51.520 -23.553  1.00  0.00    -0.032 C 
HETATM    9  C9  UNL     1      -1.065  52.702 -23.801  1.00  0.00     0.016 C 
HETATM   10  C10 UNL     1      -1.132  50.319 -23.102  1.00  0.00     0.011 C 
HETATM   11  C11 UNL     1      -0.604  50.292 -21.652  1.00  0.00     0.011 C 
HETATM   12  C12 UNL     1      -1.435  51.094 -20.641  1.00  0.00    -0.032 C 
HETATM   13  C13 UNL     1      -0.855  52.533 -20.497  1.00  0.00     0.016 C 
HETATM   14  C14 UNL     1      -1.528  50.461 -19.215  1.00  0.00    -0.002 C 
HETATM   15  C23 UNL     1      -2.819  51.095 -18.629  1.00  0.00     0.006 C 
HETATM   16  C24 UNL     1      -3.591  51.711 -19.825  1.00  0.00     0.011 C 
HETATM   17  C25 UNL     1      -2.945  51.081 -21.086  1.00  0.00    -0.032 C 
HETATM   18  C26 UNL     1      -3.592  49.662 -21.216  1.00  0.00     0.016 C 
HETATM   19  C27 UNL     1      -2.690  51.125 -24.954  1.00  0.00     0.023 C 
ENDROOT
BRANCH  14  20
HETATM   20  C15 UNL     1      -0.287  50.314 -18.287  1.00  0.00    -0.014 C 
HETATM   21  C16 UNL     1      -0.532  49.174 -17.280  1.00  0.00     0.010 C 
BRANCH  20  22
HETATM   22  C17 UNL     1       0.335  51.526 -17.559  1.00  0.00     0.008 C 
BRANCH  22  23
HETATM   23  C18 UNL     1       1.315  51.247 -16.414  1.00  0.00     0.028 C 
BRANCH  23  24
HETATM   24  C19 UNL     1       0.888  51.979 -15.169  1.00  0.00    -0.013 C 
HETATM   25  C20 UNL     1       0.635  51.463 -13.949  1.00  0.00     0.008 C 
HETATM   26  C21 UNL     1       0.703  50.016 -13.568  1.00  0.00     0.055 C 
BRANCH  25  27
HETATM   27  C22 UNL     1       0.241  52.433 -12.894  1.00  0.00     0.171 C 
HETATM   28  O1  UNL     1      -0.893  52.713 -12.548  1.00  0.00    -0.646 OA
BRANCH  27  29
HETATM   29  O2  UNL     1       1.302  53.022 -12.316  1.00  0.00    -0.773 OA
HETATM   30  H35 UNL     1       0.895  53.618 -11.654  1.00  0.00     0.167 HD
ENDBRANCH  27  29
ENDBRANCH  25  27
ENDBRANCH  23  24
ENDBRANCH  22  23
ENDBRANCH  20  22
ENDBRANCH  14  20
BRANCH  19  31
HETATM   31  C28 UNL     1      -2.878  52.213 -26.057  1.00  0.00     0.012 C 
BRANCH  31  32
HETATM   32  C29 UNL     1      -2.141  52.055 -27.387  1.00  0.00     0.027 C 
BRANCH  32  33
HETATM   33  C30 UNL     1      -1.205  53.226 -27.681  1.00  0.00     0.164 C 
BRANCH  33  34
HETATM   34  O3  UNL     1      -1.867  54.240 -28.424  1.00  0.00    -0.401 OA
HETATM   35  H50 UNL     1      -1.948  53.924 -29.341  1.00  0.00     0.209 HD
ENDBRANCH  33  34
ENDBRANCH  32  33
ENDBRANCH  31  32
ENDBRANCH  19  31
TORSDOF 10
ENDMDL
MODEL 3
REMARK minimizedAffinity -8.38570595
REMARK  10 active torsions:
REMARK  status: ('A' for Active; 'I' for Inactive)
REMARK    1  A    between atoms: C14_14  and  C15_15 
REMARK    2  A    between atoms: C15_15  and  C17_17 
REMARK    3  A    between atoms: C17_17  and  C18_18 
REMARK    4  A    between atoms: C18_18  and  C19_19 
REMARK    5  A    between atoms: C20_20  and  C22_22 
REMARK    6  A    between atoms: C22_22  and  O2_24 
REMARK    7  A    between atoms: C27_29  and  C28_30 
REMARK    8  A    between atoms: C28_30  and  C29_31 
REMARK    9  A    between atoms: C29_31  and  C30_32 
REMARK   10  A    between atoms: C30_32  and  O3_33 
ROOT
HETATM    1  C1  UNL     1      -0.399  54.138 -19.452  1.00  0.00     0.043 C 
HETATM    2  C2  UNL     1      -0.062  52.674 -19.647  1.00  0.00    -0.085 C 
HETATM    3  C3  UNL     1       1.362  52.485 -20.115  1.00  0.00     0.043 C 
HETATM    4  C4  UNL     1      -0.942  51.662 -19.413  1.00  0.00    -0.073 C 
HETATM    5  C5  UNL     1      -2.355  51.946 -18.954  1.00  0.00     0.035 C 
HETATM    6  C6  UNL     1      -3.362  50.806 -19.095  1.00  0.00     0.010 C 
HETATM    7  C7  UNL     1      -3.166  49.839 -20.279  1.00  0.00     0.003 C 
HETATM    8  C8  UNL     1      -1.647  49.429 -20.548  1.00  0.00    -0.032 C 
HETATM    9  C9  UNL     1      -1.428  47.901 -20.354  1.00  0.00     0.016 C 
HETATM   10  C10 UNL     1      -1.231  49.715 -22.040  1.00  0.00     0.011 C 
HETATM   11  C11 UNL     1      -2.218  49.349 -23.168  1.00  0.00     0.011 C 
HETATM   12  C12 UNL     1      -3.692  49.269 -22.745  1.00  0.00    -0.032 C 
HETATM   13  C13 UNL     1      -4.059  47.801 -22.369  1.00  0.00     0.016 C 
HETATM   14  C14 UNL     1      -4.714  49.767 -23.817  1.00  0.00    -0.002 C 
HETATM   15  C23 UNL     1      -5.965  50.128 -22.973  1.00  0.00     0.006 C 
HETATM   16  C24 UNL     1      -5.496  50.207 -21.497  1.00  0.00     0.011 C 
HETATM   17  C25 UNL     1      -3.950  50.286 -21.573  1.00  0.00    -0.032 C 
HETATM   18  C26 UNL     1      -3.629  51.782 -21.903  1.00  0.00     0.016 C 
HETATM   19  C27 UNL     1      -0.606  50.188 -19.613  1.00  0.00     0.023 C 
ENDROOT
BRANCH  14  20
HETATM   20  C15 UNL     1      -4.920  49.034 -25.174  1.00  0.00    -0.014 C 
HETATM   21  C16 UNL     1      -6.146  48.105 -25.074  1.00  0.00     0.010 C 
BRANCH  20  22
HETATM   22  C17 UNL     1      -3.766  48.294 -25.886  1.00  0.00     0.008 C 
BRANCH  22  23
HETATM   23  C18 UNL     1      -3.247  48.877 -27.205  1.00  0.00     0.028 C 
BRANCH  23  24
HETATM   24  C19 UNL     1      -3.086  50.370 -27.091  1.00  0.00    -0.013 C 
HETATM   25  C20 UNL     1      -1.993  51.060 -26.706  1.00  0.00     0.008 C 
HETATM   26  C21 UNL     1      -0.682  50.475 -26.278  1.00  0.00     0.055 C 
BRANCH  25  27
HETATM   27  C22 UNL     1      -2.119  52.541 -26.702  1.00  0.00     0.171 C 
HETATM   28  O1  UNL     1      -2.223  53.266 -27.675  1.00  0.00    -0.646 OA
BRANCH  27  29
HETATM   29  O2  UNL     1      -2.103  53.054 -25.459  1.00  0.00    -0.773 OA
HETATM   30  H35 UNL     1      -2.197  54.017 -25.612  1.00  0.00     0.167 HD
ENDBRANCH  27  29
ENDBRANCH  25  27
ENDBRANCH  23  24
ENDBRANCH  22  23
ENDBRANCH  20  22
ENDBRANCH  14  20
BRANCH  19  31
HETATM   31  C28 UNL     1      -0.129  49.525 -18.283  1.00  0.00     0.012 C 
BRANCH  31  32
HETATM   32  C29 UNL     1       0.256  50.420 -17.105  1.00  0.00     0.027 C 
BRANCH  32  33
HETATM   33  C30 UNL     1       0.494  49.628 -15.821  1.00  0.00     0.164 C 
BRANCH  33  34
HETATM   34  O3  UNL     1       0.537  48.231 -16.079  1.00  0.00    -0.401 OA
HETATM   35  H50 UNL     1      -0.378  47.934 -16.230  1.00  0.00     0.209 HD
ENDBRANCH  33  34
ENDBRANCH  32  33
ENDBRANCH  31  32
ENDBRANCH  19  31
TORSDOF 10
ENDMDL
MODEL 4
REMARK minimizedAffinity -8.2483139
REMARK  10 active torsions:
REMARK  status: ('A' for Active; 'I' for Inactive)
REMARK    1  A    between atoms: C14_14  and  C15_15 
REMARK    2  A    between atoms: C15_15  and  C17_17 
REMARK    3  A    between atoms: C17_17  and  C18_18 
REMARK    4  A    between atoms: C18_18  and  C19_19 
REMARK    5  A    between atoms: C20_20  and  C22_22 
REMARK    6  A    between atoms: C22_22  and  O2_24 
REMARK    7  A    between atoms: C27_29  and  C28_30 
REMARK    8  A    between atoms: C28_30  and  C29_31 
REMARK    9  A    between atoms: C29_31  and  C30_32 
REMARK   10  A    between atoms: C30_32  and  O3_33 
ROOT
HETATM    1  C1  UNL     1      -1.540  51.750 -27.383  1.00  0.00     0.043 C 
HETATM    2  C2  UNL     1      -0.873  51.314 -26.095  1.00  0.00    -0.085 C 
HETATM    3  C3  UNL     1       0.334  50.442 -26.357  1.00  0.00     0.043 C 
HETATM    4  C4  UNL     1      -1.310  51.680 -24.860  1.00  0.00    -0.073 C 
HETATM    5  C5  UNL     1      -2.537  52.550 -24.691  1.00  0.00     0.035 C 
HETATM    6  C6  UNL     1      -3.168  52.581 -23.300  1.00  0.00     0.010 C 
HETATM    7  C7  UNL     1      -3.070  51.295 -22.456  1.00  0.00     0.003 C 
HETATM    8  C8  UNL     1      -1.654  50.563 -22.534  1.00  0.00    -0.032 C 
HETATM    9  C9  UNL     1      -0.957  50.523 -21.144  1.00  0.00     0.016 C 
HETATM   10  C10 UNL     1      -1.811  49.053 -22.955  1.00  0.00     0.011 C 
HETATM   11  C11 UNL     1      -2.945  48.220 -22.321  1.00  0.00     0.011 C 
HETATM   12  C12 UNL     1      -4.133  49.034 -21.788  1.00  0.00    -0.032 C 
HETATM   13  C13 UNL     1      -3.931  49.342 -20.274  1.00  0.00     0.016 C 
HETATM   14  C14 UNL     1      -5.529  48.356 -21.966  1.00  0.00    -0.002 C 
HETATM   15  C23 UNL     1      -6.514  49.555 -21.914  1.00  0.00     0.006 C 
HETATM   16  C24 UNL     1      -5.663  50.836 -22.112  1.00  0.00     0.011 C 
HETATM   17  C25 UNL     1      -4.303  50.332 -22.661  1.00  0.00    -0.032 C 
HETATM   18  C26 UNL     1      -4.542  50.085 -24.188  1.00  0.00     0.016 C 
HETATM   19  C27 UNL     1      -0.643  51.238 -23.561  1.00  0.00     0.023 C 
ENDROOT
BRANCH  14  20
HETATM   20  C15 UNL     1      -5.918  47.044 -21.224  1.00  0.00    -0.014 C 
HETATM   21  C16 UNL     1      -4.789  46.008 -21.389  1.00  0.00     0.010 C 
BRANCH  20  22
HETATM   22  C17 UNL     1      -7.286  46.360 -21.438  1.00  0.00     0.008 C 
BRANCH  22  23
HETATM   23  C18 UNL     1      -7.614  45.840 -22.842  1.00  0.00     0.028 C 
BRANCH  23  24
HETATM   24  C19 UNL     1      -8.504  46.814 -23.567  1.00  0.00    -0.013 C 
HETATM   25  C20 UNL     1      -8.214  47.548 -24.661  1.00  0.00     0.008 C 
HETATM   26  C21 UNL     1      -6.906  47.567 -25.393  1.00  0.00     0.055 C 
BRANCH  25  27
HETATM   27  C22 UNL     1      -9.300  48.423 -25.172  1.00  0.00     0.171 C 
HETATM   28  O1  UNL     1     -10.401  48.069 -25.556  1.00  0.00    -0.646 OA
BRANCH  27  29
HETATM   29  O2  UNL     1      -8.952  49.721 -25.184  1.00  0.00    -0.773 OA
HETATM   30  H35 UNL     1      -9.752  50.165 -25.534  1.00  0.00     0.167 HD
ENDBRANCH  27  29
ENDBRANCH  25  27
ENDBRANCH  23  24
ENDBRANCH  22  23
ENDBRANCH  20  22
ENDBRANCH  14  20
BRANCH  19  31
HETATM   31  C28 UNL     1       0.385  52.299 -23.057  1.00  0.00     0.012 C 
BRANCH  31  32
HETATM   32  C29 UNL     1       0.292  52.793 -21.613  1.00  0.00     0.027 C 
BRANCH  32  33
HETATM   33  C30 UNL     1       1.275  53.923 -21.317  1.00  0.00     0.164 C 
BRANCH  33  34
HETATM   34  O3  UNL     1       1.240  54.289 -19.944  1.00  0.00    -0.401 OA
HETATM   35  H50 UNL     1       0.427  54.804 -19.801  1.00  0.00     0.209 HD
ENDBRANCH  33  34
ENDBRANCH  32  33
ENDBRANCH  31  32
ENDBRANCH  19  31
TORSDOF 10
ENDMDL
MODEL 5
REMARK minimizedAffinity -8.08318615
REMARK  10 active torsions:
REMARK  status: ('A' for Active; 'I' for Inactive)
REMARK    1  A    between atoms: C14_14  and  C15_15 
REMARK    2  A    between atoms: C15_15  and  C17_17 
REMARK    3  A    between atoms: C17_17  and  C18_18 
REMARK    4  A    between atoms: C18_18  and  C19_19 
REMARK    5  A    between atoms: C20_20  and  C22_22 
REMARK    6  A    between atoms: C22_22  and  O2_24 
REMARK    7  A    between atoms: C27_29  and  C28_30 
REMARK    8  A    between atoms: C28_30  and  C29_31 
REMARK    9  A    between atoms: C29_31  and  C30_32 
REMARK   10  A    between atoms: C30_32  and  O3_33 
ROOT
HETATM    1  C1  UNL     1      -0.927  51.673 -22.420  1.00  0.00     0.043 C 
HETATM    2  C2  UNL     1      -2.025  51.208 -23.353  1.00  0.00    -0.085 C 
HETATM    3  C3  UNL     1      -2.460  52.306 -24.297  1.00  0.00     0.043 C 
HETATM    4  C4  UNL     1      -2.539  49.948 -23.341  1.00  0.00    -0.073 C 
HETATM    5  C5  UNL     1      -2.049  48.913 -22.353  1.00  0.00     0.035 C 
HETATM    6  C6  UNL     1      -2.934  47.684 -22.153  1.00  0.00     0.010 C 
HETATM    7  C7  UNL     1      -4.456  47.885 -22.297  1.00  0.00     0.003 C 
HETATM    8  C8  UNL     1      -4.883  48.829 -23.511  1.00  0.00    -0.032 C 
HETATM    9  C9  UNL     1      -5.734  48.056 -24.559  1.00  0.00     0.016 C 
HETATM   10  C10 UNL     1      -5.806  50.008 -23.023  1.00  0.00     0.011 C 
HETATM   11  C11 UNL     1      -6.926  49.701 -22.006  1.00  0.00     0.011 C 
HETATM   12  C12 UNL     1      -6.703  48.446 -21.150  1.00  0.00    -0.032 C 
HETATM   13  C13 UNL     1      -7.395  47.218 -21.814  1.00  0.00     0.016 C 
HETATM   14  C14 UNL     1      -7.214  48.555 -19.677  1.00  0.00    -0.002 C 
HETATM   15  C23 UNL     1      -6.378  47.480 -18.932  1.00  0.00     0.006 C 
HETATM   16  C24 UNL     1      -5.200  47.107 -19.870  1.00  0.00     0.011 C 
HETATM   17  C25 UNL     1      -5.159  48.238 -20.930  1.00  0.00    -0.032 C 
HETATM   18  C26 UNL     1      -4.416  49.427 -20.236  1.00  0.00     0.016 C 
HETATM   19  C27 UNL     1      -3.649  49.480 -24.277  1.00  0.00     0.023 C 
ENDROOT
BRANCH  14  20
HETATM   20  C15 UNL     1      -8.724  48.694 -19.327  1.00  0.00    -0.014 C 
HETATM   21  C16 UNL     1      -8.877  49.513 -18.031  1.00  0.00     0.010 C 
BRANCH  20  22
HETATM   22  C17 UNL     1      -9.667  47.471 -19.284  1.00  0.00     0.008 C 
BRANCH  22  23
HETATM   23  C18 UNL     1     -11.068  47.626 -19.884  1.00  0.00     0.028 C 
BRANCH  23  24
HETATM   24  C19 UNL     1     -12.098  47.744 -18.792  1.00  0.00    -0.013 C 
HETATM   25  C20 UNL     1     -13.433  47.882 -18.920  1.00  0.00     0.008 C 
HETATM   26  C21 UNL     1     -14.194  47.971 -20.208  1.00  0.00     0.055 C 
BRANCH  25  27
HETATM   27  C22 UNL     1     -14.210  47.962 -17.656  1.00  0.00     0.171 C 
HETATM   28  O1  UNL     1     -14.154  47.189 -16.716  1.00  0.00    -0.646 OA
BRANCH  27  29
HETATM   29  O2  UNL     1     -15.039  49.020 -17.629  1.00  0.00    -0.773 OA
HETATM   30  H35 UNL     1     -15.471  48.944 -16.753  1.00  0.00     0.167 HD
ENDBRANCH  27  29
ENDBRANCH  25  27
ENDBRANCH  23  24
ENDBRANCH  22  23
ENDBRANCH  20  22
ENDBRANCH  14  20
BRANCH  19  31
HETATM   31  C28 UNL     1      -3.069  48.784 -25.548  1.00  0.00     0.012 C 
BRANCH  31  32
HETATM   32  C29 UNL     1      -3.657  49.130 -26.916  1.00  0.00     0.027 C 
BRANCH  32  33
HETATM   33  C30 UNL     1      -3.058  50.405 -27.506  1.00  0.00     0.164 C 
BRANCH  33  34
HETATM   34  O3  UNL     1      -3.439  50.572 -28.864  1.00  0.00    -0.401 OA
HETATM   35  H50 UNL     1      -2.917  49.944 -29.393  1.00  0.00     0.209 HD
ENDBRANCH  33  34
ENDBRANCH  32  33
ENDBRANCH  31  32
ENDBRANCH  19  31
TORSDOF 10
ENDMDL
MODEL 6
REMARK minimizedAffinity -7.98723125
REMARK  10 active torsions:
REMARK  status: ('A' for Active; 'I' for Inactive)
REMARK    1  A    between atoms: C14_14  and  C15_15 
REMARK    2  A    between atoms: C15_15  and  C17_17 
REMARK    3  A    between atoms: C17_17  and  C18_18 
REMARK    4  A    between atoms: C18_18  and  C19_19 
REMARK    5  A    between atoms: C20_20  and  C22_22 
REMARK    6  A    between atoms: C22_22  and  O2_24 
REMARK    7  A    between atoms: C27_29  and  C28_30 
REMARK    8  A    between atoms: C28_30  and  C29_31 
REMARK    9  A    between atoms: C29_31  and  C30_32 
REMARK   10  A    between atoms: C30_32  and  O3_33 
ROOT
HETATM    1  C1  UNL     1      -5.111  48.093 -26.332  1.00  0.00     0.043 C 
HETATM    2  C2  UNL     1      -3.941  48.970 -25.940  1.00  0.00    -0.085 C 
HETATM    3  C3  UNL     1      -2.689  48.609 -26.707  1.00  0.00     0.043 C 
HETATM    4  C4  UNL     1      -4.023  49.966 -25.016  1.00  0.00    -0.073 C 
HETATM    5  C5  UNL     1      -5.317  50.252 -24.288  1.00  0.00     0.035 C 
HETATM    6  C6  UNL     1      -5.217  51.099 -23.020  1.00  0.00     0.010 C 
HETATM    7  C7  UNL     1      -3.931  50.959 -22.183  1.00  0.00     0.003 C 
HETATM    8  C8  UNL     1      -2.590  50.881 -23.045  1.00  0.00    -0.032 C 
HETATM    9  C9  UNL     1      -1.651  52.084 -22.745  1.00  0.00     0.016 C 
HETATM   10  C10 UNL     1      -1.746  49.602 -22.678  1.00  0.00     0.011 C 
HETATM   11  C11 UNL     1      -1.593  49.216 -21.192  1.00  0.00     0.011 C 
HETATM   12  C12 UNL     1      -2.695  49.746 -20.263  1.00  0.00    -0.032 C 
HETATM   13  C13 UNL     1      -2.255  51.103 -19.636  1.00  0.00     0.016 C 
HETATM   14  C14 UNL     1      -3.100  48.781 -19.103  1.00  0.00    -0.002 C 
HETATM   15  C23 UNL     1      -4.530  49.254 -18.731  1.00  0.00     0.006 C 
HETATM   16  C24 UNL     1      -5.017  50.150 -19.899  1.00  0.00     0.011 C 
HETATM   17  C25 UNL     1      -4.044  49.849 -21.067  1.00  0.00    -0.032 C 
HETATM   18  C26 UNL     1      -4.553  48.509 -21.695  1.00  0.00     0.016 C 
HETATM   19  C27 UNL     1      -2.843  50.847 -24.616  1.00  0.00     0.023 C 
ENDROOT
BRANCH  14  20
HETATM   20  C15 UNL     1      -2.120  48.404 -17.954  1.00  0.00    -0.014 C 
HETATM   21  C16 UNL     1      -2.672  47.187 -17.187  1.00  0.00     0.010 C 
BRANCH  20  22
HETATM   22  C17 UNL     1      -1.597  49.456 -16.950  1.00  0.00     0.008 C 
BRANCH  22  23
HETATM   23  C18 UNL     1      -0.159  49.308 -16.442  1.00  0.00     0.028 C 
BRANCH  23  24
HETATM   24  C19 UNL     1       0.680  50.474 -16.894  1.00  0.00    -0.013 C 
HETATM   25  C20 UNL     1       1.053  51.555 -16.179  1.00  0.00     0.008 C 
HETATM   26  C21 UNL     1       0.685  51.845 -14.755  1.00  0.00     0.055 C 
BRANCH  25  27
HETATM   27  C22 UNL     1       1.900  52.550 -16.885  1.00  0.00     0.171 C 
HETATM   28  O1  UNL     1       2.987  52.967 -16.527  1.00  0.00    -0.646 OA
BRANCH  27  29
HETATM   29  O2  UNL     1       1.335  52.989 -18.024  1.00  0.00    -0.773 OA
HETATM   30  H35 UNL     1       1.997  53.622 -18.373  1.00  0.00     0.167 HD
ENDBRANCH  27  29
ENDBRANCH  25  27
ENDBRANCH  23  24
ENDBRANCH  22  23
ENDBRANCH  20  22
ENDBRANCH  14  20
BRANCH  19  31
HETATM   31  C28 UNL     1      -2.817  52.174 -25.437  1.00  0.00     0.012 C 
BRANCH  31  32
HETATM   32  C29 UNL     1      -2.214  52.165 -26.841  1.00  0.00     0.027 C 
BRANCH  32  33
HETATM   33  C30 UNL     1      -0.890  52.923 -26.915  1.00  0.00     0.164 C 
BRANCH  33  34
HETATM   34  O3  UNL     1      -0.688  53.720 -25.756  1.00  0.00    -0.401 OA
HETATM   35  H50 UNL     1      -1.270  54.497 -25.831  1.00  0.00     0.209 HD
ENDBRANCH  33  34
ENDBRANCH  32  33
ENDBRANCH  31  32
ENDBRANCH  19  31
TORSDOF 10
ENDMDL
MODEL 7
REMARK minimizedAffinity -7.97174025
REMARK  10 active torsions:
REMARK  status: ('A' for Active; 'I' for Inactive)
REMARK    1  A    between atoms: C14_14  and  C15_15 
REMARK    2  A    between atoms: C15_15  and  C17_17 
REMARK    3  A    between atoms: C17_17  and  C18_18 
REMARK    4  A    between atoms: C18_18  and  C19_19 
REMARK    5  A    between atoms: C20_20  and  C22_22 
REMARK    6  A    between atoms: C22_22  and  O2_24 
REMARK    7  A    between atoms: C27_29  and  C28_30 
REMARK    8  A    between atoms: C28_30  and  C29_31 
REMARK    9  A    between atoms: C29_31  and  C30_32 
REMARK   10  A    between atoms: C30_32  and  O3_33 
ROOT
HETATM    1  C1  UNL     1      -2.369  52.088 -26.805  1.00  0.00     0.043 C 
HETATM    2  C2  UNL     1      -1.506  51.492 -25.714  1.00  0.00    -0.085 C 
HETATM    3  C3  UNL     1      -0.389  50.647 -26.282  1.00  0.00     0.043 C 
HETATM    4  C4  UNL     1      -1.714  51.709 -24.386  1.00  0.00    -0.073 C 
HETATM    5  C5  UNL     1      -2.866  52.564 -23.906  1.00  0.00     0.035 C 
HETATM    6  C6  UNL     1      -3.249  52.431 -22.433  1.00  0.00     0.010 C 
HETATM    7  C7  UNL     1      -3.048  51.051 -21.777  1.00  0.00     0.003 C 
HETATM    8  C8  UNL     1      -1.690  50.320 -22.185  1.00  0.00    -0.032 C 
HETATM    9  C9  UNL     1      -0.767  50.105 -20.951  1.00  0.00     0.016 C 
HETATM   10  C10 UNL     1      -1.963  48.875 -22.749  1.00  0.00     0.011 C 
HETATM   11  C11 UNL     1      -2.996  47.982 -22.031  1.00  0.00     0.011 C 
HETATM   12  C12 UNL     1      -4.050  48.736 -21.207  1.00  0.00    -0.032 C 
HETATM   13  C13 UNL     1      -3.583  48.855 -19.725  1.00  0.00     0.016 C 
HETATM   14  C14 UNL     1      -5.477  48.099 -21.219  1.00  0.00    -0.002 C 
HETATM   15  C23 UNL     1      -6.401  49.292 -20.856  1.00  0.00     0.006 C 
HETATM   16  C24 UNL     1      -5.557  50.579 -21.045  1.00  0.00     0.011 C 
HETATM   17  C25 UNL     1      -4.327  50.133 -21.878  1.00  0.00    -0.032 C 
HETATM   18  C26 UNL     1      -4.831  50.076 -23.359  1.00  0.00     0.016 C 
HETATM   19  C27 UNL     1      -0.849  51.105 -23.285  1.00  0.00     0.023 C 
ENDROOT
BRANCH  14  20
HETATM   20  C15 UNL     1      -5.773  46.710 -20.582  1.00  0.00    -0.014 C 
HETATM   21  C16 UNL     1      -5.929  45.657 -21.696  1.00  0.00     0.010 C 
BRANCH  20  22
HETATM   22  C17 UNL     1      -6.883  46.517 -19.526  1.00  0.00     0.008 C 
BRANCH  22  23
HETATM   23  C18 UNL     1      -6.650  47.097 -18.127  1.00  0.00     0.028 C 
BRANCH  23  24
HETATM   24  C19 UNL     1      -7.924  47.060 -17.324  1.00  0.00    -0.013 C 
HETATM   25  C20 UNL     1      -8.940  47.947 -17.338  1.00  0.00     0.008 C 
HETATM   26  C21 UNL     1      -9.011  49.199 -18.158  1.00  0.00     0.055 C 
BRANCH  25  27
HETATM   27  C22 UNL     1     -10.087  47.646 -16.443  1.00  0.00     0.171 C 
HETATM   28  O1  UNL     1     -11.269  47.678 -16.737  1.00  0.00    -0.646 OA
BRANCH  27  29
HETATM   29  O2  UNL     1      -9.696  47.319 -15.200  1.00  0.00    -0.773 OA
HETATM   30  H35 UNL     1     -10.542  47.147 -14.736  1.00  0.00     0.167 HD
ENDBRANCH  27  29
ENDBRANCH  25  27
ENDBRANCH  23  24
ENDBRANCH  22  23
ENDBRANCH  20  22
ENDBRANCH  14  20
BRANCH  19  31
HETATM   31  C28 UNL     1       0.282  52.087 -22.844  1.00  0.00     0.012 C 
BRANCH  31  32
HETATM   32  C29 UNL     1       0.072  52.949 -21.600  1.00  0.00     0.027 C 
BRANCH  32  33
HETATM   33  C30 UNL     1       1.257  53.869 -21.318  1.00  0.00     0.164 C 
BRANCH  33  34
HETATM   34  O3  UNL     1       1.334  54.202 -19.939  1.00  0.00    -0.401 OA
HETATM   35  H50 UNL     1       0.635  54.855 -19.757  1.00  0.00     0.209 HD
ENDBRANCH  33  34
ENDBRANCH  32  33
ENDBRANCH  31  32
ENDBRANCH  19  31
TORSDOF 10
ENDMDL
MODEL 8
REMARK minimizedAffinity -7.96444654
REMARK  10 active torsions:
REMARK  status: ('A' for Active; 'I' for Inactive)
REMARK    1  A    between atoms: C14_14  and  C15_15 
REMARK    2  A    between atoms: C15_15  and  C17_17 
REMARK    3  A    between atoms: C17_17  and  C18_18 
REMARK    4  A    between atoms: C18_18  and  C19_19 
REMARK    5  A    between atoms: C20_20  and  C22_22 
REMARK    6  A    between atoms: C22_22  and  O2_24 
REMARK    7  A    between atoms: C27_29  and  C28_30 
REMARK    8  A    between atoms: C28_30  and  C29_31 
REMARK    9  A    between atoms: C29_31  and  C30_32 
REMARK   10  A    between atoms: C30_32  and  O3_33 
ROOT
HETATM    1  C1  UNL     1      -7.474  49.939 -23.220  1.00  0.00     0.043 C 
HETATM    2  C2  UNL     1      -6.619  49.219 -22.199  1.00  0.00    -0.085 C 
HETATM    3  C3  UNL     1      -7.349  49.034 -20.888  1.00  0.00     0.043 C 
HETATM    4  C4  UNL     1      -5.353  48.785 -22.448  1.00  0.00    -0.073 C 
HETATM    5  C5  UNL     1      -4.696  49.023 -23.790  1.00  0.00     0.035 C 
HETATM    6  C6  UNL     1      -3.178  48.860 -23.847  1.00  0.00     0.010 C 
HETATM    7  C7  UNL     1      -2.385  49.225 -22.577  1.00  0.00     0.003 C 
HETATM    8  C8  UNL     1      -3.061  48.738 -21.216  1.00  0.00    -0.032 C 
HETATM    9  C9  UNL     1      -2.159  47.715 -20.468  1.00  0.00     0.016 C 
HETATM   10  C10 UNL     1      -3.247  49.933 -20.207  1.00  0.00     0.011 C 
HETATM   11  C11 UNL     1      -2.096  50.948 -20.040  1.00  0.00     0.011 C 
HETATM   12  C12 UNL     1      -1.132  51.043 -21.231  1.00  0.00    -0.032 C 
HETATM   13  C13 UNL     1       0.085  50.095 -21.008  1.00  0.00     0.016 C 
HETATM   14  C14 UNL     1      -0.585  52.477 -21.524  1.00  0.00    -0.002 C 
HETATM   15  C23 UNL     1      -0.168  52.400 -23.017  1.00  0.00     0.006 C 
HETATM   16  C24 UNL     1      -0.836  51.125 -23.597  1.00  0.00     0.011 C 
HETATM   17  C25 UNL     1      -1.918  50.732 -22.559  1.00  0.00    -0.032 C 
HETATM   18  C26 UNL     1      -3.133  51.674 -22.853  1.00  0.00     0.016 C 
HETATM   19  C27 UNL     1      -4.489  48.064 -21.419  1.00  0.00     0.023 C 
ENDROOT
BRANCH  14  20
HETATM   20  C15 UNL     1       0.348  53.231 -20.532  1.00  0.00    -0.014 C 
HETATM   21  C16 UNL     1       1.239  54.216 -21.313  1.00  0.00     0.010 C 
BRANCH  20  22
HETATM   22  C17 UNL     1       1.198  52.481 -19.482  1.00  0.00     0.008 C 
BRANCH  22  23
HETATM   23  C18 UNL     1       0.699  52.467 -18.033  1.00  0.00     0.028 C 
BRANCH  23  24
HETATM   24  C19 UNL     1       0.226  51.089 -17.654  1.00  0.00    -0.013 C 
HETATM   25  C20 UNL     1       0.441  50.426 -16.500  1.00  0.00     0.008 C 
HETATM   26  C21 UNL     1       1.234  50.921 -15.329  1.00  0.00     0.055 C 
BRANCH  25  27
HETATM   27  C22 UNL     1      -0.162  49.072 -16.398  1.00  0.00     0.171 C 
HETATM   28  O1  UNL     1      -1.305  48.760 -16.683  1.00  0.00    -0.646 OA
BRANCH  27  29
HETATM   29  O2  UNL     1       0.705  48.156 -15.932  1.00  0.00    -0.773 OA
HETATM   30  H35 UNL     1       0.178  47.331 -15.924  1.00  0.00     0.167 HD
ENDBRANCH  27  29
ENDBRANCH  25  27
ENDBRANCH  23  24
ENDBRANCH  22  23
ENDBRANCH  20  22
ENDBRANCH  14  20
BRANCH  19  31
HETATM   31  C28 UNL     1      -4.604  46.514 -21.562  1.00  0.00     0.012 C 
BRANCH  31  32
HETATM   32  C29 UNL     1      -5.370  45.726 -20.499  1.00  0.00     0.027 C 
BRANCH  32  33
HETATM   33  C30 UNL     1      -5.698  44.304 -20.948  1.00  0.00     0.164 C 
BRANCH  33  34
HETATM   34  O3  UNL     1      -5.164  43.344 -20.046  1.00  0.00    -0.401 OA
HETATM   35  H50 UNL     1      -4.205  43.297 -20.205  1.00  0.00     0.209 HD
ENDBRANCH  33  34
ENDBRANCH  32  33
ENDBRANCH  31  32
ENDBRANCH  19  31
TORSDOF 10
ENDMDL
MODEL 9
REMARK minimizedAffinity -7.91159058
REMARK  10 active torsions:
REMARK  status: ('A' for Active; 'I' for Inactive)
REMARK    1  A    between atoms: C14_14  and  C15_15 
REMARK    2  A    between atoms: C15_15  and  C17_17 
REMARK    3  A    between atoms: C17_17  and  C18_18 
REMARK    4  A    between atoms: C18_18  and  C19_19 
REMARK    5  A    between atoms: C20_20  and  C22_22 
REMARK    6  A    between atoms: C22_22  and  O2_24 
REMARK    7  A    between atoms: C27_29  and  C28_30 
REMARK    8  A    between atoms: C28_30  and  C29_31 
REMARK    9  A    between atoms: C29_31  and  C30_32 
REMARK   10  A    between atoms: C30_32  and  O3_33 
ROOT
HETATM    1  C1  UNL     1       0.350  51.806 -18.179  1.00  0.00     0.043 C 
HETATM    2  C2  UNL     1      -0.095  52.298 -19.540  1.00  0.00    -0.085 C 
HETATM    3  C3  UNL     1      -0.197  53.806 -19.585  1.00  0.00     0.043 C 
HETATM    4  C4  UNL     1      -0.356  51.473 -20.590  1.00  0.00    -0.073 C 
HETATM    5  C5  UNL     1      -0.238  49.971 -20.452  1.00  0.00     0.035 C 
HETATM    6  C6  UNL     1      -0.914  49.128 -21.532  1.00  0.00     0.010 C 
HETATM    7  C7  UNL     1      -2.199  49.698 -22.164  1.00  0.00     0.003 C 
HETATM    8  C8  UNL     1      -2.143  51.263 -22.471  1.00  0.00    -0.032 C 
HETATM    9  C9  UNL     1      -2.272  51.548 -23.995  1.00  0.00     0.016 C 
HETATM   10  C10 UNL     1      -3.354  52.022 -21.809  1.00  0.00     0.011 C 
HETATM   11  C11 UNL     1      -4.759  51.388 -21.891  1.00  0.00     0.011 C 
HETATM   12  C12 UNL     1      -4.778  49.867 -22.096  1.00  0.00    -0.032 C 
HETATM   13  C13 UNL     1      -4.880  49.536 -23.615  1.00  0.00     0.016 C 
HETATM   14  C14 UNL     1      -5.931  49.116 -21.355  1.00  0.00    -0.002 C 
HETATM   15  C23 UNL     1      -5.392  47.665 -21.238  1.00  0.00     0.006 C 
HETATM   16  C24 UNL     1      -3.870  47.735 -21.530  1.00  0.00     0.011 C 
HETATM   17  C25 UNL     1      -3.508  49.237 -21.413  1.00  0.00    -0.032 C 
HETATM   18  C26 UNL     1      -3.369  49.510 -19.878  1.00  0.00     0.016 C 
HETATM   19  C27 UNL     1      -0.809  51.966 -21.961  1.00  0.00     0.023 C 
ENDROOT
BRANCH  14  20
HETATM   20  C15 UNL     1      -7.430  49.323 -21.723  1.00  0.00    -0.014 C 
HETATM   21  C16 UNL     1      -8.293  48.310 -20.945  1.00  0.00     0.010 C 
BRANCH  20  22
HETATM   22  C17 UNL     1      -7.907  49.394 -23.190  1.00  0.00     0.008 C 
BRANCH  22  23
HETATM   23  C18 UNL     1      -8.096  48.076 -23.947  1.00  0.00     0.028 C 
BRANCH  23  24
HETATM   24  C19 UNL     1      -8.759  48.323 -25.276  1.00  0.00    -0.013 C 
HETATM   25  C20 UNL     1      -8.320  47.970 -26.501  1.00  0.00     0.008 C 
HETATM   26  C21 UNL     1      -7.038  47.259 -26.811  1.00  0.00     0.055 C 
BRANCH  25  27
HETATM   27  C22 UNL     1      -9.196  48.337 -27.644  1.00  0.00     0.171 C 
HETATM   28  O1  UNL     1     -10.352  47.995 -27.815  1.00  0.00    -0.646 OA
BRANCH  27  29
HETATM   29  O2  UNL     1      -8.572  49.125 -28.537  1.00  0.00    -0.773 OA
HETATM   30  H35 UNL     1      -9.260  49.284 -29.216  1.00  0.00     0.167 HD
ENDBRANCH  27  29
ENDBRANCH  25  27
ENDBRANCH  23  24
ENDBRANCH  22  23
ENDBRANCH  20  22
ENDBRANCH  14  20
BRANCH  19  31
HETATM   31  C28 UNL     1       0.399  52.140 -22.934  1.00  0.00     0.012 C 
BRANCH  31  32
HETATM   32  C29 UNL     1       0.739  53.537 -23.452  1.00  0.00     0.027 C 
BRANCH  32  33
HETATM   33  C30 UNL     1       0.367  53.723 -24.921  1.00  0.00     0.164 C 
BRANCH  33  34
HETATM   34  O3  UNL     1       0.354  55.098 -25.279  1.00  0.00    -0.401 OA
HETATM   35  H50 UNL     1      -0.455  55.489 -24.905  1.00  0.00     0.209 HD
ENDBRANCH  33  34
ENDBRANCH  32  33
ENDBRANCH  31  32
ENDBRANCH  19  31
TORSDOF 10
ENDMDL
