MODEL 1
REMARK minimizedAffinity -7.14391661
REMARK CNNscore 0.556469917
REMARK CNNaffinity 6.94457006
REMARK  8 active torsions:
REMARK  status: ('A' for Active; 'I' for Inactive)
REMARK    1  A    between atoms: C2_2  and  C3_3 
REMARK    2  A    between atoms: C2_2  and  C29_30 
REMARK    3  A    between atoms: C3_3  and  C4_4 
REMARK    4  A    between atoms: C4_4  and  C5_5 
REMARK    5  A    between atoms: C5_5  and  C7_7 
REMARK    6  A    between atoms: C29_30  and  C31_32 
REMARK    7  A    between atoms: C31_32  and  O2_33 
REMARK    8  A    between atoms: O2_33  and  C32_34 
ROOT
HETATM    1  C7  UNL     1       1.557  53.528 -11.374  1.00  0.00    -0.002 C 
HETATM    2  C8  UNL     1       0.395  54.436 -10.858  1.00  0.00     0.006 C 
HETATM    3  C9  UNL     1       0.923  55.227  -9.639  1.00  0.00     0.011 C 
HETATM    4  C10 UNL     1       2.438  54.999  -9.676  1.00  0.00    -0.032 C 
HETATM    5  C11 UNL     1       2.991  56.022 -10.745  1.00  0.00     0.016 C 
HETATM    6  C12 UNL     1       3.255  55.299  -8.394  1.00  0.00     0.004 C 
HETATM    7  C13 UNL     1       2.751  54.722  -7.027  1.00  0.00     0.007 C 
HETATM    8  C14 UNL     1       3.845  54.001  -6.171  1.00  0.00     0.007 C 
HETATM    9  C15 UNL     1       5.127  54.842  -6.097  1.00  0.00     0.010 C 
HETATM   10  C16 UNL     1       6.424  54.375  -5.437  1.00  0.00     0.018 C 
HETATM   11  C17 UNL     1       7.028  53.154  -6.139  1.00  0.00     0.023 C 
HETATM   12  C18 UNL     1       6.204  54.051  -3.952  1.00  0.00     0.023 C 
HETATM   13  C19 UNL     1       7.410  55.574  -5.529  1.00  0.00     0.135 C 
HETATM   14  O1  UNL     1       8.606  55.431  -5.262  1.00  0.00    -0.297 OA
HETATM   15  C20 UNL     1       6.854  56.980  -5.848  1.00  0.00     0.080 C 
HETATM   16  C21 UNL     1       5.748  57.027  -6.934  1.00  0.00     0.018 C 
HETATM   17  C22 UNL     1       5.453  55.602  -7.367  1.00  0.00    -0.026 A 
HETATM   18  C23 UNL     1       6.021  55.499  -8.747  1.00  0.00     0.021 A 
HETATM   19  C24 UNL     1       4.700  54.860  -8.578  1.00  0.00    -0.027 A 
HETATM   20  C25 UNL     1       4.849  53.414  -9.117  1.00  0.00     0.011 C 
HETATM   21  C26 UNL     1       3.998  53.154 -10.384  1.00  0.00     0.011 C 
HETATM   22  C27 UNL     1       2.517  53.489 -10.140  1.00  0.00    -0.032 C 
HETATM   23  C28 UNL     1       1.956  52.435  -9.141  1.00  0.00     0.016 C 
ENDROOT
BRANCH   1  24
HETATM   24  C5  UNL     1       1.029  52.211 -12.013  1.00  0.00    -0.014 C 
HETATM   25  C6  UNL     1      -0.005  51.507 -11.128  1.00  0.00     0.010 C 
BRANCH  24  26
HETATM   26  C4  UNL     1       2.168  51.220 -12.381  1.00  0.00     0.009 C 
BRANCH  26  27
HETATM   27  C3  UNL     1       2.810  51.451 -13.757  1.00  0.00     0.034 C 
BRANCH  27  28
HETATM   28  C2  UNL     1       1.849  51.189 -14.908  1.00  0.00    -0.083 C 
HETATM   29  C1  UNL     1       1.144  50.042 -14.925  1.00  0.00     0.015 C 
BRANCH  28  30
HETATM   30  C29 UNL     1       1.764  52.268 -15.996  1.00  0.00     0.034 C 
HETATM   31  C30 UNL     1       3.170  52.646 -16.478  1.00  0.00     0.017 C 
BRANCH  30  32
HETATM   32  C31 UNL     1       0.897  51.924 -17.228  1.00  0.00     0.187 C 
BRANCH  32  33
HETATM   33  O2  UNL     1       1.322  52.706 -18.357  1.00  0.00    -0.321 OA
BRANCH  33  34
HETATM   34  C32 UNL     1       0.319  53.043 -19.213  1.00  0.00     0.254 C 
HETATM   35  C33 UNL     1       0.833  53.980 -20.263  1.00  0.00     0.126 C 
HETATM   36  O3  UNL     1      -0.836  52.646 -19.145  1.00  0.00    -0.266 OA
ENDBRANCH  33  34
ENDBRANCH  32  33
ENDBRANCH  30  32
ENDBRANCH  28  30
ENDBRANCH  27  28
ENDBRANCH  26  27
ENDBRANCH  24  26
ENDBRANCH   1  24
TORSDOF 8
ENDMDL
MODEL 2
REMARK minimizedAffinity -7.03402519
REMARK CNNscore 0.523981452
REMARK CNNaffinity 6.32209921
REMARK  8 active torsions:
REMARK  status: ('A' for Active; 'I' for Inactive)
REMARK    1  A    between atoms: C2_2  and  C3_3 
REMARK    2  A    between atoms: C2_2  and  C29_30 
REMARK    3  A    between atoms: C3_3  and  C4_4 
REMARK    4  A    between atoms: C4_4  and  C5_5 
REMARK    5  A    between atoms: C5_5  and  C7_7 
REMARK    6  A    between atoms: C29_30  and  C31_32 
REMARK    7  A    between atoms: C31_32  and  O2_33 
REMARK    8  A    between atoms: O2_33  and  C32_34 
ROOT
HETATM    1  C7  UNL     1       2.925  54.104  -9.899  1.00  0.00    -0.002 C 
HETATM    2  C8  UNL     1       3.064  55.247 -10.955  1.00  0.00     0.006 C 
HETATM    3  C9  UNL     1       3.659  56.480 -10.237  1.00  0.00     0.011 C 
HETATM    4  C10 UNL     1       4.136  55.931  -8.889  1.00  0.00    -0.032 C 
HETATM    5  C11 UNL     1       5.536  55.261  -9.179  1.00  0.00     0.016 C 
HETATM    6  C12 UNL     1       4.419  56.939  -7.746  1.00  0.00     0.004 C 
HETATM    7  C13 UNL     1       3.346  58.035  -7.426  1.00  0.00     0.007 C 
HETATM    8  C14 UNL     1       2.982  58.182  -5.911  1.00  0.00     0.007 C 
HETATM    9  C15 UNL     1       4.248  58.228  -5.045  1.00  0.00     0.010 C 
HETATM   10  C16 UNL     1       4.243  58.249  -3.516  1.00  0.00     0.018 C 
HETATM   11  C17 UNL     1       3.639  56.974  -2.917  1.00  0.00     0.023 C 
HETATM   12  C18 UNL     1       3.482  59.472  -2.983  1.00  0.00     0.023 C 
HETATM   13  C19 UNL     1       5.731  58.379  -3.082  1.00  0.00     0.135 C 
HETATM   14  O1  UNL     1       6.061  58.218  -1.903  1.00  0.00    -0.297 OA
HETATM   15  C20 UNL     1       6.780  58.826  -4.124  1.00  0.00     0.080 C 
HETATM   16  C21 UNL     1       6.618  58.211  -5.538  1.00  0.00     0.018 C 
HETATM   17  C22 UNL     1       5.375  57.339  -5.532  1.00  0.00    -0.026 A 
HETATM   18  C23 UNL     1       5.893  55.938  -5.592  1.00  0.00     0.021 A 
HETATM   19  C24 UNL     1       4.721  56.195  -6.453  1.00  0.00    -0.027 A 
HETATM   20  C25 UNL     1       3.682  55.099  -6.106  1.00  0.00     0.011 C 
HETATM   21  C26 UNL     1       3.414  54.130  -7.283  1.00  0.00     0.011 C 
HETATM   22  C27 UNL     1       2.991  54.893  -8.549  1.00  0.00    -0.032 C 
HETATM   23  C28 UNL     1       1.580  55.493  -8.286  1.00  0.00     0.016 C 
ENDROOT
BRANCH   1  24
HETATM   24  C5  UNL     1       1.727  53.162 -10.211  1.00  0.00    -0.014 C 
HETATM   25  C6  UNL     1       2.180  51.751 -10.601  1.00  0.00     0.010 C 
BRANCH  24  26
HETATM   26  C4  UNL     1       0.781  53.732 -11.304  1.00  0.00     0.009 C 
BRANCH  26  27
HETATM   27  C3  UNL     1      -0.632  53.130 -11.317  1.00  0.00     0.034 C 
BRANCH  27  28
HETATM   28  C2  UNL     1      -1.631  53.954 -10.516  1.00  0.00    -0.083 C 
HETATM   29  C1  UNL     1      -1.383  55.260 -10.303  1.00  0.00     0.015 C 
BRANCH  28  30
HETATM   30  C29 UNL     1      -2.867  53.214  -9.984  1.00  0.00     0.034 C 
HETATM   31  C30 UNL     1      -4.146  53.866 -10.525  1.00  0.00     0.017 C 
BRANCH  30  32
HETATM   32  C31 UNL     1      -2.927  51.697 -10.273  1.00  0.00     0.187 C 
BRANCH  32  33
HETATM   33  O2  UNL     1      -3.959  51.425 -11.235  1.00  0.00    -0.321 OA
BRANCH  33  34
HETATM   34  C32 UNL     1      -4.463  50.162 -11.174  1.00  0.00     0.254 C 
HETATM   35  C33 UNL     1      -5.471  50.063 -10.071  1.00  0.00     0.126 C 
HETATM   36  O3  UNL     1      -4.145  49.234 -11.906  1.00  0.00    -0.266 OA
ENDBRANCH  33  34
ENDBRANCH  32  33
ENDBRANCH  30  32
ENDBRANCH  28  30
ENDBRANCH  27  28
ENDBRANCH  26  27
ENDBRANCH  24  26
ENDBRANCH   1  24
TORSDOF 8
ENDMDL
MODEL 3
REMARK minimizedAffinity -7.2461791
REMARK CNNscore 0.497716308
REMARK CNNaffinity 6.16064215
REMARK  8 active torsions:
REMARK  status: ('A' for Active; 'I' for Inactive)
REMARK    1  A    between atoms: C2_2  and  C3_3 
REMARK    2  A    between atoms: C2_2  and  C29_30 
REMARK    3  A    between atoms: C3_3  and  C4_4 
REMARK    4  A    between atoms: C4_4  and  C5_5 
REMARK    5  A    between atoms: C5_5  and  C7_7 
REMARK    6  A    between atoms: C29_30  and  C31_32 
REMARK    7  A    between atoms: C31_32  and  O2_33 
REMARK    8  A    between atoms: O2_33  and  C32_34 
ROOT
HETATM    1  C7  UNL     1     -12.024  45.798 -27.900  1.00  0.00    -0.002 C 
HETATM    2  C8  UNL     1     -12.824  44.873 -28.872  1.00  0.00     0.006 C 
HETATM    3  C9  UNL     1     -11.882  44.488 -30.036  1.00  0.00     0.011 C 
HETATM    4  C10 UNL     1     -10.496  44.928 -29.554  1.00  0.00    -0.032 C 
HETATM    5  C11 UNL     1      -9.998  43.776 -28.596  1.00  0.00     0.016 C 
HETATM    6  C12 UNL     1      -9.367  45.073 -30.606  1.00  0.00     0.004 C 
HETATM    7  C13 UNL     1      -9.659  45.877 -31.918  1.00  0.00     0.007 C 
HETATM    8  C14 UNL     1      -8.575  46.940 -32.297  1.00  0.00     0.007 C 
HETATM    9  C15 UNL     1      -7.163  46.347 -32.189  1.00  0.00     0.010 C 
HETATM   10  C16 UNL     1      -5.876  47.151 -32.377  1.00  0.00     0.018 C 
HETATM   11  C17 UNL     1      -5.714  48.246 -31.316  1.00  0.00     0.023 C 
HETATM   12  C18 UNL     1      -5.819  47.784 -33.775  1.00  0.00     0.023 C 
HETATM   13  C19 UNL     1      -4.709  46.130 -32.260  1.00  0.00     0.135 C 
HETATM   14  O1  UNL     1      -3.540  46.514 -32.167  1.00  0.00    -0.297 OA
HETATM   15  C20 UNL     1      -5.019  44.621 -32.378  1.00  0.00     0.080 C 
HETATM   16  C21 UNL     1      -6.307  44.146 -31.656  1.00  0.00     0.018 C 
HETATM   17  C22 UNL     1      -6.981  45.364 -31.050  1.00  0.00    -0.026 A 
HETATM   18  C23 UNL     1      -6.773  45.219 -29.576  1.00  0.00     0.021 A 
HETATM   19  C24 UNL     1      -8.125  45.671 -29.962  1.00  0.00    -0.027 A 
HETATM   20  C25 UNL     1      -8.405  46.950 -29.134  1.00  0.00     0.011 C 
HETATM   21  C26 UNL     1      -9.555  46.767 -28.114  1.00  0.00     0.011 C 
HETATM   22  C27 UNL     1     -10.840  46.277 -28.803  1.00  0.00    -0.032 C 
HETATM   23  C28 UNL     1     -11.367  47.441 -29.691  1.00  0.00     0.016 C 
ENDROOT
BRANCH   1  24
HETATM   24  C5  UNL     1     -12.943  46.827 -27.182  1.00  0.00    -0.014 C 
HETATM   25  C6  UNL     1     -12.350  47.313 -25.855  1.00  0.00     0.010 C 
BRANCH  24  26
HETATM   26  C4  UNL     1     -14.383  46.290 -26.949  1.00  0.00     0.009 C 
BRANCH  26  27
HETATM   27  C3  UNL     1     -14.604  45.587 -25.603  1.00  0.00     0.034 C 
BRANCH  27  28
HETATM   28  C2  UNL     1     -15.750  46.192 -24.802  1.00  0.00    -0.083 C 
HETATM   29  C1  UNL     1     -15.616  47.435 -24.303  1.00  0.00     0.015 C 
BRANCH  28  30
HETATM   30  C29 UNL     1     -16.994  45.314 -24.606  1.00  0.00     0.034 C 
HETATM   31  C30 UNL     1     -16.667  43.852 -24.936  1.00  0.00     0.017 C 
BRANCH  30  32
HETATM   32  C31 UNL     1     -17.651  45.370 -23.209  1.00  0.00     0.187 C 
BRANCH  32  33
HETATM   33  O2  UNL     1     -18.742  46.306 -23.221  1.00  0.00    -0.321 OA
BRANCH  33  34
HETATM   34  C32 UNL     1     -19.692  46.046 -24.161  1.00  0.00     0.254 C 
HETATM   35  C33 UNL     1     -20.411  44.775 -23.828  1.00  0.00     0.126 C 
HETATM   36  O3  UNL     1     -19.932  46.741 -25.139  1.00  0.00    -0.266 OA
ENDBRANCH  33  34
ENDBRANCH  32  33
ENDBRANCH  30  32
ENDBRANCH  28  30
ENDBRANCH  27  28
ENDBRANCH  26  27
ENDBRANCH  24  26
ENDBRANCH   1  24
TORSDOF 8
ENDMDL
MODEL 4
REMARK minimizedAffinity -8.88710785
REMARK CNNscore 0.471940875
REMARK CNNaffinity 7.52639532
REMARK  8 active torsions:
REMARK  status: ('A' for Active; 'I' for Inactive)
REMARK    1  A    between atoms: C2_2  and  C3_3 
REMARK    2  A    between atoms: C2_2  and  C29_30 
REMARK    3  A    between atoms: C3_3  and  C4_4 
REMARK    4  A    between atoms: C4_4  and  C5_5 
REMARK    5  A    between atoms: C5_5  and  C7_7 
REMARK    6  A    between atoms: C29_30  and  C31_32 
REMARK    7  A    between atoms: C31_32  and  O2_33 
REMARK    8  A    between atoms: O2_33  and  C32_34 
ROOT
HETATM    1  C7  UNL     1      -3.801  50.681 -25.537  1.00  0.00    -0.002 C 
HETATM    2  C8  UNL     1      -3.895  49.159 -25.879  1.00  0.00     0.006 C 
HETATM    3  C9  UNL     1      -3.788  48.372 -24.553  1.00  0.00     0.011 C 
HETATM    4  C10 UNL     1      -3.953  49.443 -23.470  1.00  0.00    -0.032 C 
HETATM    5  C11 UNL     1      -5.509  49.687 -23.353  1.00  0.00     0.016 C 
HETATM    6  C12 UNL     1      -3.504  49.101 -22.027  1.00  0.00     0.004 C 
HETATM    7  C13 UNL     1      -2.091  48.462 -21.809  1.00  0.00     0.007 C 
HETATM    8  C14 UNL     1      -1.227  49.131 -20.688  1.00  0.00     0.007 C 
HETATM    9  C15 UNL     1      -2.056  49.346 -19.414  1.00  0.00     0.010 C 
HETATM   10  C16 UNL     1      -1.547  50.082 -18.173  1.00  0.00     0.018 C 
HETATM   11  C17 UNL     1      -1.232  51.555 -18.457  1.00  0.00     0.023 C 
HETATM   12  C18 UNL     1      -0.300  49.396 -17.597  1.00  0.00     0.023 C 
HETATM   13  C19 UNL     1      -2.685  49.982 -17.118  1.00  0.00     0.135 C 
HETATM   14  O1  UNL     1      -2.648  50.656 -16.084  1.00  0.00    -0.297 OA
HETATM   15  C20 UNL     1      -3.809  48.942 -17.322  1.00  0.00     0.080 C 
HETATM   16  C21 UNL     1      -4.325  48.797 -18.777  1.00  0.00     0.018 C 
HETATM   17  C22 UNL     1      -3.504  49.718 -19.661  1.00  0.00    -0.026 A 
HETATM   18  C23 UNL     1      -4.441  50.823 -20.033  1.00  0.00     0.021 A 
HETATM   19  C24 UNL     1      -3.595  50.336 -21.142  1.00  0.00    -0.027 A 
HETATM   20  C25 UNL     1      -2.918  51.590 -21.750  1.00  0.00     0.011 C 
HETATM   21  C26 UNL     1      -3.378  51.880 -23.199  1.00  0.00     0.011 C 
HETATM   22  C27 UNL     1      -3.165  50.658 -24.108  1.00  0.00    -0.032 C 
HETATM   23  C28 UNL     1      -1.630  50.464 -24.280  1.00  0.00     0.016 C 
ENDROOT
BRANCH   1  24
HETATM   24  C5  UNL     1      -3.146  51.499 -26.686  1.00  0.00    -0.014 C 
HETATM   25  C6  UNL     1      -2.737  50.618 -27.871  1.00  0.00     0.010 C 
BRANCH  24  26
HETATM   26  C4  UNL     1      -1.928  52.339 -26.210  1.00  0.00     0.009 C 
BRANCH  26  27
HETATM   27  C3  UNL     1      -1.047  52.900 -27.336  1.00  0.00     0.034 C 
BRANCH  27  28
HETATM   28  C2  UNL     1       0.324  52.242 -27.396  1.00  0.00    -0.083 C 
HETATM   29  C1  UNL     1       0.885  52.004 -28.596  1.00  0.00     0.015 C 
BRANCH  28  30
HETATM   30  C29 UNL     1       0.974  51.876 -26.053  1.00  0.00     0.034 C 
HETATM   31  C30 UNL     1       2.362  51.264 -26.288  1.00  0.00     0.017 C 
BRANCH  30  32
HETATM   32  C31 UNL     1       1.108  53.024 -25.029  1.00  0.00     0.187 C 
BRANCH  32  33
HETATM   33  O2  UNL     1       0.674  52.575 -23.734  1.00  0.00    -0.321 OA
BRANCH  33  34
HETATM   34  C32 UNL     1       0.950  53.439 -22.720  1.00  0.00     0.254 C 
HETATM   35  C33 UNL     1       0.628  52.805 -21.402  1.00  0.00     0.126 C 
HETATM   36  O3  UNL     1       1.394  54.572 -22.853  1.00  0.00    -0.266 OA
ENDBRANCH  33  34
ENDBRANCH  32  33
ENDBRANCH  30  32
ENDBRANCH  28  30
ENDBRANCH  27  28
ENDBRANCH  26  27
ENDBRANCH  24  26
ENDBRANCH   1  24
TORSDOF 8
ENDMDL
MODEL 5
REMARK minimizedAffinity -6.95413828
REMARK CNNscore 0.437158734
REMARK CNNaffinity 6.34088707
REMARK  8 active torsions:
REMARK  status: ('A' for Active; 'I' for Inactive)
REMARK    1  A    between atoms: C2_2  and  C3_3 
REMARK    2  A    between atoms: C2_2  and  C29_30 
REMARK    3  A    between atoms: C3_3  and  C4_4 
REMARK    4  A    between atoms: C4_4  and  C5_5 
REMARK    5  A    between atoms: C5_5  and  C7_7 
REMARK    6  A    between atoms: C29_30  and  C31_32 
REMARK    7  A    between atoms: C31_32  and  O2_33 
REMARK    8  A    between atoms: O2_33  and  C32_34 
ROOT
HETATM    1  C7  UNL     1      -8.727  45.486 -34.303  1.00  0.00    -0.002 C 
HETATM    2  C8  UNL     1      -8.196  46.837 -34.881  1.00  0.00     0.006 C 
HETATM    3  C9  UNL     1      -7.736  47.709 -33.690  1.00  0.00     0.011 C 
HETATM    4  C10 UNL     1      -7.716  46.738 -32.505  1.00  0.00    -0.032 C 
HETATM    5  C11 UNL     1      -6.351  45.953 -32.627  1.00  0.00     0.016 C 
HETATM    6  C12 UNL     1      -7.695  47.332 -31.073  1.00  0.00     0.004 C 
HETATM    7  C13 UNL     1      -8.721  48.458 -30.709  1.00  0.00     0.007 C 
HETATM    8  C14 UNL     1      -9.495  48.238 -29.367  1.00  0.00     0.007 C 
HETATM    9  C15 UNL     1      -8.534  47.835 -28.240  1.00  0.00     0.010 C 
HETATM   10  C16 UNL     1      -8.980  47.434 -26.833  1.00  0.00     0.018 C 
HETATM   11  C17 UNL     1      -9.834  46.160 -26.833  1.00  0.00     0.023 C 
HETATM   12  C18 UNL     1      -9.761  48.570 -26.156  1.00  0.00     0.023 C 
HETATM   13  C19 UNL     1      -7.676  47.191 -26.021  1.00  0.00     0.135 C 
HETATM   14  O1  UNL     1      -7.715  46.660 -24.908  1.00  0.00    -0.297 OA
HETATM   15  C20 UNL     1      -6.338  47.730 -26.573  1.00  0.00     0.080 C 
HETATM   16  C21 UNL     1      -6.133  47.564 -28.101  1.00  0.00     0.018 C 
HETATM   17  C22 UNL     1      -7.391  46.942 -28.679  1.00  0.00    -0.026 A 
HETATM   18  C23 UNL     1      -6.993  45.546 -29.040  1.00  0.00     0.021 A 
HETATM   19  C24 UNL     1      -7.841  46.220 -30.043  1.00  0.00    -0.027 A 
HETATM   20  C25 UNL     1      -9.022  45.258 -30.327  1.00  0.00     0.011 C 
HETATM   21  C26 UNL     1      -9.016  44.709 -31.775  1.00  0.00     0.011 C 
HETATM   22  C27 UNL     1      -8.990  45.851 -32.805  1.00  0.00    -0.032 C 
HETATM   23  C28 UNL     1     -10.364  46.578 -32.732  1.00  0.00     0.016 C 
ENDROOT
BRANCH   1  24
HETATM   24  C5  UNL     1      -9.856  44.878 -35.184  1.00  0.00    -0.014 C 
HETATM   25  C6  UNL     1      -9.754  43.353 -35.293  1.00  0.00     0.010 C 
BRANCH  24  26
HETATM   26  C4  UNL     1      -9.917  45.504 -36.605  1.00  0.00     0.009 C 
BRANCH  26  27
HETATM   27  C3  UNL     1     -11.029  46.542 -36.810  1.00  0.00     0.034 C 
BRANCH  27  28
HETATM   28  C2  UNL     1     -10.678  47.582 -37.865  1.00  0.00    -0.083 C 
HETATM   29  C1  UNL     1      -9.817  48.569 -37.552  1.00  0.00     0.015 C 
BRANCH  28  30
HETATM   30  C29 UNL     1     -11.358  47.435 -39.234  1.00  0.00     0.034 C 
HETATM   31  C30 UNL     1     -10.656  46.347 -40.057  1.00  0.00     0.017 C 
BRANCH  30  32
HETATM   32  C31 UNL     1     -12.873  47.136 -39.211  1.00  0.00     0.187 C 
BRANCH  32  33
HETATM   33  O2  UNL     1     -13.578  48.240 -38.619  1.00  0.00    -0.321 OA
BRANCH  33  34
HETATM   34  C32 UNL     1     -13.686  49.331 -39.424  1.00  0.00     0.254 C 
HETATM   35  C33 UNL     1     -14.137  48.919 -40.792  1.00  0.00     0.126 C 
HETATM   36  O3  UNL     1     -13.451  50.485 -39.091  1.00  0.00    -0.266 OA
ENDBRANCH  33  34
ENDBRANCH  32  33
ENDBRANCH  30  32
ENDBRANCH  28  30
ENDBRANCH  27  28
ENDBRANCH  26  27
ENDBRANCH  24  26
ENDBRANCH   1  24
TORSDOF 8
ENDMDL
MODEL 6
REMARK minimizedAffinity -6.81394672
REMARK CNNscore 0.384119987
REMARK CNNaffinity 6.54886866
REMARK  8 active torsions:
REMARK  status: ('A' for Active; 'I' for Inactive)
REMARK    1  A    between atoms: C2_2  and  C3_3 
REMARK    2  A    between atoms: C2_2  and  C29_30 
REMARK    3  A    between atoms: C3_3  and  C4_4 
REMARK    4  A    between atoms: C4_4  and  C5_5 
REMARK    5  A    between atoms: C5_5  and  C7_7 
REMARK    6  A    between atoms: C29_30  and  C31_32 
REMARK    7  A    between atoms: C31_32  and  O2_33 
REMARK    8  A    between atoms: O2_33  and  C32_34 
ROOT
HETATM    1  C7  UNL     1       3.752  54.885  -8.628  1.00  0.00    -0.002 C 
HETATM    2  C8  UNL     1       3.825  55.967  -9.753  1.00  0.00     0.006 C 
HETATM    3  C9  UNL     1       2.509  55.894 -10.561  1.00  0.00     0.011 C 
HETATM    4  C10 UNL     1       1.595  55.011  -9.705  1.00  0.00    -0.032 C 
HETATM    5  C11 UNL     1       1.012  55.965  -8.590  1.00  0.00     0.016 C 
HETATM    6  C12 UNL     1       0.345  54.386 -10.373  1.00  0.00     0.004 C 
HETATM    7  C13 UNL     1       0.512  53.653 -11.747  1.00  0.00     0.007 C 
HETATM    8  C14 UNL     1      -0.159  52.241 -11.829  1.00  0.00     0.007 C 
HETATM    9  C15 UNL     1      -1.590  52.281 -11.275  1.00  0.00     0.010 C 
HETATM   10  C16 UNL     1      -2.478  51.048 -11.103  1.00  0.00     0.018 C 
HETATM   11  C17 UNL     1      -1.901  50.050 -10.093  1.00  0.00     0.023 C 
HETATM   12  C18 UNL     1      -2.707  50.340 -12.446  1.00  0.00     0.023 C 
HETATM   13  C19 UNL     1      -3.850  51.575 -10.594  1.00  0.00     0.135 C 
HETATM   14  O1  UNL     1      -4.709  50.796 -10.171  1.00  0.00    -0.297 OA
HETATM   15  C20 UNL     1      -4.174  53.080 -10.732  1.00  0.00     0.080 C 
HETATM   16  C21 UNL     1      -3.004  54.045 -10.410  1.00  0.00     0.018 C 
HETATM   17  C22 UNL     1      -1.778  53.207 -10.090  1.00  0.00    -0.026 A 
HETATM   18  C23 UNL     1      -1.580  53.372  -8.617  1.00  0.00     0.021 A 
HETATM   19  C24 UNL     1      -0.336  53.422  -9.413  1.00  0.00    -0.027 A 
HETATM   20  C25 UNL     1       0.631  52.398  -8.766  1.00  0.00     0.011 C 
HETATM   21  C26 UNL     1       1.876  53.064  -8.132  1.00  0.00     0.011 C 
HETATM   22  C27 UNL     1       2.621  53.940  -9.153  1.00  0.00    -0.032 C 
HETATM   23  C28 UNL     1       3.256  52.991 -10.210  1.00  0.00     0.016 C 
ENDROOT
BRANCH   1  24
HETATM   24  C5  UNL     1       5.156  54.321  -8.267  1.00  0.00    -0.014 C 
HETATM   25  C6  UNL     1       6.139  55.422  -7.853  1.00  0.00     0.010 C 
BRANCH  24  26
HETATM   26  C4  UNL     1       5.774  53.466  -9.408  1.00  0.00     0.009 C 
BRANCH  26  27
HETATM   27  C3  UNL     1       6.723  52.352  -8.943  1.00  0.00     0.034 C 
BRANCH  27  28
HETATM   28  C2  UNL     1       6.000  51.044  -8.651  1.00  0.00    -0.083 C 
HETATM   29  C1  UNL     1       5.254  50.942  -7.534  1.00  0.00     0.015 C 
BRANCH  28  30
HETATM   30  C29 UNL     1       6.190  49.908  -9.666  1.00  0.00     0.034 C 
HETATM   31  C30 UNL     1       4.957  49.797 -10.572  1.00  0.00     0.017 C 
BRANCH  30  32
HETATM   32  C31 UNL     1       7.449  49.997 -10.557  1.00  0.00     0.187 C 
BRANCH  32  33
HETATM   33  O2  UNL     1       7.838  48.681 -10.983  1.00  0.00    -0.321 OA
BRANCH  33  34
HETATM   34  C32 UNL     1       8.931  48.185 -10.341  1.00  0.00     0.254 C 
HETATM   35  C33 UNL     1       9.944  47.714 -11.339  1.00  0.00     0.126 C 
HETATM   36  O3  UNL     1       9.076  48.126  -9.128  1.00  0.00    -0.266 OA
ENDBRANCH  33  34
ENDBRANCH  32  33
ENDBRANCH  30  32
ENDBRANCH  28  30
ENDBRANCH  27  28
ENDBRANCH  26  27
ENDBRANCH  24  26
ENDBRANCH   1  24
TORSDOF 8
ENDMDL
MODEL 7
REMARK minimizedAffinity -7.56063986
REMARK CNNscore 0.274787277
REMARK CNNaffinity 6.0918746
REMARK  8 active torsions:
REMARK  status: ('A' for Active; 'I' for Inactive)
REMARK    1  A    between atoms: C2_2  and  C3_3 
REMARK    2  A    between atoms: C2_2  and  C29_30 
REMARK    3  A    between atoms: C3_3  and  C4_4 
REMARK    4  A    between atoms: C4_4  and  C5_5 
REMARK    5  A    between atoms: C5_5  and  C7_7 
REMARK    6  A    between atoms: C29_30  and  C31_32 
REMARK    7  A    between atoms: C31_32  and  O2_33 
REMARK    8  A    between atoms: O2_33  and  C32_34 
ROOT
HETATM    1  C7  UNL     1      -7.180  47.648 -28.854  1.00  0.00    -0.002 C 
HETATM    2  C8  UNL     1      -6.100  48.291 -29.782  1.00  0.00     0.006 C 
HETATM    3  C9  UNL     1      -6.419  47.872 -31.235  1.00  0.00     0.011 C 
HETATM    4  C10 UNL     1      -7.828  47.275 -31.149  1.00  0.00    -0.032 C 
HETATM    5  C11 UNL     1      -8.810  48.511 -31.150  1.00  0.00     0.016 C 
HETATM    6  C12 UNL     1      -8.320  46.388 -32.321  1.00  0.00     0.004 C 
HETATM    7  C13 UNL     1      -7.384  45.247 -32.846  1.00  0.00     0.007 C 
HETATM    8  C14 UNL     1      -8.072  43.852 -33.016  1.00  0.00     0.007 C 
HETATM    9  C15 UNL     1      -9.416  43.989 -33.746  1.00  0.00     0.010 C 
HETATM   10  C16 UNL     1     -10.394  42.835 -33.970  1.00  0.00     0.018 C 
HETATM   11  C17 UNL     1     -10.939  42.270 -32.653  1.00  0.00     0.023 C 
HETATM   12  C18 UNL     1      -9.739  41.705 -34.776  1.00  0.00     0.023 C 
HETATM   13  C19 UNL     1     -11.562  43.419 -34.814  1.00  0.00     0.135 C 
HETATM   14  O1  UNL     1     -12.603  42.776 -34.981  1.00  0.00    -0.297 OA
HETATM   15  C20 UNL     1     -11.362  44.767 -35.541  1.00  0.00     0.080 C 
HETATM   16  C21 UNL     1     -10.604  45.853 -34.734  1.00  0.00     0.018 C 
HETATM   17  C22 UNL     1     -10.190  45.247 -33.405  1.00  0.00    -0.026 A 
HETATM   18  C23 UNL     1     -11.073  45.907 -32.394  1.00  0.00     0.021 A 
HETATM   19  C24 UNL     1      -9.664  45.762 -31.976  1.00  0.00    -0.027 A 
HETATM   20  C25 UNL     1      -9.695  45.075 -30.587  1.00  0.00     0.011 C 
HETATM   21  C26 UNL     1      -9.173  45.990 -29.452  1.00  0.00     0.011 C 
HETATM   22  C27 UNL     1      -7.762  46.515 -29.763  1.00  0.00    -0.032 C 
HETATM   23  C28 UNL     1      -6.785  45.306 -29.690  1.00  0.00     0.016 C 
ENDROOT
BRANCH   1  24
HETATM   24  C5  UNL     1      -6.618  47.323 -27.440  1.00  0.00    -0.014 C 
HETATM   25  C6  UNL     1      -7.602  47.687 -26.323  1.00  0.00     0.010 C 
BRANCH  24  26
HETATM   26  C4  UNL     1      -5.243  47.994 -27.168  1.00  0.00     0.009 C 
BRANCH  26  27
HETATM   27  C3  UNL     1      -4.938  48.274 -25.690  1.00  0.00     0.034 C 
BRANCH  27  28
HETATM   28  C2  UNL     1      -3.522  48.787 -25.467  1.00  0.00    -0.083 C 
HETATM   29  C1  UNL     1      -2.626  48.696 -26.468  1.00  0.00     0.015 C 
BRANCH  28  30
HETATM   30  C29 UNL     1      -3.209  49.370 -24.081  1.00  0.00     0.034 C 
HETATM   31  C30 UNL     1      -3.103  48.243 -23.046  1.00  0.00     0.017 C 
BRANCH  30  32
HETATM   32  C31 UNL     1      -1.942  50.249 -23.985  1.00  0.00     0.187 C 
BRANCH  32  33
HETATM   33  O2  UNL     1      -1.306  50.049 -22.712  1.00  0.00    -0.321 OA
BRANCH  33  34
HETATM   34  C32 UNL     1      -1.365  51.125 -21.881  1.00  0.00     0.254 C 
HETATM   35  C33 UNL     1       0.010  51.668 -21.644  1.00  0.00     0.126 C 
HETATM   36  O3  UNL     1      -2.386  51.589 -21.392  1.00  0.00    -0.266 OA
ENDBRANCH  33  34
ENDBRANCH  32  33
ENDBRANCH  30  32
ENDBRANCH  28  30
ENDBRANCH  27  28
ENDBRANCH  26  27
ENDBRANCH  24  26
ENDBRANCH   1  24
TORSDOF 8
ENDMDL
MODEL 8
REMARK minimizedAffinity -7.17703676
REMARK CNNscore 0.268483311
REMARK CNNaffinity 5.72364283
REMARK  8 active torsions:
REMARK  status: ('A' for Active; 'I' for Inactive)
REMARK    1  A    between atoms: C2_2  and  C3_3 
REMARK    2  A    between atoms: C2_2  and  C29_30 
REMARK    3  A    between atoms: C3_3  and  C4_4 
REMARK    4  A    between atoms: C4_4  and  C5_5 
REMARK    5  A    between atoms: C5_5  and  C7_7 
REMARK    6  A    between atoms: C29_30  and  C31_32 
REMARK    7  A    between atoms: C31_32  and  O2_33 
REMARK    8  A    between atoms: O2_33  and  C32_34 
ROOT
HETATM    1  C7  UNL     1     -13.960  45.804 -26.229  1.00  0.00    -0.002 C 
HETATM    2  C8  UNL     1     -15.109  45.848 -27.287  1.00  0.00     0.006 C 
HETATM    3  C9  UNL     1     -14.457  45.827 -28.689  1.00  0.00     0.011 C 
HETATM    4  C10 UNL     1     -12.996  45.456 -28.414  1.00  0.00    -0.032 C 
HETATM    5  C11 UNL     1     -12.985  43.887 -28.241  1.00  0.00     0.016 C 
HETATM    6  C12 UNL     1     -11.950  45.731 -29.524  1.00  0.00     0.004 C 
HETATM    7  C13 UNL     1     -11.930  47.140 -30.209  1.00  0.00     0.007 C 
HETATM    8  C14 UNL     1     -10.517  47.805 -30.312  1.00  0.00     0.007 C 
HETATM    9  C15 UNL     1      -9.477  46.805 -30.835  1.00  0.00     0.010 C 
HETATM   10  C16 UNL     1      -7.980  47.100 -30.943  1.00  0.00     0.018 C 
HETATM   11  C17 UNL     1      -7.337  47.360 -29.576  1.00  0.00     0.023 C 
HETATM   12  C18 UNL     1      -7.719  48.300 -31.864  1.00  0.00     0.023 C 
HETATM   13  C19 UNL     1      -7.340  45.841 -31.593  1.00  0.00     0.135 C 
HETATM   14  O1  UNL     1      -6.114  45.701 -31.624  1.00  0.00    -0.297 OA
HETATM   15  C20 UNL     1      -8.252  44.819 -32.308  1.00  0.00     0.080 C 
HETATM   16  C21 UNL     1      -9.592  44.509 -31.592  1.00  0.00     0.018 C 
HETATM   17  C22 UNL     1      -9.676  45.382 -30.353  1.00  0.00    -0.026 A 
HETATM   18  C23 UNL     1      -9.491  44.437 -29.208  1.00  0.00     0.021 A 
HETATM   19  C24 UNL     1     -10.547  45.449 -29.003  1.00  0.00    -0.027 A 
HETATM   20  C25 UNL     1     -10.239  46.124 -27.642  1.00  0.00     0.011 C 
HETATM   21  C26 UNL     1     -11.322  45.842 -26.573  1.00  0.00     0.011 C 
HETATM   22  C27 UNL     1     -12.719  46.247 -27.072  1.00  0.00    -0.032 C 
HETATM   23  C28 UNL     1     -12.749  47.799 -27.172  1.00  0.00     0.016 C 
ENDROOT
BRANCH   1  24
HETATM   24  C5  UNL     1     -14.342  46.554 -24.921  1.00  0.00    -0.014 C 
HETATM   25  C6  UNL     1     -13.909  45.792 -23.663  1.00  0.00     0.010 C 
BRANCH  24  26
HETATM   26  C4  UNL     1     -15.857  46.889 -24.837  1.00  0.00     0.009 C 
BRANCH  26  27
HETATM   27  C3  UNL     1     -16.743  45.758 -24.296  1.00  0.00     0.034 C 
BRANCH  27  28
HETATM   28  C2  UNL     1     -18.135  46.235 -23.904  1.00  0.00    -0.083 C 
HETATM   29  C1  UNL     1     -18.716  47.219 -24.616  1.00  0.00     0.015 C 
BRANCH  28  30
HETATM   30  C29 UNL     1     -18.782  45.554 -22.690  1.00  0.00     0.034 C 
HETATM   31  C30 UNL     1     -18.306  44.100 -22.584  1.00  0.00     0.017 C 
BRANCH  30  32
HETATM   32  C31 UNL     1     -18.562  46.246 -21.326  1.00  0.00     0.187 C 
BRANCH  32  33
HETATM   33  O2  UNL     1     -19.397  45.633 -20.329  1.00  0.00    -0.321 OA
BRANCH  33  34
HETATM   34  C32 UNL     1     -19.592  46.395 -19.218  1.00  0.00     0.254 C 
HETATM   35  C33 UNL     1     -18.716  47.608 -19.265  1.00  0.00     0.126 C 
HETATM   36  O3  UNL     1     -20.367  46.136 -18.307  1.00  0.00    -0.266 OA
ENDBRANCH  33  34
ENDBRANCH  32  33
ENDBRANCH  30  32
ENDBRANCH  28  30
ENDBRANCH  27  28
ENDBRANCH  26  27
ENDBRANCH  24  26
ENDBRANCH   1  24
TORSDOF 8
ENDMDL
MODEL 9
REMARK minimizedAffinity -9.07505894
REMARK CNNscore 0.264944375
REMARK CNNaffinity 6.84176683
REMARK  8 active torsions:
REMARK  status: ('A' for Active; 'I' for Inactive)
REMARK    1  A    between atoms: C2_2  and  C3_3 
REMARK    2  A    between atoms: C2_2  and  C29_30 
REMARK    3  A    between atoms: C3_3  and  C4_4 
REMARK    4  A    between atoms: C4_4  and  C5_5 
REMARK    5  A    between atoms: C5_5  and  C7_7 
REMARK    6  A    between atoms: C29_30  and  C31_32 
REMARK    7  A    between atoms: C31_32  and  O2_33 
REMARK    8  A    between atoms: O2_33  and  C32_34 
ROOT
HETATM    1  C7  UNL     1      -0.018  51.496 -20.747  1.00  0.00    -0.002 C 
HETATM    2  C8  UNL     1      -0.513  52.107 -19.397  1.00  0.00     0.006 C 
HETATM    3  C9  UNL     1      -1.909  51.514 -19.097  1.00  0.00     0.011 C 
HETATM    4  C10 UNL     1      -2.044  50.359 -20.094  1.00  0.00    -0.032 C 
HETATM    5  C11 UNL     1      -1.250  49.154 -19.453  1.00  0.00     0.016 C 
HETATM    6  C12 UNL     1      -3.460  49.789 -20.366  1.00  0.00     0.004 C 
HETATM    7  C13 UNL     1      -4.627  50.786 -20.679  1.00  0.00     0.007 C 
HETATM    8  C14 UNL     1      -5.493  50.419 -21.929  1.00  0.00     0.007 C 
HETATM    9  C15 UNL     1      -5.884  48.934 -21.908  1.00  0.00     0.010 C 
HETATM   10  C16 UNL     1      -6.630  48.227 -23.040  1.00  0.00     0.018 C 
HETATM   11  C17 UNL     1      -5.823  48.202 -24.344  1.00  0.00     0.023 C 
HETATM   12  C18 UNL     1      -7.994  48.883 -23.298  1.00  0.00     0.023 C 
HETATM   13  C19 UNL     1      -6.878  46.772 -22.549  1.00  0.00     0.135 C 
HETATM   14  O1  UNL     1      -7.281  45.903 -23.327  1.00  0.00    -0.297 OA
HETATM   15  C20 UNL     1      -6.725  46.452 -21.045  1.00  0.00     0.080 C 
HETATM   16  C21 UNL     1      -5.520  47.127 -20.340  1.00  0.00     0.018 C 
HETATM   17  C22 UNL     1      -4.817  48.012 -21.354  1.00  0.00    -0.026 A 
HETATM   18  C23 UNL     1      -3.532  47.306 -21.649  1.00  0.00     0.021 A 
HETATM   19  C24 UNL     1      -3.406  48.769 -21.495  1.00  0.00    -0.027 A 
HETATM   20  C25 UNL     1      -2.659  49.273 -22.756  1.00  0.00     0.011 C 
HETATM   21  C26 UNL     1      -1.261  49.855 -22.434  1.00  0.00     0.011 C 
HETATM   22  C27 UNL     1      -1.350  50.969 -21.378  1.00  0.00    -0.032 C 
HETATM   23  C28 UNL     1      -2.070  52.182 -22.036  1.00  0.00     0.016 C 
ENDROOT
BRANCH   1  24
HETATM   24  C5  UNL     1       0.899  52.477 -21.532  1.00  0.00    -0.014 C 
HETATM   25  C6  UNL     1       1.271  53.714 -20.707  1.00  0.00     0.010 C 
BRANCH  24  26
HETATM   26  C4  UNL     1       0.290  52.916 -22.892  1.00  0.00     0.009 C 
BRANCH  26  27
HETATM   27  C3  UNL     1       0.948  52.291 -24.130  1.00  0.00     0.034 C 
BRANCH  27  28
HETATM   28  C2  UNL     1       0.624  53.043 -25.414  1.00  0.00    -0.083 C 
HETATM   29  C1  UNL     1       0.153  54.302 -25.335  1.00  0.00     0.015 C 
BRANCH  28  30
HETATM   30  C29 UNL     1       0.850  52.289 -26.732  1.00  0.00     0.034 C 
HETATM   31  C30 UNL     1       2.096  51.401 -26.626  1.00  0.00     0.017 C 
BRANCH  30  32
HETATM   32  C31 UNL     1      -0.330  51.426 -27.232  1.00  0.00     0.187 C 
BRANCH  32  33
HETATM   33  O2  UNL     1      -1.343  51.352 -26.216  1.00  0.00    -0.321 OA
BRANCH  33  34
HETATM   34  C32 UNL     1      -2.439  52.121 -26.461  1.00  0.00     0.254 C 
HETATM   35  C33 UNL     1      -3.542  51.762 -25.513  1.00  0.00     0.126 C 
HETATM   36  O3  UNL     1      -2.524  52.981 -27.327  1.00  0.00    -0.266 OA
ENDBRANCH  33  34
ENDBRANCH  32  33
ENDBRANCH  30  32
ENDBRANCH  28  30
ENDBRANCH  27  28
ENDBRANCH  26  27
ENDBRANCH  24  26
ENDBRANCH   1  24
TORSDOF 8
ENDMDL
