MODEL 1
REMARK minimizedAffinity -8.4319334
REMARK CNNscore 0.731396794
REMARK CNNaffinity 7.41574287
REMARK  12 active torsions:
REMARK  status: ('A' for Active; 'I' for Inactive)
REMARK    1  A    between atoms: N1_6  and  O1_8 
REMARK    2  A    between atoms: O1_8  and  C6_9 
REMARK    3  A    between atoms: C6_9  and  C7_10 
REMARK       I    between atoms: C7_10  and  N2_12 
REMARK    4  A    between atoms: N2_12  and  C8_13 
REMARK    5  A    between atoms: C8_13  and  C9_14 
REMARK    6  A    between atoms: C12_17  and  C13_18 
REMARK    7  A    between atoms: C13_18  and  O4_20 
REMARK    8  A    between atoms: C22_29  and  O5_30 
REMARK    9  A    between atoms: C29_37  and  O6_38 
REMARK   10  A    between atoms: C29_37  and  C30_39 
REMARK   11  A    between atoms: C30_39  and  C31_41 
REMARK   12  A    between atoms: C31_41  and  O8_42 
ROOT
HETATM    1  C1  UNL     1      -6.656   5.922  16.330  1.00  0.00     0.020 C 
HETATM    2  C2  UNL     1      -6.795   6.642  14.970  1.00  0.00    -0.014 C 
HETATM    3  C3  UNL     1      -7.396   8.059  15.203  1.00  0.00     0.020 C 
HETATM    4  C4  UNL     1      -8.855   8.039  15.633  1.00  0.00     0.060 C 
HETATM    5  C5  UNL     1      -9.705   7.270  14.645  1.00  0.00     0.032 C 
HETATM    6  N1  UNL     1     -10.948   7.630  14.538  1.00  0.00    -0.271 N 
ATOM      7  H1  UNL     1     -11.362   8.408  15.052  1.00  0.00     0.194 HD
HETATM    8  C16 UNL     1      -9.064   6.121  13.942  1.00  0.00     0.030 C 
HETATM    9  C17 UNL     1      -7.766   5.812  14.121  1.00  0.00    -0.069 C 
HETATM   10  C18 UNL     1      -7.214   4.544  13.517  1.00  0.00     0.035 C 
HETATM   11  C19 UNL     1      -5.930   4.798  12.742  1.00  0.00     0.010 C 
HETATM   12  C20 UNL     1      -4.870   5.474  13.622  1.00  0.00    -0.002 C 
HETATM   13  C21 UNL     1      -5.420   6.816  14.203  1.00  0.00     0.031 C 
HETATM   14  C22 UNL     1      -4.322   7.617  14.969  1.00  0.00     0.124 C 
HETATM   15  C23 UNL     1      -2.995   7.745  14.187  1.00  0.00     0.045 C 
HETATM   16  C24 UNL     1      -2.458   6.394  13.655  1.00  0.00     0.001 C 
HETATM   17  C25 UNL     1      -1.997   5.476  14.822  1.00  0.00     0.019 C 
HETATM   18  C26 UNL     1      -3.598   5.771  12.812  1.00  0.00     0.002 C 
HETATM   19  C27 UNL     1      -2.919   4.619  12.085  1.00  0.00     0.009 C 
HETATM   20  C28 UNL     1      -1.514   5.156  11.761  1.00  0.00     0.047 C 
HETATM   21  C29 UNL     1      -1.326   6.472  12.578  1.00  0.00     0.128 C 
ENDROOT
BRANCH   6  22
HETATM   22  O1  UNL     1     -11.652   6.823  13.633  1.00  0.00    -0.271 OA
BRANCH  22  23
HETATM   23  C6  UNL     1     -12.452   7.660  12.806  1.00  0.00     0.303 C 
BRANCH  23  24
HETATM   24  C7  UNL     1     -13.900   7.211  12.922  1.00  0.00     0.244 C 
HETATM   25  O2  UNL     1     -14.779   7.611  12.163  1.00  0.00    -0.271 OA
HETATM   26  N2  UNL     1     -14.131   6.307  13.938  1.00  0.00    -0.355 N 
HETATM   27  H10 UNL     1     -13.345   5.961  14.473  1.00  0.00     0.162 HD
BRANCH  26  28
HETATM   28  C8  UNL     1     -15.431   5.714  14.157  1.00  0.00     0.161 C 
BRANCH  28  29
HETATM   29  C9  UNL     1     -15.853   5.832  15.600  1.00  0.00    -0.040 A 
HETATM   30  C10 UNL     1     -15.351   6.856  16.415  1.00  0.00     0.010 A 
HETATM   31  C11 UNL     1     -15.749   6.956  17.752  1.00  0.00     0.019 A 
HETATM   32  C12 UNL     1     -16.646   6.028  18.294  1.00  0.00     0.037 A 
HETATM   33  C14 UNL     1     -17.146   5.001  17.488  1.00  0.00     0.019 A 
HETATM   34  C15 UNL     1     -16.753   4.906  16.151  1.00  0.00     0.010 A 
BRANCH  32  35
HETATM   35  C13 UNL     1     -17.034   6.172  19.718  1.00  0.00     0.176 C 
HETATM   36  O3  UNL     1     -18.122   5.900  20.191  1.00  0.00    -0.646 OA
BRANCH  35  37
HETATM   37  O4  UNL     1     -16.040   6.653  20.485  1.00  0.00    -0.773 OA
HETATM   38  H15 UNL     1     -16.432   6.700  21.384  1.00  0.00     0.167 HD
ENDBRANCH  35  37
ENDBRANCH  32  35
ENDBRANCH  28  29
ENDBRANCH  26  28
ENDBRANCH  23  24
ENDBRANCH  22  23
ENDBRANCH   6  22
BRANCH  14  39
HETATM   39  O5  UNL     1      -4.052   7.040  16.238  1.00  0.00    -0.395 OA
HETATM   40  H26 UNL     1      -3.461   7.641  16.725  1.00  0.00     0.210 HD
ENDBRANCH  14  39
BRANCH  21  41
HETATM   41  O6  UNL     1      -1.573   7.541  11.653  1.00  0.00    -0.381 OA
HETATM   42  H37 UNL     1      -1.351   8.382  12.104  1.00  0.00     0.211 HD
ENDBRANCH  21  41
BRANCH  21  43
HETATM   43  C30 UNL     1       0.116   6.586  13.144  1.00  0.00     0.184 C 
HETATM   44  O7  UNL     1       0.464   7.476  13.926  1.00  0.00    -0.292 OA
BRANCH  43  45
HETATM   45  C31 UNL     1       1.145   5.575  12.646  1.00  0.00     0.245 C 
BRANCH  45  46
HETATM   46  O8  UNL     1       1.969   6.077  11.605  1.00  0.00    -0.393 OA
HETATM   47  H40 UNL     1       1.434   6.036  10.786  1.00  0.00     0.209 HD
ENDBRANCH  45  46
ENDBRANCH  43  45
ENDBRANCH  21  43
TORSDOF 12
ENDMDL
MODEL 2
REMARK minimizedAffinity -8.49925613
REMARK CNNscore 0.701026201
REMARK CNNaffinity 7.02346754
REMARK  12 active torsions:
REMARK  status: ('A' for Active; 'I' for Inactive)
REMARK    1  A    between atoms: N1_6  and  O1_8 
REMARK    2  A    between atoms: O1_8  and  C6_9 
REMARK    3  A    between atoms: C6_9  and  C7_10 
REMARK       I    between atoms: C7_10  and  N2_12 
REMARK    4  A    between atoms: N2_12  and  C8_13 
REMARK    5  A    between atoms: C8_13  and  C9_14 
REMARK    6  A    between atoms: C12_17  and  C13_18 
REMARK    7  A    between atoms: C13_18  and  O4_20 
REMARK    8  A    between atoms: C22_29  and  O5_30 
REMARK    9  A    between atoms: C29_37  and  O6_38 
REMARK   10  A    between atoms: C29_37  and  C30_39 
REMARK   11  A    between atoms: C30_39  and  C31_41 
REMARK   12  A    between atoms: C31_41  and  O8_42 
ROOT
HETATM    1  C1  UNL     1     -12.702   9.118  15.707  1.00  0.00     0.020 C 
HETATM    2  C2  UNL     1     -11.794   9.367  14.483  1.00  0.00    -0.014 C 
HETATM    3  C3  UNL     1     -12.006   8.223  13.450  1.00  0.00     0.020 C 
HETATM    4  C4  UNL     1     -11.457   6.880  13.906  1.00  0.00     0.060 C 
HETATM    5  C5  UNL     1      -9.993   6.984  14.273  1.00  0.00     0.032 C 
HETATM    6  N1  UNL     1      -9.273   5.914  14.118  1.00  0.00    -0.271 N 
ATOM      7  H1  UNL     1      -9.631   5.037  13.740  1.00  0.00     0.194 HD
HETATM    8  C16 UNL     1      -9.524   8.277  14.852  1.00  0.00     0.030 C 
HETATM    9  C17 UNL     1     -10.345   9.334  14.987  1.00  0.00    -0.069 C 
HETATM   10  C18 UNL     1      -9.865  10.558  15.730  1.00  0.00     0.035 C 
HETATM   11  C19 UNL     1     -10.114  11.833  14.941  1.00  0.00     0.010 C 
HETATM   12  C20 UNL     1     -11.596  11.983  14.571  1.00  0.00    -0.002 C 
HETATM   13  C21 UNL     1     -12.080  10.744  13.753  1.00  0.00     0.031 C 
HETATM   14  C22 UNL     1     -13.533  10.927  13.215  1.00  0.00     0.124 C 
HETATM   15  C23 UNL     1     -13.767  12.290  12.526  1.00  0.00     0.045 C 
HETATM   16  C24 UNL     1     -13.310  13.500  13.377  1.00  0.00     0.001 C 
HETATM   17  C25 UNL     1     -14.210  13.673  14.633  1.00  0.00     0.019 C 
HETATM   18  C26 UNL     1     -11.824  13.250  13.731  1.00  0.00     0.002 C 
HETATM   19  C27 UNL     1     -11.358  14.584  14.295  1.00  0.00     0.009 C 
HETATM   20  C28 UNL     1     -12.098  15.630  13.443  1.00  0.00     0.047 C 
HETATM   21  C29 UNL     1     -13.191  14.870  12.631  1.00  0.00     0.128 C 
ENDROOT
BRANCH   6  22
HETATM   22  O1  UNL     1      -7.948   6.108  14.531  1.00  0.00    -0.271 OA
BRANCH  22  23
HETATM   23  C6  UNL     1      -7.393   4.848  14.890  1.00  0.00     0.303 C 
BRANCH  23  24
HETATM   24  C7  UNL     1      -7.366   3.963  13.654  1.00  0.00     0.244 C 
HETATM   25  O2  UNL     1      -8.286   3.203  13.364  1.00  0.00    -0.271 OA
HETATM   26  N2  UNL     1      -6.230   4.105  12.884  1.00  0.00    -0.355 N 
HETATM   27  H10 UNL     1      -5.549   4.808  13.141  1.00  0.00     0.162 HD
BRANCH  26  28
HETATM   28  C8  UNL     1      -6.057   3.399  11.634  1.00  0.00     0.161 C 
BRANCH  28  29
HETATM   29  C9  UNL     1      -4.647   2.884  11.485  1.00  0.00    -0.040 A 
HETATM   30  C10 UNL     1      -3.595   3.750  11.153  1.00  0.00     0.010 A 
HETATM   31  C11 UNL     1      -2.292   3.261  11.018  1.00  0.00     0.019 A 
HETATM   32  C12 UNL     1      -2.025   1.899  11.201  1.00  0.00     0.037 A 
HETATM   33  C14 UNL     1      -3.070   1.028  11.525  1.00  0.00     0.019 A 
HETATM   34  C15 UNL     1      -4.371   1.519  11.667  1.00  0.00     0.010 A 
BRANCH  32  35
HETATM   35  C13 UNL     1      -0.628   1.426  11.040  1.00  0.00     0.176 C 
HETATM   36  O3  UNL     1      -0.274   0.265  10.961  1.00  0.00    -0.646 OA
BRANCH  35  37
HETATM   37  O4  UNL     1       0.261   2.433  10.988  1.00  0.00    -0.773 OA
HETATM   38  H15 UNL     1       1.128   1.983  10.887  1.00  0.00     0.167 HD
ENDBRANCH  35  37
ENDBRANCH  32  35
ENDBRANCH  28  29
ENDBRANCH  26  28
ENDBRANCH  23  24
ENDBRANCH  22  23
ENDBRANCH   6  22
BRANCH  14  39
HETATM   39  O5  UNL     1     -14.491  10.767  14.251  1.00  0.00    -0.395 OA
HETATM   40  H26 UNL     1     -15.377  10.762  13.848  1.00  0.00     0.210 HD
ENDBRANCH  14  39
BRANCH  21  41
HETATM   41  O6  UNL     1     -12.644  14.690  11.316  1.00  0.00    -0.381 OA
HETATM   42  H37 UNL     1     -13.349  14.318  10.748  1.00  0.00     0.211 HD
ENDBRANCH  21  41
BRANCH  21  43
HETATM   43  C30 UNL     1     -14.507  15.690  12.546  1.00  0.00     0.184 C 
HETATM   44  O7  UNL     1     -14.703  16.719  13.199  1.00  0.00    -0.292 OA
BRANCH  43  45
HETATM   45  C31 UNL     1     -15.618  15.141  11.654  1.00  0.00     0.245 C 
BRANCH  45  46
HETATM   46  O8  UNL     1     -15.176  14.806  10.347  1.00  0.00    -0.393 OA
HETATM   47  H40 UNL     1     -15.108  15.650   9.855  1.00  0.00     0.209 HD
ENDBRANCH  45  46
ENDBRANCH  43  45
ENDBRANCH  21  43
TORSDOF 12
ENDMDL
MODEL 3
REMARK minimizedAffinity -10.7307444
REMARK CNNscore 0.664651334
REMARK CNNaffinity 7.38439703
REMARK  12 active torsions:
REMARK  status: ('A' for Active; 'I' for Inactive)
REMARK    1  A    between atoms: N1_6  and  O1_8 
REMARK    2  A    between atoms: O1_8  and  C6_9 
REMARK    3  A    between atoms: C6_9  and  C7_10 
REMARK       I    between atoms: C7_10  and  N2_12 
REMARK    4  A    between atoms: N2_12  and  C8_13 
REMARK    5  A    between atoms: C8_13  and  C9_14 
REMARK    6  A    between atoms: C12_17  and  C13_18 
REMARK    7  A    between atoms: C13_18  and  O4_20 
REMARK    8  A    between atoms: C22_29  and  O5_30 
REMARK    9  A    between atoms: C29_37  and  O6_38 
REMARK   10  A    between atoms: C29_37  and  C30_39 
REMARK   11  A    between atoms: C30_39  and  C31_41 
REMARK   12  A    between atoms: C31_41  and  O8_42 
ROOT
HETATM    1  C1  UNL     1      -1.539   8.317  15.569  1.00  0.00     0.020 C 
HETATM    2  C2  UNL     1      -2.262   7.979  14.246  1.00  0.00    -0.014 C 
HETATM    3  C3  UNL     1      -3.189   9.166  13.854  1.00  0.00     0.020 C 
HETATM    4  C4  UNL     1      -4.393   9.328  14.769  1.00  0.00     0.060 C 
HETATM    5  C5  UNL     1      -5.195   8.047  14.849  1.00  0.00     0.032 C 
HETATM    6  N1  UNL     1      -6.467   8.167  15.078  1.00  0.00    -0.271 N 
ATOM      7  H1  UNL     1      -6.948   9.062  15.172  1.00  0.00     0.194 HD
HETATM    8  C16 UNL     1      -4.444   6.763  14.738  1.00  0.00     0.030 C 
HETATM    9  C17 UNL     1      -3.118   6.733  14.510  1.00  0.00    -0.069 C 
HETATM   10  C18 UNL     1      -2.383   5.416  14.573  1.00  0.00     0.035 C 
HETATM   11  C19 UNL     1      -1.506   5.198  13.349  1.00  0.00     0.010 C 
HETATM   12  C20 UNL     1      -0.513   6.352  13.160  1.00  0.00    -0.002 C 
HETATM   13  C21 UNL     1      -1.275   7.710  13.037  1.00  0.00     0.031 C 
HETATM   14  C22 UNL     1      -0.319   8.890  12.679  1.00  0.00     0.124 C 
HETATM   15  C23 UNL     1       0.636   8.574  11.505  1.00  0.00     0.045 C 
HETATM   16  C24 UNL     1       1.402   7.239  11.673  1.00  0.00     0.001 C 
HETATM   17  C25 UNL     1       2.427   7.325  12.838  1.00  0.00     0.019 C 
HETATM   18  C26 UNL     1       0.331   6.143  11.892  1.00  0.00     0.002 C 
HETATM   19  C27 UNL     1       1.110   4.844  11.749  1.00  0.00     0.009 C 
HETATM   20  C28 UNL     1       2.132   5.140  10.637  1.00  0.00     0.047 C 
HETATM   21  C29 UNL     1       2.113   6.681  10.396  1.00  0.00     0.128 C 
ENDROOT
BRANCH   6  22
HETATM   22  O1  UNL     1      -7.103   6.921  15.178  1.00  0.00    -0.271 OA
BRANCH  22  23
HETATM   23  C6  UNL     1      -8.448   7.059  14.736  1.00  0.00     0.303 C 
BRANCH  23  24
HETATM   24  C7  UNL     1      -8.709   6.023  13.654  1.00  0.00     0.244 C 
HETATM   25  O2  UNL     1      -9.384   6.265  12.657  1.00  0.00    -0.271 OA
HETATM   26  N2  UNL     1      -8.109   4.803  13.885  1.00  0.00    -0.355 N 
HETATM   27  H10 UNL     1      -7.502   4.701  14.688  1.00  0.00     0.162 HD
BRANCH  26  28
HETATM   28  C8  UNL     1      -8.185   3.718  12.933  1.00  0.00     0.161 C 
BRANCH  28  29
HETATM   29  C9  UNL     1      -6.812   3.288  12.480  1.00  0.00    -0.040 A 
HETATM   30  C10 UNL     1      -5.711   4.147  12.603  1.00  0.00     0.010 A 
HETATM   31  C11 UNL     1      -4.443   3.738  12.180  1.00  0.00     0.019 A 
HETATM   32  C12 UNL     1      -4.260   2.468  11.618  1.00  0.00     0.037 A 
HETATM   33  C14 UNL     1      -5.355   1.608  11.486  1.00  0.00     0.019 A 
HETATM   34  C15 UNL     1      -6.620   2.016  11.916  1.00  0.00     0.010 A 
BRANCH  32  35
HETATM   35  C13 UNL     1      -2.898   2.081  11.178  1.00  0.00     0.176 C 
HETATM   36  O3  UNL     1      -2.021   2.845  10.818  1.00  0.00    -0.646 OA
BRANCH  35  37
HETATM   37  O4  UNL     1      -2.696   0.752  11.209  1.00  0.00    -0.773 OA
HETATM   38  H15 UNL     1      -1.773   0.642  10.895  1.00  0.00     0.167 HD
ENDBRANCH  35  37
ENDBRANCH  32  35
ENDBRANCH  28  29
ENDBRANCH  26  28
ENDBRANCH  23  24
ENDBRANCH  22  23
ENDBRANCH   6  22
BRANCH  14  39
HETATM   39  O5  UNL     1       0.454   9.288  13.802  1.00  0.00    -0.395 OA
HETATM   40  H26 UNL     1       0.936  10.100  13.567  1.00  0.00     0.210 HD
ENDBRANCH  14  39
BRANCH  21  41
HETATM   41  O6  UNL     1       1.302   6.881   9.229  1.00  0.00    -0.381 OA
HETATM   42  H37 UNL     1       1.364   7.827   8.982  1.00  0.00     0.211 HD
ENDBRANCH  21  41
BRANCH  21  43
HETATM   43  C30 UNL     1       3.544   7.232  10.145  1.00  0.00     0.184 C 
HETATM   44  O7  UNL     1       3.783   8.150   9.354  1.00  0.00    -0.292 OA
BRANCH  43  45
HETATM   45  C31 UNL     1       4.696   6.547  10.876  1.00  0.00     0.245 C 
BRANCH  45  46
HETATM   46  O8  UNL     1       5.133   5.354  10.243  1.00  0.00    -0.393 OA
HETATM   47  H40 UNL     1       4.483   4.661  10.481  1.00  0.00     0.209 HD
ENDBRANCH  45  46
ENDBRANCH  43  45
ENDBRANCH  21  43
TORSDOF 12
ENDMDL
MODEL 4
REMARK minimizedAffinity -9.25179005
REMARK CNNscore 0.605544865
REMARK CNNaffinity 7.16375399
REMARK  12 active torsions:
REMARK  status: ('A' for Active; 'I' for Inactive)
REMARK    1  A    between atoms: N1_6  and  O1_8 
REMARK    2  A    between atoms: O1_8  and  C6_9 
REMARK    3  A    between atoms: C6_9  and  C7_10 
REMARK       I    between atoms: C7_10  and  N2_12 
REMARK    4  A    between atoms: N2_12  and  C8_13 
REMARK    5  A    between atoms: C8_13  and  C9_14 
REMARK    6  A    between atoms: C12_17  and  C13_18 
REMARK    7  A    between atoms: C13_18  and  O4_20 
REMARK    8  A    between atoms: C22_29  and  O5_30 
REMARK    9  A    between atoms: C29_37  and  O6_38 
REMARK   10  A    between atoms: C29_37  and  C30_39 
REMARK   11  A    between atoms: C30_39  and  C31_41 
REMARK   12  A    between atoms: C31_41  and  O8_42 
ROOT
HETATM    1  C1  UNL     1      -7.528   7.230  16.541  1.00  0.00     0.020 C 
HETATM    2  C2  UNL     1      -7.628   7.728  15.082  1.00  0.00    -0.014 C 
HETATM    3  C3  UNL     1      -8.386   9.087  15.058  1.00  0.00     0.020 C 
HETATM    4  C4  UNL     1      -9.865   8.966  15.389  1.00  0.00     0.060 C 
HETATM    5  C5  UNL     1     -10.551   7.972  14.476  1.00  0.00     0.032 C 
HETATM    6  N1  UNL     1     -11.811   8.172  14.235  1.00  0.00    -0.271 N 
ATOM      7  H1  UNL     1     -12.342   8.964  14.597  1.00  0.00     0.194 HD
HETATM    8  C16 UNL     1      -9.742   6.813  13.998  1.00  0.00     0.030 C 
HETATM    9  C17 UNL     1      -8.439   6.680  14.307  1.00  0.00    -0.069 C 
HETATM   10  C18 UNL     1      -7.714   5.408  13.939  1.00  0.00     0.035 C 
HETATM   11  C19 UNL     1      -6.404   5.691  13.220  1.00  0.00     0.010 C 
HETATM   12  C20 UNL     1      -5.492   6.600  14.055  1.00  0.00    -0.002 C 
HETATM   13  C21 UNL     1      -6.220   7.942  14.388  1.00  0.00     0.031 C 
HETATM   14  C22 UNL     1      -5.275   8.962  15.094  1.00  0.00     0.124 C 
HETATM   15  C23 UNL     1      -3.908   9.124  14.390  1.00  0.00     0.045 C 
HETATM   16  C24 UNL     1      -3.196   7.780  14.105  1.00  0.00     0.001 C 
HETATM   17  C25 UNL     1      -2.741   7.097  15.425  1.00  0.00     0.019 C 
HETATM   18  C26 UNL     1      -4.195   6.919  13.294  1.00  0.00     0.002 C 
HETATM   19  C27 UNL     1      -3.347   5.758  12.795  1.00  0.00     0.009 C 
HETATM   20  C28 UNL     1      -1.981   6.396  12.487  1.00  0.00     0.047 C 
HETATM   21  C29 UNL     1      -1.994   7.828  13.105  1.00  0.00     0.128 C 
ENDROOT
BRANCH   6  22
HETATM   22  O1  UNL     1     -12.354   7.170  13.419  1.00  0.00    -0.271 OA
BRANCH  22  23
HETATM   23  C6  UNL     1     -12.691   6.052  14.232  1.00  0.00     0.303 C 
BRANCH  23  24
HETATM   24  C7  UNL     1     -14.206   5.950  14.309  1.00  0.00     0.244 C 
HETATM   25  O2  UNL     1     -14.946   6.903  14.078  1.00  0.00    -0.271 OA
HETATM   26  N2  UNL     1     -14.670   4.694  14.641  1.00  0.00    -0.355 N 
HETATM   27  H10 UNL     1     -14.006   3.936  14.738  1.00  0.00     0.162 HD
BRANCH  26  28
HETATM   28  C8  UNL     1     -16.082   4.386  14.691  1.00  0.00     0.161 C 
BRANCH  28  29
HETATM   29  C9  UNL     1     -16.326   3.027  15.300  1.00  0.00    -0.040 A 
HETATM   30  C10 UNL     1     -17.515   2.750  15.988  1.00  0.00     0.010 A 
HETATM   31  C11 UNL     1     -17.731   1.487  16.548  1.00  0.00     0.019 A 
HETATM   32  C12 UNL     1     -16.756   0.489  16.438  1.00  0.00     0.037 A 
HETATM   33  C14 UNL     1     -15.564   0.760  15.760  1.00  0.00     0.019 A 
HETATM   34  C15 UNL     1     -15.353   2.020  15.194  1.00  0.00     0.010 A 
BRANCH  32  35
HETATM   35  C13 UNL     1     -17.028  -0.833  17.054  1.00  0.00     0.176 C 
HETATM   36  O3  UNL     1     -17.789  -1.678  16.621  1.00  0.00    -0.646 OA
BRANCH  35  37
HETATM   37  O4  UNL     1     -16.333  -1.033  18.188  1.00  0.00    -0.773 OA
HETATM   38  H15 UNL     1     -16.610  -1.928  18.483  1.00  0.00     0.167 HD
ENDBRANCH  35  37
ENDBRANCH  32  35
ENDBRANCH  28  29
ENDBRANCH  26  28
ENDBRANCH  23  24
ENDBRANCH  22  23
ENDBRANCH   6  22
BRANCH  14  39
HETATM   39  O5  UNL     1      -5.051   8.608  16.450  1.00  0.00    -0.395 OA
HETATM   40  H26 UNL     1      -4.566   9.334  16.879  1.00  0.00     0.210 HD
ENDBRANCH  14  39
BRANCH  21  41
HETATM   41  O6  UNL     1      -2.271   8.719  12.015  1.00  0.00    -0.381 OA
HETATM   42  H37 UNL     1      -2.173   9.635  12.346  1.00  0.00     0.211 HD
ENDBRANCH  21  41
BRANCH  21  43
HETATM   43  C30 UNL     1      -0.622   8.183  13.740  1.00  0.00     0.184 C 
HETATM   44  O7  UNL     1      -0.386   9.273  14.268  1.00  0.00    -0.292 OA
BRANCH  43  45
HETATM   45  C31 UNL     1       0.488   7.139  13.636  1.00  0.00     0.245 C 
BRANCH  45  46
HETATM   46  O8  UNL     1       0.666   6.388  14.828  1.00  0.00    -0.393 OA
HETATM   47  H40 UNL     1       1.171   6.960  15.441  1.00  0.00     0.209 HD
ENDBRANCH  45  46
ENDBRANCH  43  45
ENDBRANCH  21  43
TORSDOF 12
ENDMDL
MODEL 5
REMARK minimizedAffinity -10.2388906
REMARK CNNscore 0.565727711
REMARK CNNaffinity 7.114645
REMARK  12 active torsions:
REMARK  status: ('A' for Active; 'I' for Inactive)
REMARK    1  A    between atoms: N1_6  and  O1_8 
REMARK    2  A    between atoms: O1_8  and  C6_9 
REMARK    3  A    between atoms: C6_9  and  C7_10 
REMARK       I    between atoms: C7_10  and  N2_12 
REMARK    4  A    between atoms: N2_12  and  C8_13 
REMARK    5  A    between atoms: C8_13  and  C9_14 
REMARK    6  A    between atoms: C12_17  and  C13_18 
REMARK    7  A    between atoms: C13_18  and  O4_20 
REMARK    8  A    between atoms: C22_29  and  O5_30 
REMARK    9  A    between atoms: C29_37  and  O6_38 
REMARK   10  A    between atoms: C29_37  and  C30_39 
REMARK   11  A    between atoms: C30_39  and  C31_41 
REMARK   12  A    between atoms: C31_41  and  O8_42 
ROOT
HETATM    1  C1  UNL     1      -1.968   7.544  14.785  1.00  0.00     0.020 C 
HETATM    2  C2  UNL     1      -2.434   7.322  13.329  1.00  0.00    -0.014 C 
HETATM    3  C3  UNL     1      -3.394   8.476  12.919  1.00  0.00     0.020 C 
HETATM    4  C4  UNL     1      -4.739   8.431  13.627  1.00  0.00     0.060 C 
HETATM    5  C5  UNL     1      -5.418   7.094  13.426  1.00  0.00     0.032 C 
HETATM    6  N1  UNL     1      -6.716   7.088  13.446  1.00  0.00    -0.271 N 
ATOM      7  H1  UNL     1      -7.289   7.926  13.556  1.00  0.00     0.194 HD
HETATM    8  C16 UNL     1      -4.540   5.894  13.301  1.00  0.00     0.030 C 
HETATM    9  C17 UNL     1      -3.198   5.992  13.302  1.00  0.00    -0.069 C 
HETATM   10  C18 UNL     1      -2.361   4.736  13.342  1.00  0.00     0.035 C 
HETATM   11  C19 UNL     1      -1.283   4.740  12.270  1.00  0.00     0.010 C 
HETATM   12  C20 UNL     1      -0.386   5.980  12.382  1.00  0.00    -0.002 C 
HETATM   13  C21 UNL     1      -1.244   7.282  12.283  1.00  0.00     0.031 C 
HETATM   14  C22 UNL     1      -0.359   8.565  12.228  1.00  0.00     0.124 C 
HETATM   15  C23 UNL     1       0.797   8.472  11.206  1.00  0.00     0.045 C 
HETATM   16  C24 UNL     1       1.649   7.188  11.352  1.00  0.00     0.001 C 
HETATM   17  C25 UNL     1       2.462   7.203  12.677  1.00  0.00     0.019 C 
HETATM   18  C26 UNL     1       0.666   5.996  11.261  1.00  0.00     0.002 C 
HETATM   19  C27 UNL     1       1.577   4.787  11.110  1.00  0.00     0.009 C 
HETATM   20  C28 UNL     1       2.732   5.297  10.229  1.00  0.00     0.047 C 
HETATM   21  C29 UNL     1       2.606   6.850  10.161  1.00  0.00     0.128 C 
ENDROOT
BRANCH   6  22
HETATM   22  O1  UNL     1      -7.238   5.795  13.297  1.00  0.00    -0.271 OA
BRANCH  22  23
HETATM   23  C6  UNL     1      -7.695   5.340  14.565  1.00  0.00     0.303 C 
BRANCH  23  24
HETATM   24  C7  UNL     1      -8.548   6.431  15.192  1.00  0.00     0.244 C 
HETATM   25  O2  UNL     1      -8.120   7.190  16.057  1.00  0.00    -0.271 OA
HETATM   26  N2  UNL     1      -9.831   6.502  14.690  1.00  0.00    -0.355 N 
HETATM   27  H10 UNL     1     -10.090   5.897  13.921  1.00  0.00     0.162 HD
BRANCH  26  28
HETATM   28  C8  UNL     1     -10.765   7.521  15.111  1.00  0.00     0.161 C 
BRANCH  28  29
HETATM   29  C9  UNL     1     -12.024   7.490  14.281  1.00  0.00    -0.040 A 
HETATM   30  C10 UNL     1     -12.870   6.373  14.298  1.00  0.00     0.010 A 
HETATM   31  C11 UNL     1     -14.035   6.355  13.525  1.00  0.00     0.019 A 
HETATM   32  C12 UNL     1     -14.363   7.449  12.715  1.00  0.00     0.037 A 
HETATM   33  C14 UNL     1     -13.520   8.564  12.687  1.00  0.00     0.019 A 
HETATM   34  C15 UNL     1     -12.361   8.584  13.467  1.00  0.00     0.010 A 
BRANCH  32  35
HETATM   35  C13 UNL     1     -15.605   7.381  11.907  1.00  0.00     0.176 C 
HETATM   36  O3  UNL     1     -15.975   8.211  11.097  1.00  0.00    -0.646 OA
BRANCH  35  37
HETATM   37  O4  UNL     1     -16.329   6.275  12.154  1.00  0.00    -0.773 OA
HETATM   38  H15 UNL     1     -17.110   6.363  11.565  1.00  0.00     0.167 HD
ENDBRANCH  35  37
ENDBRANCH  32  35
ENDBRANCH  28  29
ENDBRANCH  26  28
ENDBRANCH  23  24
ENDBRANCH  22  23
ENDBRANCH   6  22
BRANCH  14  39
HETATM   39  O5  UNL     1       0.182   8.876  13.503  1.00  0.00    -0.395 OA
HETATM   40  H26 UNL     1       0.617   9.745  13.446  1.00  0.00     0.210 HD
ENDBRANCH  14  39
BRANCH  21  41
HETATM   41  O6  UNL     1       1.978   7.134   8.903  1.00  0.00    -0.381 OA
HETATM   42  H37 UNL     1       1.988   8.105   8.777  1.00  0.00     0.211 HD
ENDBRANCH  21  41
BRANCH  21  43
HETATM   43  C30 UNL     1       4.000   7.534  10.221  1.00  0.00     0.184 C 
HETATM   44  O7  UNL     1       4.259   8.588   9.633  1.00  0.00    -0.292 OA
BRANCH  43  45
HETATM   45  C31 UNL     1       5.099   6.815  10.999  1.00  0.00     0.245 C 
BRANCH  45  46
HETATM   46  O8  UNL     1       6.357   6.830  10.340  1.00  0.00    -0.393 OA
HETATM   47  H40 UNL     1       6.311   6.144   9.643  1.00  0.00     0.209 HD
ENDBRANCH  45  46
ENDBRANCH  43  45
ENDBRANCH  21  43
TORSDOF 12
ENDMDL
MODEL 6
REMARK minimizedAffinity -9.93613148
REMARK CNNscore 0.502673626
REMARK CNNaffinity 7.15879869
REMARK  12 active torsions:
REMARK  status: ('A' for Active; 'I' for Inactive)
REMARK    1  A    between atoms: N1_6  and  O1_8 
REMARK    2  A    between atoms: O1_8  and  C6_9 
REMARK    3  A    between atoms: C6_9  and  C7_10 
REMARK       I    between atoms: C7_10  and  N2_12 
REMARK    4  A    between atoms: N2_12  and  C8_13 
REMARK    5  A    between atoms: C8_13  and  C9_14 
REMARK    6  A    between atoms: C12_17  and  C13_18 
REMARK    7  A    between atoms: C13_18  and  O4_20 
REMARK    8  A    between atoms: C22_29  and  O5_30 
REMARK    9  A    between atoms: C29_37  and  O6_38 
REMARK   10  A    between atoms: C29_37  and  C30_39 
REMARK   11  A    between atoms: C30_39  and  C31_41 
REMARK   12  A    between atoms: C31_41  and  O8_42 
ROOT
HETATM    1  C1  UNL     1      -7.548   5.738  15.982  1.00  0.00     0.020 C 
HETATM    2  C2  UNL     1      -7.465   6.573  14.684  1.00  0.00    -0.014 C 
HETATM    3  C3  UNL     1      -7.977   8.014  14.972  1.00  0.00     0.020 C 
HETATM    4  C4  UNL     1      -9.474   8.089  15.227  1.00  0.00     0.060 C 
HETATM    5  C5  UNL     1     -10.256   7.478  14.085  1.00  0.00     0.032 C 
HETATM    6  N1  UNL     1     -11.445   7.954  13.869  1.00  0.00    -0.271 N 
ATOM      7  H1  UNL     1     -11.856   8.722  14.399  1.00  0.00     0.194 HD
HETATM    8  C16 UNL     1      -9.626   6.336  13.361  1.00  0.00     0.030 C 
HETATM    9  C17 UNL     1      -8.388   5.901  13.659  1.00  0.00    -0.069 C 
HETATM   10  C18 UNL     1      -7.867   4.641  13.012  1.00  0.00     0.035 C 
HETATM   11  C19 UNL     1      -6.483   4.841  12.415  1.00  0.00     0.010 C 
HETATM   12  C20 UNL     1      -5.488   5.349  13.467  1.00  0.00    -0.002 C 
HETATM   13  C21 UNL     1      -5.998   6.684  14.098  1.00  0.00     0.031 C 
HETATM   14  C22 UNL     1      -4.942   7.323  15.052  1.00  0.00     0.124 C 
HETATM   15  C23 UNL     1      -3.524   7.395  14.442  1.00  0.00     0.045 C 
HETATM   16  C24 UNL     1      -3.033   6.048  13.857  1.00  0.00     0.001 C 
HETATM   17  C25 UNL     1      -2.790   5.005  14.983  1.00  0.00     0.019 C 
HETATM   18  C26 UNL     1      -4.107   5.596  12.838  1.00  0.00     0.002 C 
HETATM   19  C27 UNL     1      -3.438   4.450  12.094  1.00  0.00     0.009 C 
HETATM   20  C28 UNL     1      -1.965   4.885  11.982  1.00  0.00     0.047 C 
HETATM   21  C29 UNL     1      -1.776   6.110  12.927  1.00  0.00     0.128 C 
ENDROOT
BRANCH   6  22
HETATM   22  O1  UNL     1     -12.095   7.286  12.821  1.00  0.00    -0.271 OA
BRANCH  22  23
HETATM   23  C6  UNL     1     -13.500   7.366  13.033  1.00  0.00     0.303 C 
BRANCH  23  24
HETATM   24  C7  UNL     1     -13.911   6.242  13.971  1.00  0.00     0.244 C 
HETATM   25  O2  UNL     1     -13.095   5.498  14.509  1.00  0.00    -0.271 OA
HETATM   26  N2  UNL     1     -15.272   6.148  14.176  1.00  0.00    -0.355 N 
HETATM   27  H10 UNL     1     -15.878   6.846  13.764  1.00  0.00     0.162 HD
BRANCH  26  28
HETATM   28  C8  UNL     1     -15.846   5.188  15.092  1.00  0.00     0.161 C 
BRANCH  28  29
HETATM   29  C9  UNL     1     -16.113   3.870  14.409  1.00  0.00    -0.040 A 
HETATM   30  C10 UNL     1     -15.357   2.732  14.721  1.00  0.00     0.010 A 
HETATM   31  C11 UNL     1     -15.615   1.515  14.082  1.00  0.00     0.019 A 
HETATM   32  C12 UNL     1     -16.623   1.423  13.115  1.00  0.00     0.037 A 
HETATM   33  C14 UNL     1     -17.376   2.556  12.794  1.00  0.00     0.019 A 
HETATM   34  C15 UNL     1     -17.123   3.769  13.439  1.00  0.00     0.010 A 
BRANCH  32  35
HETATM   35  C13 UNL     1     -16.854   0.112  12.459  1.00  0.00     0.176 C 
HETATM   36  O3  UNL     1     -16.627  -0.979  12.949  1.00  0.00    -0.646 OA
BRANCH  35  37
HETATM   37  O4  UNL     1     -17.358   0.230  11.218  1.00  0.00    -0.773 OA
HETATM   38  H15 UNL     1     -17.454  -0.697  10.910  1.00  0.00     0.167 HD
ENDBRANCH  35  37
ENDBRANCH  32  35
ENDBRANCH  28  29
ENDBRANCH  26  28
ENDBRANCH  23  24
ENDBRANCH  22  23
ENDBRANCH   6  22
BRANCH  14  39
HETATM   39  O5  UNL     1      -4.873   6.627  16.287  1.00  0.00    -0.395 OA
HETATM   40  H26 UNL     1      -4.301   7.133  16.891  1.00  0.00     0.210 HD
ENDBRANCH  14  39
BRANCH  21  41
HETATM   41  O6  UNL     1      -1.824   7.266  12.079  1.00  0.00    -0.381 OA
HETATM   42  H37 UNL     1      -1.594   8.046  12.625  1.00  0.00     0.211 HD
ENDBRANCH  21  41
BRANCH  21  43
HETATM   43  C30 UNL     1      -0.409   6.052  13.663  1.00  0.00     0.184 C 
HETATM   44  O7  UNL     1       0.388   5.120  13.529  1.00  0.00    -0.292 OA
BRANCH  43  45
HETATM   45  C31 UNL     1      -0.091   7.183  14.638  1.00  0.00     0.245 C 
BRANCH  45  46
HETATM   46  O8  UNL     1       0.031   6.747  15.984  1.00  0.00    -0.393 OA
HETATM   47  H40 UNL     1      -0.881   6.627  16.319  1.00  0.00     0.209 HD
ENDBRANCH  45  46
ENDBRANCH  43  45
ENDBRANCH  21  43
TORSDOF 12
ENDMDL
MODEL 7
REMARK minimizedAffinity -9.72791386
REMARK CNNscore 0.474834234
REMARK CNNaffinity 7.27398252
REMARK  12 active torsions:
REMARK  status: ('A' for Active; 'I' for Inactive)
REMARK    1  A    between atoms: N1_6  and  O1_8 
REMARK    2  A    between atoms: O1_8  and  C6_9 
REMARK    3  A    between atoms: C6_9  and  C7_10 
REMARK       I    between atoms: C7_10  and  N2_12 
REMARK    4  A    between atoms: N2_12  and  C8_13 
REMARK    5  A    between atoms: C8_13  and  C9_14 
REMARK    6  A    between atoms: C12_17  and  C13_18 
REMARK    7  A    between atoms: C13_18  and  O4_20 
REMARK    8  A    between atoms: C22_29  and  O5_30 
REMARK    9  A    between atoms: C29_37  and  O6_38 
REMARK   10  A    between atoms: C29_37  and  C30_39 
REMARK   11  A    between atoms: C30_39  and  C31_41 
REMARK   12  A    between atoms: C31_41  and  O8_42 
ROOT
HETATM    1  C1  UNL     1      -7.448   5.042  15.834  1.00  0.00     0.020 C 
HETATM    2  C2  UNL     1      -7.371   5.771  14.474  1.00  0.00    -0.014 C 
HETATM    3  C3  UNL     1      -7.814   4.795  13.346  1.00  0.00     0.020 C 
HETATM    4  C4  UNL     1      -6.822   3.671  13.089  1.00  0.00     0.060 C 
HETATM    5  C5  UNL     1      -5.442   4.217  12.793  1.00  0.00     0.032 C 
HETATM    6  N1  UNL     1      -4.681   3.498  12.025  1.00  0.00    -0.271 N 
ATOM      7  H1  UNL     1      -4.971   2.619  11.596  1.00  0.00     0.194 HD
HETATM    8  C16 UNL     1      -5.050   5.488  13.469  1.00  0.00     0.030 C 
HETATM    9  C17 UNL     1      -5.904   6.164  14.260  1.00  0.00    -0.069 C 
HETATM   10  C18 UNL     1      -5.404   7.350  15.049  1.00  0.00     0.035 C 
HETATM   11  C19 UNL     1      -6.301   8.566  14.873  1.00  0.00     0.010 C 
HETATM   12  C20 UNL     1      -7.754   8.249  15.251  1.00  0.00    -0.002 C 
HETATM   13  C21 UNL     1      -8.292   7.058  14.395  1.00  0.00     0.031 C 
HETATM   14  C22 UNL     1      -9.814   6.808  14.628  1.00  0.00     0.124 C 
HETATM   15  C23 UNL     1     -10.667   8.095  14.557  1.00  0.00     0.045 C 
HETATM   16  C24 UNL     1     -10.128   9.244  15.443  1.00  0.00     0.001 C 
HETATM   17  C25 UNL     1     -10.278   8.904  16.953  1.00  0.00     0.019 C 
HETATM   18  C26 UNL     1      -8.657   9.471  15.019  1.00  0.00     0.002 C 
HETATM   19  C27 UNL     1      -8.285  10.782  15.696  1.00  0.00     0.009 C 
HETATM   20  C28 UNL     1      -9.570  11.625  15.612  1.00  0.00     0.047 C 
HETATM   21  C29 UNL     1     -10.719  10.667  15.171  1.00  0.00     0.128 C 
ENDROOT
BRANCH   6  22
HETATM   22  O1  UNL     1      -3.413   4.072  11.856  1.00  0.00    -0.271 OA
BRANCH  22  23
HETATM   23  C6  UNL     1      -2.579   3.142  11.173  1.00  0.00     0.303 C 
BRANCH  23  24
HETATM   24  C7  UNL     1      -1.128   3.496  11.456  1.00  0.00     0.244 C 
HETATM   25  O2  UNL     1      -0.204   2.715  11.245  1.00  0.00    -0.271 OA
HETATM   26  N2  UNL     1      -0.944   4.770  11.951  1.00  0.00    -0.355 N 
HETATM   27  H10 UNL     1      -1.744   5.387  12.024  1.00  0.00     0.162 HD
BRANCH  26  28
HETATM   28  C8  UNL     1       0.371   5.310  12.213  1.00  0.00     0.161 C 
BRANCH  28  29
HETATM   29  C9  UNL     1       0.919   6.030  11.005  1.00  0.00    -0.040 A 
HETATM   30  C10 UNL     1       0.216   7.091  10.420  1.00  0.00     0.010 A 
HETATM   31  C11 UNL     1       0.734   7.752   9.301  1.00  0.00     0.019 A 
HETATM   32  C12 UNL     1       1.956   7.351   8.746  1.00  0.00     0.037 A 
HETATM   33  C14 UNL     1       2.659   6.288   9.321  1.00  0.00     0.019 A 
HETATM   34  C15 UNL     1       2.144   5.635  10.443  1.00  0.00     0.010 A 
BRANCH  32  35
HETATM   35  C13 UNL     1       2.461   8.077   7.556  1.00  0.00     0.176 C 
HETATM   36  O3  UNL     1       3.178   9.061   7.573  1.00  0.00    -0.646 OA
BRANCH  35  37
HETATM   37  O4  UNL     1       2.043   7.538   6.398  1.00  0.00    -0.773 OA
HETATM   38  H15 UNL     1       2.442   8.112   5.708  1.00  0.00     0.167 HD
ENDBRANCH  35  37
ENDBRANCH  32  35
ENDBRANCH  28  29
ENDBRANCH  26  28
ENDBRANCH  23  24
ENDBRANCH  22  23
ENDBRANCH   6  22
BRANCH  14  39
HETATM   39  O5  UNL     1     -10.048   6.173  15.876  1.00  0.00    -0.395 OA
HETATM   40  H26 UNL     1     -10.988   5.924  15.919  1.00  0.00     0.210 HD
ENDBRANCH  14  39
BRANCH  21  41
HETATM   41  O6  UNL     1     -10.891  10.889  13.764  1.00  0.00    -0.381 OA
HETATM   42  H37 UNL     1     -11.682  10.387  13.478  1.00  0.00     0.211 HD
ENDBRANCH  21  41
BRANCH  21  43
HETATM   43  C30 UNL     1     -12.041  10.986  15.921  1.00  0.00     0.184 C 
HETATM   44  O7  UNL     1     -12.164  10.881  17.145  1.00  0.00    -0.292 OA
BRANCH  43  45
HETATM   45  C31 UNL     1     -13.247  11.385  15.074  1.00  0.00     0.245 C 
BRANCH  45  46
HETATM   46  O8  UNL     1     -13.027  12.551  14.295  1.00  0.00    -0.393 OA
HETATM   47  H40 UNL     1     -13.120  13.312  14.905  1.00  0.00     0.209 HD
ENDBRANCH  45  46
ENDBRANCH  43  45
ENDBRANCH  21  43
TORSDOF 12
ENDMDL
MODEL 8
REMARK minimizedAffinity -9.21545029
REMARK CNNscore 0.462015003
REMARK CNNaffinity 6.96361113
REMARK  12 active torsions:
REMARK  status: ('A' for Active; 'I' for Inactive)
REMARK    1  A    between atoms: N1_6  and  O1_8 
REMARK    2  A    between atoms: O1_8  and  C6_9 
REMARK    3  A    between atoms: C6_9  and  C7_10 
REMARK       I    between atoms: C7_10  and  N2_12 
REMARK    4  A    between atoms: N2_12  and  C8_13 
REMARK    5  A    between atoms: C8_13  and  C9_14 
REMARK    6  A    between atoms: C12_17  and  C13_18 
REMARK    7  A    between atoms: C13_18  and  O4_20 
REMARK    8  A    between atoms: C22_29  and  O5_30 
REMARK    9  A    between atoms: C29_37  and  O6_38 
REMARK   10  A    between atoms: C29_37  and  C30_39 
REMARK   11  A    between atoms: C30_39  and  C31_41 
REMARK   12  A    between atoms: C31_41  and  O8_42 
ROOT
HETATM    1  C1  UNL     1      -6.185   5.915  16.231  1.00  0.00     0.020 C 
HETATM    2  C2  UNL     1      -6.289   6.662  14.883  1.00  0.00    -0.014 C 
HETATM    3  C3  UNL     1      -6.813   8.105  15.140  1.00  0.00     0.020 C 
HETATM    4  C4  UNL     1      -8.270   8.156  15.573  1.00  0.00     0.060 C 
HETATM    5  C5  UNL     1      -9.162   7.448  14.576  1.00  0.00     0.032 C 
HETATM    6  N1  UNL     1     -10.384   7.875  14.479  1.00  0.00    -0.271 N 
ATOM      7  H1  UNL     1     -10.756   8.665  15.005  1.00  0.00     0.194 HD
HETATM    8  C16 UNL     1      -8.584   6.278  13.853  1.00  0.00     0.030 C 
HETATM    9  C17 UNL     1      -7.305   5.898  14.024  1.00  0.00    -0.069 C 
HETATM   10  C18 UNL     1      -6.821   4.612  13.399  1.00  0.00     0.035 C 
HETATM   11  C19 UNL     1      -5.527   4.810  12.625  1.00  0.00     0.010 C 
HETATM   12  C20 UNL     1      -4.431   5.415  13.512  1.00  0.00    -0.002 C 
HETATM   13  C21 UNL     1      -4.908   6.775  14.115  1.00  0.00     0.031 C 
HETATM   14  C22 UNL     1      -3.768   7.505  14.890  1.00  0.00     0.124 C 
HETATM   15  C23 UNL     1      -2.438   7.575  14.106  1.00  0.00     0.045 C 
HETATM   16  C24 UNL     1      -1.974   6.206  13.552  1.00  0.00     0.001 C 
HETATM   17  C25 UNL     1      -1.559   5.247  14.703  1.00  0.00     0.019 C 
HETATM   18  C26 UNL     1      -3.147   5.657  12.703  1.00  0.00     0.002 C 
HETATM   19  C27 UNL     1      -2.532   4.483  11.956  1.00  0.00     0.009 C 
HETATM   20  C28 UNL     1      -1.100   4.949  11.636  1.00  0.00     0.047 C 
HETATM   21  C29 UNL     1      -0.842   6.240  12.472  1.00  0.00     0.128 C 
ENDROOT
BRANCH   6  22
HETATM   22  O1  UNL     1     -11.132   7.121  13.563  1.00  0.00    -0.271 OA
BRANCH  22  23
HETATM   23  C6  UNL     1     -11.708   8.005  12.608  1.00  0.00     0.303 C 
BRANCH  23  24
HETATM   24  C7  UNL     1     -13.149   8.275  13.007  1.00  0.00     0.244 C 
HETATM   25  O2  UNL     1     -13.556   9.398  13.292  1.00  0.00    -0.271 OA
HETATM   26  N2  UNL     1     -13.956   7.156  13.002  1.00  0.00    -0.355 N 
HETATM   27  H10 UNL     1     -13.571   6.277  12.679  1.00  0.00     0.162 HD
BRANCH  26  28
HETATM   28  C8  UNL     1     -15.372   7.229  13.284  1.00  0.00     0.161 C 
BRANCH  28  29
HETATM   29  C9  UNL     1     -15.939   5.869  13.605  1.00  0.00    -0.040 A 
HETATM   30  C10 UNL     1     -17.096   5.403  12.967  1.00  0.00     0.010 A 
HETATM   31  C11 UNL     1     -17.613   4.139  13.273  1.00  0.00     0.019 A 
HETATM   32  C12 UNL     1     -16.985   3.331  14.228  1.00  0.00     0.037 A 
HETATM   33  C14 UNL     1     -15.834   3.792  14.873  1.00  0.00     0.019 A 
HETATM   34  C15 UNL     1     -15.315   5.051  14.561  1.00  0.00     0.010 A 
BRANCH  32  35
HETATM   35  C13 UNL     1     -17.574   2.001  14.522  1.00  0.00     0.176 C 
HETATM   36  O3  UNL     1     -17.913   1.174  13.697  1.00  0.00    -0.646 OA
BRANCH  35  37
HETATM   37  O4  UNL     1     -17.711   1.771  15.840  1.00  0.00    -0.773 OA
HETATM   38  H15 UNL     1     -18.109   0.875  15.886  1.00  0.00     0.167 HD
ENDBRANCH  35  37
ENDBRANCH  32  35
ENDBRANCH  28  29
ENDBRANCH  26  28
ENDBRANCH  23  24
ENDBRANCH  22  23
ENDBRANCH   6  22
BRANCH  14  39
HETATM   39  O5  UNL     1      -3.526   6.895  16.148  1.00  0.00    -0.395 OA
HETATM   40  H26 UNL     1      -2.903   7.456  16.644  1.00  0.00     0.210 HD
ENDBRANCH  14  39
BRANCH  21  41
HETATM   41  O6  UNL     1      -1.033   7.335  11.565  1.00  0.00    -0.381 OA
HETATM   42  H37 UNL     1      -0.766   8.156  12.028  1.00  0.00     0.211 HD
ENDBRANCH  21  41
BRANCH  21  43
HETATM   43  C30 UNL     1       0.605   6.269  13.036  1.00  0.00     0.184 C 
HETATM   44  O7  UNL     1       1.556   5.710  12.481  1.00  0.00    -0.292 OA
BRANCH  43  45
HETATM   45  C31 UNL     1       0.821   6.977  14.372  1.00  0.00     0.245 C 
BRANCH  45  46
HETATM   46  O8  UNL     1       2.076   6.683  14.967  1.00  0.00    -0.393 OA
HETATM   47  H40 UNL     1       1.988   5.798  15.375  1.00  0.00     0.209 HD
ENDBRANCH  45  46
ENDBRANCH  43  45
ENDBRANCH  21  43
TORSDOF 12
ENDMDL
MODEL 9
REMARK minimizedAffinity -8.38411999
REMARK CNNscore 0.421300679
REMARK CNNaffinity 7.27374792
REMARK  12 active torsions:
REMARK  status: ('A' for Active; 'I' for Inactive)
REMARK    1  A    between atoms: N1_6  and  O1_8 
REMARK    2  A    between atoms: O1_8  and  C6_9 
REMARK    3  A    between atoms: C6_9  and  C7_10 
REMARK       I    between atoms: C7_10  and  N2_12 
REMARK    4  A    between atoms: N2_12  and  C8_13 
REMARK    5  A    between atoms: C8_13  and  C9_14 
REMARK    6  A    between atoms: C12_17  and  C13_18 
REMARK    7  A    between atoms: C13_18  and  O4_20 
REMARK    8  A    between atoms: C22_29  and  O5_30 
REMARK    9  A    between atoms: C29_37  and  O6_38 
REMARK   10  A    between atoms: C29_37  and  C30_39 
REMARK   11  A    between atoms: C30_39  and  C31_41 
REMARK   12  A    between atoms: C31_41  and  O8_42 
ROOT
HETATM    1  C1  UNL     1      -7.069   6.883  16.458  1.00  0.00     0.020 C 
HETATM    2  C2  UNL     1      -7.175   7.393  15.003  1.00  0.00    -0.014 C 
HETATM    3  C3  UNL     1      -7.828   8.806  15.005  1.00  0.00     0.020 C 
HETATM    4  C4  UNL     1      -9.302   8.795  15.380  1.00  0.00     0.060 C 
HETATM    5  C5  UNL     1     -10.087   7.860  14.486  1.00  0.00     0.032 C 
HETATM    6  N1  UNL     1     -11.335   8.156  14.283  1.00  0.00    -0.271 N 
ATOM      7  H1  UNL     1     -11.794   8.984  14.662  1.00  0.00     0.194 HD
HETATM    8  C16 UNL     1      -9.383   6.645  13.982  1.00  0.00     0.030 C 
HETATM    9  C17 UNL     1      -8.085   6.413  14.251  1.00  0.00    -0.069 C 
HETATM   10  C18 UNL     1      -7.469   5.091  13.860  1.00  0.00     0.035 C 
HETATM   11  C19 UNL     1      -6.164   5.277  13.103  1.00  0.00     0.010 C 
HETATM   12  C20 UNL     1      -5.161   6.111  13.911  1.00  0.00    -0.002 C 
HETATM   13  C21 UNL     1      -5.776   7.503  14.269  1.00  0.00     0.031 C 
HETATM   14  C22 UNL     1      -4.735   8.446  14.947  1.00  0.00     0.124 C 
HETATM   15  C23 UNL     1      -3.382   8.507  14.203  1.00  0.00     0.045 C 
HETATM   16  C24 UNL     1      -2.782   7.114  13.895  1.00  0.00     0.001 C 
HETATM   17  C25 UNL     1      -2.341   6.393  15.199  1.00  0.00     0.019 C 
HETATM   18  C26 UNL     1      -3.867   6.334  13.112  1.00  0.00     0.002 C 
HETATM   19  C27 UNL     1      -3.125   5.114  12.587  1.00  0.00     0.009 C 
HETATM   20  C28 UNL     1      -1.724   5.648  12.238  1.00  0.00     0.047 C 
HETATM   21  C29 UNL     1      -1.611   7.075  12.859  1.00  0.00     0.128 C 
ENDROOT
BRANCH   6  22
HETATM   22  O1  UNL     1     -11.977   7.201  13.482  1.00  0.00    -0.271 OA
BRANCH  22  23
HETATM   23  C6  UNL     1     -12.570   6.222  14.327  1.00  0.00     0.303 C 
BRANCH  23  24
HETATM   24  C7  UNL     1     -14.063   6.497  14.410  1.00  0.00     0.244 C 
HETATM   25  O2  UNL     1     -14.658   6.604  15.479  1.00  0.00    -0.271 OA
HETATM   26  N2  UNL     1     -14.681   6.632  13.184  1.00  0.00    -0.355 N 
HETATM   27  H10 UNL     1     -14.114   6.611  12.345  1.00  0.00     0.162 HD
BRANCH  26  28
HETATM   28  C8  UNL     1     -16.082   6.967  13.063  1.00  0.00     0.161 C 
BRANCH  28  29
HETATM   29  C9  UNL     1     -16.270   8.417  12.693  1.00  0.00    -0.040 A 
HETATM   30  C10 UNL     1     -16.944   8.780  11.519  1.00  0.00     0.010 A 
HETATM   31  C11 UNL     1     -17.113  10.127  11.187  1.00  0.00     0.019 A 
HETATM   32  C12 UNL     1     -16.600  11.130  12.018  1.00  0.00     0.037 A 
HETATM   33  C14 UNL     1     -15.921  10.776  13.187  1.00  0.00     0.019 A 
HETATM   34  C15 UNL     1     -15.759   9.429  13.522  1.00  0.00     0.010 A 
BRANCH  32  35
HETATM   35  C13 UNL     1     -16.799  12.545  11.620  1.00  0.00     0.176 C 
HETATM   36  O3  UNL     1     -16.350  13.518  12.199  1.00  0.00    -0.646 OA
BRANCH  35  37
HETATM   37  O4  UNL     1     -17.552  12.677  10.515  1.00  0.00    -0.773 OA
HETATM   38  H15 UNL     1     -17.604  13.647  10.374  1.00  0.00     0.167 HD
ENDBRANCH  35  37
ENDBRANCH  32  35
ENDBRANCH  28  29
ENDBRANCH  26  28
ENDBRANCH  23  24
ENDBRANCH  22  23
ENDBRANCH   6  22
BRANCH  14  39
HETATM   39  O5  UNL     1      -4.499   8.070  16.296  1.00  0.00    -0.395 OA
HETATM   40  H26 UNL     1      -3.947   8.757  16.711  1.00  0.00     0.210 HD
ENDBRANCH  14  39
BRANCH  21  41
HETATM   41  O6  UNL     1      -1.852   7.988  11.779  1.00  0.00    -0.381 OA
HETATM   42  H37 UNL     1      -1.675   8.893  12.109  1.00  0.00     0.211 HD
ENDBRANCH  21  41
BRANCH  21  43
HETATM   43  C30 UNL     1      -0.197   7.323  13.453  1.00  0.00     0.184 C 
HETATM   44  O7  UNL     1       0.183   8.429  13.848  1.00  0.00    -0.292 OA
BRANCH  43  45
HETATM   45  C31 UNL     1       0.768   6.139  13.480  1.00  0.00     0.245 C 
BRANCH  45  46
HETATM   46  O8  UNL     1       1.852   6.318  14.380  1.00  0.00    -0.393 OA
HETATM   47  H40 UNL     1       2.488   6.911  13.931  1.00  0.00     0.209 HD
ENDBRANCH  45  46
ENDBRANCH  43  45
ENDBRANCH  21  43
TORSDOF 12
ENDMDL
