MODEL 1
REMARK minimizedAffinity -6.57112837
REMARK CNNscore 0.550330877
REMARK CNNaffinity 5.70295382
REMARK  4 active torsions:
REMARK  status: ('A' for Active; 'I' for Inactive)
REMARK    1  A    between atoms: C2_2  and  C3_3 
REMARK    2  A    between atoms: C6_6  and  C7_7 
REMARK    3  A    between atoms: C7_7  and  O1_9 
REMARK    4  A    between atoms: C23_29  and  O6_30 
ROOT
HETATM    1  C3  UNL     1     -21.448   0.888  12.034  1.00  0.00     0.008 C 
HETATM    2  C4  UNL     1     -21.050   0.539  10.623  1.00  0.00    -0.023 C 
HETATM    3  C5  UNL     1     -20.417  -0.554  10.166  1.00  0.00     0.004 C 
HETATM    4  C6  UNL     1     -19.881  -1.803  10.840  1.00  0.00     0.182 C 
HETATM    5  O2  UNL     1     -19.651  -1.656  12.252  1.00  0.00    -0.308 OA
HETATM    6  C9  UNL     1     -18.443  -1.140  12.610  1.00  0.00     0.276 C 
HETATM    7  O3  UNL     1     -17.653  -0.616  11.828  1.00  0.00    -0.264 OA
HETATM    8  C10 UNL     1     -18.101  -1.432  14.099  1.00  0.00     0.095 C 
HETATM    9  C11 UNL     1     -19.346  -1.621  14.996  1.00  0.00     0.036 C 
HETATM   10  C12 UNL     1     -17.451  -2.802  14.017  1.00  0.00     0.003 C 
HETATM   11  C13 UNL     1     -16.267  -3.275  14.406  1.00  0.00     0.072 C 
HETATM   12  C14 UNL     1     -15.144  -2.604  15.060  1.00  0.00     0.245 C 
HETATM   13  O4  UNL     1     -14.187  -3.287  15.421  1.00  0.00    -0.268 OA
HETATM   14  N1  UNL     1     -15.118  -1.271  15.241  1.00  0.00    -0.320 N 
HETATM   15  C15 UNL     1     -15.970  -0.224  14.999  1.00  0.00     0.098 C 
HETATM   16  C16 UNL     1     -17.237  -0.251  14.553  1.00  0.00     0.045 C 
HETATM   17  C17 UNL     1     -17.947   1.078  14.473  1.00  0.00     0.194 C 
HETATM   18  O5  UNL     1     -19.163   1.149  14.571  1.00  0.00    -0.287 OA
HETATM   19  C18 UNL     1     -17.180   2.319  14.307  1.00  0.00     0.046 A 
HETATM   20  C19 UNL     1     -15.877   2.321  14.792  1.00  0.00     0.032 A 
HETATM   21  C20 UNL     1     -15.113   3.496  14.810  1.00  0.00     0.026 A 
HETATM   22  C21 UNL     1     -15.654   4.699  14.349  1.00  0.00    -0.027 A 
HETATM   23  C22 UNL     1     -14.850   5.970  14.415  1.00  0.00     0.051 C 
HETATM   24  C23 UNL     1     -16.971   4.701  13.873  1.00  0.00     0.086 A 
HETATM   25  C24 UNL     1     -17.737   3.515  13.817  1.00  0.00     0.059 A 
HETATM   26  C25 UNL     1     -19.104   3.639  13.242  1.00  0.00     0.163 C 
HETATM   27  O7  UNL     1     -19.753   4.645  13.544  1.00  0.00    -0.292 OA
HETATM   28  C26 UNL     1     -19.588   2.666  12.188  1.00  0.00     0.084 C 
HETATM   29  C27 UNL     1     -21.078   2.345  12.382  1.00  0.00     0.016 C 
HETATM   30  C28 UNL     1     -15.298   1.084  15.321  1.00  0.00     0.210 C 
HETATM   31  O8  UNL     1     -14.247   1.101  15.956  1.00  0.00    -0.285 OA
HETATM   32  H20 UNL     1     -14.227  -0.987  15.658  1.00  0.00     0.169 HD
ENDROOT
BRANCH   4  33
HETATM   33  C7  UNL     1     -20.876  -2.976  10.625  1.00  0.00     0.147 C 
HETATM   34  C8  UNL     1     -20.211  -4.340  10.786  1.00  0.00     0.042 C 
BRANCH  33  35
HETATM   35  O1  UNL     1     -21.438  -2.922   9.307  1.00  0.00    -0.393 OA
HETATM   36  H14 UNL     1     -22.303  -3.367   9.345  1.00  0.00     0.210 HD
ENDBRANCH  33  35
ENDBRANCH   4  33
BRANCH   1  37
HETATM   37  C2  UNL     1     -22.943   0.593  12.286  1.00  0.00     0.004 C 
HETATM   38  C1  UNL     1     -23.851   0.645  11.062  1.00  0.00     0.006 C 
ENDBRANCH   1  37
BRANCH  24  39
HETATM   39  O6  UNL     1     -17.483   5.914  13.476  1.00  0.00    -0.359 OA
HETATM   40  H25 UNL     1     -18.465   5.855  13.486  1.00  0.00     0.217 HD
ENDBRANCH  24  39
TORSDOF 4
ENDMDL
MODEL 2
REMARK minimizedAffinity -9.41000271
REMARK CNNscore 0.436190367
REMARK CNNaffinity 7.38013983
REMARK  4 active torsions:
REMARK  status: ('A' for Active; 'I' for Inactive)
REMARK    1  A    between atoms: C2_2  and  C3_3 
REMARK    2  A    between atoms: C6_6  and  C7_7 
REMARK    3  A    between atoms: C7_7  and  O1_9 
REMARK    4  A    between atoms: C23_29  and  O6_30 
ROOT
HETATM    1  C3  UNL     1      -7.470   5.175  13.312  1.00  0.00     0.008 C 
HETATM    2  C4  UNL     1      -7.631   4.746  14.747  1.00  0.00    -0.023 C 
HETATM    3  C5  UNL     1      -7.231   5.369  15.869  1.00  0.00     0.004 C 
HETATM    4  C6  UNL     1      -6.505   6.676  16.129  1.00  0.00     0.182 C 
HETATM    5  O2  UNL     1      -5.764   7.172  15.001  1.00  0.00    -0.308 OA
HETATM    6  C9  UNL     1      -4.501   6.685  14.854  1.00  0.00     0.276 C 
HETATM    7  O3  UNL     1      -4.050   5.729  15.479  1.00  0.00    -0.264 OA
HETATM    8  C10 UNL     1      -3.635   7.579  13.920  1.00  0.00     0.095 C 
HETATM    9  C11 UNL     1      -4.461   8.377  12.886  1.00  0.00     0.036 C 
HETATM   10  C12 UNL     1      -3.086   8.614  14.885  1.00  0.00     0.003 C 
HETATM   11  C13 UNL     1      -1.851   9.003  15.200  1.00  0.00     0.072 C 
HETATM   12  C14 UNL     1      -0.553   8.535  14.711  1.00  0.00     0.245 C 
HETATM   13  O4  UNL     1       0.458   9.132  15.079  1.00  0.00    -0.268 OA
HETATM   14  N1  UNL     1      -0.440   7.462  13.909  1.00  0.00    -0.320 N 
HETATM   15  C15 UNL     1      -1.302   6.588  13.298  1.00  0.00     0.098 C 
HETATM   16  C16 UNL     1      -2.645   6.620  13.252  1.00  0.00     0.045 C 
HETATM   17  C17 UNL     1      -3.311   5.554  12.417  1.00  0.00     0.194 C 
HETATM   18  O5  UNL     1      -4.403   5.747  11.903  1.00  0.00    -0.287 OA
HETATM   19  C18 UNL     1      -2.640   4.269  12.182  1.00  0.00     0.046 A 
HETATM   20  C19 UNL     1      -1.250   4.271  12.223  1.00  0.00     0.032 A 
HETATM   21  C20 UNL     1      -0.514   3.131  11.873  1.00  0.00     0.026 A 
HETATM   22  C21 UNL     1      -1.168   1.965  11.462  1.00  0.00    -0.027 A 
HETATM   23  C22 UNL     1      -0.376   0.757  11.039  1.00  0.00     0.051 C 
HETATM   24  C23 UNL     1      -2.567   1.967  11.409  1.00  0.00     0.086 A 
HETATM   25  C24 UNL     1      -3.318   3.099  11.793  1.00  0.00     0.059 A 
HETATM   26  C25 UNL     1      -4.800   2.957  11.742  1.00  0.00     0.163 C 
HETATM   27  O7  UNL     1      -5.273   2.339  10.783  1.00  0.00    -0.292 OA
HETATM   28  C26 UNL     1      -5.657   3.388  12.913  1.00  0.00     0.084 C 
HETATM   29  C27 UNL     1      -6.973   4.013  12.427  1.00  0.00     0.016 C 
HETATM   30  C28 UNL     1      -0.537   5.491  12.608  1.00  0.00     0.210 C 
HETATM   31  O8  UNL     1       0.674   5.594  12.437  1.00  0.00    -0.285 OA
HETATM   32  H20 UNL     1       0.548   7.259  13.726  1.00  0.00     0.169 HD
ENDROOT
BRANCH   4  33
HETATM   33  C7  UNL     1      -7.529   7.761  16.560  1.00  0.00     0.147 C 
HETATM   34  C8  UNL     1      -8.952   7.216  16.651  1.00  0.00     0.042 C 
BRANCH  33  35
HETATM   35  O1  UNL     1      -7.539   8.842  15.619  1.00  0.00    -0.393 OA
HETATM   36  H14 UNL     1      -7.840   9.636  16.097  1.00  0.00     0.210 HD
ENDBRANCH  33  35
ENDBRANCH   4  33
BRANCH   1  37
HETATM   37  C2  UNL     1      -8.769   5.807  12.765  1.00  0.00     0.004 C 
HETATM   38  C1  UNL     1      -8.919   5.820  11.247  1.00  0.00     0.006 C 
ENDBRANCH   1  37
BRANCH  24  39
HETATM   39  O6  UNL     1      -3.169   0.818  10.952  1.00  0.00    -0.359 OA
HETATM   40  H25 UNL     1      -4.078   1.043  10.650  1.00  0.00     0.217 HD
ENDBRANCH  24  39
TORSDOF 4
ENDMDL
MODEL 3
REMARK minimizedAffinity -6.49538279
REMARK CNNscore 0.360337734
REMARK CNNaffinity 5.64582396
REMARK  4 active torsions:
REMARK  status: ('A' for Active; 'I' for Inactive)
REMARK    1  A    between atoms: C2_2  and  C3_3 
REMARK    2  A    between atoms: C6_6  and  C7_7 
REMARK    3  A    between atoms: C7_7  and  O1_9 
REMARK    4  A    between atoms: C23_29  and  O6_30 
ROOT
HETATM    1  C3  UNL     1       3.744  13.280  16.078  1.00  0.00     0.008 C 
HETATM    2  C4  UNL     1       2.980  14.561  16.297  1.00  0.00    -0.023 C 
HETATM    3  C5  UNL     1       3.442  15.779  16.623  1.00  0.00     0.004 C 
HETATM    4  C6  UNL     1       4.833  16.328  16.884  1.00  0.00     0.182 C 
HETATM    5  O2  UNL     1       5.806  15.326  17.226  1.00  0.00    -0.308 OA
HETATM    6  C9  UNL     1       5.870  14.979  18.541  1.00  0.00     0.276 C 
HETATM    7  O3  UNL     1       5.039  15.303  19.385  1.00  0.00    -0.264 OA
HETATM    8  C10 UNL     1       7.205  14.261  18.891  1.00  0.00     0.095 C 
HETATM    9  C11 UNL     1       7.845  13.524  17.692  1.00  0.00     0.036 C 
HETATM   10  C12 UNL     1       8.130  15.427  19.189  1.00  0.00     0.003 C 
HETATM   11  C13 UNL     1       8.871  15.757  20.246  1.00  0.00     0.072 C 
HETATM   12  C14 UNL     1       9.042  15.084  21.534  1.00  0.00     0.245 C 
HETATM   13  O4  UNL     1       9.875  15.533  22.321  1.00  0.00    -0.268 OA
HETATM   14  N1  UNL     1       8.294  14.024  21.888  1.00  0.00    -0.320 N 
HETATM   15  C15 UNL     1       7.321  13.259  21.298  1.00  0.00     0.098 C 
HETATM   16  C16 UNL     1       6.859  13.305  20.037  1.00  0.00     0.045 C 
HETATM   17  C17 UNL     1       5.834  12.263  19.662  1.00  0.00     0.194 C 
HETATM   18  O5  UNL     1       5.715  11.885  18.506  1.00  0.00    -0.287 OA
HETATM   19  C18 UNL     1       4.978  11.660  20.692  1.00  0.00     0.046 A 
HETATM   20  C19 UNL     1       5.489  11.614  21.983  1.00  0.00     0.032 A 
HETATM   21  C20 UNL     1       4.814  10.933  23.005  1.00  0.00     0.026 A 
HETATM   22  C21 UNL     1       3.610  10.273  22.741  1.00  0.00    -0.027 A 
HETATM   23  C22 UNL     1       2.911   9.501  23.827  1.00  0.00     0.051 C 
HETATM   24  C23 UNL     1       3.102  10.308  21.437  1.00  0.00     0.086 A 
HETATM   25  C24 UNL     1       3.757  11.020  20.408  1.00  0.00     0.059 A 
HETATM   26  C25 UNL     1       3.088  11.024  19.078  1.00  0.00     0.163 C 
HETATM   27  O7  UNL     1       2.567   9.968  18.707  1.00  0.00    -0.292 OA
HETATM   28  C26 UNL     1       2.898  12.317  18.315  1.00  0.00     0.084 C 
HETATM   29  C27 UNL     1       3.078  12.093  16.806  1.00  0.00     0.016 C 
HETATM   30  C28 UNL     1       6.770  12.261  22.281  1.00  0.00     0.210 C 
HETATM   31  O8  UNL     1       7.352  12.049  23.341  1.00  0.00    -0.285 OA
HETATM   32  H20 UNL     1       8.520  13.734  22.845  1.00  0.00     0.169 HD
ENDROOT
BRANCH   4  33
HETATM   33  C7  UNL     1       5.334  17.089  15.626  1.00  0.00     0.147 C 
HETATM   34  C8  UNL     1       6.295  16.254  14.785  1.00  0.00     0.042 C 
BRANCH  33  35
HETATM   35  O1  UNL     1       6.023  18.287  16.007  1.00  0.00    -0.393 OA
HETATM   36  H14 UNL     1       5.951  18.909  15.261  1.00  0.00     0.210 HD
ENDBRANCH  33  35
ENDBRANCH   4  33
BRANCH   1  37
HETATM   37  C2  UNL     1       3.950  12.998  14.574  1.00  0.00     0.004 C 
HETATM   38  C1  UNL     1       3.002  13.720  13.622  1.00  0.00     0.006 C 
ENDBRANCH   1  37
BRANCH  24  39
HETATM   39  O6  UNL     1       1.944   9.603  21.207  1.00  0.00    -0.359 OA
HETATM   40  H25 UNL     1       1.874   9.427  20.241  1.00  0.00     0.217 HD
ENDBRANCH  24  39
TORSDOF 4
ENDMDL
MODEL 4
REMARK minimizedAffinity -8.28553009
REMARK CNNscore 0.271959186
REMARK CNNaffinity 6.14278936
REMARK  4 active torsions:
REMARK  status: ('A' for Active; 'I' for Inactive)
REMARK    1  A    between atoms: C2_2  and  C3_3 
REMARK    2  A    between atoms: C6_6  and  C7_7 
REMARK    3  A    between atoms: C7_7  and  O1_9 
REMARK    4  A    between atoms: C23_29  and  O6_30 
ROOT
HETATM    1  C3  UNL     1       6.369   8.284  13.594  1.00  0.00     0.008 C 
HETATM    2  C4  UNL     1       6.851   9.705  13.447  1.00  0.00    -0.023 C 
HETATM    3  C5  UNL     1       6.494  10.797  14.143  1.00  0.00     0.004 C 
HETATM    4  C6  UNL     1       5.527  11.030  15.289  1.00  0.00     0.182 C 
HETATM    5  O2  UNL     1       4.522  10.011  15.426  1.00  0.00    -0.308 OA
HETATM    6  C9  UNL     1       3.405  10.166  14.664  1.00  0.00     0.276 C 
HETATM    7  O3  UNL     1       3.298  10.976  13.747  1.00  0.00    -0.264 OA
HETATM    8  C10 UNL     1       2.216   9.311  15.189  1.00  0.00     0.095 C 
HETATM    9  C11 UNL     1       2.655   8.050  15.967  1.00  0.00     0.036 C 
HETATM   10  C12 UNL     1       1.592  10.229  16.225  1.00  0.00     0.003 C 
HETATM   11  C13 UNL     1       0.366  10.724  16.387  1.00  0.00     0.072 C 
HETATM   12  C14 UNL     1      -0.843  10.549  15.580  1.00  0.00     0.245 C 
HETATM   13  O4  UNL     1      -1.897  11.026  15.998  1.00  0.00    -0.268 OA
HETATM   14  N1  UNL     1      -0.821   9.919  14.392  1.00  0.00    -0.320 N 
HETATM   15  C15 UNL     1       0.119   9.267  13.636  1.00  0.00     0.098 C 
HETATM   16  C16 UNL     1       1.391   8.964  13.946  1.00  0.00     0.045 C 
HETATM   17  C17 UNL     1       2.153   8.154  12.926  1.00  0.00     0.194 C 
HETATM   18  O5  UNL     1       3.072   7.422  13.262  1.00  0.00    -0.287 OA
HETATM   19  C18 UNL     1       1.780   8.208  11.507  1.00  0.00     0.046 A 
HETATM   20  C19 UNL     1       0.454   8.510  11.218  1.00  0.00     0.032 A 
HETATM   21  C20 UNL     1      -0.034   8.447   9.906  1.00  0.00     0.026 A 
HETATM   22  C21 UNL     1       0.806   8.065   8.856  1.00  0.00    -0.027 A 
HETATM   23  C22 UNL     1       0.269   7.949   7.455  1.00  0.00     0.051 C 
HETATM   24  C23 UNL     1       2.138   7.748   9.148  1.00  0.00     0.086 A 
HETATM   25  C24 UNL     1       2.648   7.843  10.461  1.00  0.00     0.059 A 
HETATM   26  C25 UNL     1       4.094   7.529  10.633  1.00  0.00     0.163 C 
HETATM   27  O7  UNL     1       4.545   6.581   9.984  1.00  0.00    -0.292 OA
HETATM   28  C26 UNL     1       4.996   8.456  11.420  1.00  0.00     0.084 C 
HETATM   29  C27 UNL     1       6.031   7.657  12.225  1.00  0.00     0.016 C 
HETATM   30  C28 UNL     1      -0.461   8.873  12.304  1.00  0.00     0.210 C 
HETATM   31  O8  UNL     1      -1.673   8.923  12.116  1.00  0.00    -0.285 OA
HETATM   32  H20 UNL     1      -1.747   9.953  13.956  1.00  0.00     0.169 HD
ENDROOT
BRANCH   4  33
HETATM   33  C7  UNL     1       6.316  11.124  16.623  1.00  0.00     0.147 C 
HETATM   34  C8  UNL     1       7.586  11.962  16.490  1.00  0.00     0.042 C 
BRANCH  33  35
HETATM   35  O1  UNL     1       6.705   9.819  17.069  1.00  0.00    -0.393 OA
HETATM   36  H14 UNL     1       6.806   9.865  18.036  1.00  0.00     0.210 HD
ENDBRANCH  33  35
ENDBRANCH   4  33
BRANCH   1  37
HETATM   37  C2  UNL     1       7.378   7.429  14.392  1.00  0.00     0.004 C 
HETATM   38  C1  UNL     1       8.787   7.999  14.518  1.00  0.00     0.006 C 
ENDBRANCH   1  37
BRANCH  24  39
HETATM   39  O6  UNL     1       2.918   7.328   8.096  1.00  0.00    -0.359 OA
HETATM   40  H25 UNL     1       3.688   6.834   8.458  1.00  0.00     0.217 HD
ENDBRANCH  24  39
TORSDOF 4
ENDMDL
MODEL 5
REMARK minimizedAffinity -10.5513687
REMARK CNNscore 0.271165669
REMARK CNNaffinity 6.45790625
REMARK  4 active torsions:
REMARK  status: ('A' for Active; 'I' for Inactive)
REMARK    1  A    between atoms: C2_2  and  C3_3 
REMARK    2  A    between atoms: C6_6  and  C7_7 
REMARK    3  A    between atoms: C7_7  and  O1_9 
REMARK    4  A    between atoms: C23_29  and  O6_30 
ROOT
HETATM    1  C3  UNL     1       0.149   5.196  11.399  1.00  0.00     0.008 C 
HETATM    2  C4  UNL     1       0.109   6.264  10.336  1.00  0.00    -0.023 C 
HETATM    3  C5  UNL     1       0.204   7.598  10.470  1.00  0.00     0.004 C 
HETATM    4  C6  UNL     1       0.382   8.512  11.668  1.00  0.00     0.182 C 
HETATM    5  O2  UNL     1       0.005   7.918  12.922  1.00  0.00    -0.308 OA
HETATM    6  C9  UNL     1      -1.312   8.007  13.254  1.00  0.00     0.276 C 
HETATM    7  O3  UNL     1      -2.199   8.361  12.481  1.00  0.00    -0.264 OA
HETATM    8  C10 UNL     1      -1.551   7.763  14.771  1.00  0.00     0.095 C 
HETATM    9  C11 UNL     1      -0.473   6.875  15.433  1.00  0.00     0.036 C 
HETATM   10  C12 UNL     1      -1.348   9.149  15.356  1.00  0.00     0.003 C 
HETATM   11  C13 UNL     1      -2.111   9.946  16.103  1.00  0.00     0.072 C 
HETATM   12  C14 UNL     1      -3.464   9.749  16.624  1.00  0.00     0.245 C 
HETATM   13  O4  UNL     1      -3.923  10.596  17.390  1.00  0.00    -0.268 OA
HETATM   14  N1  UNL     1      -4.221   8.697  16.263  1.00  0.00    -0.320 N 
HETATM   15  C15 UNL     1      -4.057   7.584  15.480  1.00  0.00     0.098 C 
HETATM   16  C16 UNL     1      -2.948   7.140  14.864  1.00  0.00     0.045 C 
HETATM   17  C17 UNL     1      -3.067   5.822  14.140  1.00  0.00     0.194 C 
HETATM   18  O5  UNL     1      -2.094   5.098  13.984  1.00  0.00    -0.287 OA
HETATM   19  C18 UNL     1      -4.369   5.369  13.633  1.00  0.00     0.046 A 
HETATM   20  C19 UNL     1      -5.497   5.834  14.299  1.00  0.00     0.032 A 
HETATM   21  C20 UNL     1      -6.774   5.350  13.985  1.00  0.00     0.026 A 
HETATM   22  C21 UNL     1      -6.938   4.376  12.996  1.00  0.00    -0.027 A 
HETATM   23  C22 UNL     1      -8.304   3.822  12.693  1.00  0.00     0.051 C 
HETATM   24  C23 UNL     1      -5.801   3.898  12.333  1.00  0.00     0.086 A 
HETATM   25  C24 UNL     1      -4.514   4.404  12.619  1.00  0.00     0.059 A 
HETATM   26  C25 UNL     1      -3.393   3.852  11.809  1.00  0.00     0.163 C 
HETATM   27  O7  UNL     1      -3.416   2.642  11.567  1.00  0.00    -0.292 OA
HETATM   28  C26 UNL     1      -2.383   4.774  11.160  1.00  0.00     0.084 C 
HETATM   29  C27 UNL     1      -0.976   4.159  11.200  1.00  0.00     0.016 C 
HETATM   30  C28 UNL     1      -5.352   6.824  15.369  1.00  0.00     0.210 C 
HETATM   31  O8  UNL     1      -6.287   7.083  16.120  1.00  0.00    -0.285 OA
HETATM   32  H20 UNL     1      -5.152   8.769  16.684  1.00  0.00     0.169 HD
ENDROOT
BRANCH   4  33
HETATM   33  C7  UNL     1       1.867   8.959  11.764  1.00  0.00     0.147 C 
HETATM   34  C8  UNL     1       2.782   7.838  12.249  1.00  0.00     0.042 C 
BRANCH  33  35
HETATM   35  O1  UNL     1       2.003  10.055  12.677  1.00  0.00    -0.393 OA
HETATM   36  H14 UNL     1       2.796  10.553  12.412  1.00  0.00     0.210 HD
ENDBRANCH  33  35
ENDBRANCH   4  33
BRANCH   1  37
HETATM   37  C2  UNL     1       1.542   4.534  11.479  1.00  0.00     0.004 C 
HETATM   38  C1  UNL     1       2.502   4.856  10.338  1.00  0.00     0.006 C 
ENDBRANCH   1  37
BRANCH  24  39
HETATM   39  O6  UNL     1      -6.000   2.904  11.405  1.00  0.00    -0.359 OA
HETATM   40  H25 UNL     1      -5.146   2.436  11.263  1.00  0.00     0.217 HD
ENDBRANCH  24  39
TORSDOF 4
ENDMDL
MODEL 6
REMARK minimizedAffinity -9.84490776
REMARK CNNscore 0.268323541
REMARK CNNaffinity 6.38216209
REMARK  4 active torsions:
REMARK  status: ('A' for Active; 'I' for Inactive)
REMARK    1  A    between atoms: C2_2  and  C3_3 
REMARK    2  A    between atoms: C6_6  and  C7_7 
REMARK    3  A    between atoms: C7_7  and  O1_9 
REMARK    4  A    between atoms: C23_29  and  O6_30 
ROOT
HETATM    1  C3  UNL     1      -4.444   7.322  14.205  1.00  0.00     0.008 C 
HETATM    2  C4  UNL     1      -4.215   7.035  15.667  1.00  0.00    -0.023 C 
HETATM    3  C5  UNL     1      -3.235   7.475  16.474  1.00  0.00     0.004 C 
HETATM    4  C6  UNL     1      -2.039   8.383  16.257  1.00  0.00     0.182 C 
HETATM    5  O2  UNL     1      -1.635   8.505  14.882  1.00  0.00    -0.308 OA
HETATM    6  C9  UNL     1      -0.787   7.546  14.420  1.00  0.00     0.276 C 
HETATM    7  O3  UNL     1      -0.523   6.506  15.020  1.00  0.00    -0.264 OA
HETATM    8  C10 UNL     1      -0.059   7.986  13.118  1.00  0.00     0.095 C 
HETATM    9  C11 UNL     1      -0.851   9.021  12.285  1.00  0.00     0.036 C 
HETATM   10  C12 UNL     1       1.144   8.738  13.659  1.00  0.00     0.003 C 
HETATM   11  C13 UNL     1       2.458   8.603  13.487  1.00  0.00     0.072 C 
HETATM   12  C14 UNL     1       3.217   7.637  12.692  1.00  0.00     0.245 C 
HETATM   13  O4  UNL     1       4.436   7.784  12.604  1.00  0.00    -0.268 OA
HETATM   14  N1  UNL     1       2.628   6.587  12.093  1.00  0.00    -0.320 N 
HETATM   15  C15 UNL     1       1.346   6.120  11.954  1.00  0.00     0.098 C 
HETATM   16  C16 UNL     1       0.192   6.691  12.340  1.00  0.00     0.045 C 
HETATM   17  C17 UNL     1      -1.073   5.962  11.962  1.00  0.00     0.194 C 
HETATM   18  O5  UNL     1      -2.125   6.565  11.803  1.00  0.00    -0.287 OA
HETATM   19  C18 UNL     1      -1.057   4.509  11.747  1.00  0.00     0.046 A 
HETATM   20  C19 UNL     1       0.147   3.950  11.335  1.00  0.00     0.032 A 
HETATM   21  C20 UNL     1       0.231   2.600  10.967  1.00  0.00     0.026 A 
HETATM   22  C21 UNL     1      -0.906   1.787  10.997  1.00  0.00    -0.027 A 
HETATM   23  C22 UNL     1      -0.826   0.351  10.554  1.00  0.00     0.051 C 
HETATM   24  C23 UNL     1      -2.122   2.353  11.400  1.00  0.00     0.086 A 
HETATM   25  C24 UNL     1      -2.209   3.702  11.806  1.00  0.00     0.059 A 
HETATM   26  C25 UNL     1      -3.547   4.170  12.261  1.00  0.00     0.163 C 
HETATM   27  O7  UNL     1      -4.528   3.769  11.629  1.00  0.00    -0.292 OA
HETATM   28  C26 UNL     1      -3.694   4.943  13.554  1.00  0.00     0.084 C 
HETATM   29  C27 UNL     1      -4.768   6.033  13.420  1.00  0.00     0.016 C 
HETATM   30  C28 UNL     1       1.347   4.788  11.253  1.00  0.00     0.210 C 
HETATM   31  O8  UNL     1       2.358   4.388  10.684  1.00  0.00    -0.285 OA
HETATM   32  H20 UNL     1       3.331   5.997  11.638  1.00  0.00     0.169 HD
ENDROOT
BRANCH   4  33
HETATM   33  C7  UNL     1      -2.359   9.802  16.802  1.00  0.00     0.147 C 
HETATM   34  C8  UNL     1      -1.139  10.473  17.429  1.00  0.00     0.042 C 
BRANCH  33  35
HETATM   35  O1  UNL     1      -3.379   9.734  17.807  1.00  0.00    -0.393 OA
HETATM   36  H14 UNL     1      -3.828  10.598  17.818  1.00  0.00     0.210 HD
ENDBRANCH  33  35
ENDBRANCH   4  33
BRANCH   1  37
HETATM   37  C2  UNL     1      -5.523   8.409  14.008  1.00  0.00     0.004 C 
HETATM   38  C1  UNL     1      -6.521   8.577  15.149  1.00  0.00     0.006 C 
ENDBRANCH   1  37
BRANCH  24  39
HETATM   39  O6  UNL     1      -3.225   1.533  11.366  1.00  0.00    -0.359 OA
HETATM   40  H25 UNL     1      -4.031   2.097  11.340  1.00  0.00     0.217 HD
ENDBRANCH  24  39
TORSDOF 4
ENDMDL
MODEL 7
REMARK minimizedAffinity -7.34538269
REMARK CNNscore 0.234644577
REMARK CNNaffinity 5.70565605
REMARK  4 active torsions:
REMARK  status: ('A' for Active; 'I' for Inactive)
REMARK    1  A    between atoms: C2_2  and  C3_3 
REMARK    2  A    between atoms: C6_6  and  C7_7 
REMARK    3  A    between atoms: C7_7  and  O1_9 
REMARK    4  A    between atoms: C23_29  and  O6_30 
ROOT
HETATM    1  C3  UNL     1      -1.513  15.637   2.414  1.00  0.00     0.008 C 
HETATM    2  C4  UNL     1      -1.480  14.402   3.277  1.00  0.00    -0.023 C 
HETATM    3  C5  UNL     1      -0.626  14.079   4.262  1.00  0.00     0.004 C 
HETATM    4  C6  UNL     1       0.573  14.781   4.871  1.00  0.00     0.182 C 
HETATM    5  O2  UNL     1       1.158  15.785   4.024  1.00  0.00    -0.308 OA
HETATM    6  C9  UNL     1       2.077  15.345   3.121  1.00  0.00     0.276 C 
HETATM    7  O3  UNL     1       2.274  14.163   2.852  1.00  0.00    -0.264 OA
HETATM    8  C10 UNL     1       2.968  16.501   2.582  1.00  0.00     0.095 C 
HETATM    9  C11 UNL     1       2.280  17.885   2.625  1.00  0.00     0.036 C 
HETATM   10  C12 UNL     1       4.073  16.567   3.621  1.00  0.00     0.003 C 
HETATM   11  C13 UNL     1       5.401  16.481   3.548  1.00  0.00     0.072 C 
HETATM   12  C14 UNL     1       6.277  16.274   2.395  1.00  0.00     0.245 C 
HETATM   13  O4  UNL     1       7.494  16.339   2.568  1.00  0.00    -0.268 OA
HETATM   14  N1  UNL     1       5.792  15.982   1.175  1.00  0.00    -0.320 N 
HETATM   15  C15 UNL     1       4.549  15.850   0.611  1.00  0.00     0.098 C 
HETATM   16  C16 UNL     1       3.344  16.088   1.156  1.00  0.00     0.045 C 
HETATM   17  C17 UNL     1       2.154  15.931   0.242  1.00  0.00     0.194 C 
HETATM   18  O5  UNL     1       1.124  16.561   0.435  1.00  0.00    -0.287 OA
HETATM   19  C18 UNL     1       2.224  15.035  -0.919  1.00  0.00     0.046 A 
HETATM   20  C19 UNL     1       3.482  14.819  -1.469  1.00  0.00     0.032 A 
HETATM   21  C20 UNL     1       3.637  14.097  -2.661  1.00  0.00     0.026 A 
HETATM   22  C21 UNL     1       2.520  13.587  -3.330  1.00  0.00    -0.027 A 
HETATM   23  C22 UNL     1       2.683  12.855  -4.634  1.00  0.00     0.051 C 
HETATM   24  C23 UNL     1       1.251  13.815  -2.782  1.00  0.00     0.086 A 
HETATM   25  C24 UNL     1       1.088  14.511  -1.565  1.00  0.00     0.059 A 
HETATM   26  C25 UNL     1      -0.308  14.643  -1.062  1.00  0.00     0.163 C 
HETATM   27  O7  UNL     1      -1.187  14.874  -1.896  1.00  0.00    -0.292 OA
HETATM   28  C26 UNL     1      -0.642  14.317   0.378  1.00  0.00     0.084 C 
HETATM   29  C27 UNL     1      -1.706  15.281   0.924  1.00  0.00     0.016 C 
HETATM   30  C28 UNL     1       4.667  15.378  -0.814  1.00  0.00     0.210 C 
HETATM   31  O8  UNL     1       5.753  15.399  -1.385  1.00  0.00    -0.285 OA
HETATM   32  H20 UNL     1       6.560  15.815   0.518  1.00  0.00     0.169 HD
ENDROOT
BRANCH   4  33
HETATM   33  C7  UNL     1       0.159  15.450   6.210  1.00  0.00     0.147 C 
HETATM   34  C8  UNL     1      -0.443  16.837   6.006  1.00  0.00     0.042 C 
BRANCH  33  35
HETATM   35  O1  UNL     1       1.295  15.593   7.072  1.00  0.00    -0.393 OA
HETATM   36  H14 UNL     1       0.962  15.611   7.986  1.00  0.00     0.210 HD
ENDBRANCH  33  35
ENDBRANCH   4  33
BRANCH   1  37
HETATM   37  C2  UNL     1      -2.573  16.643   2.912  1.00  0.00     0.004 C 
HETATM   38  C1  UNL     1      -4.028  16.254   2.675  1.00  0.00     0.006 C 
ENDBRANCH   1  37
BRANCH  24  39
HETATM   39  O6  UNL     1       0.177  13.341  -3.497  1.00  0.00    -0.359 OA
HETATM   40  H25 UNL     1      -0.627  13.831  -3.210  1.00  0.00     0.217 HD
ENDBRANCH  24  39
TORSDOF 4
ENDMDL
MODEL 8
REMARK minimizedAffinity -6.67144442
REMARK CNNscore 0.226245001
REMARK CNNaffinity 5.07736969
REMARK  4 active torsions:
REMARK  status: ('A' for Active; 'I' for Inactive)
REMARK    1  A    between atoms: C2_2  and  C3_3 
REMARK    2  A    between atoms: C6_6  and  C7_7 
REMARK    3  A    between atoms: C7_7  and  O1_9 
REMARK    4  A    between atoms: C23_29  and  O6_30 
ROOT
HETATM    1  C3  UNL     1     -17.214   7.099  24.572  1.00  0.00     0.008 C 
HETATM    2  C4  UNL     1     -16.217   8.149  24.156  1.00  0.00    -0.023 C 
HETATM    3  C5  UNL     1     -15.119   8.021  23.392  1.00  0.00     0.004 C 
HETATM    4  C6  UNL     1     -14.481   6.843  22.679  1.00  0.00     0.182 C 
HETATM    5  O2  UNL     1     -14.870   5.560  23.199  1.00  0.00    -0.308 OA
HETATM    6  C9  UNL     1     -14.151   5.101  24.260  1.00  0.00     0.276 C 
HETATM    7  O3  UNL     1     -13.360   5.782  24.908  1.00  0.00    -0.264 OA
HETATM    8  C10 UNL     1     -14.321   3.568  24.463  1.00  0.00     0.095 C 
HETATM    9  C11 UNL     1     -15.663   3.017  23.928  1.00  0.00     0.036 C 
HETATM   10  C12 UNL     1     -13.255   3.002  23.542  1.00  0.00     0.003 C 
HETATM   11  C13 UNL     1     -12.223   2.181  23.736  1.00  0.00     0.072 C 
HETATM   12  C14 UNL     1     -11.743   1.531  24.956  1.00  0.00     0.245 C 
HETATM   13  O4  UNL     1     -10.821   0.721  24.860  1.00  0.00    -0.268 OA
HETATM   14  N1  UNL     1     -12.254   1.820  26.165  1.00  0.00    -0.320 N 
HETATM   15  C15 UNL     1     -13.258   2.620  26.649  1.00  0.00     0.098 C 
HETATM   16  C16 UNL     1     -14.164   3.342  25.970  1.00  0.00     0.045 C 
HETATM   17  C17 UNL     1     -15.206   4.055  26.796  1.00  0.00     0.194 C 
HETATM   18  O5  UNL     1     -16.310   4.308  26.337  1.00  0.00    -0.287 OA
HETATM   19  C18 UNL     1     -14.919   4.434  28.186  1.00  0.00     0.046 A 
HETATM   20  C19 UNL     1     -13.987   3.660  28.867  1.00  0.00     0.032 A 
HETATM   21  C20 UNL     1     -13.749   3.850  30.235  1.00  0.00     0.026 A 
HETATM   22  C21 UNL     1     -14.457   4.821  30.948  1.00  0.00    -0.027 A 
HETATM   23  C22 UNL     1     -14.236   4.991  32.427  1.00  0.00     0.051 C 
HETATM   24  C23 UNL     1     -15.405   5.593  30.265  1.00  0.00     0.086 A 
HETATM   25  C24 UNL     1     -15.627   5.433  28.880  1.00  0.00     0.059 A 
HETATM   26  C25 UNL     1     -16.624   6.349  28.261  1.00  0.00     0.163 C 
HETATM   27  O7  UNL     1     -17.645   6.592  28.911  1.00  0.00    -0.292 OA
HETATM   28  C26 UNL     1     -16.299   7.091  26.981  1.00  0.00     0.084 C 
HETATM   29  C27 UNL     1     -17.537   7.191  26.078  1.00  0.00     0.016 C 
HETATM   30  C28 UNL     1     -13.260   2.606  28.155  1.00  0.00     0.210 C 
HETATM   31  O8  UNL     1     -12.606   1.766  28.767  1.00  0.00    -0.285 OA
HETATM   32  H20 UNL     1     -11.748   1.310  26.895  1.00  0.00     0.169 HD
ENDROOT
BRANCH   4  33
HETATM   33  C7  UNL     1     -14.843   6.891  21.170  1.00  0.00     0.147 C 
HETATM   34  C8  UNL     1     -15.895   5.852  20.790  1.00  0.00     0.042 C 
BRANCH  33  35
HETATM   35  O1  UNL     1     -13.681   6.643  20.367  1.00  0.00    -0.393 OA
HETATM   36  H14 UNL     1     -13.831   7.072  19.506  1.00  0.00     0.210 HD
ENDBRANCH  33  35
ENDBRANCH   4  33
BRANCH   1  37
HETATM   37  C2  UNL     1     -18.488   7.157  23.700  1.00  0.00     0.004 C 
HETATM   38  C1  UNL     1     -18.888   5.857  23.012  1.00  0.00     0.006 C 
ENDBRANCH   1  37
BRANCH  24  39
HETATM   39  O6  UNL     1     -16.116   6.501  31.014  1.00  0.00    -0.359 OA
HETATM   40  H25 UNL     1     -16.941   6.727  30.527  1.00  0.00     0.217 HD
ENDBRANCH  24  39
TORSDOF 4
ENDMDL
MODEL 9
REMARK minimizedAffinity -6.90551901
REMARK CNNscore 0.209724575
REMARK CNNaffinity 5.44472694
REMARK  4 active torsions:
REMARK  status: ('A' for Active; 'I' for Inactive)
REMARK    1  A    between atoms: C2_2  and  C3_3 
REMARK    2  A    between atoms: C6_6  and  C7_7 
REMARK    3  A    between atoms: C7_7  and  O1_9 
REMARK    4  A    between atoms: C23_29  and  O6_30 
ROOT
HETATM    1  C3  UNL     1      -1.081  16.306   2.727  1.00  0.00     0.008 C 
HETATM    2  C4  UNL     1      -1.415  15.030   3.456  1.00  0.00    -0.023 C 
HETATM    3  C5  UNL     1      -0.605  14.215   4.153  1.00  0.00     0.004 C 
HETATM    4  C6  UNL     1       0.878  14.247   4.472  1.00  0.00     0.182 C 
HETATM    5  O2  UNL     1       1.654  15.063   3.578  1.00  0.00    -0.308 OA
HETATM    6  C9  UNL     1       2.077  14.459   2.434  1.00  0.00     0.276 C 
HETATM    7  O3  UNL     1       1.675  13.369   2.035  1.00  0.00    -0.264 OA
HETATM    8  C10 UNL     1       3.252  15.231   1.765  1.00  0.00     0.095 C 
HETATM    9  C11 UNL     1       3.265  16.742   2.092  1.00  0.00     0.036 C 
HETATM   10  C12 UNL     1       4.462  14.653   2.476  1.00  0.00     0.003 C 
HETATM   11  C13 UNL     1       5.570  14.049   2.047  1.00  0.00     0.072 C 
HETATM   12  C14 UNL     1       6.007  13.717   0.691  1.00  0.00     0.245 C 
HETATM   13  O4  UNL     1       7.135  13.250   0.539  1.00  0.00    -0.268 OA
HETATM   14  N1  UNL     1       5.202  13.875  -0.375  1.00  0.00    -0.320 N 
HETATM   15  C15 UNL     1       3.940  14.363  -0.597  1.00  0.00     0.098 C 
HETATM   16  C16 UNL     1       3.104  14.967   0.264  1.00  0.00     0.045 C 
HETATM   17  C17 UNL     1       1.804  15.475  -0.310  1.00  0.00     0.194 C 
HETATM   18  O5  UNL     1       1.220  16.422   0.195  1.00  0.00    -0.287 OA
HETATM   19  C18 UNL     1       1.232  14.855  -1.512  1.00  0.00     0.046 A 
HETATM   20  C19 UNL     1       2.123  14.250  -2.391  1.00  0.00     0.032 A 
HETATM   21  C20 UNL     1       1.695  13.757  -3.631  1.00  0.00     0.026 A 
HETATM   22  C21 UNL     1       0.356  13.875  -4.016  1.00  0.00    -0.027 A 
HETATM   23  C22 UNL     1      -0.092  13.389  -5.368  1.00  0.00     0.051 C 
HETATM   24  C23 UNL     1      -0.539  14.495  -3.137  1.00  0.00     0.086 A 
HETATM   25  C24 UNL     1      -0.125  14.964  -1.870  1.00  0.00     0.059 A 
HETATM   26  C25 UNL     1      -1.183  15.557  -1.007  1.00  0.00     0.163 C 
HETATM   27  O7  UNL     1      -2.024  16.272  -1.559  1.00  0.00    -0.292 OA
HETATM   28  C26 UNL     1      -1.320  15.139   0.442  1.00  0.00     0.084 C 
HETATM   29  C27 UNL     1      -1.714  16.336   1.320  1.00  0.00     0.016 C 
HETATM   30  C28 UNL     1       3.540  14.151  -2.033  1.00  0.00     0.210 C 
HETATM   31  O8  UNL     1       4.381  13.833  -2.869  1.00  0.00    -0.285 OA
HETATM   32  H20 UNL     1       5.664  13.532  -1.223  1.00  0.00     0.169 HD
ENDROOT
BRANCH   4  33
HETATM   33  C7  UNL     1       1.086  14.771   5.920  1.00  0.00     0.147 C 
HETATM   34  C8  UNL     1       0.065  15.838   6.304  1.00  0.00     0.042 C 
BRANCH  33  35
HETATM   35  O1  UNL     1       2.390  15.348   6.061  1.00  0.00    -0.393 OA
HETATM   36  H14 UNL     1       2.634  15.279   7.001  1.00  0.00     0.210 HD
ENDBRANCH  33  35
ENDBRANCH   4  33
BRANCH   1  37
HETATM   37  C2  UNL     1      -1.464  17.548   3.563  1.00  0.00     0.004 C 
HETATM   38  C1  UNL     1      -0.354  18.568   3.792  1.00  0.00     0.006 C 
ENDBRANCH   1  37
BRANCH  24  39
HETATM   39  O6  UNL     1      -1.835  14.637  -3.574  1.00  0.00    -0.359 OA
HETATM   40  H25 UNL     1      -2.264  15.350  -3.048  1.00  0.00     0.217 HD
ENDBRANCH  24  39
TORSDOF 4
ENDMDL
