MODEL 1
REMARK minimizedAffinity -8.54161835
REMARK CNNscore 0.570413649
REMARK CNNaffinity 7.40374804
REMARK  19 active torsions:
REMARK  status: ('A' for Active; 'I' for Inactive)
REMARK    1  A    between atoms: O1_2  and  C2_3 
REMARK    2  A    between atoms: C2_3  and  C3_4 
REMARK    3  A    between atoms: C2_3  and  C28_36 
REMARK    4  A    between atoms: C3_4  and  C4_5 
REMARK    5  A    between atoms: C4_5  and  C6_7 
REMARK    6  A    between atoms: C6_7  and  O2_8 
REMARK    7  A    between atoms: C6_7  and  C7_9 
REMARK    8  A    between atoms: C8_10  and  C9_11 
REMARK    9  A    between atoms: C10_12  and  C11_13 
REMARK   10  A    between atoms: C11_13  and  N1_14 
REMARK       I    between atoms: N1_14  and  C12_15 
REMARK   11  A    between atoms: C12_15  and  C13_17 
REMARK   12  A    between atoms: C13_17  and  C16_20 
REMARK   13  A    between atoms: C16_20  and  O4_21 
REMARK   14  A    between atoms: C16_20  and  C17_22 
REMARK   15  A    between atoms: C19_24  and  C20_25 
REMARK   16  A    between atoms: C21_26  and  C22_27 
REMARK   17  A    between atoms: C23_28  and  C24_29 
REMARK   18  A    between atoms: C26_31  and  N2_33 
REMARK   19  A    between atoms: C28_36  and  O7_37 
ROOT
HETATM    1  C9  UNL     1      -0.198  51.832 -14.197  1.00  0.00    -0.003 C 
HETATM    2  C10 UNL     1       1.024  51.861 -14.757  1.00  0.00    -0.007 C 
ENDROOT
BRANCH   1   3
HETATM    3  C8  UNL     1      -0.428  52.220 -12.824  1.00  0.00    -0.002 C 
HETATM    4  C7  UNL     1       0.522  52.764 -12.043  1.00  0.00     0.005 C 
BRANCH   4   5
HETATM    5  C6  UNL     1       0.338  53.225 -10.617  1.00  0.00     0.144 C 
BRANCH   5   6
HETATM    6  C4  UNL     1       0.225  54.765 -10.512  1.00  0.00     0.016 C 
HETATM    7  C5  UNL     1      -1.086  55.258  -9.893  1.00  0.00     0.013 C 
BRANCH   6   8
HETATM    8  C3  UNL     1       1.479  55.440  -9.900  1.00  0.00     0.042 C 
BRANCH   8   9
HETATM    9  C2  UNL     1       1.753  55.418  -8.371  1.00  0.00     0.159 C 
BRANCH   9  10
HETATM   10  O1  UNL     1       1.425  56.664  -7.765  1.00  0.00    -0.388 OA
HETATM   11  C1  UNL     1       0.461  56.553  -6.721  1.00  0.00     0.202 C 
ENDBRANCH   9  10
BRANCH   9  12
HETATM   12  C28 UNL     1       3.232  55.015  -8.056  1.00  0.00     0.133 C 
HETATM   13  C29 UNL     1       4.049  55.965  -7.113  1.00  0.00     0.114 C 
HETATM   14  C30 UNL     1       4.151  57.447  -7.456  1.00  0.00     0.023 C 
HETATM   15  C31 UNL     1       5.451  55.406  -7.258  1.00  0.00     0.227 C 
HETATM   16  O8  UNL     1       6.343  55.486  -6.432  1.00  0.00    -0.273 OA
HETATM   17  N3  UNL     1       5.533  54.817  -8.511  1.00  0.00    -0.332 N 
HETATM   18  C32 UNL     1       6.677  54.015  -8.887  1.00  0.00     0.154 C 
HETATM   19  C33 UNL     1       4.204  54.780  -9.236  1.00  0.00     0.183 A 
HETATM   20  C34 UNL     1       3.966  53.522 -10.119  1.00  0.00     0.294 A 
HETATM   21  C35 UNL     1       4.302  55.476 -10.645  1.00  0.00     0.169 A 
HETATM   22  O9  UNL     1       3.833  52.328  -9.957  1.00  0.00    -0.262 OA
HETATM   23  O10 UNL     1       4.013  54.200 -11.293  1.00  0.00    -0.311 OA
HETATM   24  C36 UNL     1       3.413  56.556 -11.223  1.00  0.00     0.043 C 
BRANCH  12  25
HETATM   25  O7  UNL     1       3.102  53.768  -7.297  1.00  0.00    -0.383 OA
HETATM   26  H42 UNL     1       3.962  53.311  -7.260  1.00  0.00     0.210 HD
ENDBRANCH  12  25
ENDBRANCH   9  12
ENDBRANCH   8   9
ENDBRANCH   6   8
ENDBRANCH   5   6
BRANCH   5  27
HETATM   27  O2  UNL     1      -0.794  52.588 -10.039  1.00  0.00    -0.391 OA
HETATM   28  H12 UNL     1      -0.592  51.635 -10.018  1.00  0.00     0.210 HD
ENDBRANCH   5  27
ENDBRANCH   4   5
ENDBRANCH   1   3
BRANCH   2  29
HETATM   29  C11 UNL     1       1.413  51.467 -16.150  1.00  0.00     0.149 C 
BRANCH  29  30
HETATM   30  N1  UNL     1       0.258  51.244 -16.987  1.00  0.00    -0.357 N 
HETATM   31  C12 UNL     1      -0.174  49.956 -17.228  1.00  0.00     0.228 C 
HETATM   32  O3  UNL     1       0.300  48.994 -16.623  1.00  0.00    -0.273 OA
HETATM   33  H19 UNL     1       0.052  51.958 -17.668  1.00  0.00     0.162 HD
BRANCH  31  34
HETATM   34  C13 UNL     1      -1.359  49.803 -18.200  1.00  0.00     0.063 C 
HETATM   35  C14 UNL     1      -2.550  49.072 -17.551  1.00  0.00     0.028 C 
HETATM   36  C15 UNL     1      -0.833  48.950 -19.376  1.00  0.00     0.028 C 
BRANCH  34  37
HETATM   37  C16 UNL     1      -1.834  51.192 -18.755  1.00  0.00     0.164 C 
BRANCH  37  38
HETATM   38  O4  UNL     1      -3.064  51.623 -18.168  1.00  0.00    -0.390 OA
HETATM   39  H27 UNL     1      -3.698  50.883 -18.260  1.00  0.00     0.210 HD
ENDBRANCH  37  38
BRANCH  37  40
HETATM   40  C17 UNL     1      -1.932  51.356 -20.271  1.00  0.00    -0.054 C 
HETATM   41  C18 UNL     1      -3.242  50.966 -20.916  1.00  0.00     0.046 C 
HETATM   42  C19 UNL     1      -0.960  51.849 -21.073  1.00  0.00     0.005 C 
BRANCH  42  43
HETATM   43  C20 UNL     1       0.362  52.306 -20.698  1.00  0.00     0.000 C 
HETATM   44  C21 UNL     1       1.214  53.033 -21.443  1.00  0.00     0.000 C 
BRANCH  44  45
HETATM   45  C22 UNL     1       1.009  53.531 -22.788  1.00  0.00     0.001 C 
HETATM   46  C23 UNL     1       0.173  52.943 -23.662  1.00  0.00     0.009 C 
BRANCH  46  47
HETATM   47  C24 UNL     1      -0.084  53.379 -25.043  1.00  0.00    -0.034 C 
HETATM   48  C25 UNL     1       0.219  54.837 -25.341  1.00  0.00     0.050 C 
HETATM   49  C26 UNL     1      -0.587  52.514 -25.958  1.00  0.00     0.082 C 
HETATM   50  C27 UNL     1      -0.938  51.066 -25.875  1.00  0.00     0.075 C 
BRANCH  49  51
HETATM   51  N2  UNL     1      -0.803  53.016 -27.299  1.00  0.00    -0.120 N 
HETATM   52  O5  UNL     1       0.159  52.976 -28.077  1.00  0.00    -0.532 OA
HETATM   53  O6  UNL     1      -1.940  53.424 -27.564  1.00  0.00    -0.532 OA
ENDBRANCH  49  51
ENDBRANCH  46  47
ENDBRANCH  44  45
ENDBRANCH  42  43
ENDBRANCH  37  40
ENDBRANCH  34  37
ENDBRANCH  31  34
ENDBRANCH  29  30
ENDBRANCH   2  29
TORSDOF 19
ENDMDL
MODEL 2
REMARK minimizedAffinity -8.47557259
REMARK CNNscore 0.327043116
REMARK CNNaffinity 6.44864273
REMARK  19 active torsions:
REMARK  status: ('A' for Active; 'I' for Inactive)
REMARK    1  A    between atoms: O1_2  and  C2_3 
REMARK    2  A    between atoms: C2_3  and  C3_4 
REMARK    3  A    between atoms: C2_3  and  C28_36 
REMARK    4  A    between atoms: C3_4  and  C4_5 
REMARK    5  A    between atoms: C4_5  and  C6_7 
REMARK    6  A    between atoms: C6_7  and  O2_8 
REMARK    7  A    between atoms: C6_7  and  C7_9 
REMARK    8  A    between atoms: C8_10  and  C9_11 
REMARK    9  A    between atoms: C10_12  and  C11_13 
REMARK   10  A    between atoms: C11_13  and  N1_14 
REMARK       I    between atoms: N1_14  and  C12_15 
REMARK   11  A    between atoms: C12_15  and  C13_17 
REMARK   12  A    between atoms: C13_17  and  C16_20 
REMARK   13  A    between atoms: C16_20  and  O4_21 
REMARK   14  A    between atoms: C16_20  and  C17_22 
REMARK   15  A    between atoms: C19_24  and  C20_25 
REMARK   16  A    between atoms: C21_26  and  C22_27 
REMARK   17  A    between atoms: C23_28  and  C24_29 
REMARK   18  A    between atoms: C26_31  and  N2_33 
REMARK   19  A    between atoms: C28_36  and  O7_37 
ROOT
HETATM    1  C9  UNL     1      -3.409  50.035 -27.442  1.00  0.00    -0.003 C 
HETATM    2  C10 UNL     1      -4.152  48.916 -27.382  1.00  0.00    -0.007 C 
ENDROOT
BRANCH   1   3
HETATM    3  C8  UNL     1      -2.831  50.643 -26.265  1.00  0.00    -0.002 C 
HETATM    4  C7  UNL     1      -3.107  51.899 -25.874  1.00  0.00     0.005 C 
BRANCH   4   5
HETATM    5  C6  UNL     1      -2.569  52.579 -24.638  1.00  0.00     0.144 C 
BRANCH   5   6
HETATM    6  C4  UNL     1      -3.361  52.192 -23.367  1.00  0.00     0.016 C 
HETATM    7  C5  UNL     1      -4.824  51.821 -23.625  1.00  0.00     0.013 C 
BRANCH   6   8
HETATM    8  C3  UNL     1      -2.625  51.169 -22.463  1.00  0.00     0.042 C 
BRANCH   8   9
HETATM    9  C2  UNL     1      -3.184  50.758 -21.073  1.00  0.00     0.159 C 
BRANCH   9  10
HETATM   10  O1  UNL     1      -4.442  51.372 -20.816  1.00  0.00    -0.388 OA
HETATM   11  C1  UNL     1      -5.459  50.449 -20.432  1.00  0.00     0.202 C 
ENDBRANCH   9  10
BRANCH   9  12
HETATM   12  C28 UNL     1      -2.164  51.068 -19.927  1.00  0.00     0.133 C 
HETATM   13  C29 UNL     1      -0.897  51.910 -20.305  1.00  0.00     0.114 C 
HETATM   14  C30 UNL     1      -0.008  51.445 -21.453  1.00  0.00     0.023 C 
HETATM   15  C31 UNL     1      -0.057  51.777 -19.049  1.00  0.00     0.227 C 
HETATM   16  O8  UNL     1       0.781  52.572 -18.659  1.00  0.00    -0.273 OA
HETATM   17  N3  UNL     1      -0.401  50.575 -18.448  1.00  0.00    -0.332 N 
HETATM   18  C32 UNL     1       0.073  50.238 -17.124  1.00  0.00     0.154 C 
HETATM   19  C33 UNL     1      -1.569  49.889 -19.124  1.00  0.00     0.183 A 
HETATM   20  C34 UNL     1      -2.527  49.117 -18.170  1.00  0.00     0.294 A 
HETATM   21  C35 UNL     1      -1.194  48.425 -19.568  1.00  0.00     0.169 A 
HETATM   22  O9  UNL     1      -3.291  49.380 -17.268  1.00  0.00    -0.262 OA
HETATM   23  O10 UNL     1      -2.187  47.891 -18.640  1.00  0.00    -0.311 OA
HETATM   24  C36 UNL     1      -1.365  47.782 -20.927  1.00  0.00     0.043 C 
BRANCH  12  25
HETATM   25  O7  UNL     1      -2.917  51.930 -19.012  1.00  0.00    -0.383 OA
HETATM   26  H42 UNL     1      -2.458  51.983 -18.154  1.00  0.00     0.210 HD
ENDBRANCH  12  25
ENDBRANCH   9  12
ENDBRANCH   8   9
ENDBRANCH   6   8
ENDBRANCH   5   6
BRANCH   5  27
HETATM   27  O2  UNL     1      -1.185  52.294 -24.486  1.00  0.00    -0.391 OA
HETATM   28  H12 UNL     1      -0.737  52.684 -25.258  1.00  0.00     0.210 HD
ENDBRANCH   5  27
ENDBRANCH   4   5
ENDBRANCH   1   3
BRANCH   2  29
HETATM   29  C11 UNL     1      -4.829  48.193 -28.506  1.00  0.00     0.149 C 
BRANCH  29  30
HETATM   30  N1  UNL     1      -6.267  48.250 -28.393  1.00  0.00    -0.357 N 
HETATM   31  C12 UNL     1      -7.039  47.248 -28.944  1.00  0.00     0.228 C 
HETATM   32  O3  UNL     1      -6.532  46.221 -29.397  1.00  0.00    -0.273 OA
HETATM   33  H19 UNL     1      -6.673  49.166 -28.281  1.00  0.00     0.162 HD
BRANCH  31  34
HETATM   34  C13 UNL     1      -8.565  47.431 -28.853  1.00  0.00     0.063 C 
HETATM   35  C14 UNL     1      -8.973  48.314 -27.658  1.00  0.00     0.028 C 
HETATM   36  C15 UNL     1      -9.149  46.016 -28.647  1.00  0.00     0.028 C 
BRANCH  34  37
HETATM   37  C16 UNL     1      -9.155  48.033 -30.177  1.00  0.00     0.164 C 
BRANCH  37  38
HETATM   38  O4  UNL     1      -9.348  49.447 -30.095  1.00  0.00    -0.390 OA
HETATM   39  H27 UNL     1      -9.860  49.618 -29.279  1.00  0.00     0.210 HD
ENDBRANCH  37  38
BRANCH  37  40
HETATM   40  C17 UNL     1     -10.424  47.399 -30.743  1.00  0.00    -0.054 C 
HETATM   41  C18 UNL     1     -10.269  46.565 -31.994  1.00  0.00     0.046 C 
HETATM   42  C19 UNL     1     -11.660  47.493 -30.202  1.00  0.00     0.005 C 
BRANCH  42  43
HETATM   43  C20 UNL     1     -12.060  48.210 -29.008  1.00  0.00     0.000 C 
HETATM   44  C21 UNL     1     -12.807  47.744 -27.991  1.00  0.00     0.000 C 
BRANCH  44  45
HETATM   45  C22 UNL     1     -13.381  46.420 -27.849  1.00  0.00     0.001 C 
HETATM   46  C23 UNL     1     -14.605  46.211 -27.331  1.00  0.00     0.009 C 
BRANCH  46  47
HETATM   47  C24 UNL     1     -15.255  44.905 -27.145  1.00  0.00    -0.034 C 
HETATM   48  C25 UNL     1     -14.703  43.768 -27.986  1.00  0.00     0.050 C 
HETATM   49  C26 UNL     1     -16.297  44.769 -26.290  1.00  0.00     0.082 C 
HETATM   50  C27 UNL     1     -16.975  45.737 -25.378  1.00  0.00     0.075 C 
BRANCH  49  51
HETATM   51  N2  UNL     1     -16.878  43.449 -26.153  1.00  0.00    -0.120 N 
HETATM   52  O5  UNL     1     -17.918  43.223 -26.785  1.00  0.00    -0.532 OA
HETATM   53  O6  UNL     1     -16.272  42.646 -25.433  1.00  0.00    -0.532 OA
ENDBRANCH  49  51
ENDBRANCH  46  47
ENDBRANCH  44  45
ENDBRANCH  42  43
ENDBRANCH  37  40
ENDBRANCH  34  37
ENDBRANCH  31  34
ENDBRANCH  29  30
ENDBRANCH   2  29
TORSDOF 19
ENDMDL
MODEL 3
REMARK minimizedAffinity -8.3493824
REMARK CNNscore 0.242277071
REMARK CNNaffinity 5.91530752
REMARK  19 active torsions:
REMARK  status: ('A' for Active; 'I' for Inactive)
REMARK    1  A    between atoms: O1_2  and  C2_3 
REMARK    2  A    between atoms: C2_3  and  C3_4 
REMARK    3  A    between atoms: C2_3  and  C28_36 
REMARK    4  A    between atoms: C3_4  and  C4_5 
REMARK    5  A    between atoms: C4_5  and  C6_7 
REMARK    6  A    between atoms: C6_7  and  O2_8 
REMARK    7  A    between atoms: C6_7  and  C7_9 
REMARK    8  A    between atoms: C8_10  and  C9_11 
REMARK    9  A    between atoms: C10_12  and  C11_13 
REMARK   10  A    between atoms: C11_13  and  N1_14 
REMARK       I    between atoms: N1_14  and  C12_15 
REMARK   11  A    between atoms: C12_15  and  C13_17 
REMARK   12  A    between atoms: C13_17  and  C16_20 
REMARK   13  A    between atoms: C16_20  and  O4_21 
REMARK   14  A    between atoms: C16_20  and  C17_22 
REMARK   15  A    between atoms: C19_24  and  C20_25 
REMARK   16  A    between atoms: C21_26  and  C22_27 
REMARK   17  A    between atoms: C23_28  and  C24_29 
REMARK   18  A    between atoms: C26_31  and  N2_33 
REMARK   19  A    between atoms: C28_36  and  O7_37 
ROOT
HETATM    1  C9  UNL     1      -3.153  48.805 -25.111  1.00  0.00    -0.003 C 
HETATM    2  C10 UNL     1      -4.206  48.776 -24.276  1.00  0.00    -0.007 C 
ENDROOT
BRANCH   1   3
HETATM    3  C8  UNL     1      -3.275  48.500 -26.519  1.00  0.00    -0.002 C 
HETATM    4  C7  UNL     1      -4.457  48.361 -27.143  1.00  0.00     0.005 C 
BRANCH   4   5
HETATM    5  C6  UNL     1      -4.654  48.080 -28.614  1.00  0.00     0.144 C 
BRANCH   5   6
HETATM    6  C4  UNL     1      -5.963  47.303 -28.889  1.00  0.00     0.016 C 
HETATM    7  C5  UNL     1      -7.224  47.983 -28.348  1.00  0.00     0.013 C 
BRANCH   6   8
HETATM    8  C3  UNL     1      -6.110  46.832 -30.359  1.00  0.00     0.042 C 
BRANCH   8   9
HETATM    9  C2  UNL     1      -7.148  45.752 -30.770  1.00  0.00     0.159 C 
BRANCH   9  10
HETATM   10  O1  UNL     1      -6.734  44.452 -30.365  1.00  0.00    -0.388 OA
HETATM   11  C1  UNL     1      -7.524  43.905 -29.311  1.00  0.00     0.202 C 
ENDBRANCH   9  10
BRANCH   9  12
HETATM   12  C28 UNL     1      -7.444  45.792 -32.306  1.00  0.00     0.133 C 
HETATM   13  C29 UNL     1      -7.474  47.201 -32.993  1.00  0.00     0.114 C 
HETATM   14  C30 UNL     1      -8.384  48.286 -32.428  1.00  0.00     0.023 C 
HETATM   15  C31 UNL     1      -8.031  46.861 -34.362  1.00  0.00     0.227 C 
HETATM   16  O8  UNL     1      -7.841  47.488 -35.389  1.00  0.00    -0.273 OA
HETATM   17  N3  UNL     1      -8.815  45.726 -34.218  1.00  0.00    -0.332 N 
HETATM   18  C32 UNL     1      -9.333  45.023 -35.371  1.00  0.00     0.154 C 
HETATM   19  C33 UNL     1      -8.736  45.124 -32.831  1.00  0.00     0.183 A 
HETATM   20  C34 UNL     1      -8.811  43.571 -32.777  1.00  0.00     0.294 A 
HETATM   21  C35 UNL     1     -10.165  44.992 -32.181  1.00  0.00     0.169 A 
HETATM   22  O9  UNL     1      -8.143  42.631 -33.150  1.00  0.00    -0.262 OA
HETATM   23  O10 UNL     1     -10.023  43.539 -32.172  1.00  0.00    -0.311 OA
HETATM   24  C36 UNL     1     -10.627  45.471 -30.822  1.00  0.00     0.043 C 
BRANCH  12  25
HETATM   25  O7  UNL     1      -6.288  45.118 -32.904  1.00  0.00    -0.383 OA
HETATM   26  H42 UNL     1      -6.486  44.878 -33.828  1.00  0.00     0.210 HD
ENDBRANCH  12  25
ENDBRANCH   9  12
ENDBRANCH   8   9
ENDBRANCH   6   8
ENDBRANCH   5   6
BRANCH   5  27
HETATM   27  O2  UNL     1      -4.614  49.293 -29.353  1.00  0.00    -0.391 OA
HETATM   28  H12 UNL     1      -3.717  49.656 -29.238  1.00  0.00     0.210 HD
ENDBRANCH   5  27
ENDBRANCH   4   5
ENDBRANCH   1   3
BRANCH   2  29
HETATM   29  C11 UNL     1      -4.225  49.043 -22.801  1.00  0.00     0.149 C 
BRANCH  29  30
HETATM   30  N1  UNL     1      -3.023  49.710 -22.361  1.00  0.00    -0.357 N 
HETATM   31  C12 UNL     1      -2.762  49.833 -21.011  1.00  0.00     0.228 C 
HETATM   32  O3  UNL     1      -3.448  49.252 -20.168  1.00  0.00    -0.273 OA
HETATM   33  H19 UNL     1      -2.628  50.389 -22.992  1.00  0.00     0.162 HD
BRANCH  31  34
HETATM   34  C13 UNL     1      -1.504  50.632 -20.627  1.00  0.00     0.063 C 
HETATM   35  C14 UNL     1      -1.236  51.795 -21.602  1.00  0.00     0.028 C 
HETATM   36  C15 UNL     1      -0.328  49.634 -20.708  1.00  0.00     0.028 C 
BRANCH  34  37
HETATM   37  C16 UNL     1      -1.596  51.186 -19.161  1.00  0.00     0.164 C 
BRANCH  37  38
HETATM   38  O4  UNL     1      -2.749  52.006 -18.959  1.00  0.00    -0.390 OA
HETATM   39  H27 UNL     1      -2.750  52.676 -19.673  1.00  0.00     0.210 HD
ENDBRANCH  37  38
BRANCH  37  40
HETATM   40  C17 UNL     1      -0.375  51.909 -18.596  1.00  0.00    -0.054 C 
HETATM   41  C18 UNL     1      -0.072  53.277 -19.161  1.00  0.00     0.046 C 
HETATM   42  C19 UNL     1       0.431  51.443 -17.614  1.00  0.00     0.005 C 
BRANCH  42  43
HETATM   43  C20 UNL     1       0.339  50.183 -16.905  1.00  0.00     0.000 C 
HETATM   44  C21 UNL     1       0.257  50.003 -15.575  1.00  0.00     0.000 C 
BRANCH  44  45
HETATM   45  C22 UNL     1       0.237  51.020 -14.543  1.00  0.00     0.001 C 
HETATM   46  C23 UNL     1      -0.779  51.153 -13.672  1.00  0.00     0.009 C 
BRANCH  46  47
HETATM   47  C24 UNL     1      -0.880  52.160 -12.605  1.00  0.00    -0.034 C 
HETATM   48  C25 UNL     1       0.413  52.871 -12.245  1.00  0.00     0.050 C 
HETATM   49  C26 UNL     1      -2.063  52.392 -11.984  1.00  0.00     0.082 C 
HETATM   50  C27 UNL     1      -3.426  51.821 -12.189  1.00  0.00     0.075 C 
BRANCH  49  51
HETATM   51  N2  UNL     1      -2.083  53.406 -10.951  1.00  0.00    -0.120 N 
HETATM   52  O5  UNL     1      -1.029  54.021 -10.743  1.00  0.00    -0.532 OA
HETATM   53  O6  UNL     1      -3.162  53.591 -10.374  1.00  0.00    -0.532 OA
ENDBRANCH  49  51
ENDBRANCH  46  47
ENDBRANCH  44  45
ENDBRANCH  42  43
ENDBRANCH  37  40
ENDBRANCH  34  37
ENDBRANCH  31  34
ENDBRANCH  29  30
ENDBRANCH   2  29
TORSDOF 19
ENDMDL
MODEL 4
REMARK minimizedAffinity -8.50591183
REMARK CNNscore 0.222558945
REMARK CNNaffinity 5.88217926
REMARK  19 active torsions:
REMARK  status: ('A' for Active; 'I' for Inactive)
REMARK    1  A    between atoms: O1_2  and  C2_3 
REMARK    2  A    between atoms: C2_3  and  C3_4 
REMARK    3  A    between atoms: C2_3  and  C28_36 
REMARK    4  A    between atoms: C3_4  and  C4_5 
REMARK    5  A    between atoms: C4_5  and  C6_7 
REMARK    6  A    between atoms: C6_7  and  O2_8 
REMARK    7  A    between atoms: C6_7  and  C7_9 
REMARK    8  A    between atoms: C8_10  and  C9_11 
REMARK    9  A    between atoms: C10_12  and  C11_13 
REMARK   10  A    between atoms: C11_13  and  N1_14 
REMARK       I    between atoms: N1_14  and  C12_15 
REMARK   11  A    between atoms: C12_15  and  C13_17 
REMARK   12  A    between atoms: C13_17  and  C16_20 
REMARK   13  A    between atoms: C16_20  and  O4_21 
REMARK   14  A    between atoms: C16_20  and  C17_22 
REMARK   15  A    between atoms: C19_24  and  C20_25 
REMARK   16  A    between atoms: C21_26  and  C22_27 
REMARK   17  A    between atoms: C23_28  and  C24_29 
REMARK   18  A    between atoms: C26_31  and  N2_33 
REMARK   19  A    between atoms: C28_36  and  O7_37 
ROOT
HETATM    1  C9  UNL     1      -3.279  48.551 -25.600  1.00  0.00    -0.003 C 
HETATM    2  C10 UNL     1      -4.353  48.537 -26.408  1.00  0.00    -0.007 C 
ENDROOT
BRANCH   1   3
HETATM    3  C8  UNL     1      -3.388  48.742 -24.171  1.00  0.00    -0.002 C 
HETATM    4  C7  UNL     1      -4.374  48.209 -23.429  1.00  0.00     0.005 C 
BRANCH   4   5
HETATM    5  C6  UNL     1      -4.525  48.338 -21.932  1.00  0.00     0.144 C 
BRANCH   5   6
HETATM    6  C4  UNL     1      -4.928  49.770 -21.509  1.00  0.00     0.016 C 
HETATM    7  C5  UNL     1      -6.439  49.991 -21.396  1.00  0.00     0.013 C 
BRANCH   6   8
HETATM    8  C3  UNL     1      -4.143  50.300 -20.281  1.00  0.00     0.042 C 
BRANCH   8   9
HETATM    9  C2  UNL     1      -2.959  51.294 -20.437  1.00  0.00     0.159 C 
BRANCH   9  10
HETATM   10  O1  UNL     1      -2.252  51.075 -21.652  1.00  0.00    -0.388 OA
HETATM   11  C1  UNL     1      -2.509  52.065 -22.646  1.00  0.00     0.202 C 
ENDBRANCH   9  10
BRANCH   9  12
HETATM   12  C28 UNL     1      -1.991  51.235 -19.208  1.00  0.00     0.133 C 
HETATM   13  C29 UNL     1      -0.735  52.172 -19.240  1.00  0.00     0.114 C 
HETATM   14  C30 UNL     1       0.208  52.113 -20.436  1.00  0.00     0.023 C 
HETATM   15  C31 UNL     1       0.061  51.655 -18.057  1.00  0.00     0.227 C 
HETATM   16  O8  UNL     1       0.861  52.295 -17.397  1.00  0.00    -0.273 OA
HETATM   17  N3  UNL     1      -0.271  50.319 -17.888  1.00  0.00    -0.332 N 
HETATM   18  C32 UNL     1       0.163  49.582 -16.723  1.00  0.00     0.154 C 
HETATM   19  C33 UNL     1      -1.393  49.869 -18.800  1.00  0.00     0.183 A 
HETATM   20  C34 UNL     1      -2.364  48.818 -18.186  1.00  0.00     0.294 A 
HETATM   21  C35 UNL     1      -0.961  48.631 -19.672  1.00  0.00     0.169 A 
HETATM   22  O9  UNL     1      -3.168  48.766 -17.282  1.00  0.00    -0.262 OA
HETATM   23  O10 UNL     1      -1.973  47.813 -19.008  1.00  0.00    -0.311 OA
HETATM   24  C36 UNL     1      -1.064  48.455 -21.171  1.00  0.00     0.043 C 
BRANCH  12  25
HETATM   25  O7  UNL     1      -2.802  51.746 -18.099  1.00  0.00    -0.383 OA
HETATM   26  H42 UNL     1      -2.376  51.528 -17.250  1.00  0.00     0.210 HD
ENDBRANCH  12  25
ENDBRANCH   9  12
ENDBRANCH   8   9
ENDBRANCH   6   8
ENDBRANCH   5   6
BRANCH   5  27
HETATM   27  O2  UNL     1      -5.457  47.380 -21.450  1.00  0.00    -0.391 OA
HETATM   28  H12 UNL     1      -5.072  46.504 -21.634  1.00  0.00     0.210 HD
ENDBRANCH   5  27
ENDBRANCH   4   5
ENDBRANCH   1   3
BRANCH   2  29
HETATM   29  C11 UNL     1      -4.390  48.375 -27.897  1.00  0.00     0.149 C 
BRANCH  29  30
HETATM   30  N1  UNL     1      -5.568  47.661 -28.330  1.00  0.00    -0.357 N 
HETATM   31  C12 UNL     1      -5.733  47.358 -29.666  1.00  0.00     0.228 C 
HETATM   32  O3  UNL     1      -4.830  47.541 -30.484  1.00  0.00    -0.273 OA
HETATM   33  H19 UNL     1      -6.388  47.752 -27.751  1.00  0.00     0.162 HD
BRANCH  31  34
HETATM   34  C13 UNL     1      -7.055  46.672 -30.054  1.00  0.00     0.063 C 
HETATM   35  C14 UNL     1      -7.342  45.433 -29.184  1.00  0.00     0.028 C 
HETATM   36  C15 UNL     1      -6.883  46.220 -31.521  1.00  0.00     0.028 C 
BRANCH  34  37
HETATM   37  C16 UNL     1      -8.268  47.665 -29.970  1.00  0.00     0.164 C 
BRANCH  37  38
HETATM   38  O4  UNL     1      -7.858  49.033 -30.028  1.00  0.00    -0.390 OA
HETATM   39  H27 UNL     1      -7.159  49.150 -29.352  1.00  0.00     0.210 HD
ENDBRANCH  37  38
BRANCH  37  40
HETATM   40  C17 UNL     1      -9.247  47.496 -28.810  1.00  0.00    -0.054 C 
HETATM   41  C18 UNL     1      -8.958  48.284 -27.554  1.00  0.00     0.046 C 
HETATM   42  C19 UNL     1     -10.362  46.729 -28.827  1.00  0.00     0.005 C 
BRANCH  42  43
HETATM   43  C20 UNL     1     -10.862  45.903 -29.906  1.00  0.00     0.000 C 
HETATM   44  C21 UNL     1     -11.968  45.139 -29.900  1.00  0.00     0.000 C 
BRANCH  44  45
HETATM   45  C22 UNL     1     -12.918  44.965 -28.819  1.00  0.00     0.001 C 
HETATM   46  C23 UNL     1     -13.999  45.752 -28.667  1.00  0.00     0.009 C 
BRANCH  46  47
HETATM   47  C24 UNL     1     -15.003  45.648 -27.597  1.00  0.00    -0.034 C 
HETATM   48  C25 UNL     1     -14.703  46.435 -26.334  1.00  0.00     0.050 C 
HETATM   49  C26 UNL     1     -16.099  44.866 -27.754  1.00  0.00     0.082 C 
HETATM   50  C27 UNL     1     -16.578  44.035 -28.896  1.00  0.00     0.075 C 
BRANCH  49  51
HETATM   51  N2  UNL     1     -17.046  44.824 -26.659  1.00  0.00    -0.120 N 
HETATM   52  O5  UNL     1     -16.793  44.052 -25.725  1.00  0.00    -0.532 OA
HETATM   53  O6  UNL     1     -18.022  45.581 -26.738  1.00  0.00    -0.532 OA
ENDBRANCH  49  51
ENDBRANCH  46  47
ENDBRANCH  44  45
ENDBRANCH  42  43
ENDBRANCH  37  40
ENDBRANCH  34  37
ENDBRANCH  31  34
ENDBRANCH  29  30
ENDBRANCH   2  29
TORSDOF 19
ENDMDL
MODEL 5
REMARK minimizedAffinity -8.63917542
REMARK CNNscore 0.21236977
REMARK CNNaffinity 7.11099291
REMARK  19 active torsions:
REMARK  status: ('A' for Active; 'I' for Inactive)
REMARK    1  A    between atoms: O1_2  and  C2_3 
REMARK    2  A    between atoms: C2_3  and  C3_4 
REMARK    3  A    between atoms: C2_3  and  C28_36 
REMARK    4  A    between atoms: C3_4  and  C4_5 
REMARK    5  A    between atoms: C4_5  and  C6_7 
REMARK    6  A    between atoms: C6_7  and  O2_8 
REMARK    7  A    between atoms: C6_7  and  C7_9 
REMARK    8  A    between atoms: C8_10  and  C9_11 
REMARK    9  A    between atoms: C10_12  and  C11_13 
REMARK   10  A    between atoms: C11_13  and  N1_14 
REMARK       I    between atoms: N1_14  and  C12_15 
REMARK   11  A    between atoms: C12_15  and  C13_17 
REMARK   12  A    between atoms: C13_17  and  C16_20 
REMARK   13  A    between atoms: C16_20  and  O4_21 
REMARK   14  A    between atoms: C16_20  and  C17_22 
REMARK   15  A    between atoms: C19_24  and  C20_25 
REMARK   16  A    between atoms: C21_26  and  C22_27 
REMARK   17  A    between atoms: C23_28  and  C24_29 
REMARK   18  A    between atoms: C26_31  and  N2_33 
REMARK   19  A    between atoms: C28_36  and  O7_37 
ROOT
HETATM    1  C9  UNL     1      -3.440  50.886 -25.127  1.00  0.00    -0.003 C 
HETATM    2  C10 UNL     1      -4.605  51.263 -24.571  1.00  0.00    -0.007 C 
ENDROOT
BRANCH   1   3
HETATM    3  C8  UNL     1      -3.330  50.528 -26.523  1.00  0.00    -0.002 C 
HETATM    4  C7  UNL     1      -3.807  49.378 -27.028  1.00  0.00     0.005 C 
BRANCH   4   5
HETATM    5  C6  UNL     1      -3.759  48.961 -28.479  1.00  0.00     0.144 C 
BRANCH   5   6
HETATM    6  C4  UNL     1      -4.946  48.047 -28.864  1.00  0.00     0.016 C 
HETATM    7  C5  UNL     1      -5.975  47.849 -27.747  1.00  0.00     0.013 C 
BRANCH   6   8
HETATM    8  C3  UNL     1      -5.591  48.406 -30.227  1.00  0.00     0.042 C 
BRANCH   8   9
HETATM    9  C2  UNL     1      -6.830  47.643 -30.770  1.00  0.00     0.159 C 
BRANCH   9  10
HETATM   10  O1  UNL     1      -7.887  47.623 -29.817  1.00  0.00    -0.388 OA
HETATM   11  C1  UNL     1      -8.844  48.664 -30.005  1.00  0.00     0.202 C 
ENDBRANCH   9  10
BRANCH   9  12
HETATM   12  C28 UNL     1      -6.461  46.192 -31.226  1.00  0.00     0.133 C 
HETATM   13  C29 UNL     1      -5.011  45.963 -31.778  1.00  0.00     0.114 C 
HETATM   14  C30 UNL     1      -4.503  46.834 -32.921  1.00  0.00     0.023 C 
HETATM   15  C31 UNL     1      -5.119  44.559 -32.341  1.00  0.00     0.227 C 
HETATM   16  O8  UNL     1      -4.201  43.768 -32.472  1.00  0.00    -0.273 OA
HETATM   17  N3  UNL     1      -6.442  44.358 -32.701  1.00  0.00    -0.332 N 
HETATM   18  C32 UNL     1      -6.923  43.050 -33.088  1.00  0.00     0.154 C 
HETATM   19  C33 UNL     1      -7.348  45.499 -32.286  1.00  0.00     0.183 A 
HETATM   20  C34 UNL     1      -8.784  45.082 -31.854  1.00  0.00     0.294 A 
HETATM   21  C35 UNL     1      -8.131  46.087 -33.519  1.00  0.00     0.169 A 
HETATM   22  O9  UNL     1      -9.298  44.439 -30.965  1.00  0.00    -0.262 OA
HETATM   23  O10 UNL     1      -9.392  45.657 -32.921  1.00  0.00    -0.311 OA
HETATM   24  C36 UNL     1      -8.240  47.530 -33.962  1.00  0.00     0.043 C 
BRANCH  12  25
HETATM   25  O7  UNL     1      -6.509  45.412 -29.987  1.00  0.00    -0.383 OA
HETATM   26  H42 UNL     1      -6.529  44.460 -30.195  1.00  0.00     0.210 HD
ENDBRANCH  12  25
ENDBRANCH   9  12
ENDBRANCH   8   9
ENDBRANCH   6   8
ENDBRANCH   5   6
BRANCH   5  27
HETATM   27  O2  UNL     1      -3.703  50.108 -29.316  1.00  0.00    -0.391 OA
HETATM   28  H12 UNL     1      -2.865  50.560 -29.109  1.00  0.00     0.210 HD
ENDBRANCH   5  27
ENDBRANCH   4   5
ENDBRANCH   1   3
BRANCH   2  29
HETATM   29  C11 UNL     1      -4.873  51.635 -23.145  1.00  0.00     0.149 C 
BRANCH  29  30
HETATM   30  N1  UNL     1      -4.961  50.472 -22.293  1.00  0.00    -0.357 N 
HETATM   31  C12 UNL     1      -4.247  50.431 -21.113  1.00  0.00     0.228 C 
HETATM   32  O3  UNL     1      -3.656  51.423 -20.684  1.00  0.00    -0.273 OA
HETATM   33  H19 UNL     1      -5.201  49.602 -22.744  1.00  0.00     0.162 HD
BRANCH  31  34
HETATM   34  C13 UNL     1      -4.331  49.121 -20.309  1.00  0.00     0.063 C 
HETATM   35  C14 UNL     1      -4.970  47.980 -21.123  1.00  0.00     0.028 C 
HETATM   36  C15 UNL     1      -5.231  49.429 -19.092  1.00  0.00     0.028 C 
BRANCH  34  37
HETATM   37  C16 UNL     1      -2.918  48.670 -19.791  1.00  0.00     0.164 C 
BRANCH  37  38
HETATM   38  O4  UNL     1      -2.336  49.620 -18.896  1.00  0.00    -0.390 OA
HETATM   39  H27 UNL     1      -2.373  50.491 -19.341  1.00  0.00     0.210 HD
ENDBRANCH  37  38
BRANCH  37  40
HETATM   40  C17 UNL     1      -1.873  48.274 -20.832  1.00  0.00    -0.054 C 
HETATM   41  C18 UNL     1      -2.051  46.930 -21.500  1.00  0.00     0.046 C 
HETATM   42  C19 UNL     1      -0.827  49.036 -21.226  1.00  0.00     0.005 C 
BRANCH  42  43
HETATM   43  C20 UNL     1      -0.455  50.356 -20.756  1.00  0.00     0.000 C 
HETATM   44  C21 UNL     1      -0.330  51.475 -21.490  1.00  0.00     0.000 C 
BRANCH  44  45
HETATM   45  C22 UNL     1      -0.539  51.627 -22.917  1.00  0.00     0.001 C 
HETATM   46  C23 UNL     1       0.412  52.093 -23.745  1.00  0.00     0.009 C 
BRANCH  46  47
HETATM   47  C24 UNL     1       0.278  52.284 -25.198  1.00  0.00    -0.034 C 
HETATM   48  C25 UNL     1       0.231  51.014 -26.028  1.00  0.00     0.050 C 
HETATM   49  C26 UNL     1       0.231  53.531 -25.728  1.00  0.00     0.082 C 
HETATM   50  C27 UNL     1       0.251  54.884 -25.100  1.00  0.00     0.075 C 
BRANCH  49  51
HETATM   51  N2  UNL     1       0.088  53.637 -27.165  1.00  0.00    -0.120 N 
HETATM   52  O5  UNL     1       0.630  52.760 -27.851  1.00  0.00    -0.532 OA
HETATM   53  O6  UNL     1      -0.584  54.584 -27.589  1.00  0.00    -0.532 OA
ENDBRANCH  49  51
ENDBRANCH  46  47
ENDBRANCH  44  45
ENDBRANCH  42  43
ENDBRANCH  37  40
ENDBRANCH  34  37
ENDBRANCH  31  34
ENDBRANCH  29  30
ENDBRANCH   2  29
TORSDOF 19
ENDMDL
MODEL 6
REMARK minimizedAffinity -8.27018929
REMARK CNNscore 0.206110567
REMARK CNNaffinity 6.10565567
REMARK  19 active torsions:
REMARK  status: ('A' for Active; 'I' for Inactive)
REMARK    1  A    between atoms: O1_2  and  C2_3 
REMARK    2  A    between atoms: C2_3  and  C3_4 
REMARK    3  A    between atoms: C2_3  and  C28_36 
REMARK    4  A    between atoms: C3_4  and  C4_5 
REMARK    5  A    between atoms: C4_5  and  C6_7 
REMARK    6  A    between atoms: C6_7  and  O2_8 
REMARK    7  A    between atoms: C6_7  and  C7_9 
REMARK    8  A    between atoms: C8_10  and  C9_11 
REMARK    9  A    between atoms: C10_12  and  C11_13 
REMARK   10  A    between atoms: C11_13  and  N1_14 
REMARK       I    between atoms: N1_14  and  C12_15 
REMARK   11  A    between atoms: C12_15  and  C13_17 
REMARK   12  A    between atoms: C13_17  and  C16_20 
REMARK   13  A    between atoms: C16_20  and  O4_21 
REMARK   14  A    between atoms: C16_20  and  C17_22 
REMARK   15  A    between atoms: C19_24  and  C20_25 
REMARK   16  A    between atoms: C21_26  and  C22_27 
REMARK   17  A    between atoms: C23_28  and  C24_29 
REMARK   18  A    between atoms: C26_31  and  N2_33 
REMARK   19  A    between atoms: C28_36  and  O7_37 
ROOT
HETATM    1  C9  UNL     1      -3.825  48.422 -26.661  1.00  0.00    -0.003 C 
HETATM    2  C10 UNL     1      -4.514  48.485 -27.814  1.00  0.00    -0.007 C 
ENDROOT
BRANCH   1   3
HETATM    3  C8  UNL     1      -2.583  49.135 -26.462  1.00  0.00    -0.002 C 
HETATM    4  C7  UNL     1      -2.509  50.474 -26.373  1.00  0.00     0.005 C 
BRANCH   4   5
HETATM    5  C6  UNL     1      -1.253  51.276 -26.129  1.00  0.00     0.144 C 
BRANCH   5   6
HETATM    6  C4  UNL     1      -0.952  51.444 -24.621  1.00  0.00     0.016 C 
HETATM    7  C5  UNL     1       0.113  52.498 -24.305  1.00  0.00     0.013 C 
BRANCH   6   8
HETATM    8  C3  UNL     1      -2.223  51.582 -23.744  1.00  0.00     0.042 C 
BRANCH   8   9
HETATM    9  C2  UNL     1      -2.757  50.400 -22.888  1.00  0.00     0.159 C 
BRANCH   9  10
HETATM   10  O1  UNL     1      -4.065  50.015 -23.293  1.00  0.00    -0.388 OA
HETATM   11  C1  UNL     1      -4.789  51.055 -23.948  1.00  0.00     0.202 C 
ENDBRANCH   9  10
BRANCH   9  12
HETATM   12  C28 UNL     1      -2.718  50.732 -21.359  1.00  0.00     0.133 C 
HETATM   13  C29 UNL     1      -1.403  51.379 -20.800  1.00  0.00     0.114 C 
HETATM   14  C30 UNL     1      -0.068  50.685 -21.046  1.00  0.00     0.023 C 
HETATM   15  C31 UNL     1      -1.641  51.306 -19.304  1.00  0.00     0.227 C 
HETATM   16  O8  UNL     1      -1.157  52.046 -18.465  1.00  0.00    -0.273 OA
HETATM   17  N3  UNL     1      -2.484  50.230 -19.072  1.00  0.00    -0.332 N 
HETATM   18  C32 UNL     1      -3.066  50.003 -17.768  1.00  0.00     0.154 C 
HETATM   19  C33 UNL     1      -3.003  49.599 -20.347  1.00  0.00     0.183 A 
HETATM   20  C34 UNL     1      -4.460  49.056 -20.272  1.00  0.00     0.294 A 
HETATM   21  C35 UNL     1      -2.670  48.060 -20.401  1.00  0.00     0.169 A 
HETATM   22  O9  UNL     1      -5.574  49.507 -20.122  1.00  0.00    -0.262 OA
HETATM   23  O10 UNL     1      -4.098  47.753 -20.373  1.00  0.00    -0.311 OA
HETATM   24  C36 UNL     1      -2.001  47.282 -21.513  1.00  0.00     0.043 C 
BRANCH  12  25
HETATM   25  O7  UNL     1      -3.736  51.774 -21.201  1.00  0.00    -0.383 OA
HETATM   26  H42 UNL     1      -3.958  51.879 -20.258  1.00  0.00     0.210 HD
ENDBRANCH  12  25
ENDBRANCH   9  12
ENDBRANCH   8   9
ENDBRANCH   6   8
ENDBRANCH   5   6
BRANCH   5  27
HETATM   27  O2  UNL     1      -0.154  50.682 -26.807  1.00  0.00    -0.391 OA
HETATM   28  H12 UNL     1      -0.357  50.733 -27.758  1.00  0.00     0.210 HD
ENDBRANCH   5  27
ENDBRANCH   4   5
ENDBRANCH   1   3
BRANCH   2  29
HETATM   29  C11 UNL     1      -5.791  47.787 -28.169  1.00  0.00     0.149 C 
BRANCH  29  30
HETATM   30  N1  UNL     1      -6.724  47.781 -27.067  1.00  0.00    -0.357 N 
HETATM   31  C12 UNL     1      -8.069  47.588 -27.308  1.00  0.00     0.228 C 
HETATM   32  O3  UNL     1      -8.483  47.263 -28.422  1.00  0.00    -0.273 OA
HETATM   33  H19 UNL     1      -6.450  48.294 -26.243  1.00  0.00     0.162 HD
BRANCH  31  34
HETATM   34  C13 UNL     1      -9.004  47.682 -26.089  1.00  0.00     0.063 C 
HETATM   35  C14 UNL     1      -8.606  48.829 -25.140  1.00  0.00     0.028 C 
HETATM   36  C15 UNL     1      -8.855  46.341 -25.337  1.00  0.00     0.028 C 
BRANCH  34  37
HETATM   37  C16 UNL     1     -10.503  47.855 -26.522  1.00  0.00     0.164 C 
BRANCH  37  38
HETATM   38  O4  UNL     1     -11.011  49.156 -26.222  1.00  0.00    -0.390 OA
HETATM   39  H27 UNL     1     -10.813  49.330 -25.279  1.00  0.00     0.210 HD
ENDBRANCH  37  38
BRANCH  37  40
HETATM   40  C17 UNL     1     -11.508  46.813 -26.034  1.00  0.00    -0.054 C 
HETATM   41  C18 UNL     1     -11.849  46.831 -24.562  1.00  0.00     0.046 C 
HETATM   42  C19 UNL     1     -12.139  45.904 -26.812  1.00  0.00     0.005 C 
BRANCH  42  43
HETATM   43  C20 UNL     1     -12.001  45.700 -28.240  1.00  0.00     0.000 C 
HETATM   44  C21 UNL     1     -12.986  45.504 -29.133  1.00  0.00     0.000 C 
BRANCH  44  45
HETATM   45  C22 UNL     1     -14.413  45.455 -28.881  1.00  0.00     0.001 C 
HETATM   46  C23 UNL     1     -15.004  44.427 -28.245  1.00  0.00     0.009 C 
BRANCH  46  47
HETATM   47  C24 UNL     1     -16.440  44.296 -27.958  1.00  0.00    -0.034 C 
HETATM   48  C25 UNL     1     -17.277  43.662 -29.056  1.00  0.00     0.050 C 
HETATM   49  C26 UNL     1     -16.954  44.750 -26.789  1.00  0.00     0.082 C 
HETATM   50  C27 UNL     1     -16.317  45.382 -25.597  1.00  0.00     0.075 C 
BRANCH  49  51
HETATM   51  N2  UNL     1     -18.376  44.576 -26.576  1.00  0.00    -0.120 N 
HETATM   52  O5  UNL     1     -18.742  43.512 -26.060  1.00  0.00    -0.532 OA
HETATM   53  O6  UNL     1     -19.108  45.516 -26.907  1.00  0.00    -0.532 OA
ENDBRANCH  49  51
ENDBRANCH  46  47
ENDBRANCH  44  45
ENDBRANCH  42  43
ENDBRANCH  37  40
ENDBRANCH  34  37
ENDBRANCH  31  34
ENDBRANCH  29  30
ENDBRANCH   2  29
TORSDOF 19
ENDMDL
MODEL 7
REMARK minimizedAffinity -8.76979446
REMARK CNNscore 0.20528771
REMARK CNNaffinity 6.21302938
REMARK  19 active torsions:
REMARK  status: ('A' for Active; 'I' for Inactive)
REMARK    1  A    between atoms: O1_2  and  C2_3 
REMARK    2  A    between atoms: C2_3  and  C3_4 
REMARK    3  A    between atoms: C2_3  and  C28_36 
REMARK    4  A    between atoms: C3_4  and  C4_5 
REMARK    5  A    between atoms: C4_5  and  C6_7 
REMARK    6  A    between atoms: C6_7  and  O2_8 
REMARK    7  A    between atoms: C6_7  and  C7_9 
REMARK    8  A    between atoms: C8_10  and  C9_11 
REMARK    9  A    between atoms: C10_12  and  C11_13 
REMARK   10  A    between atoms: C11_13  and  N1_14 
REMARK       I    between atoms: N1_14  and  C12_15 
REMARK   11  A    between atoms: C12_15  and  C13_17 
REMARK   12  A    between atoms: C13_17  and  C16_20 
REMARK   13  A    between atoms: C16_20  and  O4_21 
REMARK   14  A    between atoms: C16_20  and  C17_22 
REMARK   15  A    between atoms: C19_24  and  C20_25 
REMARK   16  A    between atoms: C21_26  and  C22_27 
REMARK   17  A    between atoms: C23_28  and  C24_29 
REMARK   18  A    between atoms: C26_31  and  N2_33 
REMARK   19  A    between atoms: C28_36  and  O7_37 
ROOT
HETATM    1  C9  UNL     1      -4.054  48.417 -26.874  1.00  0.00    -0.003 C 
HETATM    2  C10 UNL     1      -4.601  48.397 -28.102  1.00  0.00    -0.007 C 
ENDROOT
BRANCH   1   3
HETATM    3  C8  UNL     1      -2.770  49.026 -26.609  1.00  0.00    -0.002 C 
HETATM    4  C7  UNL     1      -2.616  50.336 -26.347  1.00  0.00     0.005 C 
BRANCH   4   5
HETATM    5  C6  UNL     1      -1.313  51.027 -26.026  1.00  0.00     0.144 C 
BRANCH   5   6
HETATM    6  C4  UNL     1      -1.069  51.135 -24.502  1.00  0.00     0.016 C 
HETATM    7  C5  UNL     1       0.121  52.018 -24.116  1.00  0.00     0.013 C 
BRANCH   6   8
HETATM    8  C3  UNL     1      -2.350  51.451 -23.688  1.00  0.00     0.042 C 
BRANCH   8   9
HETATM    9  C2  UNL     1      -3.272  50.323 -23.147  1.00  0.00     0.159 C 
BRANCH   9  10
HETATM   10  O1  UNL     1      -4.496  50.260 -23.870  1.00  0.00    -0.388 OA
HETATM   11  C1  UNL     1      -5.546  51.023 -23.280  1.00  0.00     0.202 C 
ENDBRANCH   9  10
BRANCH   9  12
HETATM   12  C28 UNL     1      -3.535  50.481 -21.613  1.00  0.00     0.133 C 
HETATM   13  C29 UNL     1      -2.546  51.391 -20.806  1.00  0.00     0.114 C 
HETATM   14  C30 UNL     1      -1.049  51.116 -20.882  1.00  0.00     0.023 C 
HETATM   15  C31 UNL     1      -2.953  51.091 -19.376  1.00  0.00     0.227 C 
HETATM   16  O8  UNL     1      -2.816  51.836 -18.421  1.00  0.00    -0.273 OA
HETATM   17  N3  UNL     1      -3.480  49.809 -19.358  1.00  0.00    -0.332 N 
HETATM   18  C32 UNL     1      -4.145  49.290 -18.183  1.00  0.00     0.154 C 
HETATM   19  C33 UNL     1      -3.621  49.207 -20.740  1.00  0.00     0.183 A 
HETATM   20  C34 UNL     1      -4.861  48.287 -20.938  1.00  0.00     0.294 A 
HETATM   21  C35 UNL     1      -2.863  47.831 -20.846  1.00  0.00     0.169 A 
HETATM   22  O9  UNL     1      -6.067  48.401 -20.938  1.00  0.00    -0.262 OA
HETATM   23  O10 UNL     1      -4.135  47.150 -21.070  1.00  0.00    -0.311 OA
HETATM   24  C36 UNL     1      -1.856  47.391 -21.888  1.00  0.00     0.043 C 
BRANCH  12  25
HETATM   25  O7  UNL     1      -4.818  51.185 -21.548  1.00  0.00    -0.383 OA
HETATM   26  H42 UNL     1      -5.187  51.121 -20.648  1.00  0.00     0.210 HD
ENDBRANCH  12  25
ENDBRANCH   9  12
ENDBRANCH   8   9
ENDBRANCH   6   8
ENDBRANCH   5   6
BRANCH   5  27
HETATM   27  O2  UNL     1      -0.235  50.361 -26.671  1.00  0.00    -0.391 OA
HETATM   28  H12 UNL     1      -0.389  50.450 -27.629  1.00  0.00     0.210 HD
ENDBRANCH   5  27
ENDBRANCH   4   5
ENDBRANCH   1   3
BRANCH   2  29
HETATM   29  C11 UNL     1      -5.902  47.786 -28.526  1.00  0.00     0.149 C 
BRANCH  29  30
HETATM   30  N1  UNL     1      -5.761  47.012 -29.738  1.00  0.00    -0.357 N 
HETATM   31  C12 UNL     1      -6.211  47.528 -30.936  1.00  0.00     0.228 C 
HETATM   32  O3  UNL     1      -6.589  48.696 -31.032  1.00  0.00    -0.273 OA
HETATM   33  H19 UNL     1      -5.716  46.011 -29.629  1.00  0.00     0.162 HD
BRANCH  31  34
HETATM   34  C13 UNL     1      -6.101  46.604 -32.162  1.00  0.00     0.063 C 
HETATM   35  C14 UNL     1      -4.976  45.562 -32.005  1.00  0.00     0.028 C 
HETATM   36  C15 UNL     1      -5.762  47.525 -33.356  1.00  0.00     0.028 C 
BRANCH  34  37
HETATM   37  C16 UNL     1      -7.458  45.872 -32.458  1.00  0.00     0.164 C 
BRANCH  37  38
HETATM   38  O4  UNL     1      -7.319  44.842 -33.439  1.00  0.00    -0.390 OA
HETATM   39  H27 UNL     1      -6.870  45.243 -34.212  1.00  0.00     0.210 HD
ENDBRANCH  37  38
BRANCH  37  40
HETATM   40  C17 UNL     1      -8.667  46.733 -32.819  1.00  0.00    -0.054 C 
HETATM   41  C18 UNL     1      -9.455  47.318 -31.670  1.00  0.00     0.046 C 
HETATM   42  C19 UNL     1      -9.067  47.041 -34.074  1.00  0.00     0.005 C 
BRANCH  42  43
HETATM   43  C20 UNL     1      -8.473  46.625 -35.329  1.00  0.00     0.000 C 
HETATM   44  C21 UNL     1      -8.904  46.915 -36.569  1.00  0.00     0.000 C 
BRANCH  44  45
HETATM   45  C22 UNL     1     -10.057  47.711 -36.941  1.00  0.00     0.001 C 
HETATM   46  C23 UNL     1     -11.198  47.167 -37.401  1.00  0.00     0.009 C 
BRANCH  46  47
HETATM   47  C24 UNL     1     -12.406  47.902 -37.807  1.00  0.00    -0.034 C 
HETATM   48  C25 UNL     1     -13.477  48.050 -36.741  1.00  0.00     0.050 C 
HETATM   49  C26 UNL     1     -12.532  48.378 -39.069  1.00  0.00     0.082 C 
HETATM   50  C27 UNL     1     -11.611  48.350 -40.244  1.00  0.00     0.075 C 
BRANCH  49  51
HETATM   51  N2  UNL     1     -13.746  49.100 -39.390  1.00  0.00    -0.120 N 
HETATM   52  O5  UNL     1     -13.752  50.318 -39.169  1.00  0.00    -0.532 OA
HETATM   53  O6  UNL     1     -14.672  48.441 -39.879  1.00  0.00    -0.532 OA
ENDBRANCH  49  51
ENDBRANCH  46  47
ENDBRANCH  44  45
ENDBRANCH  42  43
ENDBRANCH  37  40
ENDBRANCH  34  37
ENDBRANCH  31  34
ENDBRANCH  29  30
ENDBRANCH   2  29
TORSDOF 19
ENDMDL
MODEL 8
REMARK minimizedAffinity -8.0561285
REMARK CNNscore 0.191237971
REMARK CNNaffinity 6.09314585
REMARK  19 active torsions:
REMARK  status: ('A' for Active; 'I' for Inactive)
REMARK    1  A    between atoms: O1_2  and  C2_3 
REMARK    2  A    between atoms: C2_3  and  C3_4 
REMARK    3  A    between atoms: C2_3  and  C28_36 
REMARK    4  A    between atoms: C3_4  and  C4_5 
REMARK    5  A    between atoms: C4_5  and  C6_7 
REMARK    6  A    between atoms: C6_7  and  O2_8 
REMARK    7  A    between atoms: C6_7  and  C7_9 
REMARK    8  A    between atoms: C8_10  and  C9_11 
REMARK    9  A    between atoms: C10_12  and  C11_13 
REMARK   10  A    between atoms: C11_13  and  N1_14 
REMARK       I    between atoms: N1_14  and  C12_15 
REMARK   11  A    between atoms: C12_15  and  C13_17 
REMARK   12  A    between atoms: C13_17  and  C16_20 
REMARK   13  A    between atoms: C16_20  and  O4_21 
REMARK   14  A    between atoms: C16_20  and  C17_22 
REMARK   15  A    between atoms: C19_24  and  C20_25 
REMARK   16  A    between atoms: C21_26  and  C22_27 
REMARK   17  A    between atoms: C23_28  and  C24_29 
REMARK   18  A    between atoms: C26_31  and  N2_33 
REMARK   19  A    between atoms: C28_36  and  O7_37 
ROOT
HETATM    1  C9  UNL     1      -7.448  48.747 -23.835  1.00  0.00    -0.003 C 
HETATM    2  C10 UNL     1      -7.193  47.680 -23.058  1.00  0.00    -0.007 C 
ENDROOT
BRANCH   1   3
HETATM    3  C8  UNL     1      -8.640  48.844 -24.647  1.00  0.00    -0.002 C 
HETATM    4  C7  UNL     1      -8.883  48.041 -25.698  1.00  0.00     0.005 C 
BRANCH   4   5
HETATM    5  C6  UNL     1     -10.122  48.064 -26.562  1.00  0.00     0.144 C 
BRANCH   5   6
HETATM    6  C4  UNL     1     -10.963  46.775 -26.411  1.00  0.00     0.016 C 
HETATM    7  C5  UNL     1     -12.408  47.015 -25.967  1.00  0.00     0.013 C 
BRANCH   6   8
HETATM    8  C3  UNL     1     -10.851  45.814 -27.623  1.00  0.00     0.042 C 
BRANCH   8   9
HETATM    9  C2  UNL     1     -10.696  46.346 -29.074  1.00  0.00     0.159 C 
BRANCH   9  10
HETATM   10  O1  UNL     1     -11.952  46.415 -29.739  1.00  0.00    -0.388 OA
HETATM   11  C1  UNL     1     -12.439  47.746 -29.901  1.00  0.00     0.202 C 
ENDBRANCH   9  10
BRANCH   9  12
HETATM   12  C28 UNL     1      -9.674  45.491 -29.896  1.00  0.00     0.133 C 
HETATM   13  C29 UNL     1      -8.479  44.852 -29.107  1.00  0.00     0.114 C 
HETATM   14  C30 UNL     1      -7.587  45.745 -28.252  1.00  0.00     0.023 C 
HETATM   15  C31 UNL     1      -7.602  44.350 -30.239  1.00  0.00     0.227 C 
HETATM   16  O8  UNL     1      -6.814  43.422 -30.176  1.00  0.00    -0.273 OA
HETATM   17  N3  UNL     1      -7.845  45.157 -31.339  1.00  0.00    -0.332 N 
HETATM   18  C32 UNL     1      -7.316  44.824 -32.643  1.00  0.00     0.154 C 
HETATM   19  C33 UNL     1      -8.977  46.138 -31.115  1.00  0.00     0.183 A 
HETATM   20  C34 UNL     1      -9.854  46.435 -32.366  1.00  0.00     0.294 A 
HETATM   21  C35 UNL     1      -8.509  47.620 -31.369  1.00  0.00     0.169 A 
HETATM   22  O9  UNL     1     -10.613  45.827 -33.089  1.00  0.00    -0.262 OA
HETATM   23  O10 UNL     1      -9.440  47.720 -32.490  1.00  0.00    -0.311 OA
HETATM   24  C36 UNL     1      -8.667  48.824 -30.464  1.00  0.00     0.043 C 
BRANCH  12  25
HETATM   25  O7  UNL     1     -10.464  44.347 -30.356  1.00  0.00    -0.383 OA
HETATM   26  H42 UNL     1      -9.989  43.881 -31.068  1.00  0.00     0.210 HD
ENDBRANCH  12  25
ENDBRANCH   9  12
ENDBRANCH   8   9
ENDBRANCH   6   8
ENDBRANCH   5   6
BRANCH   5  27
HETATM   27  O2  UNL     1     -10.899  49.219 -26.271  1.00  0.00    -0.391 OA
HETATM   28  H12 UNL     1     -10.352  49.987 -26.516  1.00  0.00     0.210 HD
ENDBRANCH   5  27
ENDBRANCH   4   5
ENDBRANCH   1   3
BRANCH   2  29
HETATM   29  C11 UNL     1      -5.998  47.432 -22.189  1.00  0.00     0.149 C 
BRANCH  29  30
HETATM   30  N1  UNL     1      -5.364  48.665 -21.784  1.00  0.00    -0.357 N 
HETATM   31  C12 UNL     1      -4.222  49.093 -22.430  1.00  0.00     0.228 C 
HETATM   32  O3  UNL     1      -3.812  48.535 -23.449  1.00  0.00    -0.273 OA
HETATM   33  H19 UNL     1      -5.519  48.959 -20.832  1.00  0.00     0.162 HD
BRANCH  31  34
HETATM   34  C13 UNL     1      -3.563  50.371 -21.881  1.00  0.00     0.063 C 
HETATM   35  C14 UNL     1      -4.604  51.423 -21.453  1.00  0.00     0.028 C 
HETATM   36  C15 UNL     1      -2.722  50.946 -23.041  1.00  0.00     0.028 C 
BRANCH  34  37
HETATM   37  C16 UNL     1      -2.609  50.055 -20.674  1.00  0.00     0.164 C 
BRANCH  37  38
HETATM   38  O4  UNL     1      -2.439  51.178 -19.805  1.00  0.00    -0.390 OA
HETATM   39  H27 UNL     1      -2.184  51.937 -20.368  1.00  0.00     0.210 HD
ENDBRANCH  37  38
BRANCH  37  40
HETATM   40  C17 UNL     1      -1.235  49.467 -20.988  1.00  0.00    -0.054 C 
HETATM   41  C18 UNL     1      -1.194  48.012 -21.397  1.00  0.00     0.046 C 
HETATM   42  C19 UNL     1      -0.064  50.145 -20.963  1.00  0.00     0.005 C 
BRANCH  42  43
HETATM   43  C20 UNL     1       0.155  51.536 -20.627  1.00  0.00     0.000 C 
HETATM   44  C21 UNL     1       0.051  52.598 -21.446  1.00  0.00     0.000 C 
BRANCH  44  45
HETATM   45  C22 UNL     1      -0.307  52.600 -22.850  1.00  0.00     0.001 C 
HETATM   46  C23 UNL     1       0.598  52.440 -23.832  1.00  0.00     0.009 C 
BRANCH  46  47
HETATM   47  C24 UNL     1       0.319  52.438 -25.276  1.00  0.00    -0.034 C 
HETATM   48  C25 UNL     1       0.184  51.070 -25.920  1.00  0.00     0.050 C 
HETATM   49  C26 UNL     1       0.223  53.604 -25.962  1.00  0.00     0.082 C 
HETATM   50  C27 UNL     1       0.311  55.028 -25.526  1.00  0.00     0.075 C 
BRANCH  49  51
HETATM   51  N2  UNL     1      -0.064  53.520 -27.379  1.00  0.00    -0.120 N 
HETATM   52  O5  UNL     1       0.734  52.882 -28.078  1.00  0.00    -0.532 OA
HETATM   53  O6  UNL     1      -1.097  54.075 -27.771  1.00  0.00    -0.532 OA
ENDBRANCH  49  51
ENDBRANCH  46  47
ENDBRANCH  44  45
ENDBRANCH  42  43
ENDBRANCH  37  40
ENDBRANCH  34  37
ENDBRANCH  31  34
ENDBRANCH  29  30
ENDBRANCH   2  29
TORSDOF 19
ENDMDL
MODEL 9
REMARK minimizedAffinity -8.39573288
REMARK CNNscore 0.180801928
REMARK CNNaffinity 5.46476555
REMARK  19 active torsions:
REMARK  status: ('A' for Active; 'I' for Inactive)
REMARK    1  A    between atoms: O1_2  and  C2_3 
REMARK    2  A    between atoms: C2_3  and  C3_4 
REMARK    3  A    between atoms: C2_3  and  C28_36 
REMARK    4  A    between atoms: C3_4  and  C4_5 
REMARK    5  A    between atoms: C4_5  and  C6_7 
REMARK    6  A    between atoms: C6_7  and  O2_8 
REMARK    7  A    between atoms: C6_7  and  C7_9 
REMARK    8  A    between atoms: C8_10  and  C9_11 
REMARK    9  A    between atoms: C10_12  and  C11_13 
REMARK   10  A    between atoms: C11_13  and  N1_14 
REMARK       I    between atoms: N1_14  and  C12_15 
REMARK   11  A    between atoms: C12_15  and  C13_17 
REMARK   12  A    between atoms: C13_17  and  C16_20 
REMARK   13  A    between atoms: C16_20  and  O4_21 
REMARK   14  A    between atoms: C16_20  and  C17_22 
REMARK   15  A    between atoms: C19_24  and  C20_25 
REMARK   16  A    between atoms: C21_26  and  C22_27 
REMARK   17  A    between atoms: C23_28  and  C24_29 
REMARK   18  A    between atoms: C26_31  and  N2_33 
REMARK   19  A    between atoms: C28_36  and  O7_37 
ROOT
HETATM    1  C9  UNL     1     -10.076  48.080 -19.675  1.00  0.00    -0.003 C 
HETATM    2  C10 UNL     1      -9.139  48.629 -18.881  1.00  0.00    -0.007 C 
ENDROOT
BRANCH   1   3
HETATM    3  C8  UNL     1     -11.480  48.087 -19.332  1.00  0.00    -0.002 C 
HETATM    4  C7  UNL     1     -12.018  47.266 -18.414  1.00  0.00     0.005 C 
BRANCH   4   5
HETATM    5  C6  UNL     1     -13.465  47.248 -17.983  1.00  0.00     0.144 C 
BRANCH   5   6
HETATM    6  C4  UNL     1     -14.148  45.893 -18.285  1.00  0.00     0.016 C 
HETATM    7  C5  UNL     1     -14.488  45.069 -17.041  1.00  0.00     0.013 C 
BRANCH   6   8
HETATM    8  C3  UNL     1     -15.327  46.000 -19.285  1.00  0.00     0.042 C 
BRANCH   8   9
HETATM    9  C2  UNL     1     -15.859  44.759 -20.055  1.00  0.00     0.159 C 
BRANCH   9  10
HETATM   10  O1  UNL     1     -14.856  43.759 -20.187  1.00  0.00    -0.388 OA
HETATM   11  C1  UNL     1     -15.205  42.518 -19.577  1.00  0.00     0.202 C 
ENDBRANCH   9  10
BRANCH   9  12
HETATM   12  C28 UNL     1     -16.443  45.155 -21.452  1.00  0.00     0.133 C 
HETATM   13  C29 UNL     1     -15.560  46.075 -22.363  1.00  0.00     0.114 C 
HETATM   14  C30 UNL     1     -15.042  47.398 -21.809  1.00  0.00     0.023 C 
HETATM   15  C31 UNL     1     -16.535  46.439 -23.466  1.00  0.00     0.227 C 
HETATM   16  O8  UNL     1     -16.243  46.749 -24.608  1.00  0.00    -0.273 OA
HETATM   17  N3  UNL     1     -17.810  46.381 -22.924  1.00  0.00    -0.332 N 
HETATM   18  C32 UNL     1     -18.985  46.480 -23.763  1.00  0.00     0.154 C 
HETATM   19  C33 UNL     1     -17.829  45.839 -21.510  1.00  0.00     0.183 A 
HETATM   20  C34 UNL     1     -19.070  44.973 -21.149  1.00  0.00     0.294 A 
HETATM   21  C35 UNL     1     -18.523  46.848 -20.520  1.00  0.00     0.169 A 
HETATM   22  O9  UNL     1     -19.550  43.914 -21.489  1.00  0.00    -0.262 OA
HETATM   23  O10 UNL     1     -19.580  45.871 -20.271  1.00  0.00    -0.311 OA
HETATM   24  C36 UNL     1     -18.000  47.382 -19.204  1.00  0.00     0.043 C 
BRANCH  12  25
HETATM   25  O7  UNL     1     -16.515  43.883 -22.175  1.00  0.00    -0.383 OA
HETATM   26  H42 UNL     1     -17.083  43.979 -22.961  1.00  0.00     0.210 HD
ENDBRANCH  12  25
ENDBRANCH   9  12
ENDBRANCH   8   9
ENDBRANCH   6   8
ENDBRANCH   5   6
BRANCH   5  27
HETATM   27  O2  UNL     1     -13.569  47.577 -16.604  1.00  0.00    -0.391 OA
HETATM   28  H12 UNL     1     -13.245  48.491 -16.513  1.00  0.00     0.210 HD
ENDBRANCH   5  27
ENDBRANCH   4   5
ENDBRANCH   1   3
BRANCH   2  29
HETATM   29  C11 UNL     1      -7.656  48.674 -19.094  1.00  0.00     0.149 C 
BRANCH  29  30
HETATM   30  N1  UNL     1      -7.292  48.259 -20.428  1.00  0.00    -0.357 N 
HETATM   31  C12 UNL     1      -6.801  49.185 -21.324  1.00  0.00     0.228 C 
HETATM   32  O3  UNL     1      -6.515  50.331 -20.973  1.00  0.00    -0.273 OA
HETATM   33  H19 UNL     1      -7.758  47.439 -20.787  1.00  0.00     0.162 HD
BRANCH  31  34
HETATM   34  C13 UNL     1      -6.519  48.677 -22.749  1.00  0.00     0.063 C 
HETATM   35  C14 UNL     1      -7.792  48.646 -23.617  1.00  0.00     0.028 C 
HETATM   36  C15 UNL     1      -5.993  47.233 -22.587  1.00  0.00     0.028 C 
BRANCH  34  37
HETATM   37  C16 UNL     1      -5.417  49.538 -23.463  1.00  0.00     0.164 C 
BRANCH  37  38
HETATM   38  O4  UNL     1      -5.971  50.634 -24.195  1.00  0.00    -0.390 OA
HETATM   39  H27 UNL     1      -6.670  50.266 -24.773  1.00  0.00     0.210 HD
ENDBRANCH  37  38
BRANCH  37  40
HETATM   40  C17 UNL     1      -4.413  48.811 -24.355  1.00  0.00    -0.054 C 
HETATM   41  C18 UNL     1      -4.887  48.416 -25.735  1.00  0.00     0.046 C 
HETATM   42  C19 UNL     1      -3.133  48.522 -24.026  1.00  0.00     0.005 C 
BRANCH  42  43
HETATM   43  C20 UNL     1      -2.442  48.811 -22.785  1.00  0.00     0.000 C 
HETATM   44  C21 UNL     1      -1.794  49.942 -22.459  1.00  0.00     0.000 C 
BRANCH  44  45
HETATM   45  C22 UNL     1      -1.637  51.137 -23.265  1.00  0.00     0.001 C 
HETATM   46  C23 UNL     1      -0.624  51.299 -24.135  1.00  0.00     0.009 C 
BRANCH  46  47
HETATM   47  C24 UNL     1      -0.388  52.478 -24.981  1.00  0.00    -0.034 C 
HETATM   48  C25 UNL     1       0.445  53.583 -24.355  1.00  0.00     0.050 C 
HETATM   49  C26 UNL     1      -0.921  52.552 -26.225  1.00  0.00     0.082 C 
HETATM   50  C27 UNL     1      -1.744  51.592 -27.018  1.00  0.00     0.075 C 
BRANCH  49  51
HETATM   51  N2  UNL     1      -0.635  53.742 -27.001  1.00  0.00    -0.120 N 
HETATM   52  O5  UNL     1      -1.298  53.914 -28.032  1.00  0.00    -0.532 OA
HETATM   53  O6  UNL     1       0.234  54.501 -26.556  1.00  0.00    -0.532 OA
ENDBRANCH  49  51
ENDBRANCH  46  47
ENDBRANCH  44  45
ENDBRANCH  42  43
ENDBRANCH  37  40
ENDBRANCH  34  37
ENDBRANCH  31  34
ENDBRANCH  29  30
ENDBRANCH   2  29
TORSDOF 19
ENDMDL
