MODEL 1
REMARK minimizedAffinity -6.88258028
REMARK CNNscore 0.490006715
REMARK CNNaffinity 5.57713079
REMARK  4 active torsions:
REMARK  status: ('A' for Active; 'I' for Inactive)
REMARK    1  A    between atoms: C4_4  and  C5_5 
REMARK    2  A    between atoms: C5_5  and  C6_6 
REMARK    3  A    between atoms: C6_6  and  C7_7 
REMARK    4  A    between atoms: C7_7  and  C9_9 
ROOT
HETATM    1  C9  UNL     1      -3.501 -11.930   3.352  1.00  0.00    -0.002 C 
HETATM    2  C10 UNL     1      -2.371 -12.629   4.163  1.00  0.00     0.007 C 
HETATM    3  C11 UNL     1      -2.667 -12.397   5.657  1.00  0.00     0.015 C 
HETATM    4  C12 UNL     1      -4.108 -11.847   5.695  1.00  0.00    -0.013 C 
HETATM    5  C13 UNL     1      -5.046 -13.092   5.653  1.00  0.00     0.021 C 
HETATM    6  C14 UNL     1      -4.539 -11.035   6.908  1.00  0.00    -0.070 C 
HETATM    7  C15 UNL     1      -3.942 -11.117   8.111  1.00  0.00    -0.022 C 
HETATM    8  C16 UNL     1      -4.469 -10.370   9.298  1.00  0.00     0.034 C 
HETATM    9  C17 UNL     1      -6.004 -10.411   9.260  1.00  0.00     0.013 C 
HETATM   10  C18 UNL     1      -6.707  -9.997  10.590  1.00  0.00     0.018 C 
HETATM   11  C19 UNL     1      -6.682 -11.176  11.587  1.00  0.00     0.023 C 
HETATM   12  C20 UNL     1      -6.054  -8.788  11.283  1.00  0.00     0.023 C 
HETATM   13  C21 UNL     1      -8.187  -9.699  10.314  1.00  0.00     0.135 C 
HETATM   14  O1  UNL     1      -8.868  -9.011  11.078  1.00  0.00    -0.297 OA
HETATM   15  C22 UNL     1      -8.833 -10.371   9.119  1.00  0.00     0.080 C 
HETATM   16  C23 UNL     1      -8.024 -10.290   7.819  1.00  0.00     0.017 C 
HETATM   17  C24 UNL     1      -6.583  -9.732   7.966  1.00  0.00    -0.031 C 
HETATM   18  C25 UNL     1      -6.677  -8.185   8.073  1.00  0.00     0.016 C 
HETATM   19  C26 UNL     1      -5.660 -10.014   6.693  1.00  0.00     0.024 C 
HETATM   20  C27 UNL     1      -6.426 -10.195   5.359  1.00  0.00     0.010 C 
HETATM   21  C28 UNL     1      -5.562 -10.483   4.110  1.00  0.00     0.011 C 
HETATM   22  C29 UNL     1      -4.121 -10.951   4.404  1.00  0.00    -0.029 C 
HETATM   23  C30 UNL     1      -3.203  -9.692   4.517  1.00  0.00     0.016 C 
ENDROOT
BRANCH   1  24
HETATM   24  C7  UNL     1      -2.995 -11.375   1.991  1.00  0.00    -0.014 C 
HETATM   25  C8  UNL     1      -1.638 -10.672   2.099  1.00  0.00     0.010 C 
BRANCH  24  26
HETATM   26  C6  UNL     1      -4.034 -10.469   1.274  1.00  0.00     0.008 C 
BRANCH  26  27
HETATM   27  C5  UNL     1      -5.284 -11.126   0.668  1.00  0.00     0.028 C 
BRANCH  27  28
HETATM   28  C4  UNL     1      -5.982 -10.315  -0.384  1.00  0.00    -0.025 C 
HETATM   29  C2  UNL     1      -5.723 -10.298  -1.706  1.00  0.00    -0.091 C 
HETATM   30  C1  UNL     1      -6.535  -9.437  -2.638  1.00  0.00     0.042 C 
HETATM   31  C3  UNL     1      -4.636 -11.087  -2.379  1.00  0.00     0.042 C 
ENDBRANCH  27  28
ENDBRANCH  26  27
ENDBRANCH  24  26
ENDBRANCH   1  24
TORSDOF 4
ENDMDL
MODEL 2
REMARK minimizedAffinity -8.28670502
REMARK CNNscore 0.410462707
REMARK CNNaffinity 7.09213686
REMARK  4 active torsions:
REMARK  status: ('A' for Active; 'I' for Inactive)
REMARK    1  A    between atoms: C4_4  and  C5_5 
REMARK    2  A    between atoms: C5_5  and  C6_6 
REMARK    3  A    between atoms: C6_6  and  C7_7 
REMARK    4  A    between atoms: C7_7  and  C9_9 
ROOT
HETATM    1  C9  UNL     1      -5.195   5.549  14.513  1.00  0.00    -0.002 C 
HETATM    2  C10 UNL     1      -4.713   6.616  15.539  1.00  0.00     0.007 C 
HETATM    3  C11 UNL     1      -5.903   7.554  15.819  1.00  0.00     0.015 C 
HETATM    4  C12 UNL     1      -7.124   6.841  15.204  1.00  0.00    -0.013 C 
HETATM    5  C13 UNL     1      -7.614   5.821  16.277  1.00  0.00     0.021 C 
HETATM    6  C14 UNL     1      -8.339   7.679  14.834  1.00  0.00    -0.070 C 
HETATM    7  C15 UNL     1      -8.611   8.879  15.377  1.00  0.00    -0.022 C 
HETATM    8  C16 UNL     1      -9.873   9.618  15.051  1.00  0.00     0.034 C 
HETATM    9  C17 UNL     1     -11.022   8.603  14.954  1.00  0.00     0.013 C 
HETATM   10  C18 UNL     1     -12.453   9.225  14.975  1.00  0.00     0.018 C 
HETATM   11  C19 UNL     1     -12.856   9.570  16.425  1.00  0.00     0.023 C 
HETATM   12  C20 UNL     1     -12.579  10.512  14.140  1.00  0.00     0.023 C 
HETATM   13  C21 UNL     1     -13.469   8.185  14.482  1.00  0.00     0.135 C 
HETATM   14  O1  UNL     1     -14.578   8.510  14.052  1.00  0.00    -0.297 OA
HETATM   15  C22 UNL     1     -13.116   6.720  14.641  1.00  0.00     0.080 C 
HETATM   16  C23 UNL     1     -11.704   6.345  14.178  1.00  0.00     0.017 C 
HETATM   17  C24 UNL     1     -10.779   7.540  13.822  1.00  0.00    -0.031 C 
HETATM   18  C25 UNL     1     -11.173   8.046  12.407  1.00  0.00     0.016 C 
HETATM   19  C26 UNL     1      -9.236   7.139  13.716  1.00  0.00     0.024 C 
HETATM   20  C27 UNL     1      -8.971   5.656  13.359  1.00  0.00     0.010 C 
HETATM   21  C28 UNL     1      -7.487   5.233  13.261  1.00  0.00     0.011 C 
HETATM   22  C29 UNL     1      -6.484   6.207  13.916  1.00  0.00    -0.029 C 
HETATM   23  C30 UNL     1      -6.056   7.269  12.852  1.00  0.00     0.016 C 
ENDROOT
BRANCH   1  24
HETATM   24  C7  UNL     1      -4.057   5.088  13.561  1.00  0.00    -0.014 C 
HETATM   25  C8  UNL     1      -3.320   6.257  12.899  1.00  0.00     0.010 C 
BRANCH  24  26
HETATM   26  C6  UNL     1      -4.527   4.055  12.499  1.00  0.00     0.008 C 
BRANCH  26  27
HETATM   27  C5  UNL     1      -3.769   3.980  11.165  1.00  0.00     0.028 C 
BRANCH  27  28
HETATM   28  C4  UNL     1      -2.969   2.728  10.956  1.00  0.00    -0.025 C 
HETATM   29  C2  UNL     1      -1.647   2.562  11.152  1.00  0.00    -0.091 C 
HETATM   30  C1  UNL     1      -0.996   1.225  10.913  1.00  0.00     0.042 C 
HETATM   31  C3  UNL     1      -0.702   3.642  11.597  1.00  0.00     0.042 C 
ENDBRANCH  27  28
ENDBRANCH  26  27
ENDBRANCH  24  26
ENDBRANCH   1  24
TORSDOF 4
ENDMDL
MODEL 3
REMARK minimizedAffinity -7.6084528
REMARK CNNscore 0.335690528
REMARK CNNaffinity 6.78551531
REMARK  4 active torsions:
REMARK  status: ('A' for Active; 'I' for Inactive)
REMARK    1  A    between atoms: C4_4  and  C5_5 
REMARK    2  A    between atoms: C5_5  and  C6_6 
REMARK    3  A    between atoms: C6_6  and  C7_7 
REMARK    4  A    between atoms: C7_7  and  C9_9 
ROOT
HETATM    1  C9  UNL     1      -7.749   6.379  14.477  1.00  0.00    -0.002 C 
HETATM    2  C10 UNL     1      -7.509   5.475  15.721  1.00  0.00     0.007 C 
HETATM    3  C11 UNL     1      -5.998   5.496  16.020  1.00  0.00     0.015 C 
HETATM    4  C12 UNL     1      -5.438   6.642  15.153  1.00  0.00    -0.013 C 
HETATM    5  C13 UNL     1      -5.666   7.952  15.969  1.00  0.00     0.021 C 
HETATM    6  C14 UNL     1      -3.958   6.621  14.796  1.00  0.00    -0.070 C 
HETATM    7  C15 UNL     1      -3.030   5.954  15.504  1.00  0.00    -0.022 C 
HETATM    8  C16 UNL     1      -1.572   6.047  15.167  1.00  0.00     0.034 C 
HETATM    9  C17 UNL     1      -1.256   7.495  14.763  1.00  0.00     0.013 C 
HETATM   10  C18 UNL     1       0.262   7.852  14.726  1.00  0.00     0.018 C 
HETATM   11  C19 UNL     1       0.775   8.119  16.157  1.00  0.00     0.023 C 
HETATM   12  C20 UNL     1       1.142   6.744  14.117  1.00  0.00     0.023 C 
HETATM   13  C21 UNL     1       0.461   9.158  13.945  1.00  0.00     0.135 C 
HETATM   14  O1  UNL     1       1.549   9.465  13.453  1.00  0.00    -0.297 OA
HETATM   15  C22 UNL     1      -0.699  10.132  13.888  1.00  0.00     0.080 C 
HETATM   16  C23 UNL     1      -2.051   9.502  13.533  1.00  0.00     0.017 C 
HETATM   17  C24 UNL     1      -2.074   7.950  13.500  1.00  0.00    -0.031 C 
HETATM   18  C25 UNL     1      -1.441   7.489  12.158  1.00  0.00     0.016 C 
HETATM   19  C26 UNL     1      -3.549   7.337  13.505  1.00  0.00     0.024 C 
HETATM   20  C27 UNL     1      -4.644   8.268  12.929  1.00  0.00     0.010 C 
HETATM   21  C28 UNL     1      -6.086   7.709  12.933  1.00  0.00     0.011 C 
HETATM   22  C29 UNL     1      -6.315   6.495  13.858  1.00  0.00    -0.029 C 
HETATM   23  C30 UNL     1      -6.012   5.191  13.051  1.00  0.00     0.016 C 
ENDROOT
BRANCH   1  24
HETATM   24  C7  UNL     1      -8.927   5.874  13.598  1.00  0.00    -0.014 C 
HETATM   25  C8  UNL     1      -8.468   5.308  12.250  1.00  0.00     0.010 C 
BRANCH  24  26
HETATM   26  C6  UNL     1     -10.044   6.937  13.402  1.00  0.00     0.008 C 
BRANCH  26  27
HETATM   27  C5  UNL     1     -11.018   7.198  14.561  1.00  0.00     0.028 C 
BRANCH  27  28
HETATM   28  C4  UNL     1     -12.354   6.528  14.432  1.00  0.00    -0.025 C 
HETATM   29  C2  UNL     1     -13.425   6.969  13.744  1.00  0.00    -0.091 C 
HETATM   30  C1  UNL     1     -14.696   6.163  13.699  1.00  0.00     0.042 C 
HETATM   31  C3  UNL     1     -13.485   8.266  12.987  1.00  0.00     0.042 C 
ENDBRANCH  27  28
ENDBRANCH  26  27
ENDBRANCH  24  26
ENDBRANCH   1  24
TORSDOF 4
ENDMDL
MODEL 4
REMARK minimizedAffinity -8.04510689
REMARK CNNscore 0.327887595
REMARK CNNaffinity 6.9222436
REMARK  4 active torsions:
REMARK  status: ('A' for Active; 'I' for Inactive)
REMARK    1  A    between atoms: C4_4  and  C5_5 
REMARK    2  A    between atoms: C5_5  and  C6_6 
REMARK    3  A    between atoms: C6_6  and  C7_7 
REMARK    4  A    between atoms: C7_7  and  C9_9 
ROOT
HETATM    1  C9  UNL     1       2.232   6.908  11.502  1.00  0.00    -0.002 C 
HETATM    2  C10 UNL     1       2.143   5.387  11.179  1.00  0.00     0.007 C 
HETATM    3  C11 UNL     1       0.766   4.894  11.663  1.00  0.00     0.015 C 
HETATM    4  C12 UNL     1      -0.031   6.179  11.966  1.00  0.00    -0.013 C 
HETATM    5  C13 UNL     1      -0.625   6.649  10.602  1.00  0.00     0.021 C 
HETATM    6  C14 UNL     1      -1.206   6.089  12.928  1.00  0.00    -0.070 C 
HETATM    7  C15 UNL     1      -1.867   4.949  13.195  1.00  0.00    -0.022 C 
HETATM    8  C16 UNL     1      -3.080   4.934  14.075  1.00  0.00     0.034 C 
HETATM    9  C17 UNL     1      -3.916   6.187  13.775  1.00  0.00     0.013 C 
HETATM   10  C18 UNL     1      -5.373   6.156  14.333  1.00  0.00     0.018 C 
HETATM   11  C19 UNL     1      -6.273   5.312  13.407  1.00  0.00     0.023 C 
HETATM   12  C20 UNL     1      -5.478   5.563  15.750  1.00  0.00     0.023 C 
HETATM   13  C21 UNL     1      -5.954   7.577  14.322  1.00  0.00     0.135 C 
HETATM   14  O1  UNL     1      -6.911   7.895  15.031  1.00  0.00    -0.297 OA
HETATM   15  C22 UNL     1      -5.389   8.565  13.321  1.00  0.00     0.080 C 
HETATM   16  C23 UNL     1      -3.858   8.617  13.264  1.00  0.00     0.017 C 
HETATM   17  C24 UNL     1      -3.122   7.513  14.069  1.00  0.00    -0.031 C 
HETATM   18  C25 UNL     1      -3.139   7.920  15.568  1.00  0.00     0.016 C 
HETATM   19  C26 UNL     1      -1.578   7.368  13.685  1.00  0.00     0.024 C 
HETATM   20  C27 UNL     1      -0.927   8.650  13.110  1.00  0.00     0.010 C 
HETATM   21  C28 UNL     1       0.564   8.539  12.716  1.00  0.00     0.011 C 
HETATM   22  C29 UNL     1       1.095   7.099  12.561  1.00  0.00    -0.029 C 
HETATM   23  C30 UNL     1       1.620   6.611  13.950  1.00  0.00     0.016 C 
ENDROOT
BRANCH   1  24
HETATM   24  C7  UNL     1       3.680   7.358  11.839  1.00  0.00    -0.014 C 
HETATM   25  C8  UNL     1       3.729   8.535  12.819  1.00  0.00     0.010 C 
BRANCH  24  26
HETATM   26  C6  UNL     1       4.540   7.650  10.578  1.00  0.00     0.008 C 
BRANCH  26  27
HETATM   27  C5  UNL     1       3.947   8.543   9.477  1.00  0.00     0.028 C 
BRANCH  27  28
HETATM   28  C4  UNL     1       3.411   7.809   8.282  1.00  0.00    -0.025 C 
HETATM   29  C2  UNL     1       2.146   7.815   7.821  1.00  0.00    -0.091 C 
HETATM   30  C1  UNL     1       1.773   7.034   6.588  1.00  0.00     0.042 C 
HETATM   31  C3  UNL     1       1.003   8.554   8.457  1.00  0.00     0.042 C 
ENDBRANCH  27  28
ENDBRANCH  26  27
ENDBRANCH  24  26
ENDBRANCH   1  24
TORSDOF 4
ENDMDL
MODEL 5
REMARK minimizedAffinity -8.43445873
REMARK CNNscore 0.325398505
REMARK CNNaffinity 6.81430578
REMARK  4 active torsions:
REMARK  status: ('A' for Active; 'I' for Inactive)
REMARK    1  A    between atoms: C4_4  and  C5_5 
REMARK    2  A    between atoms: C5_5  and  C6_6 
REMARK    3  A    between atoms: C6_6  and  C7_7 
REMARK    4  A    between atoms: C7_7  and  C9_9 
ROOT
HETATM    1  C9  UNL     1       1.633   7.148  13.517  1.00  0.00    -0.002 C 
HETATM    2  C10 UNL     1       1.836   7.388  15.042  1.00  0.00     0.007 C 
HETATM    3  C11 UNL     1       0.440   7.435  15.691  1.00  0.00     0.015 C 
HETATM    4  C12 UNL     1      -0.521   6.915  14.602  1.00  0.00    -0.013 C 
HETATM    5  C13 UNL     1      -0.476   5.358  14.696  1.00  0.00     0.021 C 
HETATM    6  C14 UNL     1      -1.990   7.300  14.692  1.00  0.00    -0.070 C 
HETATM    7  C15 UNL     1      -2.594   7.677  15.832  1.00  0.00    -0.022 C 
HETATM    8  C16 UNL     1      -4.067   7.951  15.885  1.00  0.00     0.034 C 
HETATM    9  C17 UNL     1      -4.787   6.917  15.006  1.00  0.00     0.013 C 
HETATM   10  C18 UNL     1      -6.330   6.829  15.223  1.00  0.00     0.018 C 
HETATM   11  C19 UNL     1      -6.636   5.996  16.486  1.00  0.00     0.023 C 
HETATM   12  C20 UNL     1      -7.008   8.200  15.396  1.00  0.00     0.023 C 
HETATM   13  C21 UNL     1      -6.969   6.079  14.047  1.00  0.00     0.135 C 
HETATM   14  O1  UNL     1      -8.167   6.189  13.777  1.00  0.00    -0.297 OA
HETATM   15  C22 UNL     1      -6.105   5.099  13.279  1.00  0.00     0.080 C 
HETATM   16  C23 UNL     1      -4.724   5.632  12.882  1.00  0.00     0.017 C 
HETATM   17  C24 UNL     1      -4.334   7.000  13.503  1.00  0.00    -0.031 C 
HETATM   18  C25 UNL     1      -5.061   8.115  12.702  1.00  0.00     0.016 C 
HETATM   19  C26 UNL     1      -2.777   7.333  13.378  1.00  0.00     0.024 C 
HETATM   20  C27 UNL     1      -2.055   6.641  12.196  1.00  0.00     0.010 C 
HETATM   21  C28 UNL     1      -0.543   6.932  12.055  1.00  0.00     0.011 C 
HETATM   22  C29 UNL     1       0.128   7.529  13.310  1.00  0.00    -0.029 C 
HETATM   23  C30 UNL     1       0.013   9.086  13.242  1.00  0.00     0.016 C 
ENDROOT
BRANCH   1  24
HETATM   24  C7  UNL     1       2.727   7.840  12.658  1.00  0.00    -0.014 C 
HETATM   25  C8  UNL     1       3.038   9.267  13.121  1.00  0.00     0.010 C 
BRANCH  24  26
HETATM   26  C6  UNL     1       2.422   7.804  11.134  1.00  0.00     0.008 C 
BRANCH  26  27
HETATM   27  C5  UNL     1       2.700   6.506  10.362  1.00  0.00     0.028 C 
BRANCH  27  28
HETATM   28  C4  UNL     1       2.146   6.463   8.968  1.00  0.00    -0.025 C 
HETATM   29  C2  UNL     1       2.356   7.354   7.979  1.00  0.00    -0.091 C 
HETATM   30  C1  UNL     1       1.737   7.154   6.620  1.00  0.00     0.042 C 
HETATM   31  C3  UNL     1       3.180   8.603   8.109  1.00  0.00     0.042 C 
ENDBRANCH  27  28
ENDBRANCH  26  27
ENDBRANCH  24  26
ENDBRANCH   1  24
TORSDOF 4
ENDMDL
MODEL 6
REMARK minimizedAffinity -7.62657118
REMARK CNNscore 0.325304657
REMARK CNNaffinity 6.53837013
REMARK  4 active torsions:
REMARK  status: ('A' for Active; 'I' for Inactive)
REMARK    1  A    between atoms: C4_4  and  C5_5 
REMARK    2  A    between atoms: C5_5  and  C6_6 
REMARK    3  A    between atoms: C6_6  and  C7_7 
REMARK    4  A    between atoms: C7_7  and  C9_9 
ROOT
HETATM    1  C9  UNL     1      -1.902   9.748  15.033  1.00  0.00    -0.002 C 
HETATM    2  C10 UNL     1      -0.743   9.004  14.308  1.00  0.00     0.007 C 
HETATM    3  C11 UNL     1      -1.326   7.703  13.723  1.00  0.00     0.015 C 
HETATM    4  C12 UNL     1      -2.855   7.864  13.845  1.00  0.00    -0.013 C 
HETATM    5  C13 UNL     1      -3.303   8.684  12.595  1.00  0.00     0.021 C 
HETATM    6  C14 UNL     1      -3.715   6.609  13.855  1.00  0.00    -0.070 C 
HETATM    7  C15 UNL     1      -3.318   5.429  13.346  1.00  0.00    -0.022 C 
HETATM    8  C16 UNL     1      -4.241   4.249  13.293  1.00  0.00     0.034 C 
HETATM    9  C17 UNL     1      -5.648   4.746  12.927  1.00  0.00     0.013 C 
HETATM   10  C18 UNL     1      -6.646   3.632  12.483  1.00  0.00     0.018 C 
HETATM   11  C19 UNL     1      -6.380   3.244  11.012  1.00  0.00     0.023 C 
HETATM   12  C20 UNL     1      -6.551   2.347  13.326  1.00  0.00     0.023 C 
HETATM   13  C21 UNL     1      -8.079   4.179  12.532  1.00  0.00     0.135 C 
HETATM   14  O1  UNL     1      -9.059   3.435  12.596  1.00  0.00    -0.297 OA
HETATM   15  C22 UNL     1      -8.269   5.676  12.387  1.00  0.00     0.080 C 
HETATM   16  C23 UNL     1      -7.344   6.531  13.260  1.00  0.00     0.017 C 
HETATM   17  C24 UNL     1      -6.215   5.756  13.991  1.00  0.00    -0.031 C 
HETATM   18  C25 UNL     1      -6.837   5.057  15.231  1.00  0.00     0.016 C 
HETATM   19  C26 UNL     1      -5.066   6.703  14.570  1.00  0.00     0.024 C 
HETATM   20  C27 UNL     1      -5.512   8.153  14.881  1.00  0.00     0.010 C 
HETATM   21  C28 UNL     1      -4.420   9.100  15.430  1.00  0.00     0.011 C 
HETATM   22  C29 UNL     1      -2.970   8.618  15.219  1.00  0.00    -0.029 C 
HETATM   23  C30 UNL     1      -2.556   7.737  16.442  1.00  0.00     0.016 C 
ENDROOT
BRANCH   1  24
HETATM   24  C7  UNL     1      -1.408  10.550  16.269  1.00  0.00    -0.014 C 
HETATM   25  C8  UNL     1      -1.419  12.065  16.043  1.00  0.00     0.010 C 
BRANCH  24  26
HETATM   26  C6  UNL     1      -0.023  10.076  16.793  1.00  0.00     0.008 C 
BRANCH  26  27
HETATM   27  C5  UNL     1       1.027  11.139  17.148  1.00  0.00     0.028 C 
BRANCH  27  28
HETATM   28  C4  UNL     1       1.992  10.745  18.228  1.00  0.00    -0.025 C 
HETATM   29  C2  UNL     1       1.745  10.652  19.549  1.00  0.00    -0.091 C 
HETATM   30  C1  UNL     1       2.825  10.220  20.505  1.00  0.00     0.042 C 
HETATM   31  C3  UNL     1       0.428  10.966  20.200  1.00  0.00     0.042 C 
ENDBRANCH  27  28
ENDBRANCH  26  27
ENDBRANCH  24  26
ENDBRANCH   1  24
TORSDOF 4
ENDMDL
MODEL 7
REMARK minimizedAffinity -6.82841301
REMARK CNNscore 0.316182494
REMARK CNNaffinity 5.47676659
REMARK  4 active torsions:
REMARK  status: ('A' for Active; 'I' for Inactive)
REMARK    1  A    between atoms: C4_4  and  C5_5 
REMARK    2  A    between atoms: C5_5  and  C6_6 
REMARK    3  A    between atoms: C6_6  and  C7_7 
REMARK    4  A    between atoms: C7_7  and  C9_9 
ROOT
HETATM    1  C9  UNL     1       4.030   7.309  11.596  1.00  0.00    -0.002 C 
HETATM    2  C10 UNL     1       4.671   7.912  10.312  1.00  0.00     0.007 C 
HETATM    3  C11 UNL     1       5.790   8.870  10.763  1.00  0.00     0.015 C 
HETATM    4  C12 UNL     1       5.986   8.573  12.264  1.00  0.00    -0.013 C 
HETATM    5  C13 UNL     1       6.943   7.343  12.338  1.00  0.00     0.021 C 
HETATM    6  C14 UNL     1       6.614   9.649  13.137  1.00  0.00    -0.070 C 
HETATM    7  C15 UNL     1       7.391  10.637  12.660  1.00  0.00    -0.022 C 
HETATM    8  C16 UNL     1       8.065  11.614  13.575  1.00  0.00     0.034 C 
HETATM    9  C17 UNL     1       8.559  10.857  14.818  1.00  0.00     0.013 C 
HETATM   10  C18 UNL     1       9.584  11.637  15.700  1.00  0.00     0.018 C 
HETATM   11  C19 UNL     1      10.990  11.553  15.068  1.00  0.00     0.023 C 
HETATM   12  C20 UNL     1       9.241  13.127  15.874  1.00  0.00     0.023 C 
HETATM   13  C21 UNL     1       9.689  10.965  17.076  1.00  0.00     0.135 C 
HETATM   14  O1  UNL     1      10.121  11.564  18.063  1.00  0.00    -0.297 OA
HETATM   15  C22 UNL     1       9.348   9.491  17.171  1.00  0.00     0.080 C 
HETATM   16  C23 UNL     1       8.040   9.087  16.481  1.00  0.00     0.017 C 
HETATM   17  C24 UNL     1       7.377  10.188  15.612  1.00  0.00    -0.031 C 
HETATM   18  C25 UNL     1       6.640  11.171  16.563  1.00  0.00     0.016 C 
HETATM   19  C26 UNL     1       6.252   9.628  14.626  1.00  0.00     0.024 C 
HETATM   20  C27 UNL     1       5.574   8.315  15.089  1.00  0.00     0.010 C 
HETATM   21  C28 UNL     1       4.490   7.739  14.150  1.00  0.00     0.011 C 
HETATM   22  C29 UNL     1       4.504   8.299  12.712  1.00  0.00    -0.029 C 
HETATM   23  C30 UNL     1       3.601   9.573  12.666  1.00  0.00     0.016 C 
ENDROOT
BRANCH   1  24
HETATM   24  C7  UNL     1       2.513   7.020  11.420  1.00  0.00    -0.014 C 
HETATM   25  C8  UNL     1       2.221   5.562  11.050  1.00  0.00     0.010 C 
BRANCH  24  26
HETATM   26  C6  UNL     1       1.815   7.994  10.430  1.00  0.00     0.008 C 
BRANCH  26  27
HETATM   27  C5  UNL     1       2.362   8.101   8.999  1.00  0.00     0.028 C 
BRANCH  27  28
HETATM   28  C4  UNL     1       2.697   6.792   8.346  1.00  0.00    -0.025 C 
HETATM   29  C2  UNL     1       2.397   6.406   7.091  1.00  0.00    -0.091 C 
HETATM   30  C1  UNL     1       2.826   5.056   6.579  1.00  0.00     0.042 C 
HETATM   31  C3  UNL     1       1.623   7.229   6.101  1.00  0.00     0.042 C 
ENDBRANCH  27  28
ENDBRANCH  26  27
ENDBRANCH  24  26
ENDBRANCH   1  24
TORSDOF 4
ENDMDL
MODEL 8
REMARK minimizedAffinity -6.75046825
REMARK CNNscore 0.305460393
REMARK CNNaffinity 6.86824608
REMARK  4 active torsions:
REMARK  status: ('A' for Active; 'I' for Inactive)
REMARK    1  A    between atoms: C4_4  and  C5_5 
REMARK    2  A    between atoms: C5_5  and  C6_6 
REMARK    3  A    between atoms: C6_6  and  C7_7 
REMARK    4  A    between atoms: C7_7  and  C9_9 
ROOT
HETATM    1  C9  UNL     1      -7.930   6.911  15.058  1.00  0.00    -0.002 C 
HETATM    2  C10 UNL     1      -8.028   5.404  14.680  1.00  0.00     0.007 C 
HETATM    3  C11 UNL     1      -6.653   4.978  14.130  1.00  0.00     0.015 C 
HETATM    4  C12 UNL     1      -5.705   6.142  14.486  1.00  0.00    -0.013 C 
HETATM    5  C13 UNL     1      -5.249   5.892  15.957  1.00  0.00     0.021 C 
HETATM    6  C14 UNL     1      -4.431   6.310  13.672  1.00  0.00    -0.070 C 
HETATM    7  C15 UNL     1      -3.852   5.314  12.978  1.00  0.00    -0.022 C 
HETATM    8  C16 UNL     1      -2.544   5.508  12.274  1.00  0.00     0.034 C 
HETATM    9  C17 UNL     1      -1.638   6.380  13.157  1.00  0.00     0.013 C 
HETATM   10  C18 UNL     1      -0.132   6.387  12.751  1.00  0.00     0.018 C 
HETATM   11  C19 UNL     1       0.560   5.109  13.272  1.00  0.00     0.023 C 
HETATM   12  C20 UNL     1       0.097   6.451  11.230  1.00  0.00     0.023 C 
HETATM   13  C21 UNL     1       0.575   7.567  13.432  1.00  0.00     0.135 C 
HETATM   14  O1  UNL     1       1.640   8.022  13.009  1.00  0.00    -0.297 OA
HETATM   15  C22 UNL     1      -0.018   8.098  14.722  1.00  0.00     0.080 C 
HETATM   16  C23 UNL     1      -1.532   8.336  14.684  1.00  0.00     0.017 C 
HETATM   17  C24 UNL     1      -2.259   7.800  13.422  1.00  0.00    -0.031 C 
HETATM   18  C25 UNL     1      -2.014   8.805  12.264  1.00  0.00     0.016 C 
HETATM   19  C26 UNL     1      -3.846   7.723  13.589  1.00  0.00     0.024 C 
HETATM   20  C27 UNL     1      -4.442   8.711  14.621  1.00  0.00     0.010 C 
HETATM   21  C28 UNL     1      -5.975   8.653  14.816  1.00  0.00     0.011 C 
HETATM   22  C29 UNL     1      -6.655   7.377  14.278  1.00  0.00    -0.029 C 
HETATM   23  C30 UNL     1      -7.042   7.612  12.783  1.00  0.00     0.016 C 
ENDROOT
BRANCH   1  24
HETATM   24  C7  UNL     1      -9.275   7.661  14.849  1.00  0.00    -0.014 C 
HETATM   25  C8  UNL     1      -9.817   8.288  16.137  1.00  0.00     0.010 C 
BRANCH  24  26
HETATM   26  C6  UNL     1     -10.361   6.791  14.155  1.00  0.00     0.008 C 
BRANCH  26  27
HETATM   27  C5  UNL     1     -11.819   6.935  14.617  1.00  0.00     0.028 C 
BRANCH  27  28
HETATM   28  C4  UNL     1     -12.845   6.825  13.527  1.00  0.00    -0.025 C 
HETATM   29  C2  UNL     1     -14.122   7.250  13.563  1.00  0.00    -0.091 C 
HETATM   30  C1  UNL     1     -15.024   7.080  12.368  1.00  0.00     0.042 C 
HETATM   31  C3  UNL     1     -14.778   7.901  14.748  1.00  0.00     0.042 C 
ENDBRANCH  27  28
ENDBRANCH  26  27
ENDBRANCH  24  26
ENDBRANCH   1  24
TORSDOF 4
ENDMDL
MODEL 9
REMARK minimizedAffinity -7.42114353
REMARK CNNscore 0.264307469
REMARK CNNaffinity 6.32289743
REMARK  4 active torsions:
REMARK  status: ('A' for Active; 'I' for Inactive)
REMARK    1  A    between atoms: C4_4  and  C5_5 
REMARK    2  A    between atoms: C5_5  and  C6_6 
REMARK    3  A    between atoms: C6_6  and  C7_7 
REMARK    4  A    between atoms: C7_7  and  C9_9 
ROOT
HETATM    1  C9  UNL     1      -0.422   6.776  13.077  1.00  0.00    -0.002 C 
HETATM    2  C10 UNL     1       1.088   7.117  13.236  1.00  0.00     0.007 C 
HETATM    3  C11 UNL     1       1.187   8.343  14.164  1.00  0.00     0.015 C 
HETATM    4  C12 UNL     1      -0.223   8.497  14.769  1.00  0.00    -0.013 C 
HETATM    5  C13 UNL     1      -0.278   7.521  15.985  1.00  0.00     0.021 C 
HETATM    6  C14 UNL     1      -0.634   9.861  15.304  1.00  0.00    -0.070 C 
HETATM    7  C15 UNL     1       0.242  10.807  15.686  1.00  0.00    -0.022 C 
HETATM    8  C16 UNL     1      -0.216  12.096  16.299  1.00  0.00     0.034 C 
HETATM    9  C17 UNL     1      -1.397  11.799  17.236  1.00  0.00     0.013 C 
HETATM   10  C18 UNL     1      -1.764  12.954  18.218  1.00  0.00     0.018 C 
HETATM   11  C19 UNL     1      -0.791  12.955  19.416  1.00  0.00     0.023 C 
HETATM   12  C20 UNL     1      -1.711  14.352  17.576  1.00  0.00     0.023 C 
HETATM   13  C21 UNL     1      -3.163  12.704  18.800  1.00  0.00     0.135 C 
HETATM   14  O1  UNL     1      -3.836  13.612  19.292  1.00  0.00    -0.297 OA
HETATM   15  C22 UNL     1      -3.659  11.273  18.858  1.00  0.00     0.080 C 
HETATM   16  C23 UNL     1      -3.472  10.474  17.563  1.00  0.00     0.017 C 
HETATM   17  C24 UNL     1      -2.616  11.168  16.470  1.00  0.00    -0.031 C 
HETATM   18  C25 UNL     1      -3.509  12.223  15.759  1.00  0.00     0.016 C 
HETATM   19  C26 UNL     1      -2.133  10.175  15.316  1.00  0.00     0.024 C 
HETATM   20  C27 UNL     1      -3.036   8.936  15.102  1.00  0.00     0.010 C 
HETATM   21  C28 UNL     1      -2.588   7.947  14.001  1.00  0.00     0.011 C 
HETATM   22  C29 UNL     1      -1.122   8.096  13.544  1.00  0.00    -0.029 C 
HETATM   23  C30 UNL     1      -1.068   9.131  12.375  1.00  0.00     0.016 C 
ENDROOT
BRANCH   1  24
HETATM   24  C7  UNL     1      -0.751   6.186  11.677  1.00  0.00    -0.014 C 
HETATM   25  C8  UNL     1      -1.455   4.827  11.750  1.00  0.00     0.010 C 
BRANCH  24  26
HETATM   26  C6  UNL     1       0.484   6.122  10.734  1.00  0.00     0.008 C 
BRANCH  26  27
HETATM   27  C5  UNL     1       1.069   7.439  10.204  1.00  0.00     0.028 C 
BRANCH  27  28
HETATM   28  C4  UNL     1       1.100   7.566   8.709  1.00  0.00    -0.025 C 
HETATM   29  C2  UNL     1       1.906   6.911   7.851  1.00  0.00    -0.091 C 
HETATM   30  C1  UNL     1       1.797   7.139   6.366  1.00  0.00     0.042 C 
HETATM   31  C3  UNL     1       2.972   5.931   8.252  1.00  0.00     0.042 C 
ENDBRANCH  27  28
ENDBRANCH  26  27
ENDBRANCH  24  26
ENDBRANCH   1  24
TORSDOF 4
ENDMDL
