MODEL 1
REMARK minimizedAffinity -9.2746439
REMARK  4 active torsions:
REMARK  status: ('A' for Active; 'I' for Inactive)
REMARK    1  A    between atoms: C4_4  and  C5_5 
REMARK    2  A    between atoms: C5_5  and  C6_6 
REMARK    3  A    between atoms: C6_6  and  C7_7 
REMARK    4  A    between atoms: C7_7  and  C9_9 
ROOT
HETATM    1  C9  UNL     1      -0.461  50.457 -21.530  1.00  0.00    -0.002 C 
HETATM    2  C10 UNL     1      -0.416  50.136 -20.013  1.00  0.00     0.007 C 
HETATM    3  C11 UNL     1      -1.714  49.359 -19.688  1.00  0.00     0.015 C 
HETATM    4  C12 UNL     1      -2.299  48.961 -21.063  1.00  0.00    -0.013 C 
HETATM    5  C13 UNL     1      -1.546  47.654 -21.476  1.00  0.00     0.021 C 
HETATM    6  C14 UNL     1      -3.785  48.643 -21.208  1.00  0.00    -0.070 C 
HETATM    7  C15 UNL     1      -4.586  48.413 -20.154  1.00  0.00    -0.022 C 
HETATM    8  C16 UNL     1      -6.014  47.962 -20.252  1.00  0.00     0.038 C 
HETATM    9  C17 UNL     1      -6.405  47.337 -21.631  1.00  0.00    -0.019 C 
HETATM   10  C18 UNL     1      -5.657  45.959 -21.716  1.00  0.00     0.017 C 
HETATM   11  C19 UNL     1      -7.999  47.092 -21.735  1.00  0.00     0.021 C 
HETATM   12  C20 UNL     1      -8.839  48.021 -20.818  1.00  0.00     0.024 C 
HETATM   13  C21 UNL     1      -8.441  45.657 -21.356  1.00  0.00     0.024 C 
HETATM   14  C22 UNL     1      -8.479  47.299 -23.184  1.00  0.00     0.135 C 
HETATM   15  O1  UNL     1      -9.635  47.633 -23.453  1.00  0.00    -0.297 OA
HETATM   16  C23 UNL     1      -7.517  46.977 -24.299  1.00  0.00     0.080 C 
HETATM   17  C24 UNL     1      -6.185  47.708 -24.181  1.00  0.00     0.018 C 
HETATM   18  C25 UNL     1      -5.865  48.313 -22.782  1.00  0.00    -0.028 C 
HETATM   19  C26 UNL     1      -6.549  49.711 -22.709  1.00  0.00     0.016 C 
HETATM   20  C27 UNL     1      -4.281  48.494 -22.660  1.00  0.00     0.024 C 
HETATM   21  C28 UNL     1      -3.691  49.565 -23.635  1.00  0.00     0.010 C 
HETATM   22  C29 UNL     1      -2.219  49.948 -23.392  1.00  0.00     0.011 C 
HETATM   23  C30 UNL     1      -1.958  50.240 -21.903  1.00  0.00    -0.029 C 
HETATM   24  C31 UNL     1      -2.813  51.474 -21.489  1.00  0.00     0.016 C 
ENDROOT
BRANCH   1  25
HETATM   25  C7  UNL     1       0.249  51.768 -21.987  1.00  0.00    -0.014 C 
HETATM   26  C8  UNL     1       0.182  52.778 -20.826  1.00  0.00     0.010 C 
BRANCH  25  27
HETATM   27  C6  UNL     1      -0.316  52.415 -23.276  1.00  0.00     0.008 C 
BRANCH  27  28
HETATM   28  C5  UNL     1       0.749  52.816 -24.314  1.00  0.00     0.028 C 
BRANCH  28  29
HETATM   29  C4  UNL     1       0.370  52.505 -25.735  1.00  0.00    -0.025 C 
HETATM   30  C2  UNL     1       1.103  51.885 -26.679  1.00  0.00    -0.091 C 
HETATM   31  C1  UNL     1       2.506  51.373 -26.501  1.00  0.00     0.042 C 
HETATM   32  C3  UNL     1       0.537  51.659 -28.058  1.00  0.00     0.042 C 
ENDBRANCH  28  29
ENDBRANCH  27  28
ENDBRANCH  25  27
ENDBRANCH   1  25
TORSDOF 4
ENDMDL
MODEL 2
REMARK minimizedAffinity -9.14892578
REMARK  4 active torsions:
REMARK  status: ('A' for Active; 'I' for Inactive)
REMARK    1  A    between atoms: C4_4  and  C5_5 
REMARK    2  A    between atoms: C5_5  and  C6_6 
REMARK    3  A    between atoms: C6_6  and  C7_7 
REMARK    4  A    between atoms: C7_7  and  C9_9 
ROOT
HETATM    1  C9  UNL     1      -3.952  50.411 -24.689  1.00  0.00    -0.002 C 
HETATM    2  C10 UNL     1      -5.419  50.083 -24.309  1.00  0.00     0.007 C 
HETATM    3  C11 UNL     1      -5.443  49.876 -22.776  1.00  0.00     0.015 C 
HETATM    4  C12 UNL     1      -4.082  50.418 -22.278  1.00  0.00    -0.013 C 
HETATM    5  C13 UNL     1      -4.273  51.964 -22.136  1.00  0.00     0.021 C 
HETATM    6  C14 UNL     1      -3.506  49.950 -20.943  1.00  0.00    -0.070 C 
HETATM    7  C15 UNL     1      -4.238  49.298 -20.024  1.00  0.00    -0.022 C 
HETATM    8  C16 UNL     1      -3.755  48.943 -18.648  1.00  0.00     0.038 C 
HETATM    9  C17 UNL     1      -2.513  49.759 -18.164  1.00  0.00    -0.019 C 
HETATM   10  C18 UNL     1      -3.016  51.227 -17.928  1.00  0.00     0.017 C 
HETATM   11  C19 UNL     1      -1.919  49.163 -16.784  1.00  0.00     0.021 C 
HETATM   12  C20 UNL     1      -2.243  47.662 -16.556  1.00  0.00     0.024 C 
HETATM   13  C21 UNL     1      -2.443  49.879 -15.514  1.00  0.00     0.024 C 
HETATM   14  C22 UNL     1      -0.388  49.327 -16.744  1.00  0.00     0.135 C 
HETATM   15  O1  UNL     1       0.337  48.581 -16.081  1.00  0.00    -0.297 OA
HETATM   16  C23 UNL     1       0.214  50.506 -17.465  1.00  0.00     0.080 C 
HETATM   17  C24 UNL     1      -0.188  50.591 -18.932  1.00  0.00     0.018 C 
HETATM   18  C25 UNL     1      -1.429  49.746 -19.345  1.00  0.00    -0.028 C 
HETATM   19  C26 UNL     1      -0.932  48.300 -19.646  1.00  0.00     0.016 C 
HETATM   20  C27 UNL     1      -2.049  50.378 -20.677  1.00  0.00     0.024 C 
HETATM   21  C28 UNL     1      -1.122  50.250 -21.928  1.00  0.00     0.010 C 
HETATM   22  C29 UNL     1      -1.766  50.622 -23.277  1.00  0.00     0.011 C 
HETATM   23  C30 UNL     1      -3.142  49.951 -23.441  1.00  0.00    -0.029 C 
HETATM   24  C31 UNL     1      -2.932  48.407 -23.459  1.00  0.00     0.016 C 
ENDROOT
BRANCH   1  25
HETATM   25  C7  UNL     1      -3.479  49.959 -26.105  1.00  0.00    -0.014 C 
HETATM   26  C8  UNL     1      -4.104  48.582 -26.400  1.00  0.00     0.010 C 
BRANCH  25  27
HETATM   27  C6  UNL     1      -1.944  49.891 -26.304  1.00  0.00     0.008 C 
BRANCH  27  28
HETATM   28  C5  UNL     1      -1.340  51.089 -27.059  1.00  0.00     0.028 C 
BRANCH  28  29
HETATM   29  C4  UNL     1       0.157  51.052 -27.172  1.00  0.00    -0.025 C 
HETATM   30  C2  UNL     1       1.071  51.601 -26.349  1.00  0.00    -0.091 C 
HETATM   31  C1  UNL     1       0.766  52.405 -25.114  1.00  0.00     0.042 C 
HETATM   32  C3  UNL     1       2.544  51.447 -26.633  1.00  0.00     0.042 C 
ENDBRANCH  28  29
ENDBRANCH  27  28
ENDBRANCH  25  27
ENDBRANCH   1  25
TORSDOF 4
ENDMDL
MODEL 3
REMARK minimizedAffinity -8.81950569
REMARK  4 active torsions:
REMARK  status: ('A' for Active; 'I' for Inactive)
REMARK    1  A    between atoms: C4_4  and  C5_5 
REMARK    2  A    between atoms: C5_5  and  C6_6 
REMARK    3  A    between atoms: C6_6  and  C7_7 
REMARK    4  A    between atoms: C7_7  and  C9_9 
ROOT
HETATM    1  C9  UNL     1      -1.257  51.999 -21.598  1.00  0.00    -0.002 C 
HETATM    2  C10 UNL     1      -0.928  51.645 -23.072  1.00  0.00     0.007 C 
HETATM    3  C11 UNL     1      -2.083  50.748 -23.579  1.00  0.00     0.015 C 
HETATM    4  C12 UNL     1      -3.196  50.887 -22.513  1.00  0.00    -0.013 C 
HETATM    5  C13 UNL     1      -3.968  52.197 -22.882  1.00  0.00     0.021 C 
HETATM    6  C14 UNL     1      -4.265  49.806 -22.367  1.00  0.00    -0.070 C 
HETATM    7  C15 UNL     1      -4.472  48.858 -23.296  1.00  0.00    -0.022 C 
HETATM    8  C16 UNL     1      -5.596  47.865 -23.262  1.00  0.00     0.038 C 
HETATM    9  C17 UNL     1      -6.786  48.261 -22.327  1.00  0.00    -0.019 C 
HETATM   10  C18 UNL     1      -7.495  49.482 -23.013  1.00  0.00     0.017 C 
HETATM   11  C19 UNL     1      -7.838  47.045 -22.167  1.00  0.00     0.021 C 
HETATM   12  C20 UNL     1      -7.220  45.641 -22.409  1.00  0.00     0.024 C 
HETATM   13  C21 UNL     1      -9.039  47.121 -23.143  1.00  0.00     0.024 C 
HETATM   14  C22 UNL     1      -8.456  47.053 -20.756  1.00  0.00     0.135 C 
HETATM   15  O1  UNL     1      -8.894  46.030 -20.224  1.00  0.00    -0.297 OA
HETATM   16  C23 UNL     1      -8.613  48.381 -20.063  1.00  0.00     0.080 C 
HETATM   17  C24 UNL     1      -7.315  49.174 -19.966  1.00  0.00     0.018 C 
HETATM   18  C25 UNL     1      -6.171  48.719 -20.920  1.00  0.00    -0.028 C 
HETATM   19  C26 UNL     1      -5.416  47.549 -20.221  1.00  0.00     0.016 C 
HETATM   20  C27 UNL     1      -5.166  49.946 -21.124  1.00  0.00     0.024 C 
HETATM   21  C28 UNL     1      -4.388  50.347 -19.829  1.00  0.00     0.010 C 
HETATM   22  C29 UNL     1      -3.240  51.356 -20.027  1.00  0.00     0.011 C 
HETATM   23  C30 UNL     1      -2.336  50.947 -21.204  1.00  0.00    -0.029 C 
HETATM   24  C31 UNL     1      -1.673  49.581 -20.859  1.00  0.00     0.016 C 
ENDROOT
BRANCH   1  25
HETATM   25  C7  UNL     1      -0.042  52.227 -20.647  1.00  0.00    -0.014 C 
HETATM   26  C8  UNL     1       1.245  52.159 -21.492  1.00  0.00     0.010 C 
BRANCH  25  27
HETATM   27  C6  UNL     1       0.063  51.245 -19.454  1.00  0.00     0.008 C 
BRANCH  27  28
HETATM   28  C5  UNL     1       0.037  51.914 -18.067  1.00  0.00     0.028 C 
BRANCH  28  29
HETATM   29  C4  UNL     1       1.361  52.476 -17.632  1.00  0.00    -0.025 C 
HETATM   30  C2  UNL     1       2.076  52.174 -16.531  1.00  0.00    -0.091 C 
HETATM   31  C1  UNL     1       1.672  51.190 -15.468  1.00  0.00     0.042 C 
HETATM   32  C3  UNL     1       3.399  52.849 -16.272  1.00  0.00     0.042 C 
ENDBRANCH  28  29
ENDBRANCH  27  28
ENDBRANCH  25  27
ENDBRANCH   1  25
TORSDOF 4
ENDMDL
MODEL 4
REMARK minimizedAffinity -8.75154686
REMARK  4 active torsions:
REMARK  status: ('A' for Active; 'I' for Inactive)
REMARK    1  A    between atoms: C4_4  and  C5_5 
REMARK    2  A    between atoms: C5_5  and  C6_6 
REMARK    3  A    between atoms: C6_6  and  C7_7 
REMARK    4  A    between atoms: C7_7  and  C9_9 
ROOT
HETATM    1  C9  UNL     1      -0.217  51.345 -20.752  1.00  0.00    -0.002 C 
HETATM    2  C10 UNL     1      -0.739  52.293 -19.640  1.00  0.00     0.007 C 
HETATM    3  C11 UNL     1      -2.079  51.698 -19.147  1.00  0.00     0.015 C 
HETATM    4  C12 UNL     1      -2.125  50.268 -19.736  1.00  0.00    -0.013 C 
HETATM    5  C13 UNL     1      -1.297  49.382 -18.748  1.00  0.00     0.021 C 
HETATM    6  C14 UNL     1      -3.459  49.548 -19.915  1.00  0.00    -0.070 C 
HETATM    7  C15 UNL     1      -4.596  49.968 -19.333  1.00  0.00    -0.022 C 
HETATM    8  C16 UNL     1      -5.896  49.219 -19.367  1.00  0.00     0.038 C 
HETATM    9  C17 UNL     1      -5.764  47.704 -19.730  1.00  0.00    -0.019 C 
HETATM   10  C18 UNL     1      -5.062  47.017 -18.505  1.00  0.00     0.017 C 
HETATM   11  C19 UNL     1      -7.212  47.028 -19.971  1.00  0.00     0.021 C 
HETATM   12  C20 UNL     1      -8.313  48.036 -20.397  1.00  0.00     0.024 C 
HETATM   13  C21 UNL     1      -7.789  46.317 -18.721  1.00  0.00     0.024 C 
HETATM   14  C22 UNL     1      -7.122  45.939 -21.057  1.00  0.00     0.135 C 
HETATM   15  O1  UNL     1      -8.092  45.616 -21.746  1.00  0.00    -0.297 OA
HETATM   16  C23 UNL     1      -5.824  45.187 -21.195  1.00  0.00     0.080 C 
HETATM   17  C24 UNL     1      -4.615  46.093 -21.396  1.00  0.00     0.018 C 
HETATM   18  C25 UNL     1      -4.821  47.591 -21.022  1.00  0.00    -0.028 C 
HETATM   19  C26 UNL     1      -5.457  48.298 -22.254  1.00  0.00     0.016 C 
HETATM   20  C27 UNL     1      -3.389  48.238 -20.724  1.00  0.00     0.024 C 
HETATM   21  C28 UNL     1      -2.463  48.328 -21.979  1.00  0.00     0.010 C 
HETATM   22  C29 UNL     1      -1.176  49.156 -21.801  1.00  0.00     0.011 C 
HETATM   23  C30 UNL     1      -1.475  50.514 -21.141  1.00  0.00    -0.029 C 
HETATM   24  C31 UNL     1      -2.400  51.328 -22.095  1.00  0.00     0.016 C 
ENDROOT
BRANCH   1  25
HETATM   25  C7  UNL     1       0.636  51.999 -21.883  1.00  0.00    -0.014 C 
HETATM   26  C8  UNL     1       1.327  53.247 -21.300  1.00  0.00     0.010 C 
BRANCH  25  27
HETATM   27  C6  UNL     1      -0.143  52.383 -23.165  1.00  0.00     0.008 C 
BRANCH  27  28
HETATM   28  C5  UNL     1       0.686  53.142 -24.218  1.00  0.00     0.028 C 
BRANCH  28  29
HETATM   29  C4  UNL     1       0.332  52.804 -25.639  1.00  0.00    -0.025 C 
HETATM   30  C2  UNL     1       1.040  52.079 -26.526  1.00  0.00    -0.091 C 
HETATM   31  C1  UNL     1       2.383  51.452 -26.271  1.00  0.00     0.042 C 
HETATM   32  C3  UNL     1       0.507  51.845 -27.917  1.00  0.00     0.042 C 
ENDBRANCH  28  29
ENDBRANCH  27  28
ENDBRANCH  25  27
ENDBRANCH   1  25
TORSDOF 4
ENDMDL
MODEL 5
REMARK minimizedAffinity -8.65449333
REMARK  4 active torsions:
REMARK  status: ('A' for Active; 'I' for Inactive)
REMARK    1  A    between atoms: C4_4  and  C5_5 
REMARK    2  A    between atoms: C5_5  and  C6_6 
REMARK    3  A    between atoms: C6_6  and  C7_7 
REMARK    4  A    between atoms: C7_7  and  C9_9 
ROOT
HETATM    1  C9  UNL     1      -1.555  51.448 -23.341  1.00  0.00    -0.002 C 
HETATM    2  C10 UNL     1      -1.543  50.694 -24.697  1.00  0.00     0.007 C 
HETATM    3  C11 UNL     1      -2.770  49.752 -24.689  1.00  0.00     0.015 C 
HETATM    4  C12 UNL     1      -3.633  50.228 -23.497  1.00  0.00    -0.013 C 
HETATM    5  C13 UNL     1      -4.478  51.426 -24.043  1.00  0.00     0.021 C 
HETATM    6  C14 UNL     1      -4.638  49.281 -22.843  1.00  0.00    -0.070 C 
HETATM    7  C15 UNL     1      -5.029  48.129 -23.414  1.00  0.00    -0.022 C 
HETATM    8  C16 UNL     1      -6.111  47.239 -22.878  1.00  0.00     0.038 C 
HETATM    9  C17 UNL     1      -7.079  47.930 -21.864  1.00  0.00    -0.019 C 
HETATM   10  C18 UNL     1      -7.929  48.955 -22.696  1.00  0.00     0.017 C 
HETATM   11  C19 UNL     1      -8.063  46.856 -21.163  1.00  0.00     0.021 C 
HETATM   12  C20 UNL     1      -7.498  45.411 -21.133  1.00  0.00     0.024 C 
HETATM   13  C21 UNL     1      -9.444  46.727 -21.854  1.00  0.00     0.024 C 
HETATM   14  C22 UNL     1      -8.368  47.275 -19.713  1.00  0.00     0.135 C 
HETATM   15  O1  UNL     1      -8.674  46.456 -18.843  1.00  0.00    -0.297 OA
HETATM   16  C23 UNL     1      -8.387  48.747 -19.392  1.00  0.00     0.080 C 
HETATM   17  C24 UNL     1      -7.105  49.471 -19.786  1.00  0.00     0.018 C 
HETATM   18  C25 UNL     1      -6.185  48.720 -20.793  1.00  0.00    -0.028 C 
HETATM   19  C26 UNL     1      -5.289  47.745 -19.972  1.00  0.00     0.016 C 
HETATM   20  C27 UNL     1      -5.256  49.795 -21.528  1.00  0.00     0.024 C 
HETATM   21  C28 UNL     1      -4.225  50.491 -20.582  1.00  0.00     0.010 C 
HETATM   22  C29 UNL     1      -3.155  51.351 -21.280  1.00  0.00     0.011 C 
HETATM   23  C30 UNL     1      -2.517  50.596 -22.461  1.00  0.00    -0.029 C 
HETATM   24  C31 UNL     1      -1.783  49.342 -21.899  1.00  0.00     0.016 C 
ENDROOT
BRANCH   1  25
HETATM   25  C7  UNL     1      -0.168  51.863 -22.761  1.00  0.00    -0.014 C 
HETATM   26  C8  UNL     1      -0.357  52.204 -21.270  1.00  0.00     0.010 C 
BRANCH  25  27
HETATM   27  C6  UNL     1       0.530  53.042 -23.483  1.00  0.00     0.008 C 
BRANCH  27  28
HETATM   28  C5  UNL     1       1.046  52.714 -24.896  1.00  0.00     0.028 C 
BRANCH  28  29
HETATM   29  C4  UNL     1       0.315  53.427 -25.998  1.00  0.00    -0.025 C 
HETATM   30  C2  UNL     1       0.030  52.981 -27.237  1.00  0.00    -0.091 C 
HETATM   31  C1  UNL     1       0.414  51.637 -27.793  1.00  0.00     0.042 C 
HETATM   32  C3  UNL     1      -0.727  53.853 -28.206  1.00  0.00     0.042 C 
ENDBRANCH  28  29
ENDBRANCH  27  28
ENDBRANCH  25  27
ENDBRANCH   1  25
TORSDOF 4
ENDMDL
MODEL 6
REMARK minimizedAffinity -8.47890854
REMARK  4 active torsions:
REMARK  status: ('A' for Active; 'I' for Inactive)
REMARK    1  A    between atoms: C4_4  and  C5_5 
REMARK    2  A    between atoms: C5_5  and  C6_6 
REMARK    3  A    between atoms: C6_6  and  C7_7 
REMARK    4  A    between atoms: C7_7  and  C9_9 
ROOT
HETATM    1  C9  UNL     1      -1.803  48.882 -17.413  1.00  0.00    -0.002 C 
HETATM    2  C10 UNL     1      -3.271  48.384 -17.361  1.00  0.00     0.007 C 
HETATM    3  C11 UNL     1      -3.853  48.578 -18.781  1.00  0.00     0.015 C 
HETATM    4  C12 UNL     1      -2.628  48.856 -19.683  1.00  0.00    -0.013 C 
HETATM    5  C13 UNL     1      -2.046  47.450 -20.045  1.00  0.00     0.021 C 
HETATM    6  C14 UNL     1      -2.797  49.587 -21.013  1.00  0.00    -0.070 C 
HETATM    7  C15 UNL     1      -3.994  49.768 -21.597  1.00  0.00    -0.022 C 
HETATM    8  C16 UNL     1      -4.195  50.353 -22.964  1.00  0.00     0.038 C 
HETATM    9  C17 UNL     1      -2.922  50.337 -23.871  1.00  0.00    -0.019 C 
HETATM   10  C18 UNL     1      -2.660  48.832 -24.234  1.00  0.00     0.017 C 
HETATM   11  C19 UNL     1      -3.155  51.186 -25.226  1.00  0.00     0.021 C 
HETATM   12  C20 UNL     1      -4.242  52.287 -25.100  1.00  0.00     0.024 C 
HETATM   13  C21 UNL     1      -3.599  50.328 -26.437  1.00  0.00     0.024 C 
HETATM   14  C22 UNL     1      -1.844  51.865 -25.666  1.00  0.00     0.135 C 
HETATM   15  O1  UNL     1      -1.832  52.896 -26.342  1.00  0.00    -0.297 OA
HETATM   16  C23 UNL     1      -0.546  51.175 -25.333  1.00  0.00     0.080 C 
HETATM   17  C24 UNL     1      -0.389  50.858 -23.850  1.00  0.00     0.018 C 
HETATM   18  C25 UNL     1      -1.696  50.902 -23.006  1.00  0.00    -0.028 C 
HETATM   19  C26 UNL     1      -1.933  52.382 -22.584  1.00  0.00     0.016 C 
HETATM   20  C27 UNL     1      -1.481  50.009 -21.697  1.00  0.00     0.024 C 
HETATM   21  C28 UNL     1      -0.419  50.586 -20.706  1.00  0.00     0.010 C 
HETATM   22  C29 UNL     1      -0.349  49.899 -19.329  1.00  0.00     0.011 C 
HETATM   23  C30 UNL     1      -1.753  49.729 -18.719  1.00  0.00    -0.029 C 
HETATM   24  C31 UNL     1      -2.356  51.146 -18.480  1.00  0.00     0.016 C 
ENDROOT
BRANCH   1  25
HETATM   25  C7  UNL     1      -1.223  49.487 -16.098  1.00  0.00    -0.014 C 
HETATM   26  C8  UNL     1      -2.111  50.679 -15.689  1.00  0.00     0.010 C 
BRANCH  25  27
HETATM   27  C6  UNL     1       0.257  49.937 -16.168  1.00  0.00     0.008 C 
BRANCH  27  28
HETATM   28  C5  UNL     1       0.479  51.450 -15.985  1.00  0.00     0.028 C 
BRANCH  28  29
HETATM   29  C4  UNL     1       1.856  51.919 -16.360  1.00  0.00    -0.025 C 
HETATM   30  C2  UNL     1       2.949  52.013 -15.577  1.00  0.00    -0.091 C 
HETATM   31  C1  UNL     1       3.009  51.670 -14.114  1.00  0.00     0.042 C 
HETATM   32  C3  UNL     1       4.254  52.507 -16.147  1.00  0.00     0.042 C 
ENDBRANCH  28  29
ENDBRANCH  27  28
ENDBRANCH  25  27
ENDBRANCH   1  25
TORSDOF 4
ENDMDL
MODEL 7
REMARK minimizedAffinity -8.44336224
REMARK  4 active torsions:
REMARK  status: ('A' for Active; 'I' for Inactive)
REMARK    1  A    between atoms: C4_4  and  C5_5 
REMARK    2  A    between atoms: C5_5  and  C6_6 
REMARK    3  A    between atoms: C6_6  and  C7_7 
REMARK    4  A    between atoms: C7_7  and  C9_9 
ROOT
HETATM    1  C9  UNL     1      -2.272  51.486 -23.938  1.00  0.00    -0.002 C 
HETATM    2  C10 UNL     1      -3.179  52.729 -23.748  1.00  0.00     0.007 C 
HETATM    3  C11 UNL     1      -4.395  52.265 -22.912  1.00  0.00     0.015 C 
HETATM    4  C12 UNL     1      -3.997  50.876 -22.361  1.00  0.00    -0.013 C 
HETATM    5  C13 UNL     1      -3.146  51.161 -21.080  1.00  0.00     0.021 C 
HETATM    6  C14 UNL     1      -5.069  49.878 -21.929  1.00  0.00    -0.070 C 
HETATM    7  C15 UNL     1      -6.352  50.229 -21.732  1.00  0.00    -0.022 C 
HETATM    8  C16 UNL     1      -7.407  49.319 -21.175  1.00  0.00     0.038 C 
HETATM    9  C17 UNL     1      -6.854  48.072 -20.412  1.00  0.00    -0.019 C 
HETATM   10  C18 UNL     1      -6.210  48.618 -19.088  1.00  0.00     0.017 C 
HETATM   11  C19 UNL     1      -8.036  47.032 -20.049  1.00  0.00     0.021 C 
HETATM   12  C20 UNL     1      -9.268  47.127 -20.989  1.00  0.00     0.024 C 
HETATM   13  C21 UNL     1      -8.614  47.211 -18.622  1.00  0.00     0.024 C 
HETATM   14  C22 UNL     1      -7.512  45.585 -20.100  1.00  0.00     0.135 C 
HETATM   15  O1  UNL     1      -8.252  44.625 -20.329  1.00  0.00    -0.297 OA
HETATM   16  C23 UNL     1      -6.064  45.347 -19.756  1.00  0.00     0.080 C 
HETATM   17  C24 UNL     1      -5.097  46.182 -20.585  1.00  0.00     0.018 C 
HETATM   18  C25 UNL     1      -5.718  47.403 -21.325  1.00  0.00    -0.028 C 
HETATM   19  C26 UNL     1      -6.304  46.887 -22.672  1.00  0.00     0.016 C 
HETATM   20  C27 UNL     1      -4.554  48.458 -21.626  1.00  0.00     0.024 C 
HETATM   21  C28 UNL     1      -3.490  47.947 -22.651  1.00  0.00     0.010 C 
HETATM   22  C29 UNL     1      -2.489  49.005 -23.155  1.00  0.00     0.011 C 
HETATM   23  C30 UNL     1      -3.211  50.294 -23.587  1.00  0.00    -0.029 C 
HETATM   24  C31 UNL     1      -4.142  49.953 -24.788  1.00  0.00     0.016 C 
ENDROOT
BRANCH   1  25
HETATM   25  C7  UNL     1      -1.436  51.425 -25.254  1.00  0.00    -0.014 C 
HETATM   26  C8  UNL     1      -1.790  50.116 -25.985  1.00  0.00     0.010 C 
BRANCH  25  27
HETATM   27  C6  UNL     1       0.099  51.525 -25.071  1.00  0.00     0.008 C 
BRANCH  27  28
HETATM   28  C5  UNL     1       0.560  52.630 -24.103  1.00  0.00     0.028 C 
BRANCH  28  29
HETATM   29  C4  UNL     1       0.389  52.284 -22.650  1.00  0.00    -0.025 C 
HETATM   30  C2  UNL     1       0.778  52.991 -21.572  1.00  0.00    -0.091 C 
HETATM   31  C1  UNL     1       1.501  54.309 -21.604  1.00  0.00     0.042 C 
HETATM   32  C3  UNL     1       0.507  52.473 -20.182  1.00  0.00     0.042 C 
ENDBRANCH  28  29
ENDBRANCH  27  28
ENDBRANCH  25  27
ENDBRANCH   1  25
TORSDOF 4
ENDMDL
MODEL 8
REMARK minimizedAffinity -8.42776585
REMARK  4 active torsions:
REMARK  status: ('A' for Active; 'I' for Inactive)
REMARK    1  A    between atoms: C4_4  and  C5_5 
REMARK    2  A    between atoms: C5_5  and  C6_6 
REMARK    3  A    between atoms: C6_6  and  C7_7 
REMARK    4  A    between atoms: C7_7  and  C9_9 
ROOT
HETATM    1  C9  UNL     1      -4.705  48.425 -20.806  1.00  0.00    -0.002 C 
HETATM    2  C10 UNL     1      -5.382  47.546 -21.891  1.00  0.00     0.007 C 
HETATM    3  C11 UNL     1      -4.765  47.965 -23.246  1.00  0.00     0.015 C 
HETATM    4  C12 UNL     1      -3.527  48.817 -22.878  1.00  0.00    -0.013 C 
HETATM    5  C13 UNL     1      -2.379  47.791 -22.601  1.00  0.00     0.021 C 
HETATM    6  C14 UNL     1      -2.952  49.818 -23.878  1.00  0.00    -0.070 C 
HETATM    7  C15 UNL     1      -3.283  49.817 -25.180  1.00  0.00    -0.022 C 
HETATM    8  C16 UNL     1      -2.643  50.686 -26.222  1.00  0.00     0.038 C 
HETATM    9  C17 UNL     1      -1.258  51.282 -25.809  1.00  0.00    -0.019 C 
HETATM   10  C18 UNL     1      -0.253  50.076 -25.777  1.00  0.00     0.017 C 
HETATM   11  C19 UNL     1      -0.748  52.381 -26.879  1.00  0.00     0.021 C 
HETATM   12  C20 UNL     1      -1.892  53.053 -27.684  1.00  0.00     0.024 C 
HETATM   13  C21 UNL     1       0.212  51.813 -27.954  1.00  0.00     0.024 C 
HETATM   14  C22 UNL     1       0.047  53.493 -26.168  1.00  0.00     0.135 C 
HETATM   15  O1  UNL     1       0.134  54.635 -26.626  1.00  0.00    -0.297 OA
HETATM   16  C23 UNL     1       0.817  53.126 -24.926  1.00  0.00     0.080 C 
HETATM   17  C24 UNL     1      -0.038  52.458 -23.855  1.00  0.00     0.018 C 
HETATM   18  C25 UNL     1      -1.408  51.895 -24.336  1.00  0.00    -0.028 C 
HETATM   19  C26 UNL     1      -2.432  53.069 -24.310  1.00  0.00     0.016 C 
HETATM   20  C27 UNL     1      -1.878  50.764 -23.307  1.00  0.00     0.024 C 
HETATM   21  C28 UNL     1      -2.216  51.308 -21.882  1.00  0.00     0.010 C 
HETATM   22  C29 UNL     1      -2.899  50.306 -20.931  1.00  0.00     0.011 C 
HETATM   23  C30 UNL     1      -4.070  49.588 -21.626  1.00  0.00    -0.029 C 
HETATM   24  C31 UNL     1      -5.145  50.653 -21.997  1.00  0.00     0.016 C 
ENDROOT
BRANCH   1  25
HETATM   25  C7  UNL     1      -5.564  48.769 -19.550  1.00  0.00    -0.014 C 
HETATM   26  C8  UNL     1      -4.871  48.161 -18.316  1.00  0.00     0.010 C 
BRANCH  25  27
HETATM   27  C6  UNL     1      -7.040  48.301 -19.605  1.00  0.00     0.008 C 
BRANCH  27  28
HETATM   28  C5  UNL     1      -8.049  49.284 -18.984  1.00  0.00     0.028 C 
BRANCH  28  29
HETATM   29  C4  UNL     1      -8.962  48.665 -17.964  1.00  0.00    -0.025 C 
HETATM   30  C2  UNL     1     -10.140  48.043 -18.164  1.00  0.00    -0.091 C 
HETATM   31  C1  UNL     1     -10.812  47.849 -19.496  1.00  0.00     0.042 C 
HETATM   32  C3  UNL     1     -10.911  47.477 -16.999  1.00  0.00     0.042 C 
ENDBRANCH  28  29
ENDBRANCH  27  28
ENDBRANCH  25  27
ENDBRANCH   1  25
TORSDOF 4
ENDMDL
MODEL 9
REMARK minimizedAffinity -8.39106178
REMARK  4 active torsions:
REMARK  status: ('A' for Active; 'I' for Inactive)
REMARK    1  A    between atoms: C4_4  and  C5_5 
REMARK    2  A    between atoms: C5_5  and  C6_6 
REMARK    3  A    between atoms: C6_6  and  C7_7 
REMARK    4  A    between atoms: C7_7  and  C9_9 
ROOT
HETATM    1  C9  UNL     1      -1.968  51.322 -22.485  1.00  0.00    -0.002 C 
HETATM    2  C10 UNL     1      -3.323  51.999 -22.820  1.00  0.00     0.007 C 
HETATM    3  C11 UNL     1      -4.420  51.157 -22.126  1.00  0.00     0.015 C 
HETATM    4  C12 UNL     1      -3.658  50.234 -21.146  1.00  0.00    -0.013 C 
HETATM    5  C13 UNL     1      -3.417  51.094 -19.861  1.00  0.00     0.021 C 
HETATM    6  C14 UNL     1      -4.292  48.933 -20.657  1.00  0.00    -0.070 C 
HETATM    7  C15 UNL     1      -5.600  48.662 -20.805  1.00  0.00    -0.022 C 
HETATM    8  C16 UNL     1      -6.291  47.465 -20.221  1.00  0.00     0.038 C 
HETATM    9  C17 UNL     1      -5.517  46.773 -19.052  1.00  0.00    -0.019 C 
HETATM   10  C18 UNL     1      -5.576  47.766 -17.838  1.00  0.00     0.017 C 
HETATM   11  C19 UNL     1      -6.208  45.372 -18.638  1.00  0.00     0.021 C 
HETATM   12  C20 UNL     1      -7.034  44.716 -19.777  1.00  0.00     0.024 C 
HETATM   13  C21 UNL     1      -7.195  45.486 -17.448  1.00  0.00     0.024 C 
HETATM   14  C22 UNL     1      -5.138  44.360 -18.186  1.00  0.00     0.135 C 
HETATM   15  O1  UNL     1      -5.309  43.141 -18.271  1.00  0.00    -0.297 OA
HETATM   16  C23 UNL     1      -3.893  44.896 -17.529  1.00  0.00     0.080 C 
HETATM   17  C24 UNL     1      -3.166  45.942 -18.366  1.00  0.00     0.018 C 
HETATM   18  C25 UNL     1      -3.995  46.583 -19.518  1.00  0.00    -0.028 C 
HETATM   19  C26 UNL     1      -3.892  45.638 -20.752  1.00  0.00     0.016 C 
HETATM   20  C27 UNL     1      -3.344  47.998 -19.882  1.00  0.00     0.024 C 
HETATM   21  C28 UNL     1      -1.917  47.893 -20.510  1.00  0.00     0.010 C 
HETATM   22  C29 UNL     1      -1.349  49.200 -21.096  1.00  0.00     0.011 C 
HETATM   23  C30 UNL     1      -2.382  49.903 -21.995  1.00  0.00    -0.029 C 
HETATM   24  C31 UNL     1      -2.692  48.970 -23.203  1.00  0.00     0.016 C 
ENDROOT
BRANCH   1  25
HETATM   25  C7  UNL     1      -0.840  51.451 -23.555  1.00  0.00    -0.014 C 
HETATM   26  C8  UNL     1       0.127  52.560 -23.098  1.00  0.00     0.010 C 
BRANCH  25  27
HETATM   27  C6  UNL     1      -1.322  51.738 -24.999  1.00  0.00     0.008 C 
BRANCH  27  28
HETATM   28  C5  UNL     1      -0.832  50.728 -26.053  1.00  0.00     0.028 C 
BRANCH  28  29
HETATM   29  C4  UNL     1       0.619  50.874 -26.416  1.00  0.00    -0.025 C 
HETATM   30  C2  UNL     1       1.172  51.687 -27.337  1.00  0.00    -0.091 C 
HETATM   31  C1  UNL     1       0.421  52.635 -28.231  1.00  0.00     0.042 C 
HETATM   32  C3  UNL     1       2.664  51.692 -27.552  1.00  0.00     0.042 C 
ENDBRANCH  28  29
ENDBRANCH  27  28
ENDBRANCH  25  27
ENDBRANCH   1  25
TORSDOF 4
ENDMDL
