MODEL 1
REMARK minimizedAffinity -9.79057789
REMARK CNNscore 0.845122814
REMARK CNNaffinity 7.28583288
REMARK  8 active torsions:
REMARK  status: ('A' for Active; 'I' for Inactive)
REMARK    1  A    between atoms: C5_5  and  O1_6 
REMARK    2  A    between atoms: C9_10  and  C10_11 
REMARK    3  A    between atoms: C10_11  and  C11_12 
REMARK    4  A    between atoms: C11_12  and  C12_13 
REMARK    5  A    between atoms: C14_15  and  C15_16 
REMARK    6  A    between atoms: C15_16  and  C16_17 
REMARK    7  A    between atoms: C16_17  and  C17_18 
REMARK    8  A    between atoms: C23_24  and  O2_25 
ROOT
HETATM    1  C12 UNL     1      -1.863   8.359  12.797  1.00  0.00    -0.087 C 
HETATM    2  C13 UNL     1      -1.015   8.153  14.027  1.00  0.00     0.043 C 
HETATM    3  C14 UNL     1      -3.202   8.536  12.823  1.00  0.00    -0.024 C 
ENDROOT
BRANCH   3   4
HETATM    4  C15 UNL     1      -4.069   8.559  14.052  1.00  0.00     0.030 C 
BRANCH   4   5
HETATM    5  C16 UNL     1      -5.529   8.112  13.857  1.00  0.00     0.042 C 
BRANCH   5   6
HETATM    6  C17 UNL     1      -5.872   6.608  14.051  1.00  0.00     0.065 C 
HETATM    7  C18 UNL     1      -5.548   6.146  15.483  1.00  0.00     0.046 C 
HETATM    8  C19 UNL     1      -7.371   6.448  13.720  1.00  0.00     0.043 C 
HETATM    9  C20 UNL     1      -7.794   4.990  13.726  1.00  0.00     0.044 C 
HETATM   10  C21 UNL     1      -6.802   4.159  12.971  1.00  0.00    -0.021 A 
HETATM   11  C22 UNL     1      -7.169   2.878  12.533  1.00  0.00     0.046 A 
HETATM   12  C27 UNL     1      -5.504   4.628  12.727  1.00  0.00     0.082 A 
HETATM   13  C23 UNL     1      -6.253   2.093  11.841  1.00  0.00     0.066 A 
HETATM   14  C24 UNL     1      -4.972   2.560  11.580  1.00  0.00     0.046 A 
HETATM   15  C25 UNL     1      -4.587   3.834  12.017  1.00  0.00    -0.025 A 
HETATM   16  C26 UNL     1      -3.197   4.329  11.745  1.00  0.00     0.051 C 
HETATM   17  O3  UNL     1      -5.060   5.863  13.126  1.00  0.00    -0.340 OA
BRANCH  13  18
HETATM   18  O2  UNL     1      -6.579   0.847  11.395  1.00  0.00    -0.361 OA
HETATM   19  H36 UNL     1      -7.509   0.673  11.613  1.00  0.00     0.217 HD
ENDBRANCH  13  18
ENDBRANCH   5   6
ENDBRANCH   4   5
ENDBRANCH   3   4
BRANCH   1  20
HETATM   20  C11 UNL     1      -1.088   8.453  11.492  1.00  0.00     0.034 C 
BRANCH  20  21
HETATM   21  C10 UNL     1       0.421   8.668  11.696  1.00  0.00     0.014 C 
BRANCH  21  22
HETATM   22  C9  UNL     1       1.281   8.132  10.519  1.00  0.00     0.024 C 
HETATM   23  C2  UNL     1       0.757   8.383   9.109  1.00  0.00    -0.084 C 
HETATM   24  C1  UNL     1      -0.511   8.674   8.780  1.00  0.00     0.015 C 
HETATM   25  C3  UNL     1       1.807   8.197   8.031  1.00  0.00     0.036 C 
HETATM   26  C4  UNL     1       2.791   7.077   8.382  1.00  0.00     0.037 C 
HETATM   27  C5  UNL     1       2.131   6.023   9.272  1.00  0.00     0.127 C 
HETATM   28  C6  UNL     1       1.681   6.607  10.661  1.00  0.00    -0.014 C 
HETATM   29  C7  UNL     1       2.820   6.488  11.704  1.00  0.00     0.018 C 
HETATM   30  C8  UNL     1       0.505   5.739  11.166  1.00  0.00     0.018 C 
BRANCH  27  31
HETATM   31  O1  UNL     1       3.000   4.902   9.415  1.00  0.00    -0.395 OA
HETATM   32  H8  UNL     1       3.879   5.229   9.671  1.00  0.00     0.210 HD
ENDBRANCH  27  31
ENDBRANCH  21  22
ENDBRANCH  20  21
ENDBRANCH   1  20
TORSDOF 8
ENDMDL
MODEL 2
REMARK minimizedAffinity -9.47681332
REMARK CNNscore 0.810963809
REMARK CNNaffinity 7.04830408
REMARK  8 active torsions:
REMARK  status: ('A' for Active; 'I' for Inactive)
REMARK    1  A    between atoms: C5_5  and  O1_6 
REMARK    2  A    between atoms: C9_10  and  C10_11 
REMARK    3  A    between atoms: C10_11  and  C11_12 
REMARK    4  A    between atoms: C11_12  and  C12_13 
REMARK    5  A    between atoms: C14_15  and  C15_16 
REMARK    6  A    between atoms: C15_16  and  C16_17 
REMARK    7  A    between atoms: C16_17  and  C17_18 
REMARK    8  A    between atoms: C23_24  and  O2_25 
ROOT
HETATM    1  C12 UNL     1      -0.195   8.387  13.206  1.00  0.00    -0.087 C 
HETATM    2  C13 UNL     1       0.406   7.498  14.266  1.00  0.00     0.043 C 
HETATM    3  C14 UNL     1      -1.486   8.783  13.197  1.00  0.00    -0.024 C 
ENDROOT
BRANCH   3   4
HETATM    4  C15 UNL     1      -2.533   8.420  14.214  1.00  0.00     0.030 C 
BRANCH   4   5
HETATM    5  C16 UNL     1      -3.946   8.154  13.663  1.00  0.00     0.042 C 
BRANCH   5   6
HETATM    6  C17 UNL     1      -4.698   6.882  14.148  1.00  0.00     0.065 C 
HETATM    7  C18 UNL     1      -4.093   6.346  15.458  1.00  0.00     0.046 C 
HETATM    8  C19 UNL     1      -6.179   7.281  14.319  1.00  0.00     0.043 C 
HETATM    9  C20 UNL     1      -7.049   6.080  14.645  1.00  0.00     0.044 C 
HETATM   10  C21 UNL     1      -6.716   4.936  13.736  1.00  0.00    -0.021 A 
HETATM   11  C22 UNL     1      -7.624   3.875  13.603  1.00  0.00     0.046 A 
HETATM   12  C27 UNL     1      -5.497   4.894  13.044  1.00  0.00     0.082 A 
HETATM   13  C23 UNL     1      -7.321   2.804  12.771  1.00  0.00     0.066 A 
HETATM   14  C24 UNL     1      -6.124   2.765  12.069  1.00  0.00     0.046 A 
HETATM   15  C25 UNL     1      -5.202   3.813  12.196  1.00  0.00    -0.025 A 
HETATM   16  C26 UNL     1      -3.903   3.761  11.447  1.00  0.00     0.051 C 
HETATM   17  O3  UNL     1      -4.550   5.883  13.123  1.00  0.00    -0.340 OA
BRANCH  13  18
HETATM   18  O2  UNL     1      -8.184   1.760  12.613  1.00  0.00    -0.361 OA
HETATM   19  H36 UNL     1      -8.987   1.942  13.127  1.00  0.00     0.217 HD
ENDBRANCH  13  18
ENDBRANCH   5   6
ENDBRANCH   4   5
ENDBRANCH   3   4
BRANCH   1  20
HETATM   20  C11 UNL     1       0.789   8.903  12.168  1.00  0.00     0.034 C 
BRANCH  20  21
HETATM   21  C10 UNL     1       1.949   7.930  11.894  1.00  0.00     0.014 C 
BRANCH  21  22
HETATM   22  C9  UNL     1       2.222   7.715  10.381  1.00  0.00     0.024 C 
HETATM   23  C2  UNL     1       1.125   8.141   9.411  1.00  0.00    -0.084 C 
HETATM   24  C1  UNL     1      -0.168   8.330   9.718  1.00  0.00     0.015 C 
HETATM   25  C3  UNL     1       1.601   8.272   7.978  1.00  0.00     0.036 C 
HETATM   26  C4  UNL     1       2.676   7.236   7.637  1.00  0.00     0.037 C 
HETATM   27  C5  UNL     1       2.508   5.972   8.482  1.00  0.00     0.127 C 
HETATM   28  C6  UNL     1       2.694   6.247  10.019  1.00  0.00    -0.014 C 
HETATM   29  C7  UNL     1       4.178   6.087  10.431  1.00  0.00     0.018 C 
HETATM   30  C8  UNL     1       1.887   5.170  10.780  1.00  0.00     0.018 C 
BRANCH  27  31
HETATM   31  O1  UNL     1       3.389   4.956   8.006  1.00  0.00    -0.395 OA
HETATM   32  H8  UNL     1       4.279   5.337   7.928  1.00  0.00     0.210 HD
ENDBRANCH  27  31
ENDBRANCH  21  22
ENDBRANCH  20  21
ENDBRANCH   1  20
TORSDOF 8
ENDMDL
MODEL 3
REMARK minimizedAffinity -9.40585804
REMARK CNNscore 0.808529317
REMARK CNNaffinity 7.25805426
REMARK  8 active torsions:
REMARK  status: ('A' for Active; 'I' for Inactive)
REMARK    1  A    between atoms: C5_5  and  O1_6 
REMARK    2  A    between atoms: C9_10  and  C10_11 
REMARK    3  A    between atoms: C10_11  and  C11_12 
REMARK    4  A    between atoms: C11_12  and  C12_13 
REMARK    5  A    between atoms: C14_15  and  C15_16 
REMARK    6  A    between atoms: C15_16  and  C16_17 
REMARK    7  A    between atoms: C16_17  and  C17_18 
REMARK    8  A    between atoms: C23_24  and  O2_25 
ROOT
HETATM    1  C12 UNL     1      -0.556   8.154  12.958  1.00  0.00    -0.087 C 
HETATM    2  C13 UNL     1      -1.330   9.121  12.097  1.00  0.00     0.043 C 
HETATM    3  C14 UNL     1      -0.918   7.800  14.210  1.00  0.00    -0.024 C 
ENDROOT
BRANCH   3   4
HETATM    4  C15 UNL     1      -2.128   8.292  14.955  1.00  0.00     0.030 C 
BRANCH   4   5
HETATM    5  C16 UNL     1      -3.170   7.224  15.333  1.00  0.00     0.042 C 
BRANCH   5   6
HETATM    6  C17 UNL     1      -4.052   6.623  14.201  1.00  0.00     0.065 C 
HETATM    7  C18 UNL     1      -4.455   7.701  13.180  1.00  0.00     0.046 C 
HETATM    8  C19 UNL     1      -3.226   5.493  13.550  1.00  0.00     0.043 C 
HETATM    9  C20 UNL     1      -4.041   4.723  12.526  1.00  0.00     0.044 C 
HETATM   10  C21 UNL     1      -5.393   4.393  13.080  1.00  0.00    -0.021 A 
HETATM   11  C22 UNL     1      -6.160   3.387  12.472  1.00  0.00     0.046 A 
HETATM   12  C27 UNL     1      -5.917   5.097  14.173  1.00  0.00     0.082 A 
HETATM   13  C23 UNL     1      -7.420   3.080  12.972  1.00  0.00     0.066 A 
HETATM   14  C24 UNL     1      -7.937   3.761  14.066  1.00  0.00     0.046 A 
HETATM   15  C25 UNL     1      -7.188   4.773  14.680  1.00  0.00    -0.025 A 
HETATM   16  C26 UNL     1      -7.755   5.516  15.852  1.00  0.00     0.051 C 
HETATM   17  O3  UNL     1      -5.240   6.098  14.821  1.00  0.00    -0.340 OA
BRANCH  13  18
HETATM   18  O2  UNL     1      -8.189   2.104  12.410  1.00  0.00    -0.361 OA
HETATM   19  H36 UNL     1      -7.687   1.692  11.688  1.00  0.00     0.217 HD
ENDBRANCH  13  18
ENDBRANCH   5   6
ENDBRANCH   4   5
ENDBRANCH   3   4
BRANCH   1  20
HETATM   20  C11 UNL     1       0.643   7.508  12.279  1.00  0.00     0.034 C 
BRANCH  20  21
HETATM   21  C10 UNL     1       1.528   8.515  11.525  1.00  0.00     0.014 C 
BRANCH  21  22
HETATM   22  C9  UNL     1       1.991   8.002  10.134  1.00  0.00     0.024 C 
HETATM   23  C2  UNL     1       1.032   8.208   8.966  1.00  0.00    -0.084 C 
HETATM   24  C1  UNL     1      -0.287   8.437   9.060  1.00  0.00     0.015 C 
HETATM   25  C3  UNL     1       1.689   8.054   7.609  1.00  0.00     0.036 C 
HETATM   26  C4  UNL     1       2.786   6.985   7.626  1.00  0.00     0.037 C 
HETATM   27  C5  UNL     1       2.496   5.916   8.680  1.00  0.00     0.127 C 
HETATM   28  C6  UNL     1       2.487   6.498  10.140  1.00  0.00    -0.014 C 
HETATM   29  C7  UNL     1       3.904   6.446  10.763  1.00  0.00     0.018 C 
HETATM   30  C8  UNL     1       1.576   5.586  10.994  1.00  0.00     0.018 C 
BRANCH  27  31
HETATM   31  O1  UNL     1       3.418   4.836   8.536  1.00  0.00    -0.395 OA
HETATM   32  H8  UNL     1       4.316   5.207   8.497  1.00  0.00     0.210 HD
ENDBRANCH  27  31
ENDBRANCH  21  22
ENDBRANCH  20  21
ENDBRANCH   1  20
TORSDOF 8
ENDMDL
MODEL 4
REMARK minimizedAffinity -8.855896
REMARK CNNscore 0.805972576
REMARK CNNaffinity 7.17672205
REMARK  8 active torsions:
REMARK  status: ('A' for Active; 'I' for Inactive)
REMARK    1  A    between atoms: C5_5  and  O1_6 
REMARK    2  A    between atoms: C9_10  and  C10_11 
REMARK    3  A    between atoms: C10_11  and  C11_12 
REMARK    4  A    between atoms: C11_12  and  C12_13 
REMARK    5  A    between atoms: C14_15  and  C15_16 
REMARK    6  A    between atoms: C15_16  and  C16_17 
REMARK    7  A    between atoms: C16_17  and  C17_18 
REMARK    8  A    between atoms: C23_24  and  O2_25 
ROOT
HETATM    1  C12 UNL     1      -2.842   8.804  13.698  1.00  0.00    -0.087 C 
HETATM    2  C13 UNL     1      -2.090   8.550  14.981  1.00  0.00     0.043 C 
HETATM    3  C14 UNL     1      -4.188   8.882  13.614  1.00  0.00    -0.024 C 
ENDROOT
BRANCH   3   4
HETATM    4  C15 UNL     1      -5.157   8.732  14.754  1.00  0.00     0.030 C 
BRANCH   4   5
HETATM    5  C16 UNL     1      -6.502   8.065  14.414  1.00  0.00     0.042 C 
BRANCH   5   6
HETATM    6  C17 UNL     1      -6.562   6.512  14.364  1.00  0.00     0.065 C 
HETATM    7  C18 UNL     1      -6.489   5.908  15.778  1.00  0.00     0.046 C 
HETATM    8  C19 UNL     1      -7.879   6.142  13.649  1.00  0.00     0.043 C 
HETATM    9  C20 UNL     1      -7.982   4.648  13.401  1.00  0.00     0.044 C 
HETATM   10  C21 UNL     1      -6.693   4.124  12.844  1.00  0.00    -0.021 A 
HETATM   11  C22 UNL     1      -6.677   2.877  12.201  1.00  0.00     0.046 A 
HETATM   12  C27 UNL     1      -5.499   4.845  12.986  1.00  0.00     0.082 A 
HETATM   13  C23 UNL     1      -5.485   2.377  11.690  1.00  0.00     0.066 A 
HETATM   14  C24 UNL     1      -4.303   3.094  11.812  1.00  0.00     0.046 A 
HETATM   15  C25 UNL     1      -4.300   4.337  12.457  1.00  0.00    -0.025 A 
HETATM   16  C26 UNL     1      -3.018   5.103  12.598  1.00  0.00     0.051 C 
HETATM   17  O3  UNL     1      -5.423   6.065  13.606  1.00  0.00    -0.340 OA
BRANCH  13  18
HETATM   18  O2  UNL     1      -5.435   1.172  11.054  1.00  0.00    -0.361 OA
HETATM   19  H36 UNL     1      -6.334   0.807  11.009  1.00  0.00     0.217 HD
ENDBRANCH  13  18
ENDBRANCH   5   6
ENDBRANCH   4   5
ENDBRANCH   3   4
BRANCH   1  20
HETATM   20  C11 UNL     1      -1.967   9.070  12.483  1.00  0.00     0.034 C 
BRANCH  20  21
HETATM   21  C10 UNL     1      -0.481   8.755  12.725  1.00  0.00     0.014 C 
BRANCH  21  22
HETATM   22  C9  UNL     1      -0.070   7.336  12.248  1.00  0.00     0.024 C 
HETATM   23  C2  UNL     1       0.488   6.386  13.303  1.00  0.00    -0.084 C 
HETATM   24  C1  UNL     1       1.003   6.742  14.490  1.00  0.00     0.015 C 
HETATM   25  C3  UNL     1       0.493   4.934  12.868  1.00  0.00     0.036 C 
HETATM   26  C4  UNL     1       0.768   4.789  11.369  1.00  0.00     0.037 C 
HETATM   27  C5  UNL     1       1.619   5.950  10.851  1.00  0.00     0.127 C 
HETATM   28  C6  UNL     1       0.892   7.337  10.990  1.00  0.00    -0.014 C 
HETATM   29  C7  UNL     1       0.053   7.648   9.726  1.00  0.00     0.018 C 
HETATM   30  C8  UNL     1       1.987   8.423  11.093  1.00  0.00     0.018 C 
BRANCH  27  31
HETATM   31  O1  UNL     1       2.026   5.686   9.510  1.00  0.00    -0.395 OA
HETATM   32  H8  UNL     1       1.240   5.434   8.997  1.00  0.00     0.210 HD
ENDBRANCH  27  31
ENDBRANCH  21  22
ENDBRANCH  20  21
ENDBRANCH   1  20
TORSDOF 8
ENDMDL
MODEL 5
REMARK minimizedAffinity -8.31303787
REMARK CNNscore 0.74260819
REMARK CNNaffinity 7.49555588
REMARK  8 active torsions:
REMARK  status: ('A' for Active; 'I' for Inactive)
REMARK    1  A    between atoms: C5_5  and  O1_6 
REMARK    2  A    between atoms: C9_10  and  C10_11 
REMARK    3  A    between atoms: C10_11  and  C11_12 
REMARK    4  A    between atoms: C11_12  and  C12_13 
REMARK    5  A    between atoms: C14_15  and  C15_16 
REMARK    6  A    between atoms: C15_16  and  C16_17 
REMARK    7  A    between atoms: C16_17  and  C17_18 
REMARK    8  A    between atoms: C23_24  and  O2_25 
ROOT
HETATM    1  C12 UNL     1      -7.062   7.950  15.605  1.00  0.00    -0.087 C 
HETATM    2  C13 UNL     1      -7.053   6.988  16.767  1.00  0.00     0.043 C 
HETATM    3  C14 UNL     1      -5.960   8.565  15.125  1.00  0.00    -0.024 C 
ENDROOT
BRANCH   3   4
HETATM    4  C15 UNL     1      -4.558   8.409  15.649  1.00  0.00     0.030 C 
BRANCH   4   5
HETATM    5  C16 UNL     1      -3.952   6.997  15.546  1.00  0.00     0.042 C 
BRANCH   5   6
HETATM    6  C17 UNL     1      -3.958   6.292  14.160  1.00  0.00     0.065 C 
HETATM    7  C18 UNL     1      -3.828   7.314  13.017  1.00  0.00     0.046 C 
HETATM    8  C19 UNL     1      -2.786   5.288  14.170  1.00  0.00     0.043 C 
HETATM    9  C20 UNL     1      -2.778   4.424  12.922  1.00  0.00     0.044 C 
HETATM   10  C21 UNL     1      -4.158   3.911  12.637  1.00  0.00    -0.021 A 
HETATM   11  C22 UNL     1      -4.321   2.817  11.774  1.00  0.00     0.046 A 
HETATM   12  C27 UNL     1      -5.286   4.531  13.191  1.00  0.00     0.082 A 
HETATM   13  C23 UNL     1      -5.596   2.340  11.494  1.00  0.00     0.066 A 
HETATM   14  C24 UNL     1      -6.718   2.938  12.054  1.00  0.00     0.046 A 
HETATM   15  C25 UNL     1      -6.573   4.037  12.911  1.00  0.00    -0.025 A 
HETATM   16  C26 UNL     1      -7.787   4.689  13.503  1.00  0.00     0.051 C 
HETATM   17  O3  UNL     1      -5.218   5.609  14.035  1.00  0.00    -0.340 OA
BRANCH  13  18
HETATM   18  O2  UNL     1      -5.791   1.275  10.666  1.00  0.00    -0.361 OA
HETATM   19  H36 UNL     1      -4.925   0.939  10.385  1.00  0.00     0.217 HD
ENDBRANCH  13  18
ENDBRANCH   5   6
ENDBRANCH   4   5
ENDBRANCH   3   4
BRANCH   1  20
HETATM   20  C11 UNL     1      -8.411   8.120  14.922  1.00  0.00     0.034 C 
BRANCH  20  21
HETATM   21  C10 UNL     1      -9.528   7.283  15.569  1.00  0.00     0.014 C 
BRANCH  21  22
HETATM   22  C9  UNL     1     -10.953   7.735  15.150  1.00  0.00     0.024 C 
HETATM   23  C2  UNL     1     -11.427   7.328  13.758  1.00  0.00    -0.084 C 
HETATM   24  C1  UNL     1     -10.641   6.956  12.736  1.00  0.00     0.015 C 
HETATM   25  C3  UNL     1     -12.926   7.450  13.570  1.00  0.00     0.036 C 
HETATM   26  C4  UNL     1     -13.503   8.637  14.348  1.00  0.00     0.037 C 
HETATM   27  C5  UNL     1     -12.462   9.745  14.512  1.00  0.00     0.127 C 
HETATM   28  C6  UNL     1     -11.220   9.282  15.358  1.00  0.00    -0.014 C 
HETATM   29  C7  UNL     1     -11.451   9.547  16.866  1.00  0.00     0.018 C 
HETATM   30  C8  UNL     1     -10.016  10.147  14.919  1.00  0.00     0.018 C 
BRANCH  27  31
HETATM   31  O1  UNL     1     -13.081  10.909  15.057  1.00  0.00    -0.395 OA
HETATM   32  H8  UNL     1     -13.592  10.643  15.840  1.00  0.00     0.210 HD
ENDBRANCH  27  31
ENDBRANCH  21  22
ENDBRANCH  20  21
ENDBRANCH   1  20
TORSDOF 8
ENDMDL
MODEL 6
REMARK minimizedAffinity -7.66693974
REMARK CNNscore 0.719038904
REMARK CNNaffinity 6.91658592
REMARK  8 active torsions:
REMARK  status: ('A' for Active; 'I' for Inactive)
REMARK    1  A    between atoms: C5_5  and  O1_6 
REMARK    2  A    between atoms: C9_10  and  C10_11 
REMARK    3  A    between atoms: C10_11  and  C11_12 
REMARK    4  A    between atoms: C11_12  and  C12_13 
REMARK    5  A    between atoms: C14_15  and  C15_16 
REMARK    6  A    between atoms: C15_16  and  C16_17 
REMARK    7  A    between atoms: C16_17  and  C17_18 
REMARK    8  A    between atoms: C23_24  and  O2_25 
ROOT
HETATM    1  C12 UNL     1      -3.338  10.054  14.366  1.00  0.00    -0.087 C 
HETATM    2  C13 UNL     1      -4.367  10.249  15.451  1.00  0.00     0.043 C 
HETATM    3  C14 UNL     1      -3.518   9.258  13.289  1.00  0.00    -0.024 C 
ENDROOT
BRANCH   3   4
HETATM    4  C15 UNL     1      -4.744   8.441  12.985  1.00  0.00     0.030 C 
BRANCH   4   5
HETATM    5  C16 UNL     1      -5.550   7.953  14.202  1.00  0.00     0.042 C 
BRANCH   5   6
HETATM    6  C17 UNL     1      -5.892   6.439  14.300  1.00  0.00     0.065 C 
HETATM    7  C18 UNL     1      -5.577   5.890  15.703  1.00  0.00     0.046 C 
HETATM    8  C19 UNL     1      -7.389   6.300  13.950  1.00  0.00     0.043 C 
HETATM    9  C20 UNL     1      -7.810   4.844  13.862  1.00  0.00     0.044 C 
HETATM   10  C21 UNL     1      -6.812   4.062  13.063  1.00  0.00    -0.021 A 
HETATM   11  C22 UNL     1      -7.175   2.810  12.544  1.00  0.00     0.046 A 
HETATM   12  C27 UNL     1      -5.513   4.546  12.857  1.00  0.00     0.082 A 
HETATM   13  C23 UNL     1      -6.254   2.071  11.811  1.00  0.00     0.066 A 
HETATM   14  C24 UNL     1      -4.971   2.554  11.588  1.00  0.00     0.046 A 
HETATM   15  C25 UNL     1      -4.590   3.799  12.106  1.00  0.00    -0.025 A 
HETATM   16  C26 UNL     1      -3.200   4.311  11.875  1.00  0.00     0.051 C 
HETATM   17  O3  UNL     1      -5.073   5.754  13.336  1.00  0.00    -0.340 OA
BRANCH  13  18
HETATM   18  O2  UNL     1      -6.575   0.854  11.286  1.00  0.00    -0.361 OA
HETATM   19  H36 UNL     1      -7.506   0.667  11.486  1.00  0.00     0.217 HD
ENDBRANCH  13  18
ENDBRANCH   5   6
ENDBRANCH   4   5
ENDBRANCH   3   4
BRANCH   1  20
HETATM   20  C11 UNL     1      -2.085  10.903  14.508  1.00  0.00     0.034 C 
BRANCH  20  21
HETATM   21  C10 UNL     1      -0.930  10.168  15.209  1.00  0.00     0.014 C 
BRANCH  21  22
HETATM   22  C9  UNL     1      -0.701   8.731  14.668  1.00  0.00     0.024 C 
HETATM   23  C2  UNL     1      -1.411   7.595  15.399  1.00  0.00    -0.084 C 
HETATM   24  C1  UNL     1      -1.898   7.646  16.649  1.00  0.00     0.015 C 
HETATM   25  C3  UNL     1      -1.468   6.306  14.604  1.00  0.00     0.036 C 
HETATM   26  C4  UNL     1      -0.212   6.108  13.749  1.00  0.00     0.037 C 
HETATM   27  C5  UNL     1       0.999   6.794  14.384  1.00  0.00     0.127 C 
HETATM   28  C6  UNL     1       0.825   8.353  14.480  1.00  0.00    -0.014 C 
HETATM   29  C7  UNL     1       1.352   9.046  13.199  1.00  0.00     0.018 C 
HETATM   30  C8  UNL     1       1.697   8.842  15.659  1.00  0.00     0.018 C 
BRANCH  27  31
HETATM   31  O1  UNL     1       2.183   6.426  13.678  1.00  0.00    -0.395 OA
HETATM   32  H8  UNL     1       2.026   6.563  12.729  1.00  0.00     0.210 HD
ENDBRANCH  27  31
ENDBRANCH  21  22
ENDBRANCH  20  21
ENDBRANCH   1  20
TORSDOF 8
ENDMDL
MODEL 7
REMARK minimizedAffinity -9.34389496
REMARK CNNscore 0.689832807
REMARK CNNaffinity 6.94097471
REMARK  8 active torsions:
REMARK  status: ('A' for Active; 'I' for Inactive)
REMARK    1  A    between atoms: C5_5  and  O1_6 
REMARK    2  A    between atoms: C9_10  and  C10_11 
REMARK    3  A    between atoms: C10_11  and  C11_12 
REMARK    4  A    between atoms: C11_12  and  C12_13 
REMARK    5  A    between atoms: C14_15  and  C15_16 
REMARK    6  A    between atoms: C15_16  and  C16_17 
REMARK    7  A    between atoms: C16_17  and  C17_18 
REMARK    8  A    between atoms: C23_24  and  O2_25 
ROOT
HETATM    1  C12 UNL     1      -0.489   7.205  12.943  1.00  0.00    -0.087 C 
HETATM    2  C13 UNL     1      -1.873   7.711  13.263  1.00  0.00     0.043 C 
HETATM    3  C14 UNL     1      -0.143   5.899  12.946  1.00  0.00    -0.024 C 
ENDROOT
BRANCH   3   4
HETATM    4  C15 UNL     1      -1.051   4.742  13.260  1.00  0.00     0.030 C 
BRANCH   4   5
HETATM    5  C16 UNL     1      -1.331   3.768  12.101  1.00  0.00     0.042 C 
BRANCH   5   6
HETATM    6  C17 UNL     1      -2.799   3.602  11.616  1.00  0.00     0.065 C 
HETATM    7  C18 UNL     1      -2.940   3.982  10.131  1.00  0.00     0.046 C 
HETATM    8  C19 UNL     1      -3.186   2.130  11.872  1.00  0.00     0.043 C 
HETATM    9  C20 UNL     1      -4.654   1.878  11.580  1.00  0.00     0.044 C 
HETATM   10  C21 UNL     1      -5.498   2.956  12.189  1.00  0.00    -0.021 A 
HETATM   11  C22 UNL     1      -6.872   2.737  12.367  1.00  0.00     0.046 A 
HETATM   12  C27 UNL     1      -4.941   4.190  12.551  1.00  0.00     0.082 A 
HETATM   13  C23 UNL     1      -7.666   3.734  12.921  1.00  0.00     0.066 A 
HETATM   14  C24 UNL     1      -7.118   4.953  13.299  1.00  0.00     0.046 A 
HETATM   15  C25 UNL     1      -5.748   5.190  13.121  1.00  0.00    -0.025 A 
HETATM   16  C26 UNL     1      -5.162   6.512  13.517  1.00  0.00     0.051 C 
HETATM   17  O3  UNL     1      -3.612   4.491  12.405  1.00  0.00    -0.340 OA
BRANCH  13  18
HETATM   18  O2  UNL     1      -9.004   3.553  13.115  1.00  0.00    -0.361 OA
HETATM   19  H36 UNL     1      -9.236   2.650  12.845  1.00  0.00     0.217 HD
ENDBRANCH  13  18
ENDBRANCH   5   6
ENDBRANCH   4   5
ENDBRANCH   3   4
BRANCH   1  20
HETATM   20  C11 UNL     1       0.503   8.274  12.513  1.00  0.00     0.034 C 
BRANCH  20  21
HETATM   21  C10 UNL     1       1.878   7.705  12.125  1.00  0.00     0.014 C 
BRANCH  21  22
HETATM   22  C9  UNL     1       2.111   7.660  10.590  1.00  0.00     0.024 C 
HETATM   23  C2  UNL     1       0.956   8.110   9.701  1.00  0.00    -0.084 C 
HETATM   24  C1  UNL     1      -0.334   8.185  10.063  1.00  0.00     0.015 C 
HETATM   25  C3  UNL     1       1.372   8.414   8.276  1.00  0.00     0.036 C 
HETATM   26  C4  UNL     1       2.495   7.487   7.800  1.00  0.00     0.037 C 
HETATM   27  C5  UNL     1       2.434   6.138   8.516  1.00  0.00     0.127 C 
HETATM   28  C6  UNL     1       2.657   6.269  10.067  1.00  0.00    -0.014 C 
HETATM   29  C7  UNL     1       4.162   6.164  10.418  1.00  0.00     0.018 C 
HETATM   30  C8  UNL     1       1.945   5.072  10.737  1.00  0.00     0.018 C 
BRANCH  27  31
HETATM   31  O1  UNL     1       3.357   5.232   7.914  1.00  0.00    -0.395 OA
HETATM   32  H8  UNL     1       4.220   5.675   7.849  1.00  0.00     0.210 HD
ENDBRANCH  27  31
ENDBRANCH  21  22
ENDBRANCH  20  21
ENDBRANCH   1  20
TORSDOF 8
ENDMDL
MODEL 8
REMARK minimizedAffinity -8.3486433
REMARK CNNscore 0.671069682
REMARK CNNaffinity 7.35318708
REMARK  8 active torsions:
REMARK  status: ('A' for Active; 'I' for Inactive)
REMARK    1  A    between atoms: C5_5  and  O1_6 
REMARK    2  A    between atoms: C9_10  and  C10_11 
REMARK    3  A    between atoms: C10_11  and  C11_12 
REMARK    4  A    between atoms: C11_12  and  C12_13 
REMARK    5  A    between atoms: C14_15  and  C15_16 
REMARK    6  A    between atoms: C15_16  and  C16_17 
REMARK    7  A    between atoms: C16_17  and  C17_18 
REMARK    8  A    between atoms: C23_24  and  O2_25 
ROOT
HETATM    1  C12 UNL     1      -9.227   7.008  14.924  1.00  0.00    -0.087 C 
HETATM    2  C13 UNL     1      -9.313   7.768  16.223  1.00  0.00     0.043 C 
HETATM    3  C14 UNL     1      -8.262   6.107  14.638  1.00  0.00    -0.024 C 
ENDROOT
BRANCH   3   4
HETATM    4  C15 UNL     1      -7.126   5.709  15.539  1.00  0.00     0.030 C 
BRANCH   4   5
HETATM    5  C16 UNL     1      -5.855   6.573  15.446  1.00  0.00     0.042 C 
BRANCH   5   6
HETATM    6  C17 UNL     1      -4.983   6.466  14.163  1.00  0.00     0.065 C 
HETATM    7  C18 UNL     1      -5.251   7.646  13.211  1.00  0.00     0.046 C 
HETATM    8  C19 UNL     1      -3.512   6.424  14.628  1.00  0.00     0.043 C 
HETATM    9  C20 UNL     1      -2.565   6.167  13.470  1.00  0.00     0.044 C 
HETATM   10  C21 UNL     1      -3.079   5.045  12.619  1.00  0.00    -0.021 A 
HETATM   11  C22 UNL     1      -2.205   4.398  11.733  1.00  0.00     0.046 A 
HETATM   12  C27 UNL     1      -4.425   4.658  12.671  1.00  0.00     0.082 A 
HETATM   13  C23 UNL     1      -2.674   3.363  10.931  1.00  0.00     0.066 A 
HETATM   14  C24 UNL     1      -4.002   2.963  10.990  1.00  0.00     0.046 A 
HETATM   15  C25 UNL     1      -4.889   3.603  11.865  1.00  0.00    -0.025 A 
HETATM   16  C26 UNL     1      -6.326   3.177  11.916  1.00  0.00     0.051 C 
HETATM   17  O3  UNL     1      -5.347   5.241  13.501  1.00  0.00    -0.340 OA
BRANCH  13  18
HETATM   18  O2  UNL     1      -1.850   2.708  10.063  1.00  0.00    -0.361 OA
HETATM   19  H36 UNL     1      -0.953   3.065  10.159  1.00  0.00     0.217 HD
ENDBRANCH  13  18
ENDBRANCH   5   6
ENDBRANCH   4   5
ENDBRANCH   3   4
BRANCH   1  20
HETATM   20  C11 UNL     1     -10.378   7.252  13.960  1.00  0.00     0.034 C 
BRANCH  20  21
HETATM   21  C10 UNL     1     -11.759   6.989  14.586  1.00  0.00     0.014 C 
BRANCH  21  22
HETATM   22  C9  UNL     1     -12.797   8.100  14.268  1.00  0.00     0.024 C 
HETATM   23  C2  UNL     1     -14.184   7.645  13.827  1.00  0.00    -0.084 C 
HETATM   24  C1  UNL     1     -14.497   6.437  13.332  1.00  0.00     0.015 C 
HETATM   25  C3  UNL     1     -15.235   8.733  13.917  1.00  0.00     0.036 C 
HETATM   26  C4  UNL     1     -14.655  10.114  13.595  1.00  0.00     0.037 C 
HETATM   27  C5  UNL     1     -13.468  10.002  12.638  1.00  0.00     0.127 C 
HETATM   28  C6  UNL     1     -12.267   9.201  13.261  1.00  0.00    -0.014 C 
HETATM   29  C7  UNL     1     -11.309  10.149  14.023  1.00  0.00     0.018 C 
HETATM   30  C8  UNL     1     -11.467   8.585  12.090  1.00  0.00     0.018 C 
BRANCH  27  31
HETATM   31  O1  UNL     1     -13.079  11.303  12.200  1.00  0.00    -0.395 OA
HETATM   32  H8  UNL     1     -12.981  11.870  12.983  1.00  0.00     0.210 HD
ENDBRANCH  27  31
ENDBRANCH  21  22
ENDBRANCH  20  21
ENDBRANCH   1  20
TORSDOF 8
ENDMDL
MODEL 9
REMARK minimizedAffinity -8.79617977
REMARK CNNscore 0.66803503
REMARK CNNaffinity 6.66664267
REMARK  8 active torsions:
REMARK  status: ('A' for Active; 'I' for Inactive)
REMARK    1  A    between atoms: C5_5  and  O1_6 
REMARK    2  A    between atoms: C9_10  and  C10_11 
REMARK    3  A    between atoms: C10_11  and  C11_12 
REMARK    4  A    between atoms: C11_12  and  C12_13 
REMARK    5  A    between atoms: C14_15  and  C15_16 
REMARK    6  A    between atoms: C15_16  and  C16_17 
REMARK    7  A    between atoms: C16_17  and  C17_18 
REMARK    8  A    between atoms: C23_24  and  O2_25 
ROOT
HETATM    1  C12 UNL     1      -0.735   8.026  13.459  1.00  0.00    -0.087 C 
HETATM    2  C13 UNL     1      -0.503   9.495  13.706  1.00  0.00     0.043 C 
HETATM    3  C14 UNL     1      -1.908   7.507  13.035  1.00  0.00    -0.024 C 
ENDROOT
BRANCH   3   4
HETATM    4  C15 UNL     1      -3.165   8.279  12.741  1.00  0.00     0.030 C 
BRANCH   4   5
HETATM    5  C16 UNL     1      -4.325   8.085  13.733  1.00  0.00     0.042 C 
BRANCH   5   6
HETATM    6  C17 UNL     1      -4.877   6.647  13.950  1.00  0.00     0.065 C 
HETATM    7  C18 UNL     1      -4.541   6.131  15.361  1.00  0.00     0.046 C 
HETATM    8  C19 UNL     1      -6.400   6.716  13.709  1.00  0.00     0.043 C 
HETATM    9  C20 UNL     1      -7.035   5.338  13.742  1.00  0.00     0.044 C 
HETATM   10  C21 UNL     1      -6.225   4.373  12.930  1.00  0.00    -0.021 A 
HETATM   11  C22 UNL     1      -6.805   3.165  12.516  1.00  0.00     0.046 A 
HETATM   12  C27 UNL     1      -4.889   4.645  12.608  1.00  0.00     0.082 A 
HETATM   13  C23 UNL     1      -6.060   2.258  11.772  1.00  0.00     0.066 A 
HETATM   14  C24 UNL     1      -4.741   2.529  11.434  1.00  0.00     0.046 A 
HETATM   15  C25 UNL     1      -4.144   3.728  11.845  1.00  0.00    -0.025 A 
HETATM   16  C26 UNL     1      -2.715   4.012  11.491  1.00  0.00     0.051 C 
HETATM   17  O3  UNL     1      -4.242   5.796  12.978  1.00  0.00    -0.340 OA
BRANCH  13  18
HETATM   18  O2  UNL     1      -6.594   1.077  11.347  1.00  0.00    -0.361 OA
HETATM   19  H36 UNL     1      -7.525   1.043  11.621  1.00  0.00     0.217 HD
ENDBRANCH  13  18
ENDBRANCH   5   6
ENDBRANCH   4   5
ENDBRANCH   3   4
BRANCH   1  20
HETATM   20  C11 UNL     1       0.493   7.144  13.629  1.00  0.00     0.034 C 
BRANCH  20  21
HETATM   21  C10 UNL     1       1.799   7.836  13.202  1.00  0.00     0.014 C 
BRANCH  21  22
HETATM   22  C9  UNL     1       2.590   7.041  12.128  1.00  0.00     0.024 C 
HETATM   23  C2  UNL     1       4.040   7.449  11.893  1.00  0.00    -0.084 C 
HETATM   24  C1  UNL     1       4.592   8.626  12.228  1.00  0.00     0.015 C 
HETATM   25  C3  UNL     1       4.848   6.408  11.144  1.00  0.00     0.036 C 
HETATM   26  C4  UNL     1       4.000   5.665  10.108  1.00  0.00     0.037 C 
HETATM   27  C5  UNL     1       2.860   6.546   9.597  1.00  0.00     0.127 C 
HETATM   28  C6  UNL     1       1.847   6.939  10.733  1.00  0.00    -0.014 C 
HETATM   29  C7  UNL     1       0.716   5.887  10.850  1.00  0.00     0.018 C 
HETATM   30  C8  UNL     1       1.189   8.276  10.322  1.00  0.00     0.018 C 
BRANCH  27  31
HETATM   31  O1  UNL     1       2.214   5.907   8.496  1.00  0.00    -0.395 OA
HETATM   32  H8  UNL     1       2.004   4.995   8.756  1.00  0.00     0.210 HD
ENDBRANCH  27  31
ENDBRANCH  21  22
ENDBRANCH  20  21
ENDBRANCH   1  20
TORSDOF 8
ENDMDL
