MODEL 1
REMARK minimizedAffinity -7.54345608
REMARK CNNscore 0.843728483
REMARK CNNaffinity 7.34329271
REMARK  7 active torsions:
REMARK  status: ('A' for Active; 'I' for Inactive)
REMARK    1  A    between atoms: C2_2  and  C30_33 
REMARK    2  A    between atoms: C3_3  and  C4_4 
REMARK    3  A    between atoms: C4_4  and  C5_5 
REMARK    4  A    between atoms: C5_5  and  C6_6 
REMARK    5  A    between atoms: C6_6  and  C8_8 
REMARK    6  A    between atoms: C10_10  and  O1_11 
REMARK    7  A    between atoms: C30_33  and  O5_35 
ROOT
HETATM    1  C8  UNL     1      -2.059  52.107 -11.078  1.00  0.00     0.001 C 
HETATM    2  C9  UNL     1      -1.270  52.256 -12.404  1.00  0.00     0.038 C 
HETATM    3  C10 UNL     1      -0.016  53.107 -12.083  1.00  0.00     0.131 C 
HETATM    4  C11 UNL     1       0.080  53.097 -10.531  1.00  0.00     0.014 C 
HETATM    5  C12 UNL     1       0.784  51.769 -10.095  1.00  0.00     0.023 C 
HETATM    6  C13 UNL     1       0.844  54.189  -9.782  1.00  0.00    -0.058 C 
HETATM    7  C14 UNL     1       0.556  54.479  -8.482  1.00  0.00    -0.000 C 
HETATM    8  C15 UNL     1      -0.711  53.896  -7.858  1.00  0.00     0.157 C 
HETATM    9  O2  UNL     1      -1.039  54.195  -6.709  1.00  0.00    -0.293 OA
HETATM   10  C16 UNL     1      -1.597  52.953  -8.664  1.00  0.00     0.094 C 
HETATM   11  C17 UNL     1      -1.441  53.205 -10.164  1.00  0.00    -0.019 C 
HETATM   12  C18 UNL     1      -2.061  54.601 -10.485  1.00  0.00     0.017 C 
HETATM   13  C19 UNL     1       1.437  55.417  -7.606  1.00  0.00    -0.008 C 
HETATM   14  C20 UNL     1       0.649  56.743  -7.487  1.00  0.00     0.021 C 
HETATM   15  C21 UNL     1       1.682  54.848  -6.166  1.00  0.00     0.022 C 
HETATM   16  C22 UNL     1       3.139  54.649  -5.771  1.00  0.00     0.080 C 
HETATM   17  C23 UNL     1       3.970  55.869  -6.079  1.00  0.00     0.135 C 
HETATM   18  O3  UNL     1       4.721  56.352  -5.222  1.00  0.00    -0.297 OA
HETATM   19  C24 UNL     1       3.914  56.400  -7.521  1.00  0.00     0.018 C 
HETATM   20  C25 UNL     1       3.691  57.922  -7.477  1.00  0.00     0.023 C 
HETATM   21  C26 UNL     1       5.311  56.133  -8.138  1.00  0.00     0.023 C 
HETATM   22  C27 UNL     1       2.836  55.585  -8.307  1.00  0.00     0.014 C 
HETATM   23  C28 UNL     1       2.663  55.992  -9.775  1.00  0.00     0.011 C 
HETATM   24  C29 UNL     1       1.973  54.860 -10.535  1.00  0.00     0.036 C 
ENDROOT
BRANCH   1  25
HETATM   25  C6  UNL     1      -3.608  52.009 -11.194  1.00  0.00    -0.013 C 
HETATM   26  C7  UNL     1      -4.203  53.430 -11.122  1.00  0.00     0.010 C 
BRANCH  25  27
HETATM   27  C5  UNL     1      -4.300  51.123 -10.132  1.00  0.00     0.008 C 
BRANCH  27  28
HETATM   28  C4  UNL     1      -5.035  49.918 -10.734  1.00  0.00     0.028 C 
BRANCH  28  29
HETATM   29  C3  UNL     1      -5.860  49.212  -9.692  1.00  0.00    -0.013 C 
HETATM   30  C2  UNL     1      -7.195  49.014  -9.700  1.00  0.00     0.008 C 
HETATM   31  C1  UNL     1      -8.145  49.489 -10.758  1.00  0.00     0.055 C 
BRANCH  30  32
HETATM   32  C30 UNL     1      -7.861  48.263  -8.602  1.00  0.00     0.171 C 
HETATM   33  O4  UNL     1      -8.872  48.617  -8.021  1.00  0.00    -0.646 OA
BRANCH  32  34
HETATM   34  O5  UNL     1      -7.257  47.103  -8.286  1.00  0.00    -0.773 OA
HETATM   35  H44 UNL     1      -7.818  46.748  -7.567  1.00  0.00     0.167 HD
ENDBRANCH  32  34
ENDBRANCH  30  32
ENDBRANCH  28  29
ENDBRANCH  27  28
ENDBRANCH  25  27
ENDBRANCH   1  25
BRANCH   3  36
HETATM   36  O1  UNL     1       1.104  52.552 -12.756  1.00  0.00    -0.394 OA
HETATM   37  H17 UNL     1       1.877  53.115 -12.585  1.00  0.00     0.210 HD
ENDBRANCH   3  36
TORSDOF 7
ENDMDL
MODEL 2
REMARK minimizedAffinity -9.5295105
REMARK CNNscore 0.550050437
REMARK CNNaffinity 7.02979803
REMARK  7 active torsions:
REMARK  status: ('A' for Active; 'I' for Inactive)
REMARK    1  A    between atoms: C2_2  and  C30_33 
REMARK    2  A    between atoms: C3_3  and  C4_4 
REMARK    3  A    between atoms: C4_4  and  C5_5 
REMARK    4  A    between atoms: C5_5  and  C6_6 
REMARK    5  A    between atoms: C6_6  and  C8_8 
REMARK    6  A    between atoms: C10_10  and  O1_11 
REMARK    7  A    between atoms: C30_33  and  O5_35 
ROOT
HETATM    1  C8  UNL     1      -0.825  49.438 -18.300  1.00  0.00     0.001 C 
HETATM    2  C9  UNL     1      -2.041  48.477 -18.309  1.00  0.00     0.038 C 
HETATM    3  C10 UNL     1      -2.629  48.516 -19.742  1.00  0.00     0.131 C 
HETATM    4  C11 UNL     1      -1.521  49.187 -20.603  1.00  0.00     0.014 C 
HETATM    5  C12 UNL     1      -0.472  48.092 -20.988  1.00  0.00     0.023 C 
HETATM    6  C13 UNL     1      -1.860  49.864 -21.931  1.00  0.00    -0.058 C 
HETATM    7  C14 UNL     1      -1.054  50.836 -22.446  1.00  0.00    -0.000 C 
HETATM    8  C15 UNL     1       0.040  51.434 -21.564  1.00  0.00     0.157 C 
HETATM    9  O2  UNL     1       0.738  52.362 -21.972  1.00  0.00    -0.293 OA
HETATM   10  C16 UNL     1       0.263  50.899 -20.154  1.00  0.00     0.094 C 
HETATM   11  C17 UNL     1      -1.017  50.278 -19.595  1.00  0.00    -0.019 C 
HETATM   12  C18 UNL     1      -2.046  51.428 -19.357  1.00  0.00     0.017 C 
HETATM   13  C19 UNL     1      -1.223  51.403 -23.886  1.00  0.00    -0.008 C 
HETATM   14  C20 UNL     1      -1.853  52.805 -23.715  1.00  0.00     0.021 C 
HETATM   15  C21 UNL     1       0.143  51.556 -24.641  1.00  0.00     0.022 C 
HETATM   16  C22 UNL     1       0.261  50.797 -25.956  1.00  0.00     0.080 C 
HETATM   17  C23 UNL     1      -0.938  51.027 -26.841  1.00  0.00     0.135 C 
HETATM   18  O3  UNL     1      -0.793  51.346 -28.028  1.00  0.00    -0.297 OA
HETATM   19  C24 UNL     1      -2.318  50.742 -26.226  1.00  0.00     0.018 C 
HETATM   20  C25 UNL     1      -3.248  51.930 -26.531  1.00  0.00     0.023 C 
HETATM   21  C26 UNL     1      -2.872  49.493 -26.958  1.00  0.00     0.023 C 
HETATM   22  C27 UNL     1      -2.125  50.412 -24.710  1.00  0.00     0.014 C 
HETATM   23  C28 UNL     1      -3.419  50.094 -23.949  1.00  0.00     0.011 C 
HETATM   24  C29 UNL     1      -3.077  49.343 -22.664  1.00  0.00     0.036 C 
ENDROOT
BRANCH   1  25
HETATM   25  C6  UNL     1      -0.527  50.176 -16.962  1.00  0.00    -0.013 C 
HETATM   26  C7  UNL     1      -1.838  50.787 -16.428  1.00  0.00     0.010 C 
BRANCH  25  27
HETATM   27  C5  UNL     1       0.548  51.286 -17.039  1.00  0.00     0.008 C 
BRANCH  27  28
HETATM   28  C4  UNL     1       0.836  51.944 -15.682  1.00  0.00     0.028 C 
BRANCH  28  29
HETATM   29  C3  UNL     1       1.614  51.019 -14.787  1.00  0.00    -0.013 C 
HETATM   30  C2  UNL     1       2.954  50.955 -14.641  1.00  0.00     0.008 C 
HETATM   31  C1  UNL     1       3.956  51.795 -15.374  1.00  0.00     0.055 C 
BRANCH  30  32
HETATM   32  C30 UNL     1       3.572  49.999 -13.683  1.00  0.00     0.171 C 
HETATM   33  O4  UNL     1       2.987  49.439 -12.773  1.00  0.00    -0.646 OA
BRANCH  32  34
HETATM   34  O5  UNL     1       4.878  49.764 -13.907  1.00  0.00    -0.773 OA
HETATM   35  H44 UNL     1       5.114  49.125 -13.206  1.00  0.00     0.167 HD
ENDBRANCH  32  34
ENDBRANCH  30  32
ENDBRANCH  28  29
ENDBRANCH  27  28
ENDBRANCH  25  27
ENDBRANCH   1  25
BRANCH   3  36
HETATM   36  O1  UNL     1      -2.976  47.196 -20.134  1.00  0.00    -0.394 OA
HETATM   37  H17 UNL     1      -3.383  47.234 -21.015  1.00  0.00     0.210 HD
ENDBRANCH   3  36
TORSDOF 7
ENDMDL
MODEL 3
REMARK minimizedAffinity -7.56842518
REMARK CNNscore 0.461008459
REMARK CNNaffinity 6.78821039
REMARK  7 active torsions:
REMARK  status: ('A' for Active; 'I' for Inactive)
REMARK    1  A    between atoms: C2_2  and  C30_33 
REMARK    2  A    between atoms: C3_3  and  C4_4 
REMARK    3  A    between atoms: C4_4  and  C5_5 
REMARK    4  A    between atoms: C5_5  and  C6_6 
REMARK    5  A    between atoms: C6_6  and  C8_8 
REMARK    6  A    between atoms: C10_10  and  O1_11 
REMARK    7  A    between atoms: C30_33  and  O5_35 
ROOT
HETATM    1  C8  UNL     1      -4.471  49.284 -23.072  1.00  0.00     0.001 C 
HETATM    2  C9  UNL     1      -4.125  50.418 -22.073  1.00  0.00     0.038 C 
HETATM    3  C10 UNL     1      -5.070  50.243 -20.857  1.00  0.00     0.131 C 
HETATM    4  C11 UNL     1      -5.654  48.810 -21.016  1.00  0.00     0.014 C 
HETATM    5  C12 UNL     1      -4.613  47.793 -20.441  1.00  0.00     0.023 C 
HETATM    6  C13 UNL     1      -6.970  48.418 -20.343  1.00  0.00    -0.058 C 
HETATM    7  C14 UNL     1      -7.725  47.393 -20.828  1.00  0.00    -0.000 C 
HETATM    8  C15 UNL     1      -7.389  46.811 -22.201  1.00  0.00     0.157 C 
HETATM    9  O2  UNL     1      -8.093  45.934 -22.700  1.00  0.00    -0.293 OA
HETATM   10  C16 UNL     1      -6.185  47.333 -22.978  1.00  0.00     0.094 C 
HETATM   11  C17 UNL     1      -5.851  48.767 -22.571  1.00  0.00    -0.019 C 
HETATM   12  C18 UNL     1      -7.001  49.692 -23.079  1.00  0.00     0.017 C 
HETATM   13  C19 UNL     1      -8.950  46.807 -20.068  1.00  0.00    -0.008 C 
HETATM   14  C20 UNL     1     -10.199  47.332 -20.814  1.00  0.00     0.021 C 
HETATM   15  C21 UNL     1      -8.980  45.240 -20.081  1.00  0.00     0.022 C 
HETATM   16  C22 UNL     1      -8.987  44.565 -18.716  1.00  0.00     0.080 C 
HETATM   17  C23 UNL     1     -10.022  45.173 -17.801  1.00  0.00     0.135 C 
HETATM   18  O3  UNL     1     -10.815  44.453 -17.183  1.00  0.00    -0.297 OA
HETATM   19  C24 UNL     1      -9.961  46.696 -17.602  1.00  0.00     0.018 C 
HETATM   20  C25 UNL     1     -11.378  47.272 -17.773  1.00  0.00     0.023 C 
HETATM   21  C26 UNL     1      -9.518  46.927 -16.134  1.00  0.00     0.023 C 
HETATM   22  C27 UNL     1      -8.878  47.279 -18.568  1.00  0.00     0.014 C 
HETATM   23  C28 UNL     1      -8.690  48.799 -18.485  1.00  0.00     0.011 C 
HETATM   24  C29 UNL     1      -7.335  49.174 -19.083  1.00  0.00     0.036 C 
ENDROOT
BRANCH   1  25
HETATM   25  C6  UNL     1      -4.292  49.606 -24.585  1.00  0.00    -0.013 C 
HETATM   26  C7  UNL     1      -3.425  48.506 -25.229  1.00  0.00     0.010 C 
BRANCH  25  27
HETATM   27  C5  UNL     1      -3.667  50.985 -24.902  1.00  0.00     0.008 C 
BRANCH  27  28
HETATM   28  C4  UNL     1      -2.163  50.913 -25.204  1.00  0.00     0.028 C 
BRANCH  28  29
HETATM   29  C3  UNL     1      -1.726  52.075 -26.054  1.00  0.00    -0.013 C 
HETATM   30  C2  UNL     1      -0.463  52.434 -26.362  1.00  0.00     0.008 C 
HETATM   31  C1  UNL     1       0.783  51.748 -25.890  1.00  0.00     0.055 C 
BRANCH  30  32
HETATM   32  C30 UNL     1      -0.197  53.600 -27.248  1.00  0.00     0.171 C 
HETATM   33  O4  UNL     1       0.107  54.716 -26.868  1.00  0.00    -0.646 OA
BRANCH  32  34
HETATM   34  O5  UNL     1      -0.299  53.325 -28.562  1.00  0.00    -0.773 OA
HETATM   35  H44 UNL     1      -0.092  54.182 -28.986  1.00  0.00     0.167 HD
ENDBRANCH  32  34
ENDBRANCH  30  32
ENDBRANCH  28  29
ENDBRANCH  27  28
ENDBRANCH  25  27
ENDBRANCH   1  25
BRANCH   3  36
HETATM   36  O1  UNL     1      -4.332  50.461 -19.664  1.00  0.00    -0.394 OA
HETATM   37  H17 UNL     1      -4.939  50.392 -18.909  1.00  0.00     0.210 HD
ENDBRANCH   3  36
TORSDOF 7
ENDMDL
MODEL 4
REMARK minimizedAffinity -7.68495321
REMARK CNNscore 0.44207412
REMARK CNNaffinity 5.95122957
REMARK  7 active torsions:
REMARK  status: ('A' for Active; 'I' for Inactive)
REMARK    1  A    between atoms: C2_2  and  C30_33 
REMARK    2  A    between atoms: C3_3  and  C4_4 
REMARK    3  A    between atoms: C4_4  and  C5_5 
REMARK    4  A    between atoms: C5_5  and  C6_6 
REMARK    5  A    between atoms: C6_6  and  C8_8 
REMARK    6  A    between atoms: C10_10  and  O1_11 
REMARK    7  A    between atoms: C30_33  and  O5_35 
ROOT
HETATM    1  C8  UNL     1     -13.628  46.258 -27.457  1.00  0.00     0.001 C 
HETATM    2  C9  UNL     1     -13.142  47.286 -26.405  1.00  0.00     0.038 C 
HETATM    3  C10 UNL     1     -11.708  47.703 -26.819  1.00  0.00     0.131 C 
HETATM    4  C11 UNL     1     -11.561  47.204 -28.284  1.00  0.00     0.014 C 
HETATM    5  C12 UNL     1     -12.216  48.266 -29.229  1.00  0.00     0.023 C 
HETATM    6  C13 UNL     1     -10.182  46.959 -28.898  1.00  0.00    -0.058 C 
HETATM    7  C14 UNL     1     -10.025  46.103 -29.946  1.00  0.00    -0.000 C 
HETATM    8  C15 UNL     1     -11.185  45.187 -30.334  1.00  0.00     0.157 C 
HETATM    9  O2  UNL     1     -11.053  44.352 -31.229  1.00  0.00    -0.293 OA
HETATM   10  C16 UNL     1     -12.515  45.284 -29.595  1.00  0.00     0.094 C 
HETATM   11  C17 UNL     1     -12.318  45.834 -28.183  1.00  0.00    -0.019 C 
HETATM   12  C18 UNL     1     -11.551  44.760 -27.349  1.00  0.00     0.017 C 
HETATM   13  C19 UNL     1      -8.698  45.979 -30.750  1.00  0.00    -0.008 C 
HETATM   14  C20 UNL     1      -8.055  44.647 -30.297  1.00  0.00     0.021 C 
HETATM   15  C21 UNL     1      -8.930  45.923 -32.299  1.00  0.00     0.022 C 
HETATM   16  C22 UNL     1      -8.234  47.007 -33.113  1.00  0.00     0.080 C 
HETATM   17  C23 UNL     1      -6.780  47.141 -32.732  1.00  0.00     0.135 C 
HETATM   18  O3  UNL     1      -5.901  47.156 -33.602  1.00  0.00    -0.297 OA
HETATM   19  C24 UNL     1      -6.472  47.363 -31.242  1.00  0.00     0.018 C 
HETATM   20  C25 UNL     1      -5.352  46.396 -30.822  1.00  0.00     0.023 C 
HETATM   21  C26 UNL     1      -5.932  48.812 -31.121  1.00  0.00     0.023 C 
HETATM   22  C27 UNL     1      -7.806  47.237 -30.437  1.00  0.00     0.014 C 
HETATM   23  C28 UNL     1      -7.667  47.442 -28.923  1.00  0.00     0.011 C 
HETATM   24  C29 UNL     1      -9.037  47.770 -28.330  1.00  0.00     0.036 C 
ENDROOT
BRANCH   1  25
HETATM   25  C6  UNL     1     -14.601  45.151 -26.955  1.00  0.00    -0.013 C 
HETATM   26  C7  UNL     1     -15.793  45.058 -27.929  1.00  0.00     0.010 C 
BRANCH  25  27
HETATM   27  C5  UNL     1     -15.142  45.342 -25.519  1.00  0.00     0.008 C 
BRANCH  27  28
HETATM   28  C4  UNL     1     -16.614  45.778 -25.480  1.00  0.00     0.028 C 
BRANCH  28  29
HETATM   29  C3  UNL     1     -17.168  45.684 -24.084  1.00  0.00    -0.013 C 
HETATM   30  C2  UNL     1     -18.433  45.936 -23.687  1.00  0.00     0.008 C 
HETATM   31  C1  UNL     1     -19.555  46.391 -24.570  1.00  0.00     0.055 C 
BRANCH  30  32
HETATM   32  C30 UNL     1     -18.833  45.766 -22.264  1.00  0.00     0.171 C 
HETATM   33  O4  UNL     1     -19.653  44.963 -21.856  1.00  0.00    -0.646 OA
BRANCH  32  34
HETATM   34  O5  UNL     1     -18.187  46.582 -21.411  1.00  0.00    -0.773 OA
HETATM   35  H44 UNL     1     -18.561  46.337 -20.541  1.00  0.00     0.167 HD
ENDBRANCH  32  34
ENDBRANCH  30  32
ENDBRANCH  28  29
ENDBRANCH  27  28
ENDBRANCH  25  27
ENDBRANCH   1  25
BRANCH   3  36
HETATM   36  O1  UNL     1     -11.566  49.105 -26.645  1.00  0.00    -0.394 OA
HETATM   37  H17 UNL     1     -10.653  49.352 -26.865  1.00  0.00     0.210 HD
ENDBRANCH   3  36
TORSDOF 7
ENDMDL
MODEL 5
REMARK minimizedAffinity -8.32859707
REMARK CNNscore 0.44114995
REMARK CNNaffinity 6.73028564
REMARK  7 active torsions:
REMARK  status: ('A' for Active; 'I' for Inactive)
REMARK    1  A    between atoms: C2_2  and  C30_33 
REMARK    2  A    between atoms: C3_3  and  C4_4 
REMARK    3  A    between atoms: C4_4  and  C5_5 
REMARK    4  A    between atoms: C5_5  and  C6_6 
REMARK    5  A    between atoms: C6_6  and  C8_8 
REMARK    6  A    between atoms: C10_10  and  O1_11 
REMARK    7  A    between atoms: C30_33  and  O5_35 
ROOT
HETATM    1  C8  UNL     1      -2.984  50.436 -22.674  1.00  0.00     0.001 C 
HETATM    2  C9  UNL     1      -3.723  49.104 -22.961  1.00  0.00     0.038 C 
HETATM    3  C10 UNL     1      -3.783  48.330 -21.620  1.00  0.00     0.131 C 
HETATM    4  C11 UNL     1      -3.426  49.390 -20.538  1.00  0.00     0.014 C 
HETATM    5  C12 UNL     1      -4.722  50.203 -20.206  1.00  0.00     0.023 C 
HETATM    6  C13 UNL     1      -2.888  48.968 -19.170  1.00  0.00    -0.058 C 
HETATM    7  C14 UNL     1      -2.142  49.825 -18.418  1.00  0.00    -0.000 C 
HETATM    8  C15 UNL     1      -1.618  51.109 -19.059  1.00  0.00     0.157 C 
HETATM    9  O2  UNL     1      -0.882  51.869 -18.430  1.00  0.00    -0.293 OA
HETATM   10  C16 UNL     1      -1.987  51.450 -20.499  1.00  0.00     0.094 C 
HETATM   11  C17 UNL     1      -2.306  50.186 -21.296  1.00  0.00    -0.019 C 
HETATM   12  C18 UNL     1      -0.982  49.379 -21.473  1.00  0.00     0.017 C 
HETATM   13  C19 UNL     1      -1.755  49.538 -16.938  1.00  0.00    -0.008 C 
HETATM   14  C20 UNL     1      -0.258  49.149 -16.962  1.00  0.00     0.021 C 
HETATM   15  C21 UNL     1      -1.934  50.789 -16.011  1.00  0.00     0.022 C 
HETATM   16  C22 UNL     1      -2.873  50.608 -14.826  1.00  0.00     0.080 C 
HETATM   17  C23 UNL     1      -2.570  49.341 -14.065  1.00  0.00     0.135 C 
HETATM   18  O3  UNL     1      -2.444  49.361 -12.834  1.00  0.00    -0.297 OA
HETATM   19  C24 UNL     1      -2.538  48.036 -14.877  1.00  0.00     0.018 C 
HETATM   20  C25 UNL     1      -1.265  47.255 -14.503  1.00  0.00     0.023 C 
HETATM   21  C26 UNL     1      -3.766  47.208 -14.420  1.00  0.00     0.023 C 
HETATM   22  C27 UNL     1      -2.687  48.392 -16.392  1.00  0.00     0.014 C 
HETATM   23  C28 UNL     1      -2.680  47.187 -17.342  1.00  0.00     0.011 C 
HETATM   24  C29 UNL     1      -3.296  47.596 -18.679  1.00  0.00     0.036 C 
ENDROOT
BRANCH   1  25
HETATM   25  C6  UNL     1      -2.131  51.026 -23.836  1.00  0.00    -0.013 C 
HETATM   26  C7  UNL     1      -2.311  50.139 -25.084  1.00  0.00     0.010 C 
BRANCH  25  27
HETATM   27  C5  UNL     1      -0.620  51.175 -23.542  1.00  0.00     0.008 C 
BRANCH  27  28
HETATM   28  C4  UNL     1      -0.130  52.629 -23.610  1.00  0.00     0.028 C 
BRANCH  28  29
HETATM   29  C3  UNL     1      -0.395  53.225 -24.966  1.00  0.00    -0.013 C 
HETATM   30  C2  UNL     1       0.249  52.951 -26.120  1.00  0.00     0.008 C 
HETATM   31  C1  UNL     1       1.393  51.997 -26.280  1.00  0.00     0.055 C 
BRANCH  30  32
HETATM   32  C30 UNL     1      -0.156  53.607 -27.393  1.00  0.00     0.171 C 
HETATM   33  O4  UNL     1      -0.390  54.795 -27.527  1.00  0.00    -0.646 OA
BRANCH  32  34
HETATM   34  O5  UNL     1      -0.235  52.768 -28.442  1.00  0.00    -0.773 OA
HETATM   35  H44 UNL     1      -0.502  53.355 -29.178  1.00  0.00     0.167 HD
ENDBRANCH  32  34
ENDBRANCH  30  32
ENDBRANCH  28  29
ENDBRANCH  27  28
ENDBRANCH  25  27
ENDBRANCH   1  25
BRANCH   3  36
HETATM   36  O1  UNL     1      -5.068  47.742 -21.482  1.00  0.00    -0.394 OA
HETATM   37  H17 UNL     1      -5.083  47.224 -20.661  1.00  0.00     0.210 HD
ENDBRANCH   3  36
TORSDOF 7
ENDMDL
MODEL 6
REMARK minimizedAffinity -9.37659264
REMARK CNNscore 0.391841024
REMARK CNNaffinity 6.82986021
REMARK  7 active torsions:
REMARK  status: ('A' for Active; 'I' for Inactive)
REMARK    1  A    between atoms: C2_2  and  C30_33 
REMARK    2  A    between atoms: C3_3  and  C4_4 
REMARK    3  A    between atoms: C4_4  and  C5_5 
REMARK    4  A    between atoms: C5_5  and  C6_6 
REMARK    5  A    between atoms: C6_6  and  C8_8 
REMARK    6  A    between atoms: C10_10  and  O1_11 
REMARK    7  A    between atoms: C30_33  and  O5_35 
ROOT
HETATM    1  C8  UNL     1      -0.327  51.424 -20.175  1.00  0.00     0.001 C 
HETATM    2  C9  UNL     1      -1.055  52.269 -19.098  1.00  0.00     0.038 C 
HETATM    3  C10 UNL     1      -2.332  51.486 -18.706  1.00  0.00     0.131 C 
HETATM    4  C11 UNL     1      -2.107  50.056 -19.275  1.00  0.00     0.014 C 
HETATM    5  C12 UNL     1      -1.223  49.259 -18.258  1.00  0.00     0.023 C 
HETATM    6  C13 UNL     1      -3.288  49.125 -19.553  1.00  0.00    -0.058 C 
HETATM    7  C14 UNL     1      -3.182  48.112 -20.459  1.00  0.00    -0.000 C 
HETATM    8  C15 UNL     1      -1.971  48.076 -21.390  1.00  0.00     0.157 C 
HETATM    9  O2  UNL     1      -1.880  47.218 -22.268  1.00  0.00    -0.293 OA
HETATM   10  C16 UNL     1      -0.871  49.123 -21.255  1.00  0.00     0.094 C 
HETATM   11  C17 UNL     1      -1.415  50.411 -20.637  1.00  0.00    -0.019 C 
HETATM   12  C18 UNL     1      -2.379  51.072 -21.671  1.00  0.00     0.017 C 
HETATM   13  C19 UNL     1      -4.264  47.005 -20.625  1.00  0.00    -0.008 C 
HETATM   14  C20 UNL     1      -5.013  47.342 -21.936  1.00  0.00     0.021 C 
HETATM   15  C21 UNL     1      -3.647  45.570 -20.755  1.00  0.00     0.022 C 
HETATM   16  C22 UNL     1      -4.103  44.556 -19.714  1.00  0.00     0.080 C 
HETATM   17  C23 UNL     1      -5.604  44.548 -19.565  1.00  0.00     0.135 C 
HETATM   18  O3  UNL     1      -6.234  43.484 -19.595  1.00  0.00    -0.297 OA
HETATM   19  C24 UNL     1      -6.278  45.899 -19.272  1.00  0.00     0.018 C 
HETATM   20  C25 UNL     1      -7.478  46.067 -20.220  1.00  0.00     0.023 C 
HETATM   21  C26 UNL     1      -6.816  45.811 -17.820  1.00  0.00     0.023 C 
HETATM   22  C27 UNL     1      -5.193  47.022 -19.355  1.00  0.00     0.014 C 
HETATM   23  C28 UNL     1      -5.709  48.439 -19.077  1.00  0.00     0.011 C 
HETATM   24  C29 UNL     1      -4.531  49.344 -18.718  1.00  0.00     0.036 C 
ENDROOT
BRANCH   1  25
HETATM   25  C6  UNL     1       0.476  52.209 -21.254  1.00  0.00    -0.013 C 
HETATM   26  C7  UNL     1       0.883  53.578 -20.673  1.00  0.00     0.010 C 
BRANCH  25  27
HETATM   27  C5  UNL     1      -0.258  52.434 -22.597  1.00  0.00     0.008 C 
BRANCH  27  28
HETATM   28  C4  UNL     1       0.633  52.184 -23.822  1.00  0.00     0.028 C 
BRANCH  28  29
HETATM   29  C3  UNL     1       0.255  53.095 -24.959  1.00  0.00    -0.013 C 
HETATM   30  C2  UNL     1       0.341  52.834 -26.281  1.00  0.00     0.008 C 
HETATM   31  C1  UNL     1       0.861  51.568 -26.892  1.00  0.00     0.055 C 
BRANCH  30  32
HETATM   32  C30 UNL     1      -0.106  53.836 -27.286  1.00  0.00     0.171 C 
HETATM   33  O4  UNL     1      -0.167  55.038 -27.100  1.00  0.00    -0.646 OA
BRANCH  32  34
HETATM   34  O5  UNL     1      -0.438  53.306 -28.478  1.00  0.00    -0.773 OA
HETATM   35  H44 UNL     1      -0.696  54.089 -29.005  1.00  0.00     0.167 HD
ENDBRANCH  32  34
ENDBRANCH  30  32
ENDBRANCH  28  29
ENDBRANCH  27  28
ENDBRANCH  25  27
ENDBRANCH   1  25
BRANCH   3  36
HETATM   36  O1  UNL     1      -2.500  51.550 -17.297  1.00  0.00    -0.394 OA
HETATM   37  H17 UNL     1      -3.324  51.094 -17.064  1.00  0.00     0.210 HD
ENDBRANCH   3  36
TORSDOF 7
ENDMDL
MODEL 7
REMARK minimizedAffinity -8.16255474
REMARK CNNscore 0.388273656
REMARK CNNaffinity 6.75543261
REMARK  7 active torsions:
REMARK  status: ('A' for Active; 'I' for Inactive)
REMARK    1  A    between atoms: C2_2  and  C30_33 
REMARK    2  A    between atoms: C3_3  and  C4_4 
REMARK    3  A    between atoms: C4_4  and  C5_5 
REMARK    4  A    between atoms: C5_5  and  C6_6 
REMARK    5  A    between atoms: C6_6  and  C8_8 
REMARK    6  A    between atoms: C10_10  and  O1_11 
REMARK    7  A    between atoms: C30_33  and  O5_35 
ROOT
HETATM    1  C8  UNL     1      -2.326  50.245 -21.855  1.00  0.00     0.001 C 
HETATM    2  C9  UNL     1      -3.484  49.216 -21.904  1.00  0.00     0.038 C 
HETATM    3  C10 UNL     1      -3.653  48.667 -20.465  1.00  0.00     0.131 C 
HETATM    4  C11 UNL     1      -2.861  49.662 -19.569  1.00  0.00     0.014 C 
HETATM    5  C12 UNL     1      -3.780  50.896 -19.281  1.00  0.00     0.023 C 
HETATM    6  C13 UNL     1      -2.353  49.244 -18.189  1.00  0.00    -0.058 C 
HETATM    7  C14 UNL     1      -1.295  49.879 -17.612  1.00  0.00    -0.000 C 
HETATM    8  C15 UNL     1      -0.450  50.830 -18.460  1.00  0.00     0.157 C 
HETATM    9  O2  UNL     1       0.554  51.365 -17.990  1.00  0.00    -0.293 OA
HETATM   10  C16 UNL     1      -0.834  51.107 -19.909  1.00  0.00     0.094 C 
HETATM   11  C17 UNL     1      -1.628  49.941 -20.497  1.00  0.00    -0.019 C 
HETATM   12  C18 UNL     1      -0.664  48.721 -20.635  1.00  0.00     0.017 C 
HETATM   13  C19 UNL     1      -0.872  49.651 -16.131  1.00  0.00    -0.008 C 
HETATM   14  C20 UNL     1       0.406  48.781 -16.188  1.00  0.00     0.021 C 
HETATM   15  C21 UNL     1      -0.536  50.988 -15.384  1.00  0.00     0.022 C 
HETATM   16  C22 UNL     1      -1.356  51.271 -14.132  1.00  0.00     0.080 C 
HETATM   17  C23 UNL     1      -1.405  50.072 -13.217  1.00  0.00     0.135 C 
HETATM   18  O3  UNL     1      -1.153  50.190 -12.011  1.00  0.00    -0.297 OA
HETATM   19  C24 UNL     1      -1.884  48.748 -13.835  1.00  0.00     0.018 C 
HETATM   20  C25 UNL     1      -0.904  47.633 -13.429  1.00  0.00     0.023 C 
HETATM   21  C26 UNL     1      -3.261  48.440 -13.193  1.00  0.00     0.023 C 
HETATM   22  C27 UNL     1      -2.064  48.957 -15.374  1.00  0.00     0.014 C 
HETATM   23  C28 UNL     1      -2.548  47.719 -16.141  1.00  0.00     0.011 C 
HETATM   24  C29 UNL     1      -3.132  48.155 -17.484  1.00  0.00     0.036 C 
ENDROOT
BRANCH   1  25
HETATM   25  C6  UNL     1      -1.451  50.375 -23.137  1.00  0.00    -0.013 C 
HETATM   26  C7  UNL     1      -0.740  51.743 -23.117  1.00  0.00     0.010 C 
BRANCH  25  27
HETATM   27  C5  UNL     1      -2.209  50.225 -24.477  1.00  0.00     0.008 C 
BRANCH  27  28
HETATM   28  C4  UNL     1      -2.442  48.762 -24.879  1.00  0.00     0.028 C 
BRANCH  28  29
HETATM   29  C3  UNL     1      -3.009  48.668 -26.270  1.00  0.00    -0.013 C 
HETATM   30  C2  UNL     1      -4.293  48.439 -26.617  1.00  0.00     0.008 C 
HETATM   31  C1  UNL     1      -5.429  48.206 -25.668  1.00  0.00     0.055 C 
BRANCH  30  32
HETATM   32  C30 UNL     1      -4.702  48.407 -28.048  1.00  0.00     0.171 C 
HETATM   33  O4  UNL     1      -5.475  47.605 -28.539  1.00  0.00    -0.646 OA
BRANCH  32  34
HETATM   34  O5  UNL     1      -4.150  49.379 -28.798  1.00  0.00    -0.773 OA
HETATM   35  H44 UNL     1      -4.523  49.213 -29.687  1.00  0.00     0.167 HD
ENDBRANCH  32  34
ENDBRANCH  30  32
ENDBRANCH  28  29
ENDBRANCH  27  28
ENDBRANCH  25  27
ENDBRANCH   1  25
BRANCH   3  36
HETATM   36  O1  UNL     1      -5.038  48.566 -20.170  1.00  0.00    -0.394 OA
HETATM   37  H17 UNL     1      -5.137  48.181 -19.284  1.00  0.00     0.210 HD
ENDBRANCH   3  36
TORSDOF 7
ENDMDL
MODEL 8
REMARK minimizedAffinity -7.56263685
REMARK CNNscore 0.388113052
REMARK CNNaffinity 5.98658943
REMARK  7 active torsions:
REMARK  status: ('A' for Active; 'I' for Inactive)
REMARK    1  A    between atoms: C2_2  and  C30_33 
REMARK    2  A    between atoms: C3_3  and  C4_4 
REMARK    3  A    between atoms: C4_4  and  C5_5 
REMARK    4  A    between atoms: C5_5  and  C6_6 
REMARK    5  A    between atoms: C6_6  and  C8_8 
REMARK    6  A    between atoms: C10_10  and  O1_11 
REMARK    7  A    between atoms: C30_33  and  O5_35 
ROOT
HETATM    1  C8  UNL     1     -13.169  45.914 -26.013  1.00  0.00     0.001 C 
HETATM    2  C9  UNL     1     -13.738  44.817 -26.948  1.00  0.00     0.038 C 
HETATM    3  C10 UNL     1     -12.786  44.734 -28.168  1.00  0.00     0.131 C 
HETATM    4  C11 UNL     1     -11.508  45.500 -27.722  1.00  0.00     0.014 C 
HETATM    5  C12 UNL     1     -10.623  44.523 -26.879  1.00  0.00     0.023 C 
HETATM    6  C13 UNL     1     -10.541  46.084 -28.753  1.00  0.00    -0.058 C 
HETATM    7  C14 UNL     1      -9.721  47.124 -28.432  1.00  0.00    -0.000 C 
HETATM    8  C15 UNL     1      -9.961  47.879 -27.126  1.00  0.00     0.157 C 
HETATM    9  O2  UNL     1      -9.286  48.868 -26.840  1.00  0.00    -0.293 OA
HETATM   10  C16 UNL     1     -11.060  47.426 -26.171  1.00  0.00     0.094 C 
HETATM   11  C17 UNL     1     -12.162  46.679 -26.921  1.00  0.00    -0.019 C 
HETATM   12  C18 UNL     1     -12.911  47.706 -27.827  1.00  0.00     0.017 C 
HETATM   13  C19 UNL     1      -8.570  47.615 -29.358  1.00  0.00    -0.008 C 
HETATM   14  C20 UNL     1      -9.070  48.938 -29.985  1.00  0.00     0.021 C 
HETATM   15  C21 UNL     1      -7.242  47.900 -28.576  1.00  0.00     0.022 C 
HETATM   16  C22 UNL     1      -6.022  47.113 -29.033  1.00  0.00     0.080 C 
HETATM   17  C23 UNL     1      -5.854  47.168 -30.531  1.00  0.00     0.135 C 
HETATM   18  O3  UNL     1      -4.760  47.458 -31.032  1.00  0.00    -0.297 OA
HETATM   19  C24 UNL     1      -7.064  46.745 -31.380  1.00  0.00     0.018 C 
HETATM   20  C25 UNL     1      -7.293  47.802 -32.474  1.00  0.00     0.023 C 
HETATM   21  C26 UNL     1      -6.669  45.413 -32.068  1.00  0.00     0.023 C 
HETATM   22  C27 UNL     1      -8.276  46.495 -30.424  1.00  0.00     0.014 C 
HETATM   23  C28 UNL     1      -9.569  46.054 -31.122  1.00  0.00     0.011 C 
HETATM   24  C29 UNL     1     -10.495  45.396 -30.101  1.00  0.00     0.036 C 
ENDROOT
BRANCH   1  25
HETATM   25  C6  UNL     1     -14.203  46.730 -25.183  1.00  0.00    -0.013 C 
HETATM   26  C7  UNL     1     -13.728  46.789 -23.717  1.00  0.00     0.010 C 
BRANCH  25  27
HETATM   27  C5  UNL     1     -15.654  46.197 -25.218  1.00  0.00     0.008 C 
BRANCH  27  28
HETATM   28  C4  UNL     1     -16.643  47.083 -24.449  1.00  0.00     0.028 C 
BRANCH  28  29
HETATM   29  C3  UNL     1     -17.464  46.268 -23.486  1.00  0.00    -0.013 C 
HETATM   30  C2  UNL     1     -18.763  45.922 -23.607  1.00  0.00     0.008 C 
HETATM   31  C1  UNL     1     -19.672  46.309 -24.734  1.00  0.00     0.055 C 
BRANCH  30  32
HETATM   32  C30 UNL     1     -19.426  45.079 -22.576  1.00  0.00     0.171 C 
HETATM   33  O4  UNL     1     -19.528  45.362 -21.396  1.00  0.00    -0.646 OA
BRANCH  32  34
HETATM   34  O5  UNL     1     -19.948  43.935 -23.056  1.00  0.00    -0.773 OA
HETATM   35  H44 UNL     1     -20.339  43.518 -22.262  1.00  0.00     0.167 HD
ENDBRANCH  32  34
ENDBRANCH  30  32
ENDBRANCH  28  29
ENDBRANCH  27  28
ENDBRANCH  25  27
ENDBRANCH   1  25
BRANCH   3  36
HETATM   36  O1  UNL     1     -12.581  43.369 -28.502  1.00  0.00    -0.394 OA
HETATM   37  H17 UNL     1     -12.019  43.327 -29.293  1.00  0.00     0.210 HD
ENDBRANCH   3  36
TORSDOF 7
ENDMDL
MODEL 9
REMARK minimizedAffinity -7.47325277
REMARK CNNscore 0.38447395
REMARK CNNaffinity 6.81930161
REMARK  7 active torsions:
REMARK  status: ('A' for Active; 'I' for Inactive)
REMARK    1  A    between atoms: C2_2  and  C30_33 
REMARK    2  A    between atoms: C3_3  and  C4_4 
REMARK    3  A    between atoms: C4_4  and  C5_5 
REMARK    4  A    between atoms: C5_5  and  C6_6 
REMARK    5  A    between atoms: C6_6  and  C8_8 
REMARK    6  A    between atoms: C10_10  and  O1_11 
REMARK    7  A    between atoms: C30_33  and  O5_35 
ROOT
HETATM    1  C8  UNL     1       0.676  50.000 -13.794  1.00  0.00     0.001 C 
HETATM    2  C9  UNL     1       2.202  50.260 -13.861  1.00  0.00     0.038 C 
HETATM    3  C10 UNL     1       2.533  51.263 -12.728  1.00  0.00     0.131 C 
HETATM    4  C11 UNL     1       1.275  51.253 -11.814  1.00  0.00     0.014 C 
HETATM    5  C12 UNL     1       1.382  50.024 -10.850  1.00  0.00     0.023 C 
HETATM    6  C13 UNL     1       0.966  52.430 -10.887  1.00  0.00    -0.058 C 
HETATM    7  C14 UNL     1      -0.305  52.670 -10.461  1.00  0.00    -0.000 C 
HETATM    8  C15 UNL     1      -1.462  51.923 -11.126  1.00  0.00     0.157 C 
HETATM    9  O2  UNL     1      -2.628  52.169 -10.816  1.00  0.00    -0.293 OA
HETATM   10  C16 UNL     1      -1.180  50.880 -12.201  1.00  0.00     0.094 C 
HETATM   11  C17 UNL     1       0.149  51.161 -12.902  1.00  0.00    -0.019 C 
HETATM   12  C18 UNL     1      -0.015  52.468 -13.740  1.00  0.00     0.017 C 
HETATM   13  C19 UNL     1      -0.648  53.707  -9.352  1.00  0.00    -0.008 C 
HETATM   14  C20 UNL     1      -1.268  54.919 -10.087  1.00  0.00     0.021 C 
HETATM   15  C21 UNL     1      -1.690  53.163  -8.315  1.00  0.00     0.022 C 
HETATM   16  C22 UNL     1      -1.234  53.152  -6.862  1.00  0.00     0.080 C 
HETATM   17  C23 UNL     1      -0.625  54.472  -6.459  1.00  0.00     0.135 C 
HETATM   18  O3  UNL     1      -0.986  55.041  -5.422  1.00  0.00    -0.297 OA
HETATM   19  C24 UNL     1       0.522  55.001  -7.336  1.00  0.00     0.018 C 
HETATM   20  C25 UNL     1       0.252  56.482  -7.659  1.00  0.00     0.023 C 
HETATM   21  C26 UNL     1       1.805  54.922  -6.469  1.00  0.00     0.023 C 
HETATM   22  C27 UNL     1       0.674  54.060  -8.574  1.00  0.00     0.014 C 
HETATM   23  C28 UNL     1       1.790  54.453  -9.550  1.00  0.00     0.011 C 
HETATM   24  C29 UNL     1       2.151  53.247 -10.416  1.00  0.00     0.036 C 
ENDROOT
BRANCH   1  25
HETATM   25  C6  UNL     1      -0.043  49.703 -15.143  1.00  0.00    -0.013 C 
HETATM   26  C7  UNL     1      -0.202  48.177 -15.296  1.00  0.00     0.010 C 
BRANCH  25  27
HETATM   27  C5  UNL     1       0.655  50.262 -16.405  1.00  0.00     0.008 C 
BRANCH  27  28
HETATM   28  C4  UNL     1      -0.313  50.955 -17.375  1.00  0.00     0.028 C 
BRANCH  28  29
HETATM   29  C3  UNL     1       0.426  51.871 -18.313  1.00  0.00    -0.013 C 
HETATM   30  C2  UNL     1       0.088  52.191 -19.580  1.00  0.00     0.008 C 
HETATM   31  C1  UNL     1      -1.100  51.668 -20.329  1.00  0.00     0.055 C 
BRANCH  30  32
HETATM   32  C30 UNL     1       0.913  53.144 -20.371  1.00  0.00     0.171 C 
HETATM   33  O4  UNL     1       1.117  53.070 -21.569  1.00  0.00    -0.646 OA
BRANCH  32  34
HETATM   34  O5  UNL     1       1.429  54.154 -19.646  1.00  0.00    -0.773 OA
HETATM   35  H44 UNL     1       1.925  54.674 -20.310  1.00  0.00     0.167 HD
ENDBRANCH  32  34
ENDBRANCH  30  32
ENDBRANCH  28  29
ENDBRANCH  27  28
ENDBRANCH  25  27
ENDBRANCH   1  25
BRANCH   3  36
HETATM   36  O1  UNL     1       3.738  50.863 -12.093  1.00  0.00    -0.394 OA
HETATM   37  H17 UNL     1       3.962  51.519 -11.414  1.00  0.00     0.210 HD
ENDBRANCH   3  36
TORSDOF 7
ENDMDL
