MODEL 1
REMARK minimizedAffinity -8.58200073
REMARK  9 active torsions:
REMARK  status: ('A' for Active; 'I' for Inactive)
REMARK    1  A    between atoms: O1_2  and  C2_3 
REMARK    2  A    between atoms: C2_3  and  C3_4 
REMARK    3  A    between atoms: C3_4  and  N1_5 
REMARK       I    between atoms: N1_5  and  C4_6 
REMARK    4  A    between atoms: C4_6  and  C5_8 
REMARK    5  A    between atoms: C5_8  and  C7_10 
REMARK    6  A    between atoms: C15_20  and  N3_21 
REMARK       I    between atoms: N3_21  and  C16_22 
REMARK    7  A    between atoms: C16_22  and  C17_24 
REMARK    8  A    between atoms: C17_24  and  N4_25 
REMARK    9  A    between atoms: C23_32  and  O4_33 
ROOT
HETATM    1  C7  UNL     1      -6.520   4.621  14.107  1.00  0.00     0.027 C 
HETATM    2  C8  UNL     1      -6.471   5.965  14.849  1.00  0.00     0.009 C 
HETATM    3  C9  UNL     1      -5.056   6.322  15.292  1.00  0.00     0.010 C 
HETATM    4  C10 UNL     1      -4.045   6.360  14.126  1.00  0.00    -0.033 C 
HETATM    5  C11 UNL     1      -4.411   7.524  13.169  1.00  0.00     0.016 C 
HETATM    6  C12 UNL     1      -2.635   6.634  14.738  1.00  0.00     0.058 C 
HETATM    7  C13 UNL     1      -1.582   6.402  13.717  1.00  0.00     0.010 A 
HETATM    8  C14 UNL     1      -1.723   5.626  12.587  1.00  0.00     0.029 A 
HETATM    9  N2  UNL     1      -0.614   5.610  11.761  1.00  0.00    -0.339 N 
ATOM     10  H2  UNL     1      -0.552   5.120  10.869  1.00  0.00     0.168 HD
HETATM   11  C15 UNL     1       0.350   6.323  12.301  1.00  0.00     0.151 A 
HETATM   12  S1  UNL     1      -0.025   7.078  13.784  1.00  0.00    -0.056 SA
HETATM   13  C20 UNL     1      -2.991   4.890  12.218  1.00  0.00     0.040 C 
HETATM   14  C21 UNL     1      -2.638   3.450  11.811  1.00  0.00     0.017 C 
HETATM   15  C22 UNL     1      -4.049   4.965  13.394  1.00  0.00     0.033 C 
HETATM   16  C23 UNL     1      -5.486   4.571  12.948  1.00  0.00     0.128 C 
ENDROOT
BRANCH   1  17
HETATM   17  C5  UNL     1      -7.954   4.232  13.629  1.00  0.00     0.080 C 
HETATM   18  C6  UNL     1      -8.024   3.010  12.710  1.00  0.00     0.020 C 
BRANCH  17  19
HETATM   19  C4  UNL     1      -8.710   5.433  13.055  1.00  0.00     0.222 C 
HETATM   20  N1  UNL     1      -9.691   5.974  13.852  1.00  0.00    -0.359 N 
HETATM   21  H8  UNL     1      -9.695   5.741  14.834  1.00  0.00     0.162 HD
HETATM   22  O2  UNL     1      -8.466   5.852  11.925  1.00  0.00    -0.273 OA
BRANCH  20  23
HETATM   23  C3  UNL     1     -10.409   7.175  13.456  1.00  0.00     0.148 C 
BRANCH  23  24
HETATM   24  C2  UNL     1     -11.920   7.033  13.653  1.00  0.00     0.186 C 
BRANCH  24  25
HETATM   25  O1  UNL     1     -12.659   8.034  12.955  1.00  0.00    -0.394 OA
HETATM   26  C1  UNL     1     -11.839   9.068  12.422  1.00  0.00     0.201 C 
ENDBRANCH  24  25
ENDBRANCH  23  24
ENDBRANCH  20  23
ENDBRANCH  17  19
ENDBRANCH   1  17
BRANCH  16  27
HETATM   27  O4  UNL     1      -5.456   3.234  12.456  1.00  0.00    -0.395 OA
HETATM   28  H38 UNL     1      -6.146   3.134  11.779  1.00  0.00     0.210 HD
ENDBRANCH  16  27
BRANCH  11  29
HETATM   29  N3  UNL     1       1.564   6.450  11.689  1.00  0.00    -0.306 N 
HETATM   30  C16 UNL     1       2.234   5.522  10.926  1.00  0.00     0.252 C 
HETATM   31  O3  UNL     1       1.894   4.369  10.682  1.00  0.00    -0.271 OA
HETATM   32  H23 UNL     1       1.963   7.384  11.712  1.00  0.00     0.171 HD
BRANCH  30  33
HETATM   33  C17 UNL     1       3.580   6.063  10.418  1.00  0.00     0.373 C 
BRANCH  33  34
HETATM   34  N4  UNL     1       3.415   6.840   9.159  1.00  0.00     0.088 N 
HETATM   35  C18 UNL     1       2.691   8.092   9.420  1.00  0.00     0.310 C 
HETATM   36  C19 UNL     1       2.668   6.042   8.183  1.00  0.00     0.310 C 
ENDBRANCH  33  34
ENDBRANCH  30  33
ENDBRANCH  11  29
TORSDOF 9
ENDMDL
MODEL 2
REMARK minimizedAffinity -8.46133232
REMARK  9 active torsions:
REMARK  status: ('A' for Active; 'I' for Inactive)
REMARK    1  A    between atoms: O1_2  and  C2_3 
REMARK    2  A    between atoms: C2_3  and  C3_4 
REMARK    3  A    between atoms: C3_4  and  N1_5 
REMARK       I    between atoms: N1_5  and  C4_6 
REMARK    4  A    between atoms: C4_6  and  C5_8 
REMARK    5  A    between atoms: C5_8  and  C7_10 
REMARK    6  A    between atoms: C15_20  and  N3_21 
REMARK       I    between atoms: N3_21  and  C16_22 
REMARK    7  A    between atoms: C16_22  and  C17_24 
REMARK    8  A    between atoms: C17_24  and  N4_25 
REMARK    9  A    between atoms: C23_32  and  O4_33 
ROOT
HETATM    1  C7  UNL     1      -6.495   4.525  14.081  1.00  0.00     0.027 C 
HETATM    2  C8  UNL     1      -6.457   5.861  14.836  1.00  0.00     0.009 C 
HETATM    3  C9  UNL     1      -5.046   6.225  15.284  1.00  0.00     0.010 C 
HETATM    4  C10 UNL     1      -4.035   6.283  14.119  1.00  0.00    -0.033 C 
HETATM    5  C11 UNL     1      -4.410   7.454  13.174  1.00  0.00     0.016 C 
HETATM    6  C12 UNL     1      -2.627   6.563  14.734  1.00  0.00     0.058 C 
HETATM    7  C13 UNL     1      -1.572   6.349  13.711  1.00  0.00     0.010 A 
HETATM    8  C14 UNL     1      -1.706   5.584  12.574  1.00  0.00     0.029 A 
HETATM    9  N2  UNL     1      -0.596   5.586  11.748  1.00  0.00    -0.339 N 
ATOM     10  H2  UNL     1      -0.531   5.105  10.851  1.00  0.00     0.168 HD
HETATM   11  C15 UNL     1       0.361   6.301  12.296  1.00  0.00     0.151 A 
HETATM   12  S1  UNL     1      -0.020   7.037  13.786  1.00  0.00    -0.056 SA
HETATM   13  C20 UNL     1      -2.968   4.842  12.197  1.00  0.00     0.040 C 
HETATM   14  C21 UNL     1      -2.603   3.408  11.775  1.00  0.00     0.017 C 
HETATM   15  C22 UNL     1      -4.027   4.896  13.373  1.00  0.00     0.033 C 
HETATM   16  C23 UNL     1      -5.461   4.494  12.922  1.00  0.00     0.128 C 
ENDROOT
BRANCH   1  17
HETATM   17  C5  UNL     1      -7.926   4.128  13.598  1.00  0.00     0.080 C 
HETATM   18  C6  UNL     1      -7.994   2.871  12.727  1.00  0.00     0.020 C 
BRANCH  17  19
HETATM   19  C4  UNL     1      -8.663   5.311  12.966  1.00  0.00     0.222 C 
HETATM   20  N1  UNL     1      -9.687   5.858  13.704  1.00  0.00    -0.359 N 
HETATM   21  H8  UNL     1      -9.736   5.642  14.689  1.00  0.00     0.162 HD
HETATM   22  O2  UNL     1      -8.368   5.713  11.842  1.00  0.00    -0.273 OA
BRANCH  20  23
HETATM   23  C3  UNL     1     -10.394   7.044  13.252  1.00  0.00     0.148 C 
BRANCH  23  24
HETATM   24  C2  UNL     1     -10.518   8.097  14.357  1.00  0.00     0.186 C 
BRANCH  24  25
HETATM   25  O1  UNL     1      -9.258   8.434  14.935  1.00  0.00    -0.394 OA
HETATM   26  C1  UNL     1      -9.151   9.809  15.283  1.00  0.00     0.201 C 
ENDBRANCH  24  25
ENDBRANCH  23  24
ENDBRANCH  20  23
ENDBRANCH  17  19
ENDBRANCH   1  17
BRANCH  16  27
HETATM   27  O4  UNL     1      -5.419   3.163  12.416  1.00  0.00    -0.395 OA
HETATM   28  H38 UNL     1      -6.108   3.064  11.738  1.00  0.00     0.210 HD
ENDBRANCH  16  27
BRANCH  11  29
HETATM   29  N3  UNL     1       1.574   6.444  11.685  1.00  0.00    -0.306 N 
HETATM   30  C16 UNL     1       2.257   5.526  10.921  1.00  0.00     0.252 C 
HETATM   31  O3  UNL     1       1.931   4.370  10.674  1.00  0.00    -0.271 OA
HETATM   32  H23 UNL     1       1.962   7.382  11.712  1.00  0.00     0.171 HD
BRANCH  30  33
HETATM   33  C17 UNL     1       3.596   6.085  10.416  1.00  0.00     0.373 C 
BRANCH  33  34
HETATM   34  N4  UNL     1       3.428   6.841   9.146  1.00  0.00     0.088 N 
HETATM   35  C18 UNL     1       2.702   8.096   9.387  1.00  0.00     0.310 C 
HETATM   36  C19 UNL     1       2.680   6.026   8.183  1.00  0.00     0.310 C 
ENDBRANCH  33  34
ENDBRANCH  30  33
ENDBRANCH  11  29
TORSDOF 9
ENDMDL
MODEL 3
REMARK minimizedAffinity -7.85073423
REMARK  9 active torsions:
REMARK  status: ('A' for Active; 'I' for Inactive)
REMARK    1  A    between atoms: O1_2  and  C2_3 
REMARK    2  A    between atoms: C2_3  and  C3_4 
REMARK    3  A    between atoms: C3_4  and  N1_5 
REMARK       I    between atoms: N1_5  and  C4_6 
REMARK    4  A    between atoms: C4_6  and  C5_8 
REMARK    5  A    between atoms: C5_8  and  C7_10 
REMARK    6  A    between atoms: C15_20  and  N3_21 
REMARK       I    between atoms: N3_21  and  C16_22 
REMARK    7  A    between atoms: C16_22  and  C17_24 
REMARK    8  A    between atoms: C17_24  and  N4_25 
REMARK    9  A    between atoms: C23_32  and  O4_33 
ROOT
HETATM    1  C7  UNL     1      -6.310   6.549  13.659  1.00  0.00     0.027 C 
HETATM    2  C8  UNL     1      -6.157   5.045  13.924  1.00  0.00     0.009 C 
HETATM    3  C9  UNL     1      -5.058   4.423  13.070  1.00  0.00     0.010 C 
HETATM    4  C10 UNL     1      -3.684   5.104  13.257  1.00  0.00    -0.033 C 
HETATM    5  C11 UNL     1      -3.182   4.854  14.702  1.00  0.00     0.016 C 
HETATM    6  C12 UNL     1      -2.690   4.436  12.254  1.00  0.00     0.058 C 
HETATM    7  C13 UNL     1      -1.436   5.228  12.177  1.00  0.00     0.010 A 
HETATM    8  C14 UNL     1      -1.308   6.555  12.521  1.00  0.00     0.029 A 
HETATM    9  N2  UNL     1      -0.021   7.053  12.412  1.00  0.00    -0.339 N 
ATOM     10  H2  UNL     1       0.265   8.001  12.657  1.00  0.00     0.168 HD
HETATM   11  C15 UNL     1       0.777   6.118  11.946  1.00  0.00     0.151 A 
HETATM   12  S1  UNL     1       0.055   4.601  11.656  1.00  0.00    -0.056 SA
HETATM   13  C20 UNL     1      -2.443   7.411  13.036  1.00  0.00     0.040 C 
HETATM   14  C21 UNL     1      -2.442   8.754  12.288  1.00  0.00     0.017 C 
HETATM   15  C22 UNL     1      -3.822   6.639  12.932  1.00  0.00     0.033 C 
HETATM   16  C23 UNL     1      -4.951   7.293  13.780  1.00  0.00     0.128 C 
ENDROOT
BRANCH   1  17
HETATM   17  C5  UNL     1      -7.421   7.219  14.527  1.00  0.00     0.080 C 
HETATM   18  C6  UNL     1      -7.268   7.033  16.039  1.00  0.00     0.020 C 
BRANCH  17  19
HETATM   19  C4  UNL     1      -8.826   6.855  14.039  1.00  0.00     0.222 C 
HETATM   20  N1  UNL     1      -9.871   7.227  14.851  1.00  0.00    -0.359 N 
HETATM   21  H8  UNL     1      -9.701   7.920  15.565  1.00  0.00     0.162 HD
HETATM   22  O2  UNL     1      -8.988   6.229  12.993  1.00  0.00    -0.273 OA
BRANCH  20  23
HETATM   23  C3  UNL     1     -11.252   7.022  14.446  1.00  0.00     0.148 C 
BRANCH  23  24
HETATM   24  C2  UNL     1     -11.967   8.343  14.152  1.00  0.00     0.186 C 
BRANCH  24  25
HETATM   25  O1  UNL     1     -11.931   8.690  12.769  1.00  0.00    -0.394 OA
HETATM   26  C1  UNL     1     -12.828   9.741  12.430  1.00  0.00     0.201 C 
ENDBRANCH  24  25
ENDBRANCH  23  24
ENDBRANCH  20  23
ENDBRANCH  17  19
ENDBRANCH   1  17
BRANCH  16  27
HETATM   27  O4  UNL     1      -5.148   8.627  13.320  1.00  0.00    -0.395 OA
HETATM   28  H38 UNL     1      -5.455   9.171  14.064  1.00  0.00     0.210 HD
ENDBRANCH  16  27
BRANCH  11  29
HETATM   29  N3  UNL     1       2.102   6.364  11.727  1.00  0.00    -0.306 N 
HETATM   30  C16 UNL     1       2.892   5.919  10.692  1.00  0.00     0.252 C 
HETATM   31  O3  UNL     1       2.571   5.167   9.777  1.00  0.00    -0.271 OA
HETATM   32  H23 UNL     1       2.522   7.048  12.349  1.00  0.00     0.171 HD
BRANCH  30  33
HETATM   33  C17 UNL     1       4.337   6.424  10.817  1.00  0.00     0.373 C 
BRANCH  33  34
HETATM   34  N4  UNL     1       4.516   7.739  10.144  1.00  0.00     0.088 N 
HETATM   35  C18 UNL     1       4.462   8.831  11.126  1.00  0.00     0.310 C 
HETATM   36  C19 UNL     1       3.457   7.930   9.147  1.00  0.00     0.310 C 
ENDBRANCH  33  34
ENDBRANCH  30  33
ENDBRANCH  11  29
TORSDOF 9
ENDMDL
MODEL 4
REMARK minimizedAffinity -7.81546593
REMARK  9 active torsions:
REMARK  status: ('A' for Active; 'I' for Inactive)
REMARK    1  A    between atoms: O1_2  and  C2_3 
REMARK    2  A    between atoms: C2_3  and  C3_4 
REMARK    3  A    between atoms: C3_4  and  N1_5 
REMARK       I    between atoms: N1_5  and  C4_6 
REMARK    4  A    between atoms: C4_6  and  C5_8 
REMARK    5  A    between atoms: C5_8  and  C7_10 
REMARK    6  A    between atoms: C15_20  and  N3_21 
REMARK       I    between atoms: N3_21  and  C16_22 
REMARK    7  A    between atoms: C16_22  and  C17_24 
REMARK    8  A    between atoms: C17_24  and  N4_25 
REMARK    9  A    between atoms: C23_32  and  O4_33 
ROOT
HETATM    1  C7  UNL     1      -4.585   6.082  13.176  1.00  0.00     0.027 C 
HETATM    2  C8  UNL     1      -4.085   4.661  13.472  1.00  0.00     0.009 C 
HETATM    3  C9  UNL     1      -2.862   4.299  12.638  1.00  0.00     0.010 C 
HETATM    4  C10 UNL     1      -1.689   5.287  12.818  1.00  0.00    -0.033 C 
HETATM    5  C11 UNL     1      -1.157   5.188  14.272  1.00  0.00     0.016 C 
HETATM    6  C12 UNL     1      -0.556   4.854  11.835  1.00  0.00     0.058 C 
HETATM    7  C13 UNL     1       0.479   5.916  11.749  1.00  0.00     0.010 A 
HETATM    8  C14 UNL     1       0.288   7.242  12.067  1.00  0.00     0.029 A 
HETATM    9  N2  UNL     1       1.423   8.026  11.956  1.00  0.00    -0.339 N 
ATOM     10  H2  UNL     1       1.476   9.019  12.183  1.00  0.00     0.168 HD
HETATM   11  C15 UNL     1       2.423   7.297  11.513  1.00  0.00     0.151 A 
HETATM   12  S1  UNL     1       2.080   5.647  11.250  1.00  0.00    -0.056 SA
HETATM   13  C20 UNL     1      -1.021   7.816  12.558  1.00  0.00     0.040 C 
HETATM   14  C21 UNL     1      -1.328   9.109  11.784  1.00  0.00     0.017 C 
HETATM   15  C22 UNL     1      -2.179   6.741  12.462  1.00  0.00     0.033 C 
HETATM   16  C23 UNL     1      -3.439   7.126  13.290  1.00  0.00     0.128 C 
ENDROOT
BRANCH   1  17
HETATM   17  C5  UNL     1      -5.831   6.489  14.024  1.00  0.00     0.080 C 
HETATM   18  C6  UNL     1      -5.519   7.045  15.415  1.00  0.00     0.020 C 
BRANCH  17  19
HETATM   19  C4  UNL     1      -6.880   5.374  14.068  1.00  0.00     0.222 C 
HETATM   20  N1  UNL     1      -7.323   4.905  12.854  1.00  0.00    -0.359 N 
HETATM   21  H8  UNL     1      -6.779   5.115  12.030  1.00  0.00     0.162 HD
HETATM   22  O2  UNL     1      -7.317   4.960  15.140  1.00  0.00    -0.273 OA
BRANCH  20  23
HETATM   23  C3  UNL     1      -8.244   3.783  12.768  1.00  0.00     0.148 C 
BRANCH  23  24
HETATM   24  C2  UNL     1      -7.511   2.440  12.729  1.00  0.00     0.186 C 
BRANCH  24  25
HETATM   25  O1  UNL     1      -6.317   2.490  11.949  1.00  0.00    -0.394 OA
HETATM   26  C1  UNL     1      -6.058   1.282  11.243  1.00  0.00     0.201 C 
ENDBRANCH  24  25
ENDBRANCH  23  24
ENDBRANCH  20  23
ENDBRANCH  17  19
ENDBRANCH   1  17
BRANCH  16  27
HETATM   27  O4  UNL     1      -3.939   8.368  12.802  1.00  0.00    -0.395 OA
HETATM   28  H38 UNL     1      -4.373   8.839  13.533  1.00  0.00     0.210 HD
ENDBRANCH  16  27
BRANCH  11  29
HETATM   29  N3  UNL     1       3.656   7.843  11.297  1.00  0.00    -0.306 N 
HETATM   30  C16 UNL     1       4.753   7.262  10.704  1.00  0.00     0.252 C 
HETATM   31  O3  UNL     1       4.857   6.112  10.290  1.00  0.00    -0.271 OA
HETATM   32  H23 UNL     1       3.730   8.834  11.504  1.00  0.00     0.171 HD
BRANCH  30  33
HETATM   33  C17 UNL     1       5.952   8.221  10.656  1.00  0.00     0.373 C 
BRANCH  33  34
HETATM   34  N4  UNL     1       6.784   8.116  11.885  1.00  0.00     0.088 N 
HETATM   35  C18 UNL     1       6.431   6.907  12.642  1.00  0.00     0.310 C 
HETATM   36  C19 UNL     1       6.568   9.296  12.728  1.00  0.00     0.310 C 
ENDBRANCH  33  34
ENDBRANCH  30  33
ENDBRANCH  11  29
TORSDOF 9
ENDMDL
MODEL 5
REMARK minimizedAffinity -7.76132107
REMARK  9 active torsions:
REMARK  status: ('A' for Active; 'I' for Inactive)
REMARK    1  A    between atoms: O1_2  and  C2_3 
REMARK    2  A    between atoms: C2_3  and  C3_4 
REMARK    3  A    between atoms: C3_4  and  N1_5 
REMARK       I    between atoms: N1_5  and  C4_6 
REMARK    4  A    between atoms: C4_6  and  C5_8 
REMARK    5  A    between atoms: C5_8  and  C7_10 
REMARK    6  A    between atoms: C15_20  and  N3_21 
REMARK       I    between atoms: N3_21  and  C16_22 
REMARK    7  A    between atoms: C16_22  and  C17_24 
REMARK    8  A    between atoms: C17_24  and  N4_25 
REMARK    9  A    between atoms: C23_32  and  O4_33 
ROOT
HETATM    1  C7  UNL     1      -5.865   4.343  12.272  1.00  0.00     0.027 C 
HETATM    2  C8  UNL     1      -5.354   3.186  11.401  1.00  0.00     0.009 C 
HETATM    3  C9  UNL     1      -4.077   3.554  10.653  1.00  0.00     0.010 C 
HETATM    4  C10 UNL     1      -2.937   4.015  11.586  1.00  0.00    -0.033 C 
HETATM    5  C11 UNL     1      -2.488   2.825  12.472  1.00  0.00     0.016 C 
HETATM    6  C12 UNL     1      -1.741   4.453  10.683  1.00  0.00     0.058 C 
HETATM    7  C13 UNL     1      -0.725   5.171  11.495  1.00  0.00     0.010 A 
HETATM    8  C14 UNL     1      -0.961   5.788  12.703  1.00  0.00     0.029 A 
HETATM    9  N2  UNL     1       0.162   6.343  13.291  1.00  0.00    -0.339 N 
ATOM     10  H2  UNL     1       0.181   6.807  14.199  1.00  0.00     0.168 HD
HETATM   11  C15 UNL     1       1.201   6.181  12.502  1.00  0.00     0.151 A 
HETATM   12  S1  UNL     1       0.907   5.331  11.053  1.00  0.00    -0.056 SA
HETATM   13  C20 UNL     1      -2.308   5.823  13.389  1.00  0.00     0.040 C 
HETATM   14  C21 UNL     1      -2.596   7.257  13.864  1.00  0.00     0.017 C 
HETATM   15  C22 UNL     1      -3.436   5.240  12.444  1.00  0.00     0.033 C 
HETATM   16  C23 UNL     1      -4.749   4.893  13.203  1.00  0.00     0.128 C 
ENDROOT
BRANCH   1  17
HETATM   17  C5  UNL     1      -7.166   3.994  13.061  1.00  0.00     0.080 C 
HETATM   18  C6  UNL     1      -7.675   2.563  12.878  1.00  0.00     0.020 C 
BRANCH  17  19
HETATM   19  C4  UNL     1      -8.266   5.034  12.835  1.00  0.00     0.222 C 
HETATM   20  N1  UNL     1      -8.889   5.519  13.962  1.00  0.00    -0.359 N 
HETATM   21  H8  UNL     1      -8.442   5.377  14.856  1.00  0.00     0.162 HD
HETATM   22  O2  UNL     1      -8.588   5.377  11.700  1.00  0.00    -0.273 OA
BRANCH  20  23
HETATM   23  C3  UNL     1      -9.879   6.580  13.880  1.00  0.00     0.148 C 
BRANCH  23  24
HETATM   24  C2  UNL     1      -9.709   7.614  14.996  1.00  0.00     0.186 C 
BRANCH  24  25
HETATM   25  O1  UNL     1      -9.220   7.038  16.206  1.00  0.00    -0.394 OA
HETATM   26  C1  UNL     1      -7.874   7.398  16.495  1.00  0.00     0.201 C 
ENDBRANCH  24  25
ENDBRANCH  23  24
ENDBRANCH  20  23
ENDBRANCH  17  19
ENDBRANCH   1  17
BRANCH  16  27
HETATM   27  O4  UNL     1      -5.245   6.081  13.813  1.00  0.00    -0.395 OA
HETATM   28  H38 UNL     1      -5.731   5.839  14.620  1.00  0.00     0.210 HD
ENDBRANCH  16  27
BRANCH  11  29
HETATM   29  N3  UNL     1       2.432   6.660  12.846  1.00  0.00    -0.306 N 
HETATM   30  C16 UNL     1       2.930   7.931  12.676  1.00  0.00     0.252 C 
HETATM   31  O3  UNL     1       2.379   8.883  12.132  1.00  0.00    -0.271 OA
HETATM   32  H23 UNL     1       3.004   6.024  13.393  1.00  0.00     0.171 HD
BRANCH  30  33
HETATM   33  C17 UNL     1       4.368   8.057  13.202  1.00  0.00     0.373 C 
BRANCH  33  34
HETATM   34  N4  UNL     1       5.303   7.175  12.451  1.00  0.00     0.088 N 
HETATM   35  C18 UNL     1       6.664   7.289  12.994  1.00  0.00     0.310 C 
HETATM   36  C19 UNL     1       5.312   7.559  11.036  1.00  0.00     0.310 C 
ENDBRANCH  33  34
ENDBRANCH  30  33
ENDBRANCH  11  29
TORSDOF 9
ENDMDL
MODEL 6
REMARK minimizedAffinity -7.72239017
REMARK  9 active torsions:
REMARK  status: ('A' for Active; 'I' for Inactive)
REMARK    1  A    between atoms: O1_2  and  C2_3 
REMARK    2  A    between atoms: C2_3  and  C3_4 
REMARK    3  A    between atoms: C3_4  and  N1_5 
REMARK       I    between atoms: N1_5  and  C4_6 
REMARK    4  A    between atoms: C4_6  and  C5_8 
REMARK    5  A    between atoms: C5_8  and  C7_10 
REMARK    6  A    between atoms: C15_20  and  N3_21 
REMARK       I    between atoms: N3_21  and  C16_22 
REMARK    7  A    between atoms: C16_22  and  C17_24 
REMARK    8  A    between atoms: C17_24  and  N4_25 
REMARK    9  A    between atoms: C23_32  and  O4_33 
ROOT
HETATM    1  C7  UNL     1      -4.691   3.866  12.996  1.00  0.00     0.027 C 
HETATM    2  C8  UNL     1      -5.112   5.148  13.729  1.00  0.00     0.009 C 
HETATM    3  C9  UNL     1      -3.972   5.739  14.550  1.00  0.00     0.010 C 
HETATM    4  C10 UNL     1      -2.710   6.038  13.711  1.00  0.00    -0.033 C 
HETATM    5  C11 UNL     1      -3.026   7.166  12.696  1.00  0.00     0.016 C 
HETATM    6  C12 UNL     1      -1.603   6.537  14.692  1.00  0.00     0.058 C 
HETATM    7  C13 UNL     1      -0.288   6.569  14.003  1.00  0.00     0.010 A 
HETATM    8  C14 UNL     1       0.040   5.849  12.875  1.00  0.00     0.029 A 
HETATM    9  N2  UNL     1       1.313   6.093  12.390  1.00  0.00    -0.339 N 
ATOM     10  H2  UNL     1       1.710   5.677  11.548  1.00  0.00     0.168 HD
HETATM   11  C15 UNL     1       1.932   6.942  13.180  1.00  0.00     0.151 A 
HETATM   12  S1  UNL     1       1.027   7.522  14.503  1.00  0.00    -0.056 SA
HETATM   13  C20 UNL     1      -0.908   4.910  12.165  1.00  0.00     0.040 C 
HETATM   14  C21 UNL     1      -0.179   3.589  11.865  1.00  0.00     0.017 C 
HETATM   15  C22 UNL     1      -2.238   4.713  13.000  1.00  0.00     0.033 C 
HETATM   16  C23 UNL     1      -3.392   4.081  12.170  1.00  0.00     0.128 C 
ENDROOT
BRANCH   1  17
HETATM   17  C5  UNL     1      -5.834   3.242  12.136  1.00  0.00     0.080 C 
HETATM   18  C6  UNL     1      -5.667   3.394  10.622  1.00  0.00     0.020 C 
BRANCH  17  19
HETATM   19  C4  UNL     1      -7.218   3.688  12.614  1.00  0.00     0.222 C 
HETATM   20  N1  UNL     1      -7.619   4.947  12.231  1.00  0.00    -0.359 N 
HETATM   21  H8  UNL     1      -7.128   5.397  11.473  1.00  0.00     0.162 HD
HETATM   22  O2  UNL     1      -7.902   2.963  13.333  1.00  0.00    -0.273 OA
BRANCH  20  23
HETATM   23  C3  UNL     1      -8.950   5.442  12.542  1.00  0.00     0.148 C 
BRANCH  23  24
HETATM   24  C2  UNL     1      -8.962   6.306  13.805  1.00  0.00     0.186 C 
BRANCH  24  25
HETATM   25  O1  UNL     1      -9.969   7.317  13.767  1.00  0.00    -0.394 OA
HETATM   26  C1  UNL     1     -11.172   6.934  14.423  1.00  0.00     0.201 C 
ENDBRANCH  24  25
ENDBRANCH  23  24
ENDBRANCH  20  23
ENDBRANCH  17  19
ENDBRANCH   1  17
BRANCH  16  27
HETATM   27  O4  UNL     1      -2.965   2.806  11.700  1.00  0.00    -0.395 OA
HETATM   28  H38 UNL     1      -3.412   2.618  10.857  1.00  0.00     0.210 HD
ENDBRANCH  16  27
BRANCH  11  29
HETATM   29  N3  UNL     1       3.216   7.332  12.930  1.00  0.00    -0.306 N 
HETATM   30  C16 UNL     1       3.838   7.487  11.713  1.00  0.00     0.252 C 
HETATM   31  O3  UNL     1       3.372   7.256  10.601  1.00  0.00    -0.271 OA
HETATM   32  H23 UNL     1       3.736   7.651  13.742  1.00  0.00     0.171 HD
BRANCH  30  33
HETATM   33  C17 UNL     1       5.296   7.944  11.869  1.00  0.00     0.373 C 
BRANCH  33  34
HETATM   34  N4  UNL     1       6.166   6.838  12.353  1.00  0.00     0.088 N 
HETATM   35  C18 UNL     1       7.246   7.366  13.198  1.00  0.00     0.310 C 
HETATM   36  C19 UNL     1       6.748   6.132  11.207  1.00  0.00     0.310 C 
ENDBRANCH  33  34
ENDBRANCH  30  33
ENDBRANCH  11  29
TORSDOF 9
ENDMDL
MODEL 7
REMARK minimizedAffinity -7.69039774
REMARK  9 active torsions:
REMARK  status: ('A' for Active; 'I' for Inactive)
REMARK    1  A    between atoms: O1_2  and  C2_3 
REMARK    2  A    between atoms: C2_3  and  C3_4 
REMARK    3  A    between atoms: C3_4  and  N1_5 
REMARK       I    between atoms: N1_5  and  C4_6 
REMARK    4  A    between atoms: C4_6  and  C5_8 
REMARK    5  A    between atoms: C5_8  and  C7_10 
REMARK    6  A    between atoms: C15_20  and  N3_21 
REMARK       I    between atoms: N3_21  and  C16_22 
REMARK    7  A    between atoms: C16_22  and  C17_24 
REMARK    8  A    between atoms: C17_24  and  N4_25 
REMARK    9  A    between atoms: C23_32  and  O4_33 
ROOT
HETATM    1  C7  UNL     1      -4.798   3.579  11.825  1.00  0.00     0.027 C 
HETATM    2  C8  UNL     1      -4.011   3.048  10.618  1.00  0.00     0.009 C 
HETATM    3  C9  UNL     1      -2.851   3.964  10.245  1.00  0.00     0.010 C 
HETATM    4  C10 UNL     1      -1.869   4.208  11.411  1.00  0.00    -0.033 C 
HETATM    5  C11 UNL     1      -1.158   2.876  11.767  1.00  0.00     0.016 C 
HETATM    6  C12 UNL     1      -0.801   5.234  10.918  1.00  0.00     0.058 C 
HETATM    7  C13 UNL     1       0.000   5.728  12.066  1.00  0.00     0.010 A 
HETATM    8  C14 UNL     1      -0.394   5.698  13.385  1.00  0.00     0.029 A 
HETATM    9  N2  UNL     1       0.554   6.169  14.277  1.00  0.00    -0.339 N 
ATOM     10  H2  UNL     1       0.448   6.188  15.291  1.00  0.00     0.168 HD
HETATM   11  C15 UNL     1       1.612   6.588  13.618  1.00  0.00     0.151 A 
HETATM   12  S1  UNL     1       1.552   6.405  11.924  1.00  0.00    -0.056 SA
HETATM   13  C20 UNL     1      -1.719   5.148  13.862  1.00  0.00     0.040 C 
HETATM   14  C21 UNL     1      -2.351   6.139  14.853  1.00  0.00     0.017 C 
HETATM   15  C22 UNL     1      -2.660   4.805  12.635  1.00  0.00     0.033 C 
HETATM   16  C23 UNL     1      -3.861   3.896  13.024  1.00  0.00     0.128 C 
ENDROOT
BRANCH   1  17
HETATM   17  C5  UNL     1      -5.987   2.657  12.241  1.00  0.00     0.080 C 
HETATM   18  C6  UNL     1      -6.257   1.479  11.303  1.00  0.00     0.020 C 
BRANCH  17  19
HETATM   19  C4  UNL     1      -7.255   3.461  12.540  1.00  0.00     0.222 C 
HETATM   20  N1  UNL     1      -7.149   4.829  12.439  1.00  0.00    -0.359 N 
HETATM   21  H8  UNL     1      -6.359   5.213  11.942  1.00  0.00     0.162 HD
HETATM   22  O2  UNL     1      -8.292   2.900  12.888  1.00  0.00    -0.273 OA
BRANCH  20  23
HETATM   23  C3  UNL     1      -8.308   5.690  12.603  1.00  0.00     0.148 C 
BRANCH  23  24
HETATM   24  C2  UNL     1      -8.329   6.371  13.974  1.00  0.00     0.186 C 
BRANCH  24  25
HETATM   25  O1  UNL     1      -7.055   6.350  14.616  1.00  0.00    -0.394 OA
HETATM   26  C1  UNL     1      -6.537   7.649  14.877  1.00  0.00     0.201 C 
ENDBRANCH  24  25
ENDBRANCH  23  24
ENDBRANCH  20  23
ENDBRANCH  17  19
ENDBRANCH   1  17
BRANCH  16  27
HETATM   27  O4  UNL     1      -4.638   4.569  14.011  1.00  0.00    -0.395 OA
HETATM   28  H38 UNL     1      -5.061   3.906  14.581  1.00  0.00     0.210 HD
ENDBRANCH  16  27
BRANCH  11  29
HETATM   29  N3  UNL     1       2.686   7.119  14.271  1.00  0.00    -0.306 N 
HETATM   30  C16 UNL     1       3.388   8.263  13.966  1.00  0.00     0.252 C 
HETATM   31  O3  UNL     1       3.215   9.013  13.010  1.00  0.00    -0.271 OA
HETATM   32  H23 UNL     1       2.922   6.671  15.151  1.00  0.00     0.171 HD
BRANCH  30  33
HETATM   33  C17 UNL     1       4.536   8.511  14.956  1.00  0.00     0.373 C 
BRANCH  33  34
HETATM   34  N4  UNL     1       5.840   8.659  14.254  1.00  0.00     0.088 N 
HETATM   35  C18 UNL     1       6.417   7.340  13.960  1.00  0.00     0.310 C 
HETATM   36  C19 UNL     1       6.769   9.418  15.096  1.00  0.00     0.310 C 
ENDBRANCH  33  34
ENDBRANCH  30  33
ENDBRANCH  11  29
TORSDOF 9
ENDMDL
MODEL 8
REMARK minimizedAffinity -7.62342596
REMARK  9 active torsions:
REMARK  status: ('A' for Active; 'I' for Inactive)
REMARK    1  A    between atoms: O1_2  and  C2_3 
REMARK    2  A    between atoms: C2_3  and  C3_4 
REMARK    3  A    between atoms: C3_4  and  N1_5 
REMARK       I    between atoms: N1_5  and  C4_6 
REMARK    4  A    between atoms: C4_6  and  C5_8 
REMARK    5  A    between atoms: C5_8  and  C7_10 
REMARK    6  A    between atoms: C15_20  and  N3_21 
REMARK       I    between atoms: N3_21  and  C16_22 
REMARK    7  A    between atoms: C16_22  and  C17_24 
REMARK    8  A    between atoms: C17_24  and  N4_25 
REMARK    9  A    between atoms: C23_32  and  O4_33 
ROOT
HETATM    1  C7  UNL     1      -4.514   6.510  14.226  1.00  0.00     0.027 C 
HETATM    2  C8  UNL     1      -4.497   7.524  15.379  1.00  0.00     0.009 C 
HETATM    3  C9  UNL     1      -5.688   8.474  15.322  1.00  0.00     0.010 C 
HETATM    4  C10 UNL     1      -7.049   7.746  15.320  1.00  0.00    -0.033 C 
HETATM    5  C11 UNL     1      -7.245   7.027  16.680  1.00  0.00     0.016 C 
HETATM    6  C12 UNL     1      -8.161   8.829  15.156  1.00  0.00     0.058 C 
HETATM    7  C13 UNL     1      -9.464   8.182  14.862  1.00  0.00     0.010 A 
HETATM    8  C14 UNL     1      -9.627   6.918  14.339  1.00  0.00     0.029 A 
HETATM    9  N2  UNL     1     -10.946   6.519  14.207  1.00  0.00    -0.339 N 
ATOM     10  H2  UNL     1     -11.252   5.606  13.871  1.00  0.00     0.168 HD
HETATM   11  C15 UNL     1     -11.743   7.496  14.578  1.00  0.00     0.151 A 
HETATM   12  S1  UNL     1     -10.974   8.910  15.140  1.00  0.00    -0.056 SA
HETATM   13  C20 UNL     1      -8.485   5.993  13.987  1.00  0.00     0.040 C 
HETATM   14  C21 UNL     1      -8.732   5.393  12.593  1.00  0.00     0.017 C 
HETATM   15  C22 UNL     1      -7.095   6.743  14.106  1.00  0.00     0.033 C 
HETATM   16  C23 UNL     1      -5.879   5.773  14.133  1.00  0.00     0.128 C 
ENDROOT
BRANCH   1  17
HETATM   17  C5  UNL     1      -3.313   5.513  14.262  1.00  0.00     0.080 C 
HETATM   18  C6  UNL     1      -1.929   6.163  14.322  1.00  0.00     0.020 C 
BRANCH  17  19
HETATM   19  C4  UNL     1      -3.412   4.460  13.155  1.00  0.00     0.222 C 
HETATM   20  N1  UNL     1      -2.881   4.807  11.934  1.00  0.00    -0.359 N 
HETATM   21  H8  UNL     1      -2.248   5.591  11.891  1.00  0.00     0.162 HD
HETATM   22  O2  UNL     1      -3.972   3.384  13.353  1.00  0.00    -0.273 OA
BRANCH  20  23
HETATM   23  C3  UNL     1      -2.828   3.855  10.836  1.00  0.00     0.148 C 
BRANCH  23  24
HETATM   24  C2  UNL     1      -2.130   2.553  11.236  1.00  0.00     0.186 C 
BRANCH  24  25
HETATM   25  O1  UNL     1      -1.216   2.094  10.241  1.00  0.00    -0.394 OA
HETATM   26  C1  UNL     1      -0.787   0.754  10.450  1.00  0.00     0.201 C 
ENDBRANCH  24  25
ENDBRANCH  23  24
ENDBRANCH  20  23
ENDBRANCH  17  19
ENDBRANCH   1  17
BRANCH  16  27
HETATM   27  O4  UNL     1      -5.878   5.015  12.926  1.00  0.00    -0.395 OA
HETATM   28  H38 UNL     1      -5.477   4.148  13.103  1.00  0.00     0.210 HD
ENDBRANCH  16  27
BRANCH  11  29
HETATM   29  N3  UNL     1     -13.100   7.360  14.523  1.00  0.00    -0.306 N 
HETATM   30  C16 UNL     1     -13.954   7.742  13.513  1.00  0.00     0.252 C 
HETATM   31  O3  UNL     1     -13.668   8.329  12.475  1.00  0.00    -0.271 OA
HETATM   32  H23 UNL     1     -13.510   6.811  15.272  1.00  0.00     0.171 HD
BRANCH  30  33
HETATM   33  C17 UNL     1     -15.417   7.409  13.845  1.00  0.00     0.373 C 
BRANCH  33  34
HETATM   34  N4  UNL     1     -15.784   6.044  13.382  1.00  0.00     0.088 N 
HETATM   35  C18 UNL     1     -17.004   6.090  12.563  1.00  0.00     0.310 C 
HETATM   36  C19 UNL     1     -16.012   5.175  14.541  1.00  0.00     0.310 C 
ENDBRANCH  33  34
ENDBRANCH  30  33
ENDBRANCH  11  29
TORSDOF 9
ENDMDL
MODEL 9
REMARK minimizedAffinity -7.46728086
REMARK  9 active torsions:
REMARK  status: ('A' for Active; 'I' for Inactive)
REMARK    1  A    between atoms: O1_2  and  C2_3 
REMARK    2  A    between atoms: C2_3  and  C3_4 
REMARK    3  A    between atoms: C3_4  and  N1_5 
REMARK       I    between atoms: N1_5  and  C4_6 
REMARK    4  A    between atoms: C4_6  and  C5_8 
REMARK    5  A    between atoms: C5_8  and  C7_10 
REMARK    6  A    between atoms: C15_20  and  N3_21 
REMARK       I    between atoms: N3_21  and  C16_22 
REMARK    7  A    between atoms: C16_22  and  C17_24 
REMARK    8  A    between atoms: C17_24  and  N4_25 
REMARK    9  A    between atoms: C23_32  and  O4_33 
ROOT
HETATM    1  C7  UNL     1      -5.390   7.017  14.693  1.00  0.00     0.027 C 
HETATM    2  C8  UNL     1      -4.928   8.305  15.389  1.00  0.00     0.009 C 
HETATM    3  C9  UNL     1      -3.454   8.249  15.776  1.00  0.00     0.010 C 
HETATM    4  C10 UNL     1      -2.521   7.969  14.578  1.00  0.00    -0.033 C 
HETATM    5  C11 UNL     1      -2.576   9.168  13.596  1.00  0.00     0.016 C 
HETATM    6  C12 UNL     1      -1.069   7.839  15.136  1.00  0.00     0.058 C 
HETATM    7  C13 UNL     1      -0.168   7.291  14.090  1.00  0.00     0.010 A 
HETATM    8  C14 UNL     1      -0.571   6.564  12.991  1.00  0.00     0.029 A 
HETATM    9  N2  UNL     1       0.454   6.211  12.131  1.00  0.00    -0.339 N 
ATOM     10  H2  UNL     1       0.337   5.704  11.254  1.00  0.00     0.168 HD
HETATM   11  C15 UNL     1       1.603   6.628  12.617  1.00  0.00     0.151 A 
HETATM   12  S1  UNL     1       1.519   7.491  14.085  1.00  0.00    -0.056 SA
HETATM   13  C20 UNL     1      -2.010   6.216  12.686  1.00  0.00     0.040 C 
HETATM   14  C21 UNL     1      -2.102   4.727  12.315  1.00  0.00     0.017 C 
HETATM   15  C22 UNL     1      -2.955   6.618  13.892  1.00  0.00     0.033 C 
HETATM   16  C23 UNL     1      -4.461   6.645  13.504  1.00  0.00     0.128 C 
ENDROOT
BRANCH   1  17
HETATM   17  C5  UNL     1      -6.893   7.046  14.273  1.00  0.00     0.080 C 
HETATM   18  C6  UNL     1      -7.755   8.072  15.011  1.00  0.00     0.020 C 
BRANCH  17  19
HETATM   19  C4  UNL     1      -7.517   5.648  14.286  1.00  0.00     0.222 C 
HETATM   20  N1  UNL     1      -7.857   5.120  13.063  1.00  0.00    -0.359 N 
HETATM   21  H8  UNL     1      -7.462   5.537  12.233  1.00  0.00     0.162 HD
HETATM   22  O2  UNL     1      -7.730   5.061  15.345  1.00  0.00    -0.273 OA
BRANCH  20  23
HETATM   23  C3  UNL     1      -8.365   3.763  12.942  1.00  0.00     0.148 C 
BRANCH  23  24
HETATM   24  C2  UNL     1      -7.246   2.749  12.692  1.00  0.00     0.186 C 
BRANCH  24  25
HETATM   25  O1  UNL     1      -6.288   3.215  11.743  1.00  0.00    -0.394 OA
HETATM   26  C1  UNL     1      -5.347   2.218  11.362  1.00  0.00     0.201 C 
ENDBRANCH  24  25
ENDBRANCH  23  24
ENDBRANCH  20  23
ENDBRANCH  17  19
ENDBRANCH   1  17
BRANCH  16  27
HETATM   27  O4  UNL     1      -4.835   5.346  13.055  1.00  0.00    -0.395 OA
HETATM   28  H38 UNL     1      -5.551   5.434  12.404  1.00  0.00     0.210 HD
ENDBRANCH  16  27
BRANCH  11  29
HETATM   29  N3  UNL     1       2.776   6.386  11.963  1.00  0.00    -0.306 N 
HETATM   30  C16 UNL     1       2.974   6.176  10.618  1.00  0.00     0.252 C 
HETATM   31  O3  UNL     1       2.122   6.116   9.737  1.00  0.00    -0.271 OA
HETATM   32  H23 UNL     1       3.614   6.484  12.529  1.00  0.00     0.171 HD
BRANCH  30  33
HETATM   33  C17 UNL     1       4.456   5.939  10.288  1.00  0.00     0.373 C 
BRANCH  33  34
HETATM   34  N4  UNL     1       5.346   6.749  11.163  1.00  0.00     0.088 N 
HETATM   35  C18 UNL     1       5.529   8.096  10.604  1.00  0.00     0.310 C 
HETATM   36  C19 UNL     1       6.652   6.092  11.279  1.00  0.00     0.310 C 
ENDBRANCH  33  34
ENDBRANCH  30  33
ENDBRANCH  11  29
TORSDOF 9
ENDMDL
