MODEL 1
REMARK minimizedAffinity -9.18555737
REMARK CNNscore 0.699947655
REMARK CNNaffinity 7.53451681
REMARK  11 active torsions:
REMARK  status: ('A' for Active; 'I' for Inactive)
REMARK    1  A    between atoms: C12_13  and  O2_14 
REMARK    2  A    between atoms: C19_21  and  O3_22 
REMARK    3  A    between atoms: C19_21  and  C20_23 
REMARK    4  A    between atoms: C20_23  and  C21_25 
REMARK    5  A    between atoms: C21_25  and  O5_26 
REMARK    6  A    between atoms: O5_26  and  C22_27 
REMARK    7  A    between atoms: C22_27  and  C23_29 
REMARK    8  A    between atoms: C23_29  and  C24_30 
REMARK    9  A    between atoms: C24_30  and  C25_31 
REMARK       I    between atoms: C25_31  and  N1_33 
REMARK   10  A    between atoms: N1_33  and  C26_34 
REMARK   11  A    between atoms: C26_34  and  C27_35 
ROOT
HETATM    1  C1  UNL     1      -0.064  49.500 -20.647  1.00  0.00     0.025 C 
HETATM    2  C2  UNL     1      -0.763  50.870 -20.811  1.00  0.00     0.004 A 
HETATM    3  C3  UNL     1      -0.126  51.528 -22.036  1.00  0.00    -0.009 A 
HETATM    4  C4  UNL     1       0.562  52.677 -22.030  1.00  0.00     0.052 A 
HETATM    5  C5  UNL     1       0.768  53.428 -20.780  1.00  0.00     0.172 A 
HETATM    6  O1  UNL     1       1.383  54.486 -20.766  1.00  0.00    -0.289 OA
HETATM    7  C6  UNL     1       0.198  52.852 -19.545  1.00  0.00     0.058 A 
HETATM    8  C7  UNL     1      -0.484  51.693 -19.547  1.00  0.00    -0.064 A 
HETATM    9  C8  UNL     1      -1.070  51.171 -18.258  1.00  0.00     0.036 C 
HETATM   10  C9  UNL     1      -2.371  50.396 -18.469  1.00  0.00     0.010 C 
HETATM   11  C10 UNL     1      -3.157  50.906 -19.685  1.00  0.00    -0.002 C 
HETATM   12  C11 UNL     1      -2.334  50.802 -21.019  1.00  0.00     0.035 C 
HETATM   13  C12 UNL     1      -2.897  49.710 -21.972  1.00  0.00     0.124 C 
HETATM   14  C13 UNL     1      -3.468  48.503 -21.228  1.00  0.00     0.045 C 
HETATM   15  C14 UNL     1      -4.657  48.823 -20.282  1.00  0.00     0.001 C 
HETATM   16  C15 UNL     1      -4.604  47.805 -19.117  1.00  0.00     0.019 C 
HETATM   17  C16 UNL     1      -4.571  50.286 -19.751  1.00  0.00     0.002 C 
HETATM   18  C17 UNL     1      -5.518  51.132 -20.635  1.00  0.00     0.009 C 
HETATM   19  C18 UNL     1      -6.234  50.181 -21.586  1.00  0.00     0.047 C 
HETATM   20  C19 UNL     1      -6.076  48.804 -20.957  1.00  0.00     0.128 C 
ENDROOT
BRANCH  20  21
HETATM   21  O3  UNL     1      -7.093  48.732 -19.936  1.00  0.00    -0.381 OA
HETATM   22  H25 UNL     1      -7.187  47.785 -19.708  1.00  0.00     0.211 HD
ENDBRANCH  20  21
BRANCH  20  23
HETATM   23  C20 UNL     1      -6.347  47.608 -21.893  1.00  0.00     0.185 C 
HETATM   24  O4  UNL     1      -7.267  46.826 -21.623  1.00  0.00    -0.292 OA
BRANCH  23  25
HETATM   25  C21 UNL     1      -5.457  47.422 -23.124  1.00  0.00     0.260 C 
BRANCH  25  26
HETATM   26  O5  UNL     1      -6.006  47.997 -24.309  1.00  0.00    -0.314 OA
BRANCH  26  27
HETATM   27  C22 UNL     1      -5.146  48.813 -24.978  1.00  0.00     0.259 C 
HETATM   28  O6  UNL     1      -4.626  49.816 -24.508  1.00  0.00    -0.265 OA
BRANCH  27  29
HETATM   29  C23 UNL     1      -4.896  48.311 -26.376  1.00  0.00     0.120 C 
BRANCH  29  30
HETATM   30  C24 UNL     1      -3.411  48.395 -26.693  1.00  0.00     0.112 C 
BRANCH  30  31
HETATM   31  C25 UNL     1      -3.042  49.744 -27.276  1.00  0.00     0.218 C 
HETATM   32  O7  UNL     1      -3.233  50.038 -28.450  1.00  0.00    -0.274 OA
HETATM   33  N1  UNL     1      -2.419  50.573 -26.374  1.00  0.00    -0.357 N 
HETATM   34  H32 UNL     1      -2.227  50.242 -25.439  1.00  0.00     0.162 HD
BRANCH  33  35
HETATM   35  C26 UNL     1      -1.911  51.872 -26.749  1.00  0.00     0.162 C 
BRANCH  35  36
HETATM   36  C27 UNL     1      -0.415  51.836 -26.870  1.00  0.00    -0.025 A 
HETATM   37  C28 UNL     1       0.414  51.778 -25.747  1.00  0.00     0.011 A 
HETATM   38  C29 UNL     1       1.796  51.715 -25.912  1.00  0.00     0.018 A 
HETATM   39  C30 UNL     1       2.302  51.708 -27.202  1.00  0.00     0.087 A 
HETATM   40  N2  UNL     1       1.534  51.756 -28.309  1.00  0.00    -0.375 N 
HETATM   41  C31 UNL     1       0.195  51.816 -28.121  1.00  0.00     0.096 A 
ATOM     42  H2  UNL     1       1.942  51.748 -29.244  1.00  0.00     0.164 HD
ENDBRANCH  35  36
ENDBRANCH  33  35
ENDBRANCH  30  31
ENDBRANCH  29  30
ENDBRANCH  27  29
ENDBRANCH  26  27
ENDBRANCH  25  26
ENDBRANCH  23  25
ENDBRANCH  20  23
BRANCH  13  43
HETATM   43  O2  UNL     1      -1.946  49.280 -22.936  1.00  0.00    -0.395 OA
HETATM   44  H14 UNL     1      -2.298  48.509 -23.414  1.00  0.00     0.210 HD
ENDBRANCH  13  43
TORSDOF 11
ENDMDL
MODEL 2
REMARK minimizedAffinity -8.57193947
REMARK CNNscore 0.678272963
REMARK CNNaffinity 6.86977243
REMARK  11 active torsions:
REMARK  status: ('A' for Active; 'I' for Inactive)
REMARK    1  A    between atoms: C12_13  and  O2_14 
REMARK    2  A    between atoms: C19_21  and  O3_22 
REMARK    3  A    between atoms: C19_21  and  C20_23 
REMARK    4  A    between atoms: C20_23  and  C21_25 
REMARK    5  A    between atoms: C21_25  and  O5_26 
REMARK    6  A    between atoms: O5_26  and  C22_27 
REMARK    7  A    between atoms: C22_27  and  C23_29 
REMARK    8  A    between atoms: C23_29  and  C24_30 
REMARK    9  A    between atoms: C24_30  and  C25_31 
REMARK       I    between atoms: C25_31  and  N1_33 
REMARK   10  A    between atoms: N1_33  and  C26_34 
REMARK   11  A    between atoms: C26_34  and  C27_35 
ROOT
HETATM    1  C1  UNL     1      -2.424  52.611 -24.067  1.00  0.00     0.025 C 
HETATM    2  C2  UNL     1      -1.329  51.520 -24.136  1.00  0.00     0.004 A 
HETATM    3  C3  UNL     1      -0.011  52.255 -24.381  1.00  0.00    -0.009 A 
HETATM    4  C4  UNL     1       0.772  52.108 -25.457  1.00  0.00     0.052 A 
HETATM    5  C5  UNL     1       0.401  51.181 -26.540  1.00  0.00     0.172 A 
HETATM    6  O1  UNL     1       1.116  51.028 -27.522  1.00  0.00    -0.289 OA
HETATM    7  C6  UNL     1      -0.869  50.441 -26.390  1.00  0.00     0.058 A 
HETATM    8  C7  UNL     1      -1.661  50.596 -25.314  1.00  0.00    -0.064 A 
HETATM    9  C8  UNL     1      -2.932  49.790 -25.202  1.00  0.00     0.036 C 
HETATM   10  C9  UNL     1      -3.290  49.445 -23.756  1.00  0.00     0.010 C 
HETATM   11  C10 UNL     1      -2.045  49.311 -22.868  1.00  0.00    -0.002 C 
HETATM   12  C11 UNL     1      -1.188  50.626 -22.833  1.00  0.00     0.035 C 
HETATM   13  C12 UNL     1      -1.258  51.336 -21.451  1.00  0.00     0.124 C 
HETATM   14  C13 UNL     1      -2.619  51.188 -20.771  1.00  0.00     0.045 C 
HETATM   15  C14 UNL     1      -3.040  49.726 -20.463  1.00  0.00     0.001 C 
HETATM   16  C15 UNL     1      -4.585  49.667 -20.532  1.00  0.00     0.019 C 
HETATM   17  C16 UNL     1      -2.397  48.733 -21.478  1.00  0.00     0.002 C 
HETATM   18  C17 UNL     1      -1.149  48.138 -20.782  1.00  0.00     0.009 C 
HETATM   19  C18 UNL     1      -1.117  48.672 -19.355  1.00  0.00     0.047 C 
HETATM   20  C19 UNL     1      -2.535  49.159 -19.087  1.00  0.00     0.128 C 
ENDROOT
BRANCH  20  21
HETATM   21  O3  UNL     1      -3.287  47.974 -18.751  1.00  0.00    -0.381 OA
HETATM   22  H25 UNL     1      -4.111  48.284 -18.322  1.00  0.00     0.211 HD
ENDBRANCH  20  21
BRANCH  20  23
HETATM   23  C20 UNL     1      -2.697  50.107 -17.882  1.00  0.00     0.185 C 
HETATM   24  O4  UNL     1      -2.857  51.317 -18.083  1.00  0.00    -0.292 OA
BRANCH  23  25
HETATM   25  C21 UNL     1      -2.643  49.518 -16.470  1.00  0.00     0.260 C 
BRANCH  25  26
HETATM   26  O5  UNL     1      -1.316  49.251 -16.021  1.00  0.00    -0.314 OA
BRANCH  26  27
HETATM   27  C22 UNL     1      -0.700  50.320 -15.448  1.00  0.00     0.259 C 
HETATM   28  O6  UNL     1      -1.265  51.181 -14.785  1.00  0.00    -0.265 OA
BRANCH  27  29
HETATM   29  C23 UNL     1       0.783  50.303 -15.716  1.00  0.00     0.120 C 
BRANCH  29  30
HETATM   30  C24 UNL     1       1.391  51.639 -15.320  1.00  0.00     0.112 C 
BRANCH  30  31
HETATM   31  C25 UNL     1       2.409  51.480 -14.208  1.00  0.00     0.218 C 
HETATM   32  O7  UNL     1       3.347  50.695 -14.271  1.00  0.00    -0.274 OA
HETATM   33  N1  UNL     1       2.136  52.257 -13.107  1.00  0.00    -0.357 N 
HETATM   34  H32 UNL     1       1.304  52.831 -13.093  1.00  0.00     0.162 HD
BRANCH  33  35
HETATM   35  C26 UNL     1       2.935  52.194 -11.906  1.00  0.00     0.162 C 
BRANCH  35  36
HETATM   36  C27 UNL     1       2.689  53.400 -11.047  1.00  0.00    -0.025 A 
HETATM   37  C28 UNL     1       3.726  54.254 -10.662  1.00  0.00     0.011 A 
HETATM   38  C29 UNL     1       3.442  55.379  -9.891  1.00  0.00     0.018 A 
HETATM   39  C30 UNL     1       2.125  55.614  -9.534  1.00  0.00     0.087 A 
HETATM   40  N2  UNL     1       1.097  54.817  -9.892  1.00  0.00    -0.375 N 
HETATM   41  C31 UNL     1       1.399  53.732 -10.642  1.00  0.00     0.096 A 
ATOM     42  H2  UNL     1       0.138  55.022  -9.611  1.00  0.00     0.164 HD
ENDBRANCH  35  36
ENDBRANCH  33  35
ENDBRANCH  30  31
ENDBRANCH  29  30
ENDBRANCH  27  29
ENDBRANCH  26  27
ENDBRANCH  25  26
ENDBRANCH  23  25
ENDBRANCH  20  23
BRANCH  13  43
HETATM   43  O2  UNL     1      -0.896  52.707 -21.519  1.00  0.00    -0.395 OA
HETATM   44  H14 UNL     1      -1.086  53.134 -20.665  1.00  0.00     0.210 HD
ENDBRANCH  13  43
TORSDOF 11
ENDMDL
MODEL 3
REMARK minimizedAffinity -8.27097988
REMARK CNNscore 0.670412242
REMARK CNNaffinity 6.75164413
REMARK  11 active torsions:
REMARK  status: ('A' for Active; 'I' for Inactive)
REMARK    1  A    between atoms: C12_13  and  O2_14 
REMARK    2  A    between atoms: C19_21  and  O3_22 
REMARK    3  A    between atoms: C19_21  and  C20_23 
REMARK    4  A    between atoms: C20_23  and  C21_25 
REMARK    5  A    between atoms: C21_25  and  O5_26 
REMARK    6  A    between atoms: O5_26  and  C22_27 
REMARK    7  A    between atoms: C22_27  and  C23_29 
REMARK    8  A    between atoms: C23_29  and  C24_30 
REMARK    9  A    between atoms: C24_30  and  C25_31 
REMARK       I    between atoms: C25_31  and  N1_33 
REMARK   10  A    between atoms: N1_33  and  C26_34 
REMARK   11  A    between atoms: C26_34  and  C27_35 
ROOT
HETATM    1  C1  UNL     1      -4.749  51.272 -24.389  1.00  0.00     0.025 C 
HETATM    2  C2  UNL     1      -3.784  50.124 -24.765  1.00  0.00     0.004 A 
HETATM    3  C3  UNL     1      -2.984  50.619 -25.971  1.00  0.00    -0.009 A 
HETATM    4  C4  UNL     1      -2.991  50.062 -27.189  1.00  0.00     0.052 A 
HETATM    5  C5  UNL     1      -3.813  48.872 -27.472  1.00  0.00     0.172 A 
HETATM    6  O1  UNL     1      -3.816  48.348 -28.578  1.00  0.00    -0.289 OA
HETATM    7  C6  UNL     1      -4.630  48.339 -26.363  1.00  0.00     0.058 A 
HETATM    8  C7  UNL     1      -4.632  48.903 -25.143  1.00  0.00    -0.064 A 
HETATM    9  C8  UNL     1      -5.465  48.293 -24.042  1.00  0.00     0.036 C 
HETATM   10  C9  UNL     1      -4.838  48.467 -22.658  1.00  0.00     0.010 C 
HETATM   11  C10 UNL     1      -3.305  48.515 -22.720  1.00  0.00    -0.002 C 
HETATM   12  C11 UNL     1      -2.777  49.689 -23.620  1.00  0.00     0.035 C 
HETATM   13  C12 UNL     1      -2.096  50.809 -22.784  1.00  0.00     0.124 C 
HETATM   14  C13 UNL     1      -2.746  51.012 -21.415  1.00  0.00     0.045 C 
HETATM   15  C14 UNL     1      -2.704  49.771 -20.482  1.00  0.00     0.001 C 
HETATM   16  C15 UNL     1      -3.959  49.833 -19.578  1.00  0.00     0.019 C 
HETATM   17  C16 UNL     1      -2.675  48.451 -21.310  1.00  0.00     0.002 C 
HETATM   18  C17 UNL     1      -1.195  48.002 -21.372  1.00  0.00     0.009 C 
HETATM   19  C18 UNL     1      -0.385  48.962 -20.510  1.00  0.00     0.047 C 
HETATM   20  C19 UNL     1      -1.408  49.635 -19.604  1.00  0.00     0.128 C 
ENDROOT
BRANCH  20  21
HETATM   21  O3  UNL     1      -1.648  48.695 -18.536  1.00  0.00    -0.381 OA
HETATM   22  H25 UNL     1      -2.082  49.199 -17.819  1.00  0.00     0.211 HD
ENDBRANCH  20  21
BRANCH  20  23
HETATM   23  C20 UNL     1      -0.937  50.931 -18.915  1.00  0.00     0.185 C 
HETATM   24  O4  UNL     1      -0.666  51.920 -19.609  1.00  0.00    -0.292 OA
BRANCH  23  25
HETATM   25  C21 UNL     1      -0.808  50.949 -17.390  1.00  0.00     0.260 C 
BRANCH  25  26
HETATM   26  O5  UNL     1       0.400  50.351 -16.920  1.00  0.00    -0.314 OA
BRANCH  26  27
HETATM   27  C22 UNL     1       0.449  50.191 -15.570  1.00  0.00     0.259 C 
HETATM   28  O6  UNL     1      -0.407  49.627 -14.900  1.00  0.00    -0.265 OA
BRANCH  27  29
HETATM   29  C23 UNL     1       1.711  50.783 -14.997  1.00  0.00     0.120 C 
BRANCH  29  30
HETATM   30  C24 UNL     1       1.359  51.777 -13.902  1.00  0.00     0.112 C 
BRANCH  30  31
HETATM   31  C25 UNL     1       2.334  51.697 -12.743  1.00  0.00     0.218 C 
HETATM   32  O7  UNL     1       3.299  50.942 -12.735  1.00  0.00    -0.274 OA
HETATM   33  N1  UNL     1       1.990  52.507 -11.687  1.00  0.00    -0.357 N 
HETATM   34  H32 UNL     1       1.140  53.053 -11.731  1.00  0.00     0.162 HD
BRANCH  33  35
HETATM   35  C26 UNL     1       2.738  52.519 -10.452  1.00  0.00     0.162 C 
BRANCH  35  36
HETATM   36  C27 UNL     1       3.041  53.928 -10.035  1.00  0.00    -0.025 A 
HETATM   37  C28 UNL     1       4.152  54.620 -10.524  1.00  0.00     0.011 A 
HETATM   38  C29 UNL     1       4.373  55.937 -10.131  1.00  0.00     0.018 A 
HETATM   39  C30 UNL     1       3.468  56.522  -9.259  1.00  0.00     0.087 A 
HETATM   40  N2  UNL     1       2.381  55.889  -8.771  1.00  0.00    -0.375 N 
HETATM   41  C31 UNL     1       2.189  54.610  -9.170  1.00  0.00     0.096 A 
ATOM     42  H2  UNL     1       1.735  56.352  -8.131  1.00  0.00     0.164 HD
ENDBRANCH  35  36
ENDBRANCH  33  35
ENDBRANCH  30  31
ENDBRANCH  29  30
ENDBRANCH  27  29
ENDBRANCH  26  27
ENDBRANCH  25  26
ENDBRANCH  23  25
ENDBRANCH  20  23
BRANCH  13  43
HETATM   43  O2  UNL     1      -2.028  52.047 -23.477  1.00  0.00    -0.395 OA
HETATM   44  H14 UNL     1      -1.722  52.742 -22.867  1.00  0.00     0.210 HD
ENDBRANCH  13  43
TORSDOF 11
ENDMDL
MODEL 4
REMARK minimizedAffinity -8.81322193
REMARK CNNscore 0.617396176
REMARK CNNaffinity 6.61628294
REMARK  11 active torsions:
REMARK  status: ('A' for Active; 'I' for Inactive)
REMARK    1  A    between atoms: C12_13  and  O2_14 
REMARK    2  A    between atoms: C19_21  and  O3_22 
REMARK    3  A    between atoms: C19_21  and  C20_23 
REMARK    4  A    between atoms: C20_23  and  C21_25 
REMARK    5  A    between atoms: C21_25  and  O5_26 
REMARK    6  A    between atoms: O5_26  and  C22_27 
REMARK    7  A    between atoms: C22_27  and  C23_29 
REMARK    8  A    between atoms: C23_29  and  C24_30 
REMARK    9  A    between atoms: C24_30  and  C25_31 
REMARK       I    between atoms: C25_31  and  N1_33 
REMARK   10  A    between atoms: N1_33  and  C26_34 
REMARK   11  A    between atoms: C26_34  and  C27_35 
ROOT
HETATM    1  C1  UNL     1      -4.622  51.312 -24.375  1.00  0.00     0.025 C 
HETATM    2  C2  UNL     1      -3.729  50.091 -24.698  1.00  0.00     0.004 A 
HETATM    3  C3  UNL     1      -2.868  50.499 -25.894  1.00  0.00    -0.009 A 
HETATM    4  C4  UNL     1      -2.883  49.913 -27.098  1.00  0.00     0.052 A 
HETATM    5  C5  UNL     1      -3.778  48.775 -27.373  1.00  0.00     0.172 A 
HETATM    6  O1  UNL     1      -3.790  48.223 -28.465  1.00  0.00    -0.289 OA
HETATM    7  C6  UNL     1      -4.656  48.327 -26.274  1.00  0.00     0.058 A 
HETATM    8  C7  UNL     1      -4.650  48.921 -25.068  1.00  0.00    -0.064 A 
HETATM    9  C8  UNL     1      -5.549  48.399 -23.974  1.00  0.00     0.036 C 
HETATM   10  C9  UNL     1      -4.945  48.566 -22.579  1.00  0.00     0.010 C 
HETATM   11  C10 UNL     1      -3.411  48.508 -22.602  1.00  0.00    -0.002 C 
HETATM   12  C11 UNL     1      -2.782  49.619 -23.517  1.00  0.00     0.035 C 
HETATM   13  C12 UNL     1      -2.046  50.712 -22.691  1.00  0.00     0.124 C 
HETATM   14  C13 UNL     1      -2.714  50.994 -21.344  1.00  0.00     0.045 C 
HETATM   15  C14 UNL     1      -2.780  49.778 -20.381  1.00  0.00     0.001 C 
HETATM   16  C15 UNL     1      -4.050  49.949 -19.512  1.00  0.00     0.019 C 
HETATM   17  C16 UNL     1      -2.822  48.438 -21.175  1.00  0.00     0.002 C 
HETATM   18  C17 UNL     1      -1.375  47.888 -21.188  1.00  0.00     0.009 C 
HETATM   19  C18 UNL     1      -0.522  48.813 -20.329  1.00  0.00     0.047 C 
HETATM   20  C19 UNL     1      -1.518  49.577 -19.467  1.00  0.00     0.128 C 
ENDROOT
BRANCH  20  21
HETATM   21  O3  UNL     1      -1.848  48.684 -18.383  1.00  0.00    -0.381 OA
HETATM   22  H25 UNL     1      -2.264  49.235 -17.689  1.00  0.00     0.211 HD
ENDBRANCH  20  21
BRANCH  20  23
HETATM   23  C20 UNL     1      -0.976  50.856 -18.797  1.00  0.00     0.185 C 
HETATM   24  O4  UNL     1      -0.389  51.698 -19.490  1.00  0.00    -0.292 OA
BRANCH  23  25
HETATM   25  C21 UNL     1      -1.172  51.037 -17.290  1.00  0.00     0.260 C 
BRANCH  25  26
HETATM   26  O5  UNL     1      -2.541  51.167 -16.911  1.00  0.00    -0.314 OA
BRANCH  26  27
HETATM   27  C22 UNL     1      -2.847  50.570 -15.728  1.00  0.00     0.259 C 
HETATM   28  O6  UNL     1      -2.846  49.361 -15.534  1.00  0.00    -0.265 OA
BRANCH  27  29
HETATM   29  C23 UNL     1      -3.172  51.592 -14.670  1.00  0.00     0.120 C 
BRANCH  29  30
HETATM   30  C24 UNL     1      -2.236  51.417 -13.483  1.00  0.00     0.112 C 
BRANCH  30  31
HETATM   31  C25 UNL     1      -2.676  52.253 -12.299  1.00  0.00     0.218 C 
HETATM   32  O7  UNL     1      -3.820  52.237 -11.860  1.00  0.00    -0.274 OA
HETATM   33  N1  UNL     1      -1.683  53.070 -11.812  1.00  0.00    -0.357 N 
HETATM   34  H32 UNL     1      -0.781  53.087 -12.267  1.00  0.00     0.162 HD
BRANCH  33  35
HETATM   35  C26 UNL     1      -1.917  54.008 -10.740  1.00  0.00     0.162 C 
BRANCH  35  36
HETATM   36  C27 UNL     1      -0.616  54.533 -10.207  1.00  0.00    -0.025 A 
HETATM   37  C28 UNL     1       0.563  54.475 -10.955  1.00  0.00     0.011 A 
HETATM   38  C29 UNL     1       1.740  55.003 -10.429  1.00  0.00     0.018 A 
HETATM   39  C30 UNL     1       1.695  55.578  -9.169  1.00  0.00     0.087 A 
HETATM   40  N2  UNL     1       0.576  55.658  -8.421  1.00  0.00    -0.375 N 
HETATM   41  C31 UNL     1      -0.554  55.138  -8.955  1.00  0.00     0.096 A 
ATOM     42  H2  UNL     1       0.580  56.090  -7.496  1.00  0.00     0.164 HD
ENDBRANCH  35  36
ENDBRANCH  33  35
ENDBRANCH  30  31
ENDBRANCH  29  30
ENDBRANCH  27  29
ENDBRANCH  26  27
ENDBRANCH  25  26
ENDBRANCH  23  25
ENDBRANCH  20  23
BRANCH  13  43
HETATM   43  O2  UNL     1      -1.877  51.924 -23.411  1.00  0.00    -0.395 OA
HETATM   44  H14 UNL     1      -1.539  52.612 -22.811  1.00  0.00     0.210 HD
ENDBRANCH  13  43
TORSDOF 11
ENDMDL
MODEL 5
REMARK minimizedAffinity -10.0391426
REMARK CNNscore 0.527162969
REMARK CNNaffinity 7.46241713
REMARK  11 active torsions:
REMARK  status: ('A' for Active; 'I' for Inactive)
REMARK    1  A    between atoms: C12_13  and  O2_14 
REMARK    2  A    between atoms: C19_21  and  O3_22 
REMARK    3  A    between atoms: C19_21  and  C20_23 
REMARK    4  A    between atoms: C20_23  and  C21_25 
REMARK    5  A    between atoms: C21_25  and  O5_26 
REMARK    6  A    between atoms: O5_26  and  C22_27 
REMARK    7  A    between atoms: C22_27  and  C23_29 
REMARK    8  A    between atoms: C23_29  and  C24_30 
REMARK    9  A    between atoms: C24_30  and  C25_31 
REMARK       I    between atoms: C25_31  and  N1_33 
REMARK   10  A    between atoms: N1_33  and  C26_34 
REMARK   11  A    between atoms: C26_34  and  C27_35 
ROOT
HETATM    1  C1  UNL     1      -5.142  51.120 -23.869  1.00  0.00     0.025 C 
HETATM    2  C2  UNL     1      -4.055  50.071 -24.197  1.00  0.00     0.004 A 
HETATM    3  C3  UNL     1      -3.165  50.701 -25.269  1.00  0.00    -0.009 A 
HETATM    4  C4  UNL     1      -2.992  50.230 -26.511  1.00  0.00     0.052 A 
HETATM    5  C5  UNL     1      -3.682  49.008 -26.958  1.00  0.00     0.172 A 
HETATM    6  O1  UNL     1      -3.520  48.561 -28.086  1.00  0.00    -0.289 OA
HETATM    7  C6  UNL     1      -4.575  48.344 -25.988  1.00  0.00     0.058 A 
HETATM    8  C7  UNL     1      -4.758  48.822 -24.744  1.00  0.00    -0.064 A 
HETATM    9  C8  UNL     1      -5.660  48.082 -23.787  1.00  0.00     0.036 C 
HETATM   10  C9  UNL     1      -5.208  48.204 -22.331  1.00  0.00     0.010 C 
HETATM   11  C10 UNL     1      -3.686  48.364 -22.210  1.00  0.00    -0.002 C 
HETATM   12  C11 UNL     1      -3.152  49.630 -22.970  1.00  0.00     0.035 C 
HETATM   13  C12 UNL     1      -2.659  50.735 -21.994  1.00  0.00     0.124 C 
HETATM   14  C13 UNL     1      -3.472  50.798 -20.701  1.00  0.00     0.045 C 
HETATM   15  C14 UNL     1      -3.440  49.503 -19.846  1.00  0.00     0.001 C 
HETATM   16  C15 UNL     1      -4.790  49.415 -19.093  1.00  0.00     0.019 C 
HETATM   17  C16 UNL     1      -3.216  48.247 -20.742  1.00  0.00     0.002 C 
HETATM   18  C17 UNL     1      -1.709  47.908 -20.657  1.00  0.00     0.009 C 
HETATM   19  C18 UNL     1      -1.077  48.861 -19.650  1.00  0.00     0.047 C 
HETATM   20  C19 UNL     1      -2.245  49.398 -18.832  1.00  0.00     0.128 C 
ENDROOT
BRANCH  20  21
HETATM   21  O3  UNL     1      -2.529  48.373 -17.857  1.00  0.00    -0.381 OA
HETATM   22  H25 UNL     1      -3.080  48.796 -17.167  1.00  0.00     0.211 HD
ENDBRANCH  20  21
BRANCH  20  23
HETATM   23  C20 UNL     1      -1.956  50.674 -18.016  1.00  0.00     0.185 C 
HETATM   24  O4  UNL     1      -2.824  51.109 -17.248  1.00  0.00    -0.292 OA
BRANCH  23  25
HETATM   25  C21 UNL     1      -0.604  51.369 -18.191  1.00  0.00     0.260 C 
BRANCH  25  26
HETATM   26  O5  UNL     1      -0.680  52.562 -18.970  1.00  0.00    -0.314 OA
BRANCH  26  27
HETATM   27  C22 UNL     1       0.527  53.132 -19.231  1.00  0.00     0.259 C 
HETATM   28  O6  UNL     1       1.560  52.894 -18.618  1.00  0.00    -0.265 OA
BRANCH  27  29
HETATM   29  C23 UNL     1       0.440  54.086 -20.393  1.00  0.00     0.120 C 
BRANCH  29  30
HETATM   30  C24 UNL     1       1.358  53.618 -21.512  1.00  0.00     0.112 C 
BRANCH  30  31
HETATM   31  C25 UNL     1       0.777  52.425 -22.245  1.00  0.00     0.218 C 
HETATM   32  O7  UNL     1       0.526  51.361 -21.693  1.00  0.00    -0.274 OA
HETATM   33  N1  UNL     1       0.622  52.640 -23.594  1.00  0.00    -0.357 N 
HETATM   34  H32 UNL     1       0.916  53.518 -23.998  1.00  0.00     0.162 HD
BRANCH  33  35
HETATM   35  C26 UNL     1       0.163  51.604 -24.489  1.00  0.00     0.162 C 
BRANCH  35  36
HETATM   36  C27 UNL     1       0.842  51.722 -25.822  1.00  0.00    -0.025 A 
HETATM   37  C28 UNL     1       0.130  52.007 -26.990  1.00  0.00     0.011 A 
HETATM   38  C29 UNL     1       0.810  52.138 -28.199  1.00  0.00     0.018 A 
HETATM   39  C30 UNL     1       2.187  51.983 -28.196  1.00  0.00     0.087 A 
HETATM   40  N2  UNL     1       2.909  51.715 -27.089  1.00  0.00    -0.375 N 
HETATM   41  C31 UNL     1       2.224  51.593 -25.928  1.00  0.00     0.096 A 
ATOM     42  H2  UNL     1       3.923  51.608 -27.125  1.00  0.00     0.164 HD
ENDBRANCH  35  36
ENDBRANCH  33  35
ENDBRANCH  30  31
ENDBRANCH  29  30
ENDBRANCH  27  29
ENDBRANCH  26  27
ENDBRANCH  25  26
ENDBRANCH  23  25
ENDBRANCH  20  23
BRANCH  13  43
HETATM   43  O2  UNL     1      -2.609  52.019 -22.599  1.00  0.00    -0.395 OA
HETATM   44  H14 UNL     1      -2.428  52.691 -21.917  1.00  0.00     0.210 HD
ENDBRANCH  13  43
TORSDOF 11
ENDMDL
MODEL 6
REMARK minimizedAffinity -8.90907669
REMARK CNNscore 0.520708621
REMARK CNNaffinity 6.81205988
REMARK  11 active torsions:
REMARK  status: ('A' for Active; 'I' for Inactive)
REMARK    1  A    between atoms: C12_13  and  O2_14 
REMARK    2  A    between atoms: C19_21  and  O3_22 
REMARK    3  A    between atoms: C19_21  and  C20_23 
REMARK    4  A    between atoms: C20_23  and  C21_25 
REMARK    5  A    between atoms: C21_25  and  O5_26 
REMARK    6  A    between atoms: O5_26  and  C22_27 
REMARK    7  A    between atoms: C22_27  and  C23_29 
REMARK    8  A    between atoms: C23_29  and  C24_30 
REMARK    9  A    between atoms: C24_30  and  C25_31 
REMARK       I    between atoms: C25_31  and  N1_33 
REMARK   10  A    between atoms: N1_33  and  C26_34 
REMARK   11  A    between atoms: C26_34  and  C27_35 
ROOT
HETATM    1  C1  UNL     1      -4.218  51.341 -24.556  1.00  0.00     0.025 C 
HETATM    2  C2  UNL     1      -3.514  49.993 -24.841  1.00  0.00     0.004 A 
HETATM    3  C3  UNL     1      -2.651  50.219 -26.083  1.00  0.00    -0.009 A 
HETATM    4  C4  UNL     1      -2.793  49.581 -27.252  1.00  0.00     0.052 A 
HETATM    5  C5  UNL     1      -3.844  48.566 -27.437  1.00  0.00     0.172 A 
HETATM    6  O1  UNL     1      -3.974  47.968 -28.498  1.00  0.00    -0.289 OA
HETATM    7  C6  UNL     1      -4.733  48.299 -26.289  1.00  0.00     0.058 A 
HETATM    8  C7  UNL     1      -4.599  48.946 -25.118  1.00  0.00    -0.064 A 
HETATM    9  C8  UNL     1      -5.519  48.608 -23.970  1.00  0.00     0.036 C 
HETATM   10  C9  UNL     1      -4.846  48.757 -22.606  1.00  0.00     0.010 C 
HETATM   11  C10 UNL     1      -3.336  48.487 -22.673  1.00  0.00    -0.002 C 
HETATM   12  C11 UNL     1      -2.596  49.453 -23.665  1.00  0.00     0.035 C 
HETATM   13  C12 UNL     1      -1.687  50.473 -22.923  1.00  0.00     0.124 C 
HETATM   14  C13 UNL     1      -2.258  50.911 -21.573  1.00  0.00     0.045 C 
HETATM   15  C14 UNL     1      -2.453  49.765 -20.544  1.00  0.00     0.001 C 
HETATM   16  C15 UNL     1      -3.654  50.152 -19.647  1.00  0.00     0.019 C 
HETATM   17  C16 UNL     1      -2.708  48.406 -21.263  1.00  0.00     0.002 C 
HETATM   18  C17 UNL     1      -1.352  47.660 -21.291  1.00  0.00     0.009 C 
HETATM   19  C18 UNL     1      -0.348  48.499 -20.510  1.00  0.00     0.047 C 
HETATM   20  C19 UNL     1      -1.197  49.436 -19.660  1.00  0.00     0.128 C 
ENDROOT
BRANCH  20  21
HETATM   21  O3  UNL     1      -1.604  48.651 -18.520  1.00  0.00    -0.381 OA
HETATM   22  H25 UNL     1      -1.914  49.288 -17.844  1.00  0.00     0.211 HD
ENDBRANCH  20  21
BRANCH  20  23
HETATM   23  C20 UNL     1      -0.459  50.659 -19.077  1.00  0.00     0.185 C 
HETATM   24  O4  UNL     1      -0.005  51.513 -19.849  1.00  0.00    -0.292 OA
BRANCH  23  25
HETATM   25  C21 UNL     1      -0.303  50.769 -17.559  1.00  0.00     0.260 C 
BRANCH  25  26
HETATM   26  O5  UNL     1       1.050  50.951 -17.144  1.00  0.00    -0.314 OA
BRANCH  26  27
HETATM   27  C22 UNL     1       1.189  51.721 -16.031  1.00  0.00     0.259 C 
HETATM   28  O6  UNL     1       1.006  52.931 -15.991  1.00  0.00    -0.265 OA
BRANCH  27  29
HETATM   29  C23 UNL     1       1.580  50.889 -14.838  1.00  0.00     0.120 C 
BRANCH  29  30
HETATM   30  C24 UNL     1       2.849  51.451 -14.215  1.00  0.00     0.112 C 
BRANCH  30  31
HETATM   31  C25 UNL     1       2.701  51.631 -12.717  1.00  0.00     0.218 C 
HETATM   32  O7  UNL     1       3.145  50.832 -11.902  1.00  0.00    -0.274 OA
HETATM   33  N1  UNL     1       1.968  52.743 -12.374  1.00  0.00    -0.357 N 
HETATM   34  H32 UNL     1       1.568  53.322 -13.099  1.00  0.00     0.162 HD
BRANCH  33  35
HETATM   35  C26 UNL     1       1.639  53.052 -11.002  1.00  0.00     0.162 C 
BRANCH  35  36
HETATM   36  C27 UNL     1       0.198  53.456 -10.886  1.00  0.00    -0.025 A 
HETATM   37  C28 UNL     1      -0.837  52.518 -10.941  1.00  0.00     0.011 A 
HETATM   38  C29 UNL     1      -2.157  52.939 -10.798  1.00  0.00     0.018 A 
HETATM   39  C30 UNL     1      -2.397  54.289 -10.599  1.00  0.00     0.087 A 
HETATM   40  N2  UNL     1      -1.425  55.222 -10.533  1.00  0.00    -0.375 N 
HETATM   41  C31 UNL     1      -0.151  54.786 -10.675  1.00  0.00     0.096 A 
ATOM     42  H2  UNL     1      -1.640  56.208 -10.384  1.00  0.00     0.164 HD
ENDBRANCH  35  36
ENDBRANCH  33  35
ENDBRANCH  30  31
ENDBRANCH  29  30
ENDBRANCH  27  29
ENDBRANCH  26  27
ENDBRANCH  25  26
ENDBRANCH  23  25
ENDBRANCH  20  23
BRANCH  13  43
HETATM   43  O2  UNL     1      -1.381  51.612 -23.713  1.00  0.00    -0.395 OA
HETATM   44  H14 UNL     1      -0.929  52.276 -23.161  1.00  0.00     0.210 HD
ENDBRANCH  13  43
TORSDOF 11
ENDMDL
MODEL 7
REMARK minimizedAffinity -8.01698208
REMARK CNNscore 0.512304068
REMARK CNNaffinity 5.82570124
REMARK  11 active torsions:
REMARK  status: ('A' for Active; 'I' for Inactive)
REMARK    1  A    between atoms: C12_13  and  O2_14 
REMARK    2  A    between atoms: C19_21  and  O3_22 
REMARK    3  A    between atoms: C19_21  and  C20_23 
REMARK    4  A    between atoms: C20_23  and  C21_25 
REMARK    5  A    between atoms: C21_25  and  O5_26 
REMARK    6  A    between atoms: O5_26  and  C22_27 
REMARK    7  A    between atoms: C22_27  and  C23_29 
REMARK    8  A    between atoms: C23_29  and  C24_30 
REMARK    9  A    between atoms: C24_30  and  C25_31 
REMARK       I    between atoms: C25_31  and  N1_33 
REMARK   10  A    between atoms: N1_33  and  C26_34 
REMARK   11  A    between atoms: C26_34  and  C27_35 
ROOT
HETATM    1  C1  UNL     1     -14.689  44.443 -25.024  1.00  0.00     0.025 C 
HETATM    2  C2  UNL     1     -15.313  45.650 -25.764  1.00  0.00     0.004 A 
HETATM    3  C3  UNL     1     -15.697  46.659 -24.682  1.00  0.00    -0.009 A 
HETATM    4  C4  UNL     1     -16.941  47.082 -24.420  1.00  0.00     0.052 A 
HETATM    5  C5  UNL     1     -18.089  46.577 -25.194  1.00  0.00     0.172 A 
HETATM    6  O1  UNL     1     -19.228  46.967 -24.972  1.00  0.00    -0.289 OA
HETATM    7  C6  UNL     1     -17.806  45.584 -26.250  1.00  0.00     0.058 A 
HETATM    8  C7  UNL     1     -16.559  45.151 -26.507  1.00  0.00    -0.064 A 
HETATM    9  C8  UNL     1     -16.329  44.158 -27.620  1.00  0.00     0.036 C 
HETATM   10  C9  UNL     1     -14.976  44.341 -28.308  1.00  0.00     0.010 C 
HETATM   11  C10 UNL     1     -14.505  45.801 -28.279  1.00  0.00    -0.002 C 
HETATM   12  C11 UNL     1     -14.362  46.358 -26.817  1.00  0.00     0.035 C 
HETATM   13  C12 UNL     1     -12.876  46.587 -26.419  1.00  0.00     0.124 C 
HETATM   14  C13 UNL     1     -11.927  45.559 -27.036  1.00  0.00     0.045 C 
HETATM   15  C14 UNL     1     -11.900  45.544 -28.589  1.00  0.00     0.001 C 
HETATM   16  C15 UNL     1     -11.579  44.095 -29.029  1.00  0.00     0.019 C 
HETATM   17  C16 UNL     1     -13.264  46.017 -29.175  1.00  0.00     0.002 C 
HETATM   18  C17 UNL     1     -13.090  47.509 -29.548  1.00  0.00     0.009 C 
HETATM   19  C18 UNL     1     -11.633  47.880 -29.299  1.00  0.00     0.047 C 
HETATM   20  C19 UNL     1     -10.892  46.550 -29.252  1.00  0.00     0.128 C 
ENDROOT
BRANCH  20  21
HETATM   21  O3  UNL     1     -10.683  46.182 -30.631  1.00  0.00    -0.381 OA
HETATM   22  H25 UNL     1      -9.992  45.489 -30.629  1.00  0.00     0.211 HD
ENDBRANCH  20  21
BRANCH  20  23
HETATM   23  C20 UNL     1      -9.487  46.593 -28.619  1.00  0.00     0.185 C 
HETATM   24  O4  UNL     1      -8.690  45.676 -28.856  1.00  0.00    -0.292 OA
BRANCH  23  25
HETATM   25  C21 UNL     1      -9.126  47.766 -27.705  1.00  0.00     0.260 C 
BRANCH  25  26
HETATM   26  O5  UNL     1      -9.222  47.449 -26.317  1.00  0.00    -0.314 OA
BRANCH  26  27
HETATM   27  C22 UNL     1      -9.035  48.514 -25.492  1.00  0.00     0.259 C 
HETATM   28  O6  UNL     1      -9.604  49.593 -25.602  1.00  0.00    -0.265 OA
BRANCH  27  29
HETATM   29  C23 UNL     1      -8.047  48.192 -24.401  1.00  0.00     0.120 C 
BRANCH  29  30
HETATM   30  C24 UNL     1      -7.814  49.423 -23.539  1.00  0.00     0.112 C 
BRANCH  30  31
HETATM   31  C25 UNL     1      -6.336  49.700 -23.352  1.00  0.00     0.218 C 
HETATM   32  O7  UNL     1      -5.628  49.052 -22.591  1.00  0.00    -0.274 OA
HETATM   33  N1  UNL     1      -5.891  50.784 -24.071  1.00  0.00    -0.357 N 
HETATM   34  H32 UNL     1      -6.545  51.320 -24.625  1.00  0.00     0.162 HD
BRANCH  33  35
HETATM   35  C26 UNL     1      -4.535  51.268 -23.970  1.00  0.00     0.162 C 
BRANCH  35  36
HETATM   36  C27 UNL     1      -3.798  51.038 -25.257  1.00  0.00    -0.025 A 
HETATM   37  C28 UNL     1      -3.676  49.765 -25.820  1.00  0.00     0.011 A 
HETATM   38  C29 UNL     1      -3.009  49.607 -27.032  1.00  0.00     0.018 A 
HETATM   39  C30 UNL     1      -2.488  50.735 -27.646  1.00  0.00     0.087 A 
HETATM   40  N2  UNL     1      -2.592  51.980 -27.138  1.00  0.00    -0.375 N 
HETATM   41  C31 UNL     1      -3.245  52.106 -25.959  1.00  0.00     0.096 A 
ATOM     42  H2  UNL     1      -2.197  52.788 -27.619  1.00  0.00     0.164 HD
ENDBRANCH  35  36
ENDBRANCH  33  35
ENDBRANCH  30  31
ENDBRANCH  29  30
ENDBRANCH  27  29
ENDBRANCH  26  27
ENDBRANCH  25  26
ENDBRANCH  23  25
ENDBRANCH  20  23
BRANCH  13  43
HETATM   43  O2  UNL     1     -12.686  46.639 -25.013  1.00  0.00    -0.395 OA
HETATM   44  H14 UNL     1     -11.733  46.646 -24.816  1.00  0.00     0.210 HD
ENDBRANCH  13  43
TORSDOF 11
ENDMDL
MODEL 8
REMARK minimizedAffinity -7.73107624
REMARK CNNscore 0.511048019
REMARK CNNaffinity 6.4319396
REMARK  11 active torsions:
REMARK  status: ('A' for Active; 'I' for Inactive)
REMARK    1  A    between atoms: C12_13  and  O2_14 
REMARK    2  A    between atoms: C19_21  and  O3_22 
REMARK    3  A    between atoms: C19_21  and  C20_23 
REMARK    4  A    between atoms: C20_23  and  C21_25 
REMARK    5  A    between atoms: C21_25  and  O5_26 
REMARK    6  A    between atoms: O5_26  and  C22_27 
REMARK    7  A    between atoms: C22_27  and  C23_29 
REMARK    8  A    between atoms: C23_29  and  C24_30 
REMARK    9  A    between atoms: C24_30  and  C25_31 
REMARK       I    between atoms: C25_31  and  N1_33 
REMARK   10  A    between atoms: N1_33  and  C26_34 
REMARK   11  A    between atoms: C26_34  and  C27_35 
ROOT
HETATM    1  C1  UNL     1      -0.439  49.164 -21.099  1.00  0.00     0.025 C 
HETATM    2  C2  UNL     1      -1.148  50.524 -20.896  1.00  0.00     0.004 A 
HETATM    3  C3  UNL     1      -0.521  51.485 -21.906  1.00  0.00    -0.009 A 
HETATM    4  C4  UNL     1       0.160  52.597 -21.601  1.00  0.00     0.052 A 
HETATM    5  C5  UNL     1       0.366  52.996 -20.197  1.00  0.00     0.172 A 
HETATM    6  O1  UNL     1       0.975  54.017 -19.907  1.00  0.00    -0.289 OA
HETATM    7  C6  UNL     1      -0.195  52.111 -19.156  1.00  0.00     0.058 A 
HETATM    8  C7  UNL     1      -0.870  50.989 -19.461  1.00  0.00    -0.064 A 
HETATM    9  C8  UNL     1      -1.446  50.142 -18.353  1.00  0.00     0.036 C 
HETATM   10  C9  UNL     1      -2.744  49.440 -18.757  1.00  0.00     0.010 C 
HETATM   11  C10 UNL     1      -3.538  50.246 -19.795  1.00  0.00    -0.002 C 
HETATM   12  C11 UNL     1      -2.719  50.501 -21.110  1.00  0.00     0.035 C 
HETATM   13  C12 UNL     1      -3.279  49.695 -22.316  1.00  0.00     0.124 C 
HETATM   14  C13 UNL     1      -3.840  48.330 -21.914  1.00  0.00     0.045 C 
HETATM   15  C14 UNL     1      -5.027  48.381 -20.914  1.00  0.00     0.001 C 
HETATM   16  C15 UNL     1      -4.963  47.093 -20.057  1.00  0.00     0.019 C 
HETATM   17  C16 UNL     1      -4.948  49.654 -20.018  1.00  0.00     0.002 C 
HETATM   18  C17 UNL     1      -5.904  50.696 -20.646  1.00  0.00     0.009 C 
HETATM   19  C18 UNL     1      -6.618  50.023 -21.812  1.00  0.00     0.047 C 
HETATM   20  C19 UNL     1      -6.448  48.529 -21.567  1.00  0.00     0.128 C 
ENDROOT
BRANCH  20  21
HETATM   21  O3  UNL     1      -7.460  48.185 -20.599  1.00  0.00    -0.381 OA
HETATM   22  H25 UNL     1      -7.548  47.210 -20.627  1.00  0.00     0.211 HD
ENDBRANCH  20  21
BRANCH  20  23
HETATM   23  C20 UNL     1      -6.715  47.620 -22.784  1.00  0.00     0.185 C 
HETATM   24  O4  UNL     1      -6.772  46.394 -22.620  1.00  0.00    -0.292 OA
BRANCH  23  25
HETATM   25  C21 UNL     1      -6.889  48.265 -24.161  1.00  0.00     0.260 C 
BRANCH  25  26
HETATM   26  O5  UNL     1      -6.695  47.352 -25.240  1.00  0.00    -0.314 OA
BRANCH  26  27
HETATM   27  C22 UNL     1      -7.774  47.223 -26.057  1.00  0.00     0.259 C 
HETATM   28  O6  UNL     1      -8.869  46.801 -25.708  1.00  0.00    -0.265 OA
BRANCH  27  29
HETATM   29  C23 UNL     1      -7.458  47.687 -27.455  1.00  0.00     0.120 C 
BRANCH  29  30
HETATM   30  C24 UNL     1      -5.950  47.719 -27.656  1.00  0.00     0.112 C 
BRANCH  30  31
HETATM   31  C25 UNL     1      -5.584  47.698 -29.127  1.00  0.00     0.218 C 
HETATM   32  O7  UNL     1      -4.564  48.214 -29.567  1.00  0.00    -0.274 OA
HETATM   33  N1  UNL     1      -6.538  47.100 -29.915  1.00  0.00    -0.357 N 
HETATM   34  H32 UNL     1      -7.392  46.758 -29.496  1.00  0.00     0.162 HD
BRANCH  33  35
HETATM   35  C26 UNL     1      -6.424  47.049 -31.354  1.00  0.00     0.162 C 
BRANCH  35  36
HETATM   36  C27 UNL     1      -5.920  45.706 -31.794  1.00  0.00    -0.025 A 
HETATM   37  C28 UNL     1      -4.621  45.529 -32.279  1.00  0.00     0.011 A 
HETATM   38  C29 UNL     1      -4.189  44.257 -32.646  1.00  0.00     0.018 A 
HETATM   39  C30 UNL     1      -5.074  43.199 -32.510  1.00  0.00     0.087 A 
HETATM   40  N2  UNL     1      -6.331  43.330 -32.039  1.00  0.00    -0.375 N 
HETATM   41  C31 UNL     1      -6.726  44.576 -31.689  1.00  0.00     0.096 A 
ATOM     42  H2  UNL     1      -6.955  42.527 -31.951  1.00  0.00     0.164 HD
ENDBRANCH  35  36
ENDBRANCH  33  35
ENDBRANCH  30  31
ENDBRANCH  29  30
ENDBRANCH  27  29
ENDBRANCH  26  27
ENDBRANCH  25  26
ENDBRANCH  23  25
ENDBRANCH  20  23
BRANCH  13  43
HETATM   43  O2  UNL     1      -2.330  49.540 -23.361  1.00  0.00    -0.395 OA
HETATM   44  H14 UNL     1      -2.679  48.918 -24.024  1.00  0.00     0.210 HD
ENDBRANCH  13  43
TORSDOF 11
ENDMDL
MODEL 9
REMARK minimizedAffinity -8.07804585
REMARK CNNscore 0.48982197
REMARK CNNaffinity 6.97681046
REMARK  11 active torsions:
REMARK  status: ('A' for Active; 'I' for Inactive)
REMARK    1  A    between atoms: C12_13  and  O2_14 
REMARK    2  A    between atoms: C19_21  and  O3_22 
REMARK    3  A    between atoms: C19_21  and  C20_23 
REMARK    4  A    between atoms: C20_23  and  C21_25 
REMARK    5  A    between atoms: C21_25  and  O5_26 
REMARK    6  A    between atoms: O5_26  and  C22_27 
REMARK    7  A    between atoms: C22_27  and  C23_29 
REMARK    8  A    between atoms: C23_29  and  C24_30 
REMARK    9  A    between atoms: C24_30  and  C25_31 
REMARK       I    between atoms: C25_31  and  N1_33 
REMARK   10  A    between atoms: N1_33  and  C26_34 
REMARK   11  A    between atoms: C26_34  and  C27_35 
ROOT
HETATM    1  C1  UNL     1      -6.299  45.955 -20.958  1.00  0.00     0.025 C 
HETATM    2  C2  UNL     1      -6.917  47.317 -20.562  1.00  0.00     0.004 A 
HETATM    3  C3  UNL     1      -6.721  47.449 -19.052  1.00  0.00    -0.009 A 
HETATM    4  C4  UNL     1      -7.704  47.541 -18.146  1.00  0.00     0.052 A 
HETATM    5  C5  UNL     1      -9.117  47.520 -18.560  1.00  0.00     0.172 A 
HETATM    6  O1  UNL     1     -10.023  47.617 -17.743  1.00  0.00    -0.289 OA
HETATM    7  C6  UNL     1      -9.395  47.378 -20.004  1.00  0.00     0.058 A 
HETATM    8  C7  UNL     1      -8.409  47.274 -20.913  1.00  0.00    -0.064 A 
HETATM    9  C8  UNL     1      -8.755  47.162 -22.378  1.00  0.00     0.036 C 
HETATM   10  C9  UNL     1      -7.712  47.815 -23.285  1.00  0.00     0.010 C 
HETATM   11  C10 UNL     1      -7.011  48.998 -22.603  1.00  0.00    -0.002 C 
HETATM   12  C11 UNL     1      -6.278  48.579 -21.279  1.00  0.00     0.035 C 
HETATM   13  C12 UNL     1      -4.730  48.630 -21.423  1.00  0.00     0.124 C 
HETATM   14  C13 UNL     1      -4.248  48.245 -22.822  1.00  0.00     0.045 C 
HETATM   15  C14 UNL     1      -4.761  49.162 -23.965  1.00  0.00     0.001 C 
HETATM   16  C15 UNL     1      -4.870  48.292 -25.240  1.00  0.00     0.019 C 
HETATM   17  C16 UNL     1      -6.137  49.794 -23.599  1.00  0.00     0.002 C 
HETATM   18  C17 UNL     1      -5.843  51.221 -23.076  1.00  0.00     0.009 C 
HETATM   19  C18 UNL     1      -4.348  51.472 -23.236  1.00  0.00     0.047 C 
HETATM   20  C19 UNL     1      -3.883  50.434 -24.249  1.00  0.00     0.128 C 
ENDROOT
BRANCH  20  21
HETATM   21  O3  UNL     1      -4.230  50.979 -25.539  1.00  0.00    -0.381 OA
HETATM   22  H25 UNL     1      -3.713  50.474 -26.199  1.00  0.00     0.211 HD
ENDBRANCH  20  21
BRANCH  20  23
HETATM   23  C20 UNL     1      -2.361  50.190 -24.300  1.00  0.00     0.185 C 
HETATM   24  O4  UNL     1      -1.781  50.221 -25.394  1.00  0.00    -0.292 OA
BRANCH  23  25
HETATM   25  C21 UNL     1      -1.617  49.902 -22.994  1.00  0.00     0.260 C 
BRANCH  25  26
HETATM   26  O5  UNL     1      -1.085  51.075 -22.379  1.00  0.00    -0.314 OA
BRANCH  26  27
HETATM   27  C22 UNL     1      -0.566  50.863 -21.139  1.00  0.00     0.259 C 
HETATM   28  O6  UNL     1      -1.138  50.267 -20.235  1.00  0.00    -0.265 OA
BRANCH  27  29
HETATM   29  C23 UNL     1       0.820  51.440 -21.022  1.00  0.00     0.120 C 
BRANCH  29  30
HETATM   30  C24 UNL     1       0.733  52.916 -20.663  1.00  0.00     0.112 C 
BRANCH  30  31
HETATM   31  C25 UNL     1       1.159  53.796 -21.821  1.00  0.00     0.218 C 
HETATM   32  O7  UNL     1       1.797  54.832 -21.671  1.00  0.00    -0.274 OA
HETATM   33  N1  UNL     1       0.706  53.349 -23.039  1.00  0.00    -0.357 N 
HETATM   34  H32 UNL     1       0.123  52.524 -23.084  1.00  0.00     0.162 HD
BRANCH  33  35
HETATM   35  C26 UNL     1       0.930  54.086 -24.260  1.00  0.00     0.162 C 
BRANCH  35  36
HETATM   36  C27 UNL     1       0.692  53.209 -25.455  1.00  0.00    -0.025 A 
HETATM   37  C28 UNL     1      -0.001  53.666 -26.579  1.00  0.00     0.011 A 
HETATM   38  C29 UNL     1      -0.169  52.824 -27.675  1.00  0.00     0.018 A 
HETATM   39  C30 UNL     1       0.368  51.549 -27.611  1.00  0.00     0.087 A 
HETATM   40  N2  UNL     1       1.048  51.075 -26.547  1.00  0.00    -0.375 N 
HETATM   41  C31 UNL     1       1.198  51.913 -25.495  1.00  0.00     0.096 A 
ATOM     42  H2  UNL     1       1.431  50.129 -26.535  1.00  0.00     0.164 HD
ENDBRANCH  35  36
ENDBRANCH  33  35
ENDBRANCH  30  31
ENDBRANCH  29  30
ENDBRANCH  27  29
ENDBRANCH  26  27
ENDBRANCH  25  26
ENDBRANCH  23  25
ENDBRANCH  20  23
BRANCH  13  43
HETATM   43  O2  UNL     1      -4.062  47.844 -20.447  1.00  0.00    -0.395 OA
HETATM   44  H14 UNL     1      -3.113  47.800 -20.662  1.00  0.00     0.210 HD
ENDBRANCH  13  43
TORSDOF 11
ENDMDL
