MODEL 1
REMARK minimizedAffinity -6.57755709
REMARK CNNscore 0.38734597
REMARK CNNaffinity 5.84213877
REMARK  8 active torsions:
REMARK  status: ('A' for Active; 'I' for Inactive)
REMARK    1  A    between atoms: C12_14  and  C13_15 
REMARK    2  A    between atoms: C13_15  and  C15_17 
REMARK    3  A    between atoms: C15_17  and  C16_18 
REMARK    4  A    between atoms: C16_18  and  C17_20 
REMARK    5  A    between atoms: C26_29  and  C27_30 
REMARK    6  A    between atoms: C27_30  and  C28_31 
REMARK    7  A    between atoms: C28_31  and  C29_32 
REMARK    8  A    between atoms: C29_32  and  O5_34 
ROOT
HETATM    1  C1  UNL     1     -17.986  -1.045  17.071  1.00  0.00     0.025 C 
HETATM    2  C2  UNL     1     -17.133  -2.069  16.934  1.00  0.00     0.015 C 
HETATM    3  C3  UNL     1     -16.524  -2.720  18.110  1.00  0.00     0.289 C 
HETATM    4  O1  UNL     1     -16.414  -2.249  19.226  1.00  0.00    -0.260 OA
HETATM    5  O2  UNL     1     -16.128  -3.958  17.720  1.00  0.00    -0.311 OA
HETATM    6  C4  UNL     1     -16.559  -4.214  16.365  1.00  0.00     0.142 C 
HETATM    7  C5  UNL     1     -15.567  -5.191  15.741  1.00  0.00     0.039 C 
HETATM    8  C6  UNL     1     -15.001  -4.855  14.358  1.00  0.00     0.006 C 
HETATM    9  C7  UNL     1     -14.734  -3.353  14.138  1.00  0.00    -0.027 A 
HETATM   10  C8  UNL     1     -14.082  -3.047  12.781  1.00  0.00     0.011 C 
HETATM   11  C9  UNL     1     -14.757  -3.743  11.583  1.00  0.00     0.011 C 
HETATM   12  C10 UNL     1     -14.916  -5.257  11.821  1.00  0.00    -0.032 C 
HETATM   13  C11 UNL     1     -13.490  -5.894  11.884  1.00  0.00     0.016 C 
HETATM   14  C12 UNL     1     -15.764  -6.069  10.791  1.00  0.00    -0.002 C 
HETATM   15  C21 UNL     1     -16.199  -7.311  11.637  1.00  0.00     0.006 C 
HETATM   16  C22 UNL     1     -15.985  -6.966  13.127  1.00  0.00     0.011 C 
HETATM   17  C23 UNL     1     -15.775  -5.446  13.140  1.00  0.00    -0.032 C 
HETATM   18  C24 UNL     1     -17.199  -4.813  13.072  1.00  0.00     0.016 C 
HETATM   19  C25 UNL     1     -14.173  -2.565  15.301  1.00  0.00     0.022 A 
HETATM   20  C26 UNL     1     -15.608  -2.305  14.873  1.00  0.00    -0.021 A 
HETATM   21  C31 UNL     1     -16.773  -2.850  15.714  1.00  0.00     0.063 C 
ENDROOT
BRANCH  14  22
HETATM   22  C13 UNL     1     -15.152  -6.486   9.421  1.00  0.00    -0.007 C 
HETATM   23  C14 UNL     1     -13.876  -7.323   9.584  1.00  0.00     0.011 C 
BRANCH  22  24
HETATM   24  C15 UNL     1     -14.821  -5.233   8.575  1.00  0.00     0.087 C 
BRANCH  24  25
HETATM   25  C16 UNL     1     -15.225  -5.365   7.112  1.00  0.00     0.149 C 
HETATM   26  O3  UNL     1     -16.200  -6.017   6.753  1.00  0.00    -0.293 OA
BRANCH  25  27
HETATM   27  C17 UNL     1     -14.395  -4.590   6.138  1.00  0.00     0.052 C 
HETATM   28  C18 UNL     1     -13.311  -5.048   5.481  1.00  0.00    -0.084 C 
HETATM   29  C19 UNL     1     -12.708  -6.415   5.653  1.00  0.00     0.043 C 
HETATM   30  C20 UNL     1     -12.595  -4.172   4.488  1.00  0.00     0.043 C 
ENDBRANCH  25  27
ENDBRANCH  24  25
ENDBRANCH  22  24
ENDBRANCH  14  22
BRANCH  20  31
HETATM   31  C27 UNL     1     -15.979  -1.013  14.120  1.00  0.00     0.021 C 
BRANCH  31  32
HETATM   32  C28 UNL     1     -16.386   0.192  14.963  1.00  0.00     0.112 C 
BRANCH  32  33
HETATM   33  C29 UNL     1     -15.345   1.280  15.017  1.00  0.00     0.258 C 
HETATM   34  O4  UNL     1     -14.290   1.181  15.629  1.00  0.00    -0.265 OA
BRANCH  33  35
HETATM   35  O5  UNL     1     -15.717   2.349  14.261  1.00  0.00    -0.326 OA
HETATM   36  C30 UNL     1     -15.433   3.610  14.871  1.00  0.00     0.213 C 
ENDBRANCH  33  35
ENDBRANCH  32  33
ENDBRANCH  31  32
ENDBRANCH  20  31
TORSDOF 8
ENDMDL
MODEL 2
REMARK minimizedAffinity -8.28652
REMARK CNNscore 0.379818887
REMARK CNNaffinity 7.20575714
REMARK  8 active torsions:
REMARK  status: ('A' for Active; 'I' for Inactive)
REMARK    1  A    between atoms: C12_14  and  C13_15 
REMARK    2  A    between atoms: C13_15  and  C15_17 
REMARK    3  A    between atoms: C15_17  and  C16_18 
REMARK    4  A    between atoms: C16_18  and  C17_20 
REMARK    5  A    between atoms: C26_29  and  C27_30 
REMARK    6  A    between atoms: C27_30  and  C28_31 
REMARK    7  A    between atoms: C28_31  and  C29_32 
REMARK    8  A    between atoms: C29_32  and  O5_34 
ROOT
HETATM    1  C1  UNL     1       0.996   8.503  11.293  1.00  0.00     0.025 C 
HETATM    2  C2  UNL     1       0.386   8.469  12.485  1.00  0.00     0.015 C 
HETATM    3  C3  UNL     1       1.027   9.032  13.689  1.00  0.00     0.289 C 
HETATM    4  O1  UNL     1       2.214   9.245  13.849  1.00  0.00    -0.260 OA
HETATM    5  O2  UNL     1       0.039   9.292  14.583  1.00  0.00    -0.311 OA
HETATM    6  C4  UNL     1      -1.252   9.045  13.983  1.00  0.00     0.142 C 
HETATM    7  C5  UNL     1      -2.213   8.651  15.099  1.00  0.00     0.039 C 
HETATM    8  C6  UNL     1      -3.077   7.402  14.897  1.00  0.00     0.006 C 
HETATM    9  C7  UNL     1      -2.358   6.256  14.157  1.00  0.00    -0.027 A 
HETATM   10  C8  UNL     1      -3.208   4.982  14.045  1.00  0.00     0.011 C 
HETATM   11  C9  UNL     1      -4.652   5.225  13.565  1.00  0.00     0.011 C 
HETATM   12  C10 UNL     1      -5.352   6.316  14.398  1.00  0.00    -0.032 C 
HETATM   13  C11 UNL     1      -5.514   5.786  15.860  1.00  0.00     0.016 C 
HETATM   14  C12 UNL     1      -6.746   6.821  13.909  1.00  0.00    -0.002 C 
HETATM   15  C21 UNL     1      -6.827   8.238  14.567  1.00  0.00     0.006 C 
HETATM   16  C22 UNL     1      -5.400   8.642  14.995  1.00  0.00     0.011 C 
HETATM   17  C23 UNL     1      -4.487   7.639  14.276  1.00  0.00    -0.032 C 
HETATM   18  C24 UNL     1      -4.331   8.168  12.816  1.00  0.00     0.016 C 
HETATM   19  C25 UNL     1      -0.901   6.018  14.487  1.00  0.00     0.022 A 
HETATM   20  C26 UNL     1      -1.252   6.588  13.123  1.00  0.00    -0.021 A 
HETATM   21  C31 UNL     1      -1.014   8.077  12.827  1.00  0.00     0.063 C 
ENDROOT
BRANCH  14  22
HETATM   22  C13 UNL     1      -8.029   5.982  14.182  1.00  0.00    -0.007 C 
HETATM   23  C14 UNL     1      -7.804   4.482  13.950  1.00  0.00     0.011 C 
BRANCH  22  24
HETATM   24  C15 UNL     1      -9.189   6.458  13.274  1.00  0.00     0.087 C 
BRANCH  24  25
HETATM   25  C16 UNL     1     -10.381   7.004  14.047  1.00  0.00     0.149 C 
HETATM   26  O3  UNL     1     -10.279   7.463  15.181  1.00  0.00    -0.293 OA
BRANCH  25  27
HETATM   27  C17 UNL     1     -11.684   7.010  13.311  1.00  0.00     0.052 C 
HETATM   28  C18 UNL     1     -12.868   7.426  13.802  1.00  0.00    -0.084 C 
HETATM   29  C19 UNL     1     -13.101   7.915  15.206  1.00  0.00     0.043 C 
HETATM   30  C20 UNL     1     -14.097   7.422  12.932  1.00  0.00     0.043 C 
ENDBRANCH  25  27
ENDBRANCH  24  25
ENDBRANCH  22  24
ENDBRANCH  14  22
BRANCH  20  31
HETATM   31  C27 UNL     1      -1.156   5.713  11.859  1.00  0.00     0.021 C 
BRANCH  31  32
HETATM   32  C28 UNL     1      -0.146   4.568  11.880  1.00  0.00     0.112 C 
BRANCH  32  33
HETATM   33  C29 UNL     1      -0.709   3.248  11.423  1.00  0.00     0.258 C 
HETATM   34  O4  UNL     1      -0.048   2.221  11.331  1.00  0.00    -0.265 OA
BRANCH  33  35
HETATM   35  O5  UNL     1      -2.044   3.346  11.177  1.00  0.00    -0.326 OA
HETATM   36  C30 UNL     1      -2.789   2.197  11.585  1.00  0.00     0.213 C 
ENDBRANCH  33  35
ENDBRANCH  32  33
ENDBRANCH  31  32
ENDBRANCH  20  31
TORSDOF 8
ENDMDL
MODEL 3
REMARK minimizedAffinity -8.00497532
REMARK CNNscore 0.304643422
REMARK CNNaffinity 6.56666565
REMARK  8 active torsions:
REMARK  status: ('A' for Active; 'I' for Inactive)
REMARK    1  A    between atoms: C12_14  and  C13_15 
REMARK    2  A    between atoms: C13_15  and  C15_17 
REMARK    3  A    between atoms: C15_17  and  C16_18 
REMARK    4  A    between atoms: C16_18  and  C17_20 
REMARK    5  A    between atoms: C26_29  and  C27_30 
REMARK    6  A    between atoms: C27_30  and  C28_31 
REMARK    7  A    between atoms: C28_31  and  C29_32 
REMARK    8  A    between atoms: C29_32  and  O5_34 
ROOT
HETATM    1  C1  UNL     1      -4.254   4.378  13.408  1.00  0.00     0.025 C 
HETATM    2  C2  UNL     1      -4.588   5.636  13.723  1.00  0.00     0.015 C 
HETATM    3  C3  UNL     1      -5.967   6.130  13.544  1.00  0.00     0.289 C 
HETATM    4  O1  UNL     1      -6.822   5.654  12.821  1.00  0.00    -0.260 OA
HETATM    5  O2  UNL     1      -6.115   7.205  14.360  1.00  0.00    -0.311 OA
HETATM    6  C4  UNL     1      -4.934   7.379  15.172  1.00  0.00     0.142 C 
HETATM    7  C5  UNL     1      -4.812   8.864  15.500  1.00  0.00     0.039 C 
HETATM    8  C6  UNL     1      -3.455   9.540  15.282  1.00  0.00     0.006 C 
HETATM    9  C7  UNL     1      -2.696   9.034  14.039  1.00  0.00    -0.027 A 
HETATM   10  C8  UNL     1      -1.381   9.787  13.786  1.00  0.00     0.011 C 
HETATM   11  C9  UNL     1      -0.494   9.949  15.036  1.00  0.00     0.011 C 
HETATM   12  C10 UNL     1      -1.282  10.542  16.219  1.00  0.00    -0.032 C 
HETATM   13  C11 UNL     1      -1.696  12.003  15.847  1.00  0.00     0.016 C 
HETATM   14  C12 UNL     1      -0.581  10.577  17.614  1.00  0.00    -0.002 C 
HETATM   15  C21 UNL     1      -1.802  10.633  18.590  1.00  0.00     0.006 C 
HETATM   16  C22 UNL     1      -3.057  10.200  17.801  1.00  0.00     0.011 C 
HETATM   17  C23 UNL     1      -2.501   9.573  16.515  1.00  0.00    -0.032 C 
HETATM   18  C24 UNL     1      -2.084   8.117  16.890  1.00  0.00     0.016 C 
HETATM   19  C25 UNL     1      -3.507   8.742  12.796  1.00  0.00     0.022 A 
HETATM   20  C26 UNL     1      -2.902   7.575  13.557  1.00  0.00    -0.021 A 
HETATM   21  C31 UNL     1      -3.794   6.682  14.434  1.00  0.00     0.063 C 
ENDROOT
BRANCH  14  22
HETATM   22  C13 UNL     1       0.471  11.679  17.939  1.00  0.00    -0.007 C 
HETATM   23  C14 UNL     1       1.650  11.666  16.957  1.00  0.00     0.011 C 
BRANCH  22  24
HETATM   24  C15 UNL     1       1.019  11.494  19.376  1.00  0.00     0.087 C 
BRANCH  24  25
HETATM   25  C16 UNL     1       2.162  10.493  19.465  1.00  0.00     0.149 C 
HETATM   26  O3  UNL     1       2.303   9.578  18.660  1.00  0.00    -0.293 OA
BRANCH  25  27
HETATM   27  C17 UNL     1       3.150  10.733  20.563  1.00  0.00     0.052 C 
HETATM   28  C18 UNL     1       3.233  10.044  21.718  1.00  0.00    -0.084 C 
HETATM   29  C19 UNL     1       2.304   8.936  22.135  1.00  0.00     0.043 C 
HETATM   30  C20 UNL     1       4.311  10.362  22.720  1.00  0.00     0.043 C 
ENDBRANCH  25  27
ENDBRANCH  24  25
ENDBRANCH  22  24
ENDBRANCH  14  22
BRANCH  20  31
HETATM   31  C27 UNL     1      -1.683   6.819  12.994  1.00  0.00     0.021 C 
BRANCH  31  32
HETATM   32  C28 UNL     1      -1.962   5.564  12.171  1.00  0.00     0.112 C 
BRANCH  32  33
HETATM   33  C29 UNL     1      -0.876   5.228  11.182  1.00  0.00     0.258 C 
HETATM   34  O4  UNL     1      -0.693   4.106  10.728  1.00  0.00    -0.265 OA
BRANCH  33  35
HETATM   35  O5  UNL     1      -0.172   6.340  10.835  1.00  0.00    -0.326 OA
HETATM   36  C30 UNL     1       1.231   6.112  10.699  1.00  0.00     0.213 C 
ENDBRANCH  33  35
ENDBRANCH  32  33
ENDBRANCH  31  32
ENDBRANCH  20  31
TORSDOF 8
ENDMDL
MODEL 4
REMARK minimizedAffinity -6.06671333
REMARK CNNscore 0.291749299
REMARK CNNaffinity 6.20015955
REMARK  8 active torsions:
REMARK  status: ('A' for Active; 'I' for Inactive)
REMARK    1  A    between atoms: C12_14  and  C13_15 
REMARK    2  A    between atoms: C13_15  and  C15_17 
REMARK    3  A    between atoms: C15_17  and  C16_18 
REMARK    4  A    between atoms: C16_18  and  C17_20 
REMARK    5  A    between atoms: C26_29  and  C27_30 
REMARK    6  A    between atoms: C27_30  and  C28_31 
REMARK    7  A    between atoms: C28_31  and  C29_32 
REMARK    8  A    between atoms: C29_32  and  O5_34 
ROOT
HETATM    1  C1  UNL     1     -13.727   8.833  21.132  1.00  0.00     0.025 C 
HETATM    2  C2  UNL     1     -14.365   7.674  21.342  1.00  0.00     0.015 C 
HETATM    3  C3  UNL     1     -15.343   7.152  20.367  1.00  0.00     0.289 C 
HETATM    4  O1  UNL     1     -15.934   7.790  19.517  1.00  0.00    -0.260 OA
HETATM    5  O2  UNL     1     -15.445   5.816  20.581  1.00  0.00    -0.311 OA
HETATM    6  C4  UNL     1     -14.483   5.396  21.573  1.00  0.00     0.142 C 
HETATM    7  C5  UNL     1     -15.054   4.172  22.283  1.00  0.00     0.039 C 
HETATM    8  C6  UNL     1     -15.037   4.155  23.815  1.00  0.00     0.006 C 
HETATM    9  C7  UNL     1     -15.312   5.527  24.459  1.00  0.00    -0.027 A 
HETATM   10  C8  UNL     1     -15.381   5.472  25.993  1.00  0.00     0.011 C 
HETATM   11  C9  UNL     1     -14.224   4.695  26.650  1.00  0.00     0.011 C 
HETATM   12  C10 UNL     1     -14.053   3.296  26.028  1.00  0.00    -0.032 C 
HETATM   13  C11 UNL     1     -15.326   2.453  26.364  1.00  0.00     0.016 C 
HETATM   14  C12 UNL     1     -12.798   2.465  26.443  1.00  0.00    -0.002 C 
HETATM   15  C21 UNL     1     -12.643   1.485  25.234  1.00  0.00     0.006 C 
HETATM   16  C22 UNL     1     -13.470   2.051  24.059  1.00  0.00     0.011 C 
HETATM   17  C23 UNL     1     -13.790   3.493  24.477  1.00  0.00    -0.032 C 
HETATM   18  C24 UNL     1     -12.517   4.331  24.145  1.00  0.00     0.016 C 
HETATM   19  C25 UNL     1     -16.358   6.407  23.810  1.00  0.00     0.022 A 
HETATM   20  C26 UNL     1     -14.900   6.821  23.711  1.00  0.00    -0.021 A 
HETATM   21  C31 UNL     1     -14.135   6.637  22.391  1.00  0.00     0.063 C 
ENDROOT
BRANCH  14  22
HETATM   22  C13 UNL     1     -12.766   1.713  27.806  1.00  0.00    -0.007 C 
HETATM   23  C14 UNL     1     -14.173   1.456  28.362  1.00  0.00     0.011 C 
BRANCH  22  24
HETATM   24  C15 UNL     1     -11.958   2.522  28.850  1.00  0.00     0.087 C 
BRANCH  24  25
HETATM   25  C16 UNL     1     -12.740   2.824  30.121  1.00  0.00     0.149 C 
HETATM   26  O3  UNL     1     -12.612   2.164  31.148  1.00  0.00    -0.293 OA
BRANCH  25  27
HETATM   27  C17 UNL     1     -13.632   4.024  30.064  1.00  0.00     0.052 C 
HETATM   28  C18 UNL     1     -14.871   4.116  30.586  1.00  0.00    -0.084 C 
HETATM   29  C19 UNL     1     -15.604   2.999  31.279  1.00  0.00     0.043 C 
HETATM   30  C20 UNL     1     -15.642   5.406  30.498  1.00  0.00     0.043 C 
ENDBRANCH  25  27
ENDBRANCH  24  25
ENDBRANCH  22  24
ENDBRANCH  14  22
BRANCH  20  31
HETATM   31  C27 UNL     1     -14.362   8.000  24.545  1.00  0.00     0.021 C 
BRANCH  31  32
HETATM   32  C28 UNL     1     -12.865   8.013  24.848  1.00  0.00     0.112 C 
BRANCH  32  33
HETATM   33  C29 UNL     1     -12.354   9.341  25.340  1.00  0.00     0.258 C 
HETATM   34  O4  UNL     1     -13.000  10.096  26.056  1.00  0.00    -0.265 OA
BRANCH  33  35
HETATM   35  O5  UNL     1     -11.076   9.557  24.924  1.00  0.00    -0.326 OA
HETATM   36  C30 UNL     1     -10.889   9.362  23.521  1.00  0.00     0.213 C 
ENDBRANCH  33  35
ENDBRANCH  32  33
ENDBRANCH  31  32
ENDBRANCH  20  31
TORSDOF 8
ENDMDL
MODEL 5
REMARK minimizedAffinity -8.5718317
REMARK CNNscore 0.283776134
REMARK CNNaffinity 6.69553328
REMARK  8 active torsions:
REMARK  status: ('A' for Active; 'I' for Inactive)
REMARK    1  A    between atoms: C12_14  and  C13_15 
REMARK    2  A    between atoms: C13_15  and  C15_17 
REMARK    3  A    between atoms: C15_17  and  C16_18 
REMARK    4  A    between atoms: C16_18  and  C17_20 
REMARK    5  A    between atoms: C26_29  and  C27_30 
REMARK    6  A    between atoms: C27_30  and  C28_31 
REMARK    7  A    between atoms: C28_31  and  C29_32 
REMARK    8  A    between atoms: C29_32  and  O5_34 
ROOT
HETATM    1  C1  UNL     1       3.319   8.965  11.567  1.00  0.00     0.025 C 
HETATM    2  C2  UNL     1       2.619   8.802  12.697  1.00  0.00     0.015 C 
HETATM    3  C3  UNL     1       3.209   9.110  14.014  1.00  0.00     0.289 C 
HETATM    4  O1  UNL     1       4.393   9.186  14.280  1.00  0.00    -0.260 OA
HETATM    5  O2  UNL     1       2.179   9.317  14.874  1.00  0.00    -0.311 OA
HETATM    6  C4  UNL     1       0.923   9.285  14.162  1.00  0.00     0.142 C 
HETATM    7  C5  UNL     1      -0.151   8.812  15.137  1.00  0.00     0.039 C 
HETATM    8  C6  UNL     1      -1.094   7.694  14.682  1.00  0.00     0.006 C 
HETATM    9  C7  UNL     1      -0.414   6.616  13.814  1.00  0.00    -0.027 A 
HETATM   10  C8  UNL     1      -1.353   5.457  13.444  1.00  0.00     0.011 C 
HETATM   11  C9  UNL     1      -2.732   5.903  12.920  1.00  0.00     0.011 C 
HETATM   12  C10 UNL     1      -3.403   6.911  13.873  1.00  0.00    -0.032 C 
HETATM   13  C11 UNL     1      -3.719   6.177  15.216  1.00  0.00     0.016 C 
HETATM   14  C12 UNL     1      -4.711   7.611  13.385  1.00  0.00    -0.002 C 
HETATM   15  C21 UNL     1      -4.728   8.910  14.256  1.00  0.00     0.006 C 
HETATM   16  C22 UNL     1      -3.310   9.111  14.833  1.00  0.00     0.011 C 
HETATM   17  C23 UNL     1      -2.428   8.152  14.020  1.00  0.00    -0.032 C 
HETATM   18  C24 UNL     1      -2.119   8.885  12.678  1.00  0.00     0.016 C 
HETATM   19  C25 UNL     1       0.990   6.197  14.192  1.00  0.00     0.022 A 
HETATM   20  C26 UNL     1       0.791   7.002  12.919  1.00  0.00    -0.021 A 
HETATM   21  C31 UNL     1       1.170   8.491  12.882  1.00  0.00     0.063 C 
ENDROOT
BRANCH  14  22
HETATM   22  C13 UNL     1      -6.074   6.860  13.437  1.00  0.00    -0.007 C 
HETATM   23  C14 UNL     1      -6.865   7.177  14.713  1.00  0.00     0.011 C 
BRANCH  22  24
HETATM   24  C15 UNL     1      -5.850   5.331  13.357  1.00  0.00     0.087 C 
BRANCH  24  25
HETATM   25  C16 UNL     1      -6.961   4.592  12.622  1.00  0.00     0.149 C 
HETATM   26  O3  UNL     1      -7.958   5.162  12.189  1.00  0.00    -0.293 OA
BRANCH  25  27
HETATM   27  C17 UNL     1      -6.730   3.131  12.397  1.00  0.00     0.052 C 
HETATM   28  C18 UNL     1      -5.930   2.592  11.458  1.00  0.00    -0.084 C 
HETATM   29  C19 UNL     1      -5.159   3.369  10.425  1.00  0.00     0.043 C 
HETATM   30  C20 UNL     1      -5.752   1.099  11.374  1.00  0.00     0.043 C 
ENDBRANCH  25  27
ENDBRANCH  24  25
ENDBRANCH  22  24
ENDBRANCH  14  22
BRANCH  20  31
HETATM   31  C27 UNL     1       0.913   6.329  11.538  1.00  0.00     0.021 C 
BRANCH  31  32
HETATM   32  C28 UNL     1       0.001   6.845  10.428  1.00  0.00     0.112 C 
BRANCH  32  33
HETATM   33  C29 UNL     1       0.715   7.654   9.378  1.00  0.00     0.258 C 
HETATM   34  O4  UNL     1       0.370   8.777   9.033  1.00  0.00    -0.265 OA
BRANCH  33  35
HETATM   35  O5  UNL     1       1.808   6.992   8.911  1.00  0.00    -0.326 OA
HETATM   36  C30 UNL     1       2.102   7.264   7.539  1.00  0.00     0.213 C 
ENDBRANCH  33  35
ENDBRANCH  32  33
ENDBRANCH  31  32
ENDBRANCH  20  31
TORSDOF 8
ENDMDL
MODEL 6
REMARK minimizedAffinity -6.238204
REMARK CNNscore 0.243033171
REMARK CNNaffinity 6.26721191
REMARK  8 active torsions:
REMARK  status: ('A' for Active; 'I' for Inactive)
REMARK    1  A    between atoms: C12_14  and  C13_15 
REMARK    2  A    between atoms: C13_15  and  C15_17 
REMARK    3  A    between atoms: C15_17  and  C16_18 
REMARK    4  A    between atoms: C16_18  and  C17_20 
REMARK    5  A    between atoms: C26_29  and  C27_30 
REMARK    6  A    between atoms: C27_30  and  C28_31 
REMARK    7  A    between atoms: C28_31  and  C29_32 
REMARK    8  A    between atoms: C29_32  and  O5_34 
ROOT
HETATM    1  C1  UNL     1       0.127   3.552  12.057  1.00  0.00     0.025 C 
HETATM    2  C2  UNL     1      -0.828   4.492  12.038  1.00  0.00     0.015 C 
HETATM    3  C3  UNL     1      -1.997   4.377  11.145  1.00  0.00     0.289 C 
HETATM    4  O1  UNL     1      -2.080   3.696  10.141  1.00  0.00    -0.260 OA
HETATM    5  O2  UNL     1      -2.977   5.157  11.667  1.00  0.00    -0.311 OA
HETATM    6  C4  UNL     1      -2.559   5.693  12.942  1.00  0.00     0.142 C 
HETATM    7  C5  UNL     1      -3.275   7.025  13.141  1.00  0.00     0.039 C 
HETATM    8  C6  UNL     1      -2.438   8.235  13.569  1.00  0.00     0.006 C 
HETATM    9  C7  UNL     1      -1.036   8.284  12.931  1.00  0.00    -0.027 A 
HETATM   10  C8  UNL     1      -0.248   9.550  13.301  1.00  0.00     0.011 C 
HETATM   11  C9  UNL     1      -0.261   9.887  14.804  1.00  0.00     0.011 C 
HETATM   12  C10 UNL     1      -1.694   9.912  15.368  1.00  0.00    -0.032 C 
HETATM   13  C11 UNL     1      -2.462  11.099  14.700  1.00  0.00     0.016 C 
HETATM   14  C12 UNL     1      -1.864  10.037  16.916  1.00  0.00    -0.002 C 
HETATM   15  C21 UNL     1      -3.288   9.428  17.136  1.00  0.00     0.006 C 
HETATM   16  C22 UNL     1      -3.660   8.626  15.871  1.00  0.00     0.011 C 
HETATM   17  C23 UNL     1      -2.337   8.487  15.104  1.00  0.00    -0.032 C 
HETATM   18  C24 UNL     1      -1.572   7.306  15.777  1.00  0.00     0.016 C 
HETATM   19  C25 UNL     1      -0.912   7.862  11.483  1.00  0.00     0.022 A 
HETATM   20  C26 UNL     1      -0.319   6.962  12.555  1.00  0.00    -0.021 A 
HETATM   21  C31 UNL     1      -1.033   5.659  12.947  1.00  0.00     0.063 C 
ENDROOT
BRANCH  14  22
HETATM   22  C13 UNL     1      -1.709  11.419  17.617  1.00  0.00    -0.007 C 
HETATM   23  C14 UNL     1      -0.414  11.516  18.433  1.00  0.00     0.011 C 
BRANCH  22  24
HETATM   24  C15 UNL     1      -2.911  11.684  18.557  1.00  0.00     0.087 C 
BRANCH  24  25
HETATM   25  C16 UNL     1      -3.685  12.949  18.210  1.00  0.00     0.149 C 
HETATM   26  O3  UNL     1      -4.367  13.048  17.195  1.00  0.00    -0.293 OA
BRANCH  25  27
HETATM   27  C17 UNL     1      -3.618  14.048  19.223  1.00  0.00     0.052 C 
HETATM   28  C18 UNL     1      -4.440  14.201  20.280  1.00  0.00    -0.084 C 
HETATM   29  C19 UNL     1      -5.613  13.316  20.601  1.00  0.00     0.043 C 
HETATM   30  C20 UNL     1      -4.229  15.332  21.252  1.00  0.00     0.043 C 
ENDBRANCH  25  27
ENDBRANCH  24  25
ENDBRANCH  22  24
ENDBRANCH  14  22
BRANCH  20  31
HETATM   31  C27 UNL     1       1.206   6.882  12.755  1.00  0.00     0.021 C 
BRANCH  31  32
HETATM   32  C28 UNL     1       2.086   7.355  11.600  1.00  0.00     0.112 C 
BRANCH  32  33
HETATM   33  C29 UNL     1       2.446   6.266  10.623  1.00  0.00     0.258 C 
HETATM   34  O4  UNL     1       1.669   5.815   9.791  1.00  0.00    -0.265 OA
BRANCH  33  35
HETATM   35  O5  UNL     1       3.749   5.898  10.762  1.00  0.00    -0.326 OA
HETATM   36  C30 UNL     1       4.677   6.937  10.445  1.00  0.00     0.213 C 
ENDBRANCH  33  35
ENDBRANCH  32  33
ENDBRANCH  31  32
ENDBRANCH  20  31
TORSDOF 8
ENDMDL
MODEL 7
REMARK minimizedAffinity -6.2116971
REMARK CNNscore 0.177836701
REMARK CNNaffinity 6.13445234
REMARK  8 active torsions:
REMARK  status: ('A' for Active; 'I' for Inactive)
REMARK    1  A    between atoms: C12_14  and  C13_15 
REMARK    2  A    between atoms: C13_15  and  C15_17 
REMARK    3  A    between atoms: C15_17  and  C16_18 
REMARK    4  A    between atoms: C16_18  and  C17_20 
REMARK    5  A    between atoms: C26_29  and  C27_30 
REMARK    6  A    between atoms: C27_30  and  C28_31 
REMARK    7  A    between atoms: C28_31  and  C29_32 
REMARK    8  A    between atoms: C29_32  and  O5_34 
ROOT
HETATM    1  C1  UNL     1       3.425  12.976  17.946  1.00  0.00     0.025 C 
HETATM    2  C2  UNL     1       2.172  13.132  17.499  1.00  0.00     0.015 C 
HETATM    3  C3  UNL     1       1.588  14.474  17.309  1.00  0.00     0.289 C 
HETATM    4  O1  UNL     1       1.966  15.510  17.822  1.00  0.00    -0.260 OA
HETATM    5  O2  UNL     1       0.561  14.342  16.433  1.00  0.00    -0.311 OA
HETATM    6  C4  UNL     1       0.508  12.990  15.928  1.00  0.00     0.142 C 
HETATM    7  C5  UNL     1      -0.943  12.685  15.570  1.00  0.00     0.039 C 
HETATM    8  C6  UNL     1      -1.551  11.376  16.082  1.00  0.00     0.006 C 
HETATM    9  C7  UNL     1      -1.082  10.979  17.496  1.00  0.00    -0.027 A 
HETATM   10  C8  UNL     1      -1.771   9.713  18.028  1.00  0.00     0.011 C 
HETATM   11  C9  UNL     1      -1.800   8.541  17.029  1.00  0.00     0.011 C 
HETATM   12  C10 UNL     1      -2.362   8.974  15.661  1.00  0.00    -0.032 C 
HETATM   13  C11 UNL     1      -3.865   9.359  15.850  1.00  0.00     0.016 C 
HETATM   14  C12 UNL     1      -2.267   7.955  14.481  1.00  0.00    -0.002 C 
HETATM   15  C21 UNL     1      -2.332   8.897  13.234  1.00  0.00     0.006 C 
HETATM   16  C22 UNL     1      -2.024  10.333  13.709  1.00  0.00     0.011 C 
HETATM   17  C23 UNL     1      -1.449  10.153  15.121  1.00  0.00    -0.032 C 
HETATM   18  C24 UNL     1       0.049   9.764  14.929  1.00  0.00     0.016 C 
HETATM   19  C25 UNL     1      -0.918  12.086  18.514  1.00  0.00     0.022 A 
HETATM   20  C26 UNL     1       0.329  11.400  17.981  1.00  0.00    -0.021 A 
HETATM   21  C31 UNL     1       1.222  12.116  16.956  1.00  0.00     0.063 C 
ENDROOT
BRANCH  14  22
HETATM   22  C13 UNL     1      -3.282   6.779  14.372  1.00  0.00    -0.007 C 
HETATM   23  C14 UNL     1      -2.587   5.430  14.149  1.00  0.00     0.011 C 
BRANCH  22  24
HETATM   24  C15 UNL     1      -4.273   7.027  13.209  1.00  0.00     0.087 C 
BRANCH  24  25
HETATM   25  C16 UNL     1      -5.729   6.803  13.594  1.00  0.00     0.149 C 
HETATM   26  O3  UNL     1      -6.432   7.693  14.063  1.00  0.00    -0.293 OA
BRANCH  25  27
HETATM   27  C17 UNL     1      -6.276   5.442  13.299  1.00  0.00     0.052 C 
HETATM   28  C18 UNL     1      -7.069   4.715  14.111  1.00  0.00    -0.084 C 
HETATM   29  C19 UNL     1      -7.507   5.127  15.490  1.00  0.00     0.043 C 
HETATM   30  C20 UNL     1      -7.588   3.374  13.667  1.00  0.00     0.043 C 
ENDBRANCH  25  27
ENDBRANCH  24  25
ENDBRANCH  22  24
ENDBRANCH  14  22
BRANCH  20  31
HETATM   31  C27 UNL     1       1.117  10.412  18.862  1.00  0.00     0.021 C 
BRANCH  31  32
HETATM   32  C28 UNL     1       1.235  10.745  20.347  1.00  0.00     0.112 C 
BRANCH  32  33
HETATM   33  C29 UNL     1       2.291   9.949  21.069  1.00  0.00     0.258 C 
HETATM   34  O4  UNL     1       2.042   9.089  21.904  1.00  0.00    -0.265 OA
BRANCH  33  35
HETATM   35  O5  UNL     1       3.537  10.283  20.634  1.00  0.00    -0.326 OA
HETATM   36  C30 UNL     1       4.230  11.177  21.507  1.00  0.00     0.213 C 
ENDBRANCH  33  35
ENDBRANCH  32  33
ENDBRANCH  31  32
ENDBRANCH  20  31
TORSDOF 8
ENDMDL
MODEL 8
REMARK minimizedAffinity -8.0113945
REMARK CNNscore 0.169253111
REMARK CNNaffinity 6.15564585
REMARK  8 active torsions:
REMARK  status: ('A' for Active; 'I' for Inactive)
REMARK    1  A    between atoms: C12_14  and  C13_15 
REMARK    2  A    between atoms: C13_15  and  C15_17 
REMARK    3  A    between atoms: C15_17  and  C16_18 
REMARK    4  A    between atoms: C16_18  and  C17_20 
REMARK    5  A    between atoms: C26_29  and  C27_30 
REMARK    6  A    between atoms: C27_30  and  C28_31 
REMARK    7  A    between atoms: C28_31  and  C29_32 
REMARK    8  A    between atoms: C29_32  and  O5_34 
ROOT
HETATM    1  C1  UNL     1      -2.643   3.718  10.190  1.00  0.00     0.025 C 
HETATM    2  C2  UNL     1      -1.924   4.106  11.252  1.00  0.00     0.015 C 
HETATM    3  C3  UNL     1      -0.692   3.394  11.644  1.00  0.00     0.289 C 
HETATM    4  O1  UNL     1      -0.380   2.259  11.337  1.00  0.00    -0.260 OA
HETATM    5  O2  UNL     1       0.043   4.252  12.395  1.00  0.00    -0.311 OA
HETATM    6  C4  UNL     1      -0.584   5.554  12.420  1.00  0.00     0.142 C 
HETATM    7  C5  UNL     1      -0.203   6.226  13.735  1.00  0.00     0.039 C 
HETATM    8  C6  UNL     1      -1.321   6.859  14.570  1.00  0.00     0.006 C 
HETATM    9  C7  UNL     1      -2.643   6.067  14.548  1.00  0.00    -0.027 A 
HETATM   10  C8  UNL     1      -3.722   6.667  15.463  1.00  0.00     0.011 C 
HETATM   11  C9  UNL     1      -3.903   8.189  15.312  1.00  0.00     0.011 C 
HETATM   12  C10 UNL     1      -2.562   8.936  15.433  1.00  0.00    -0.032 C 
HETATM   13  C11 UNL     1      -2.029   8.752  16.892  1.00  0.00     0.016 C 
HETATM   14  C12 UNL     1      -2.547  10.462  15.101  1.00  0.00    -0.002 C 
HETATM   15  C21 UNL     1      -1.045  10.701  14.737  1.00  0.00     0.006 C 
HETATM   16  C22 UNL     1      -0.403   9.326  14.453  1.00  0.00     0.011 C 
HETATM   17  C23 UNL     1      -1.597   8.370  14.310  1.00  0.00    -0.032 C 
HETATM   18  C24 UNL     1      -2.129   8.560  12.855  1.00  0.00     0.016 C 
HETATM   19  C25 UNL     1      -2.555   4.557  14.580  1.00  0.00     0.022 A 
HETATM   20  C26 UNL     1      -3.013   5.230  13.297  1.00  0.00    -0.021 A 
HETATM   21  C31 UNL     1      -2.059   5.330  12.097  1.00  0.00     0.063 C 
ENDROOT
BRANCH  14  22
HETATM   22  C13 UNL     1      -3.063  11.500  16.142  1.00  0.00    -0.007 C 
HETATM   23  C14 UNL     1      -4.051  12.500  15.527  1.00  0.00     0.011 C 
BRANCH  22  24
HETATM   24  C15 UNL     1      -1.877  12.285  16.754  1.00  0.00     0.087 C 
BRANCH  24  25
HETATM   25  C16 UNL     1      -1.902  12.333  18.276  1.00  0.00     0.149 C 
HETATM   26  O3  UNL     1      -2.697  13.028  18.901  1.00  0.00    -0.293 OA
BRANCH  25  27
HETATM   27  C17 UNL     1      -0.937  11.425  18.970  1.00  0.00     0.052 C 
HETATM   28  C18 UNL     1       0.114  11.811  19.720  1.00  0.00    -0.084 C 
HETATM   29  C19 UNL     1       0.537  13.236  19.951  1.00  0.00     0.043 C 
HETATM   30  C20 UNL     1       0.980  10.786  20.404  1.00  0.00     0.043 C 
ENDBRANCH  25  27
ENDBRANCH  24  25
ENDBRANCH  22  24
ENDBRANCH  14  22
BRANCH  20  31
HETATM   31  C27 UNL     1      -4.493   5.178  12.871  1.00  0.00     0.021 C 
BRANCH  31  32
HETATM   32  C28 UNL     1      -5.165   3.808  12.854  1.00  0.00     0.112 C 
BRANCH  32  33
HETATM   33  C29 UNL     1      -6.668   3.864  12.945  1.00  0.00     0.258 C 
HETATM   34  O4  UNL     1      -7.392   2.881  12.858  1.00  0.00    -0.265 OA
BRANCH  33  35
HETATM   35  O5  UNL     1      -7.096   5.135  13.180  1.00  0.00    -0.326 OA
HETATM   36  C30 UNL     1      -8.277   5.486  12.458  1.00  0.00     0.213 C 
ENDBRANCH  33  35
ENDBRANCH  32  33
ENDBRANCH  31  32
ENDBRANCH  20  31
TORSDOF 8
ENDMDL
MODEL 9
REMARK minimizedAffinity -7.99666452
REMARK CNNscore 0.165097475
REMARK CNNaffinity 6.21243048
REMARK  8 active torsions:
REMARK  status: ('A' for Active; 'I' for Inactive)
REMARK    1  A    between atoms: C12_14  and  C13_15 
REMARK    2  A    between atoms: C13_15  and  C15_17 
REMARK    3  A    between atoms: C15_17  and  C16_18 
REMARK    4  A    between atoms: C16_18  and  C17_20 
REMARK    5  A    between atoms: C26_29  and  C27_30 
REMARK    6  A    between atoms: C27_30  and  C28_31 
REMARK    7  A    between atoms: C28_31  and  C29_32 
REMARK    8  A    between atoms: C29_32  and  O5_34 
ROOT
HETATM    1  C1  UNL     1       3.018   7.565  15.160  1.00  0.00     0.025 C 
HETATM    2  C2  UNL     1       2.090   7.667  14.200  1.00  0.00     0.015 C 
HETATM    3  C3  UNL     1       2.468   7.863  12.787  1.00  0.00     0.289 C 
HETATM    4  O1  UNL     1       3.528   8.292  12.371  1.00  0.00    -0.260 OA
HETATM    5  O2  UNL     1       1.418   7.453  12.032  1.00  0.00    -0.311 OA
HETATM    6  C4  UNL     1       0.398   6.871  12.873  1.00  0.00     0.142 C 
HETATM    7  C5  UNL     1      -0.947   7.083  12.184  1.00  0.00     0.039 C 
HETATM    8  C6  UNL     1      -2.100   7.653  13.016  1.00  0.00     0.006 C 
HETATM    9  C7  UNL     1      -1.664   8.719  14.042  1.00  0.00    -0.027 A 
HETATM   10  C8  UNL     1      -2.844   9.344  14.802  1.00  0.00     0.011 C 
HETATM   11  C9  UNL     1      -3.853   8.319  15.357  1.00  0.00     0.011 C 
HETATM   12  C10 UNL     1      -4.322   7.337  14.267  1.00  0.00    -0.032 C 
HETATM   13  C11 UNL     1      -5.134   8.141  13.201  1.00  0.00     0.016 C 
HETATM   14  C12 UNL     1      -5.186   6.115  14.714  1.00  0.00    -0.002 C 
HETATM   15  C21 UNL     1      -4.939   5.099  13.551  1.00  0.00     0.006 C 
HETATM   16  C22 UNL     1      -3.686   5.563  12.777  1.00  0.00     0.011 C 
HETATM   17  C23 UNL     1      -3.035   6.608  13.695  1.00  0.00    -0.032 C 
HETATM   18  C24 UNL     1      -2.230   5.802  14.761  1.00  0.00     0.016 C 
HETATM   19  C25 UNL     1      -0.593   9.700  13.618  1.00  0.00     0.022 A 
HETATM   20  C26 UNL     1      -0.244   8.651  14.660  1.00  0.00    -0.021 A 
HETATM   21  C31 UNL     1       0.616   7.438  14.273  1.00  0.00     0.063 C 
ENDROOT
BRANCH  14  22
HETATM   22  C13 UNL     1      -6.704   6.292  15.016  1.00  0.00    -0.007 C 
HETATM   23  C14 UNL     1      -7.056   5.924  16.463  1.00  0.00     0.011 C 
BRANCH  22  24
HETATM   24  C15 UNL     1      -7.549   5.416  14.060  1.00  0.00     0.087 C 
BRANCH  24  25
HETATM   25  C16 UNL     1      -8.688   6.174  13.390  1.00  0.00     0.149 C 
HETATM   26  O3  UNL     1      -9.039   5.953  12.235  1.00  0.00    -0.293 OA
BRANCH  25  27
HETATM   27  C17 UNL     1      -9.405   7.164  14.254  1.00  0.00     0.052 C 
HETATM   28  C18 UNL     1     -10.679   7.573  14.099  1.00  0.00    -0.084 C 
HETATM   29  C19 UNL     1     -11.599   7.142  12.989  1.00  0.00     0.043 C 
HETATM   30  C20 UNL     1     -11.292   8.543  15.074  1.00  0.00     0.043 C 
ENDBRANCH  25  27
ENDBRANCH  24  25
ENDBRANCH  22  24
ENDBRANCH  14  22
BRANCH  20  31
HETATM   31  C27 UNL     1      -0.079   9.042  16.141  1.00  0.00     0.021 C 
BRANCH  31  32
HETATM   32  C28 UNL     1       0.698  10.321  16.441  1.00  0.00     0.112 C 
BRANCH  32  33
HETATM   33  C29 UNL     1       1.326  10.347  17.810  1.00  0.00     0.258 C 
HETATM   34  O4  UNL     1       2.236   9.604  18.156  1.00  0.00    -0.265 OA
BRANCH  33  35
HETATM   35  O5  UNL     1       0.780  11.329  18.579  1.00  0.00    -0.326 OA
HETATM   36  C30 UNL     1       0.510  10.923  19.922  1.00  0.00     0.213 C 
ENDBRANCH  33  35
ENDBRANCH  32  33
ENDBRANCH  31  32
ENDBRANCH  20  31
TORSDOF 8
ENDMDL
