MODEL 1
REMARK minimizedAffinity -6.88033056
REMARK CNNscore 0.66319561
REMARK CNNaffinity 6.1801877
REMARK  8 active torsions:
REMARK  status: ('A' for Active; 'I' for Inactive)
REMARK    1  A    between atoms: C12_14  and  C13_15 
REMARK    2  A    between atoms: C13_15  and  C15_17 
REMARK    3  A    between atoms: C15_17  and  C16_18 
REMARK    4  A    between atoms: C16_18  and  C17_19 
REMARK    5  A    between atoms: C26_28  and  C27_29 
REMARK    6  A    between atoms: C27_29  and  C28_30 
REMARK    7  A    between atoms: C28_30  and  C29_31 
REMARK    8  A    between atoms: C29_31  and  O4_33 
ROOT
HETATM    1  C1  UNL     1     -18.535  46.393 -22.244  1.00  0.00     0.025 C 
HETATM    2  C2  UNL     1     -17.966  46.129 -23.427  1.00  0.00     0.015 C 
HETATM    3  C3  UNL     1     -18.537  46.591 -24.718  1.00  0.00     0.289 C 
HETATM    4  O1  UNL     1     -19.420  47.418 -24.863  1.00  0.00    -0.260 OA
HETATM    5  O2  UNL     1     -17.874  45.938 -25.721  1.00  0.00    -0.311 OA
HETATM    6  C4  UNL     1     -17.116  44.876 -25.135  1.00  0.00     0.142 C 
HETATM    7  C5  UNL     1     -15.914  44.466 -25.965  1.00  0.00     0.039 C 
HETATM    8  C6  UNL     1     -14.876  45.588 -26.173  1.00  0.00     0.006 C 
HETATM    9  C7  UNL     1     -14.435  46.219 -24.823  1.00  0.00    -0.027 A 
HETATM   10  C8  UNL     1     -12.926  46.512 -24.587  1.00  0.00     0.011 C 
HETATM   11  C9  UNL     1     -11.920  46.266 -25.718  1.00  0.00     0.011 C 
HETATM   12  C10 UNL     1     -12.570  46.223 -27.097  1.00  0.00    -0.032 C 
HETATM   13  C11 UNL     1     -13.106  47.635 -27.438  1.00  0.00     0.016 C 
HETATM   14  C12 UNL     1     -11.643  45.700 -28.238  1.00  0.00    -0.002 C 
HETATM   15  C21 UNL     1     -12.619  45.050 -29.243  1.00  0.00     0.006 C 
HETATM   16  C22 UNL     1     -13.986  44.945 -28.537  1.00  0.00     0.011 C 
HETATM   17  C23 UNL     1     -13.674  45.112 -27.039  1.00  0.00    -0.032 C 
HETATM   18  C24 UNL     1     -13.163  43.730 -26.515  1.00  0.00     0.016 C 
HETATM   19  C25 UNL     1     -15.302  47.382 -24.347  1.00  0.00     0.022 A 
HETATM   20  C26 UNL     1     -15.409  46.074 -23.607  1.00  0.00    -0.021 A 
HETATM   21  C31 UNL     1     -16.748  45.318 -23.728  1.00  0.00     0.063 C 
ENDROOT
BRANCH  14  22
HETATM   22  C13 UNL     1     -10.479  46.572 -28.798  1.00  0.00    -0.014 C 
HETATM   23  C14 UNL     1     -11.072  47.814 -29.493  1.00  0.00     0.010 C 
BRANCH  22  24
HETATM   24  C15 UNL     1      -9.254  46.958 -27.927  1.00  0.00     0.008 C 
BRANCH  24  25
HETATM   25  C16 UNL     1      -7.974  46.110 -27.902  1.00  0.00     0.028 C 
BRANCH  25  26
HETATM   26  C17 UNL     1      -7.087  46.301 -29.096  1.00  0.00    -0.025 C 
HETATM   27  C18 UNL     1      -6.033  47.130 -29.226  1.00  0.00    -0.091 C 
HETATM   28  C19 UNL     1      -5.472  47.999 -28.136  1.00  0.00     0.042 C 
HETATM   29  C20 UNL     1      -5.316  47.240 -30.547  1.00  0.00     0.042 C 
ENDBRANCH  25  26
ENDBRANCH  24  25
ENDBRANCH  22  24
ENDBRANCH  14  22
BRANCH  20  30
HETATM   30  C27 UNL     1     -14.819  46.037 -22.193  1.00  0.00     0.021 C 
BRANCH  30  31
HETATM   31  C28 UNL     1     -14.988  47.365 -21.456  1.00  0.00     0.112 C 
BRANCH  31  32
HETATM   32  C29 UNL     1     -15.306  47.131 -20.003  1.00  0.00     0.258 C 
HETATM   33  O3  UNL     1     -16.403  47.337 -19.497  1.00  0.00    -0.265 OA
BRANCH  32  34
HETATM   34  O4  UNL     1     -14.209  46.669 -19.342  1.00  0.00    -0.326 OA
HETATM   35  C30 UNL     1     -13.834  47.466 -18.214  1.00  0.00     0.213 C 
ENDBRANCH  32  34
ENDBRANCH  31  32
ENDBRANCH  30  31
ENDBRANCH  20  30
TORSDOF 8
ENDMDL
MODEL 2
REMARK minimizedAffinity -6.76511383
REMARK CNNscore 0.546899736
REMARK CNNaffinity 6.7471118
REMARK  8 active torsions:
REMARK  status: ('A' for Active; 'I' for Inactive)
REMARK    1  A    between atoms: C12_14  and  C13_15 
REMARK    2  A    between atoms: C13_15  and  C15_17 
REMARK    3  A    between atoms: C15_17  and  C16_18 
REMARK    4  A    between atoms: C16_18  and  C17_19 
REMARK    5  A    between atoms: C26_28  and  C27_29 
REMARK    6  A    between atoms: C27_29  and  C28_30 
REMARK    7  A    between atoms: C28_30  and  C29_31 
REMARK    8  A    between atoms: C29_31  and  O4_33 
ROOT
HETATM    1  C1  UNL     1      -2.526  50.925 -11.889  1.00  0.00     0.025 C 
HETATM    2  C2  UNL     1      -1.917  51.897 -11.198  1.00  0.00     0.015 C 
HETATM    3  C3  UNL     1      -2.317  52.279  -9.819  1.00  0.00     0.289 C 
HETATM    4  O1  UNL     1      -3.055  51.651  -9.080  1.00  0.00    -0.260 OA
HETATM    5  O2  UNL     1      -1.686  53.454  -9.516  1.00  0.00    -0.311 OA
HETATM    6  C4  UNL     1      -1.139  53.989 -10.724  1.00  0.00     0.142 C 
HETATM    7  C5  UNL     1       0.047  54.907 -10.493  1.00  0.00     0.039 C 
HETATM    8  C6  UNL     1       1.252  54.225  -9.814  1.00  0.00     0.006 C 
HETATM    9  C7  UNL     1       1.681  52.935 -10.568  1.00  0.00    -0.027 A 
HETATM   10  C8  UNL     1       3.196  52.671 -10.803  1.00  0.00     0.011 C 
HETATM   11  C9  UNL     1       4.234  53.629 -10.207  1.00  0.00     0.011 C 
HETATM   12  C10 UNL     1       3.688  54.456  -9.049  1.00  0.00    -0.032 C 
HETATM   13  C11 UNL     1       3.394  53.512  -7.858  1.00  0.00     0.016 C 
HETATM   14  C12 UNL     1       4.609  55.633  -8.598  1.00  0.00    -0.002 C 
HETATM   15  C21 UNL     1       3.624  56.688  -8.049  1.00  0.00     0.006 C 
HETATM   16  C22 UNL     1       2.208  56.241  -8.465  1.00  0.00     0.011 C 
HETATM   17  C23 UNL     1       2.430  55.217  -9.593  1.00  0.00    -0.032 C 
HETATM   18  C24 UNL     1       2.691  56.024 -10.907  1.00  0.00     0.016 C 
HETATM   19  C25 UNL     1       0.964  51.664 -10.121  1.00  0.00     0.022 A 
HETATM   20  C26 UNL     1       0.609  52.236 -11.469  1.00  0.00    -0.021 A 
HETATM   21  C31 UNL     1      -0.814  52.809 -11.625  1.00  0.00     0.063 C 
ENDROOT
BRANCH  14  22
HETATM   22  C13 UNL     1       5.928  55.372  -7.810  1.00  0.00    -0.014 C 
HETATM   23  C14 UNL     1       7.054  55.044  -8.811  1.00  0.00     0.010 C 
BRANCH  22  24
HETATM   24  C15 UNL     1       6.431  56.345  -6.712  1.00  0.00     0.008 C 
BRANCH  24  25
HETATM   25  C16 UNL     1       7.175  55.850  -5.464  1.00  0.00     0.028 C 
BRANCH  25  26
HETATM   26  C17 UNL     1       8.569  56.387  -5.326  1.00  0.00    -0.025 C 
HETATM   27  C18 UNL     1       8.954  57.607  -4.904  1.00  0.00    -0.091 C 
HETATM   28  C19 UNL     1       8.033  58.679  -4.395  1.00  0.00     0.042 C 
HETATM   29  C20 UNL     1      10.412  57.987  -4.918  1.00  0.00     0.042 C 
ENDBRANCH  25  26
ENDBRANCH  24  25
ENDBRANCH  22  24
ENDBRANCH  14  22
BRANCH  20  30
HETATM   30  C27 UNL     1       1.081  51.446 -12.694  1.00  0.00     0.021 C 
BRANCH  30  31
HETATM   31  C28 UNL     1       0.730  52.143 -14.007  1.00  0.00     0.112 C 
BRANCH  31  32
HETATM   32  C29 UNL     1       1.573  51.608 -15.135  1.00  0.00     0.258 C 
HETATM   33  O3  UNL     1       1.137  50.927 -16.057  1.00  0.00    -0.265 OA
BRANCH  32  34
HETATM   34  O4  UNL     1       2.873  51.982 -14.980  1.00  0.00    -0.326 OA
HETATM   35  C30 UNL     1       3.444  52.586 -16.145  1.00  0.00     0.213 C 
ENDBRANCH  32  34
ENDBRANCH  31  32
ENDBRANCH  30  31
ENDBRANCH  20  30
TORSDOF 8
ENDMDL
MODEL 3
REMARK minimizedAffinity -6.29391336
REMARK CNNscore 0.540279984
REMARK CNNaffinity 5.95324755
REMARK  8 active torsions:
REMARK  status: ('A' for Active; 'I' for Inactive)
REMARK    1  A    between atoms: C12_14  and  C13_15 
REMARK    2  A    between atoms: C13_15  and  C15_17 
REMARK    3  A    between atoms: C15_17  and  C16_18 
REMARK    4  A    between atoms: C16_18  and  C17_19 
REMARK    5  A    between atoms: C26_28  and  C27_29 
REMARK    6  A    between atoms: C27_29  and  C28_30 
REMARK    7  A    between atoms: C28_30  and  C29_31 
REMARK    8  A    between atoms: C29_31  and  O4_33 
ROOT
HETATM    1  C1  UNL     1     -15.992  42.456 -26.181  1.00  0.00     0.025 C 
HETATM    2  C2  UNL     1     -14.775  42.672 -26.695  1.00  0.00     0.015 C 
HETATM    3  C3  UNL     1     -14.138  41.753 -27.673  1.00  0.00     0.289 C 
HETATM    4  O1  UNL     1     -14.688  40.854 -28.284  1.00  0.00    -0.260 OA
HETATM    5  O2  UNL     1     -12.824  42.115 -27.786  1.00  0.00    -0.311 OA
HETATM    6  C4  UNL     1     -12.520  43.022 -26.722  1.00  0.00     0.142 C 
HETATM    7  C5  UNL     1     -11.358  43.947 -27.034  1.00  0.00     0.039 C 
HETATM    8  C6  UNL     1     -11.590  44.868 -28.249  1.00  0.00     0.006 C 
HETATM    9  C7  UNL     1     -12.919  45.664 -28.120  1.00  0.00    -0.027 A 
HETATM   10  C8  UNL     1     -12.931  47.174 -28.491  1.00  0.00     0.011 C 
HETATM   11  C9  UNL     1     -11.666  47.823 -29.067  1.00  0.00     0.011 C 
HETATM   12  C10 UNL     1     -10.693  46.811 -29.662  1.00  0.00    -0.032 C 
HETATM   13  C11 UNL     1     -11.339  46.180 -30.920  1.00  0.00     0.016 C 
HETATM   14  C12 UNL     1      -9.282  47.385 -30.000  1.00  0.00    -0.002 C 
HETATM   15  C21 UNL     1      -8.338  46.174 -29.837  1.00  0.00     0.006 C 
HETATM   16  C22 UNL     1      -9.148  45.063 -29.139  1.00  0.00     0.011 C 
HETATM   17  C23 UNL     1     -10.362  45.783 -28.525  1.00  0.00    -0.032 C 
HETATM   18  C24 UNL     1      -9.885  46.440 -27.189  1.00  0.00     0.016 C 
HETATM   19  C25 UNL     1     -14.148  44.951 -28.677  1.00  0.00     0.022 A 
HETATM   20  C26 UNL     1     -14.024  45.075 -27.181  1.00  0.00    -0.021 A 
HETATM   21  C31 UNL     1     -13.804  43.767 -26.394  1.00  0.00     0.063 C 
ENDROOT
BRANCH  14  22
HETATM   22  C13 UNL     1      -9.066  48.332 -31.219  1.00  0.00    -0.014 C 
HETATM   23  C14 UNL     1      -8.547  49.692 -30.711  1.00  0.00     0.010 C 
BRANCH  22  24
HETATM   24  C15 UNL     1      -8.283  47.878 -32.479  1.00  0.00     0.008 C 
BRANCH  24  25
HETATM   25  C16 UNL     1      -7.070  46.941 -32.390  1.00  0.00     0.028 C 
BRANCH  25  26
HETATM   26  C17 UNL     1      -5.863  47.425 -33.138  1.00  0.00    -0.025 C 
HETATM   27  C18 UNL     1      -4.586  47.015 -33.014  1.00  0.00    -0.091 C 
HETATM   28  C19 UNL     1      -4.116  45.898 -32.126  1.00  0.00     0.042 C 
HETATM   29  C20 UNL     1      -3.495  47.692 -33.803  1.00  0.00     0.042 C 
ENDBRANCH  25  26
ENDBRANCH  24  25
ENDBRANCH  22  24
ENDBRANCH  14  22
BRANCH  20  30
HETATM   30  C27 UNL     1     -14.994  46.040 -26.491  1.00  0.00     0.021 C 
BRANCH  30  31
HETATM   31  C28 UNL     1     -15.085  45.796 -24.985  1.00  0.00     0.112 C 
BRANCH  31  32
HETATM   32  C29 UNL     1     -15.788  46.940 -24.302  1.00  0.00     0.258 C 
HETATM   33  O3  UNL     1     -15.329  48.072 -24.209  1.00  0.00    -0.265 OA
BRANCH  32  34
HETATM   34  O4  UNL     1     -16.990  46.534 -23.807  1.00  0.00    -0.326 OA
HETATM   35  C30 UNL     1     -17.217  45.126 -23.921  1.00  0.00     0.213 C 
ENDBRANCH  32  34
ENDBRANCH  31  32
ENDBRANCH  30  31
ENDBRANCH  20  30
TORSDOF 8
ENDMDL
MODEL 4
REMARK minimizedAffinity -7.08922005
REMARK CNNscore 0.526952505
REMARK CNNaffinity 6.67884016
REMARK  8 active torsions:
REMARK  status: ('A' for Active; 'I' for Inactive)
REMARK    1  A    between atoms: C12_14  and  C13_15 
REMARK    2  A    between atoms: C13_15  and  C15_17 
REMARK    3  A    between atoms: C15_17  and  C16_18 
REMARK    4  A    between atoms: C16_18  and  C17_19 
REMARK    5  A    between atoms: C26_28  and  C27_29 
REMARK    6  A    between atoms: C27_29  and  C28_30 
REMARK    7  A    between atoms: C28_30  and  C29_31 
REMARK    8  A    between atoms: C29_31  and  O4_33 
ROOT
HETATM    1  C1  UNL     1      -4.092  49.000 -12.245  1.00  0.00     0.025 C 
HETATM    2  C2  UNL     1      -3.660  49.896 -11.349  1.00  0.00     0.015 C 
HETATM    3  C3  UNL     1      -3.527  49.590  -9.902  1.00  0.00     0.289 C 
HETATM    4  O1  UNL     1      -3.566  48.484  -9.390  1.00  0.00    -0.260 OA
HETATM    5  O2  UNL     1      -3.324  50.772  -9.245  1.00  0.00    -0.311 OA
HETATM    6  C4  UNL     1      -3.610  51.839 -10.153  1.00  0.00     0.142 C 
HETATM    7  C5  UNL     1      -2.889  53.130  -9.812  1.00  0.00     0.039 C 
HETATM    8  C6  UNL     1      -1.351  53.023  -9.843  1.00  0.00     0.006 C 
HETATM    9  C7  UNL     1      -0.844  52.439 -11.191  1.00  0.00    -0.027 A 
HETATM   10  C8  UNL     1       0.388  53.095 -11.878  1.00  0.00     0.011 C 
HETATM   11  C9  UNL     1       1.133  54.234 -11.172  1.00  0.00     0.011 C 
HETATM   12  C10 UNL     1       0.883  54.270  -9.669  1.00  0.00    -0.032 C 
HETATM   13  C11 UNL     1       1.522  53.014  -9.028  1.00  0.00     0.016 C 
HETATM   14  C12 UNL     1       1.385  55.564  -8.956  1.00  0.00    -0.002 C 
HETATM   15  C21 UNL     1       0.424  55.727  -7.758  1.00  0.00     0.006 C 
HETATM   16  C22 UNL     1      -0.743  54.745  -7.982  1.00  0.00     0.011 C 
HETATM   17  C23 UNL     1      -0.669  54.372  -9.474  1.00  0.00    -0.032 C 
HETATM   18  C24 UNL     1      -1.338  55.536 -10.275  1.00  0.00     0.016 C 
HETATM   19  C25 UNL     1      -0.751  50.916 -11.233  1.00  0.00     0.022 A 
HETATM   20  C26 UNL     1      -1.848  51.578 -12.027  1.00  0.00    -0.021 A 
HETATM   21  C31 UNL     1      -3.294  51.330 -11.550  1.00  0.00     0.063 C 
ENDROOT
BRANCH  14  22
HETATM   22  C13 UNL     1       2.905  55.821  -8.724  1.00  0.00    -0.014 C 
HETATM   23  C14 UNL     1       3.510  56.436 -10.002  1.00  0.00     0.010 C 
BRANCH  22  24
HETATM   24  C15 UNL     1       3.428  56.551  -7.459  1.00  0.00     0.008 C 
BRANCH  24  25
HETATM   25  C16 UNL     1       4.599  57.543  -7.517  1.00  0.00     0.028 C 
BRANCH  25  26
HETATM   26  C17 UNL     1       5.801  57.120  -6.727  1.00  0.00    -0.025 C 
HETATM   27  C18 UNL     1       6.701  56.163  -7.028  1.00  0.00    -0.091 C 
HETATM   28  C19 UNL     1       6.720  55.357  -8.296  1.00  0.00     0.042 C 
HETATM   29  C20 UNL     1       7.801  55.826  -6.055  1.00  0.00     0.042 C 
ENDBRANCH  25  26
ENDBRANCH  24  25
ENDBRANCH  22  24
ENDBRANCH  14  22
BRANCH  20  30
HETATM   30  C27 UNL     1      -1.701  51.552 -13.552  1.00  0.00     0.021 C 
BRANCH  30  31
HETATM   31  C28 UNL     1      -3.052  51.536 -14.267  1.00  0.00     0.112 C 
BRANCH  31  32
HETATM   32  C29 UNL     1      -2.945  50.826 -15.591  1.00  0.00     0.258 C 
HETATM   33  O3  UNL     1      -2.932  51.393 -16.677  1.00  0.00    -0.265 OA
BRANCH  32  34
HETATM   34  O4  UNL     1      -2.871  49.478 -15.406  1.00  0.00    -0.326 OA
HETATM   35  C30 UNL     1      -3.116  48.717 -16.593  1.00  0.00     0.213 C 
ENDBRANCH  32  34
ENDBRANCH  31  32
ENDBRANCH  30  31
ENDBRANCH  20  30
TORSDOF 8
ENDMDL
MODEL 5
REMARK minimizedAffinity -6.5324626
REMARK CNNscore 0.488450348
REMARK CNNaffinity 6.02449942
REMARK  8 active torsions:
REMARK  status: ('A' for Active; 'I' for Inactive)
REMARK    1  A    between atoms: C12_14  and  C13_15 
REMARK    2  A    between atoms: C13_15  and  C15_17 
REMARK    3  A    between atoms: C15_17  and  C16_18 
REMARK    4  A    between atoms: C16_18  and  C17_19 
REMARK    5  A    between atoms: C26_28  and  C27_29 
REMARK    6  A    between atoms: C27_29  and  C28_30 
REMARK    7  A    between atoms: C28_30  and  C29_31 
REMARK    8  A    between atoms: C29_31  and  O4_33 
ROOT
HETATM    1  C1  UNL     1     -18.540  46.378 -22.253  1.00  0.00     0.025 C 
HETATM    2  C2  UNL     1     -17.981  46.082 -23.433  1.00  0.00     0.015 C 
HETATM    3  C3  UNL     1     -18.572  46.495 -24.731  1.00  0.00     0.289 C 
HETATM    4  O1  UNL     1     -19.466  47.307 -24.893  1.00  0.00    -0.260 OA
HETATM    5  O2  UNL     1     -17.912  45.819 -25.721  1.00  0.00    -0.311 OA
HETATM    6  C4  UNL     1     -17.136  44.785 -25.110  1.00  0.00     0.142 C 
HETATM    7  C5  UNL     1     -15.938  44.361 -25.939  1.00  0.00     0.039 C 
HETATM    8  C6  UNL     1     -14.916  45.487 -26.196  1.00  0.00     0.006 C 
HETATM    9  C7  UNL     1     -14.467  46.167 -24.872  1.00  0.00    -0.027 A 
HETATM   10  C8  UNL     1     -12.959  46.484 -24.663  1.00  0.00     0.011 C 
HETATM   11  C9  UNL     1     -11.963  46.213 -25.798  1.00  0.00     0.011 C 
HETATM   12  C10 UNL     1     -12.628  46.118 -27.167  1.00  0.00    -0.032 C 
HETATM   13  C11 UNL     1     -13.185  47.512 -27.546  1.00  0.00     0.016 C 
HETATM   14  C12 UNL     1     -11.708  45.569 -28.301  1.00  0.00    -0.002 C 
HETATM   15  C21 UNL     1     -12.687  44.875 -29.272  1.00  0.00     0.006 C 
HETATM   16  C22 UNL     1     -14.045  44.777 -28.548  1.00  0.00     0.011 C 
HETATM   17  C23 UNL     1     -13.718  44.997 -27.060  1.00  0.00    -0.032 C 
HETATM   18  C24 UNL     1     -13.186  43.639 -26.497  1.00  0.00     0.016 C 
HETATM   19  C25 UNL     1     -15.342  47.335 -24.424  1.00  0.00     0.022 A 
HETATM   20  C26 UNL     1     -15.426  46.051 -23.641  1.00  0.00    -0.021 A 
HETATM   21  C31 UNL     1     -16.757  45.276 -23.722  1.00  0.00     0.063 C 
ENDROOT
BRANCH  14  22
HETATM   22  C13 UNL     1     -10.560  46.435 -28.902  1.00  0.00    -0.014 C 
HETATM   23  C14 UNL     1      -9.499  46.687 -27.812  1.00  0.00     0.010 C 
BRANCH  22  24
HETATM   24  C15 UNL     1      -9.889  46.080 -30.254  1.00  0.00     0.008 C 
BRANCH  24  25
HETATM   25  C16 UNL     1     -10.625  46.234 -31.594  1.00  0.00     0.028 C 
BRANCH  25  26
HETATM   26  C17 UNL     1     -10.864  44.941 -32.315  1.00  0.00    -0.025 C 
HETATM   27  C18 UNL     1     -11.376  44.757 -33.548  1.00  0.00    -0.091 C 
HETATM   28  C19 UNL     1     -11.749  45.853 -34.505  1.00  0.00     0.042 C 
HETATM   29  C20 UNL     1     -11.618  43.362 -34.066  1.00  0.00     0.042 C 
ENDBRANCH  25  26
ENDBRANCH  24  25
ENDBRANCH  22  24
ENDBRANCH  14  22
BRANCH  20  30
HETATM   30  C27 UNL     1     -14.820  46.066 -22.233  1.00  0.00     0.021 C 
BRANCH  30  31
HETATM   31  C28 UNL     1     -14.939  47.434 -21.562  1.00  0.00     0.112 C 
BRANCH  31  32
HETATM   32  C29 UNL     1     -15.284  47.283 -20.104  1.00  0.00     0.258 C 
HETATM   33  O3  UNL     1     -16.111  46.489 -19.671  1.00  0.00    -0.265 OA
BRANCH  32  34
HETATM   34  O4  UNL     1     -14.555  48.150 -19.349  1.00  0.00    -0.326 OA
HETATM   35  C30 UNL     1     -15.320  48.832 -18.350  1.00  0.00     0.213 C 
ENDBRANCH  32  34
ENDBRANCH  31  32
ENDBRANCH  30  31
ENDBRANCH  20  30
TORSDOF 8
ENDMDL
MODEL 6
REMARK minimizedAffinity -6.61450148
REMARK CNNscore 0.406184137
REMARK CNNaffinity 6.59946966
REMARK  8 active torsions:
REMARK  status: ('A' for Active; 'I' for Inactive)
REMARK    1  A    between atoms: C12_14  and  C13_15 
REMARK    2  A    between atoms: C13_15  and  C15_17 
REMARK    3  A    between atoms: C15_17  and  C16_18 
REMARK    4  A    between atoms: C16_18  and  C17_19 
REMARK    5  A    between atoms: C26_28  and  C27_29 
REMARK    6  A    between atoms: C27_29  and  C28_30 
REMARK    7  A    between atoms: C28_30  and  C29_31 
REMARK    8  A    between atoms: C29_31  and  O4_33 
ROOT
HETATM    1  C1  UNL     1       1.858  57.692  -5.013  1.00  0.00     0.025 C 
HETATM    2  C2  UNL     1       1.067  56.679  -5.389  1.00  0.00     0.015 C 
HETATM    3  C3  UNL     1      -0.329  56.524  -4.905  1.00  0.00     0.289 C 
HETATM    4  O1  UNL     1      -0.989  57.363  -4.318  1.00  0.00    -0.260 OA
HETATM    5  O2  UNL     1      -0.753  55.273  -5.260  1.00  0.00    -0.311 OA
HETATM    6  C4  UNL     1       0.387  54.521  -5.685  1.00  0.00     0.142 C 
HETATM    7  C5  UNL     1       0.042  53.392  -6.639  1.00  0.00     0.039 C 
HETATM    8  C6  UNL     1      -0.606  53.856  -7.960  1.00  0.00     0.006 C 
HETATM    9  C7  UNL     1       0.248  54.945  -8.667  1.00  0.00    -0.027 A 
HETATM   10  C8  UNL     1       0.465  54.850 -10.204  1.00  0.00     0.011 C 
HETATM   11  C9  UNL     1      -0.243  53.748 -11.002  1.00  0.00     0.011 C 
HETATM   12  C10 UNL     1      -1.455  53.171 -10.280  1.00  0.00    -0.032 C 
HETATM   13  C11 UNL     1      -2.548  54.264 -10.191  1.00  0.00     0.016 C 
HETATM   14  C12 UNL     1      -2.034  51.869 -10.916  1.00  0.00    -0.002 C 
HETATM   15  C21 UNL     1      -2.648  51.110  -9.720  1.00  0.00     0.006 C 
HETATM   16  C22 UNL     1      -2.155  51.815  -8.440  1.00  0.00     0.011 C 
HETATM   17  C23 UNL     1      -0.947  52.656  -8.890  1.00  0.00    -0.032 C 
HETATM   18  C24 UNL     1       0.282  51.692  -8.976  1.00  0.00     0.016 C 
HETATM   19  C25 UNL     1      -0.064  56.377  -8.243  1.00  0.00     0.022 A 
HETATM   20  C26 UNL     1       1.237  55.774  -7.781  1.00  0.00    -0.021 A 
HETATM   21  C31 UNL     1       1.381  55.513  -6.268  1.00  0.00     0.063 C 
ENDROOT
BRANCH  14  22
HETATM   22  C13 UNL     1      -2.832  51.909 -12.255  1.00  0.00    -0.014 C 
HETATM   23  C14 UNL     1      -3.968  52.944 -12.130  1.00  0.00     0.010 C 
BRANCH  22  24
HETATM   24  C15 UNL     1      -2.121  52.031 -13.628  1.00  0.00     0.008 C 
BRANCH  24  25
HETATM   25  C16 UNL     1      -0.730  51.430 -13.881  1.00  0.00     0.028 C 
BRANCH  25  26
HETATM   26  C17 UNL     1      -0.553  50.850 -15.252  1.00  0.00    -0.025 C 
HETATM   27  C18 UNL     1       0.309  51.233 -16.214  1.00  0.00    -0.091 C 
HETATM   28  C19 UNL     1       1.351  52.306 -16.068  1.00  0.00     0.042 C 
HETATM   29  C20 UNL     1       0.275  50.572 -17.568  1.00  0.00     0.042 C 
ENDBRANCH  25  26
ENDBRANCH  24  25
ENDBRANCH  22  24
ENDBRANCH  14  22
BRANCH  20  30
HETATM   30  C27 UNL     1       2.514  56.325  -8.424  1.00  0.00     0.021 C 
BRANCH  30  31
HETATM   31  C28 UNL     1       3.765  55.570  -7.973  1.00  0.00     0.112 C 
BRANCH  31  32
HETATM   32  C29 UNL     1       3.993  54.356  -8.835  1.00  0.00     0.258 C 
HETATM   33  O3  UNL     1       3.547  53.242  -8.587  1.00  0.00    -0.265 OA
BRANCH  32  34
HETATM   34  O4  UNL     1       4.762  54.674  -9.914  1.00  0.00    -0.326 OA
HETATM   35  C30 UNL     1       6.160  54.760  -9.622  1.00  0.00     0.213 C 
ENDBRANCH  32  34
ENDBRANCH  31  32
ENDBRANCH  30  31
ENDBRANCH  20  30
TORSDOF 8
ENDMDL
MODEL 7
REMARK minimizedAffinity -6.83508253
REMARK CNNscore 0.398828506
REMARK CNNaffinity 6.43163681
REMARK  8 active torsions:
REMARK  status: ('A' for Active; 'I' for Inactive)
REMARK    1  A    between atoms: C12_14  and  C13_15 
REMARK    2  A    between atoms: C13_15  and  C15_17 
REMARK    3  A    between atoms: C15_17  and  C16_18 
REMARK    4  A    between atoms: C16_18  and  C17_19 
REMARK    5  A    between atoms: C26_28  and  C27_29 
REMARK    6  A    between atoms: C27_29  and  C28_30 
REMARK    7  A    between atoms: C28_30  and  C29_31 
REMARK    8  A    between atoms: C29_31  and  O4_33 
ROOT
HETATM    1  C1  UNL     1      -1.106  50.810 -12.175  1.00  0.00     0.025 C 
HETATM    2  C2  UNL     1      -0.707  51.874 -11.467  1.00  0.00     0.015 C 
HETATM    3  C3  UNL     1      -1.410  52.340 -10.244  1.00  0.00     0.289 C 
HETATM    4  O1  UNL     1      -2.255  51.725  -9.618  1.00  0.00    -0.260 OA
HETATM    5  O2  UNL     1      -0.917  53.576  -9.928  1.00  0.00    -0.311 OA
HETATM    6  C4  UNL     1      -0.154  54.048 -11.042  1.00  0.00     0.142 C 
HETATM    7  C5  UNL     1       0.909  55.061 -10.658  1.00  0.00     0.039 C 
HETATM    8  C6  UNL     1       1.975  54.521  -9.682  1.00  0.00     0.006 C 
HETATM    9  C7  UNL     1       2.619  53.207 -10.205  1.00  0.00    -0.027 A 
HETATM   10  C8  UNL     1       4.160  53.029 -10.096  1.00  0.00     0.011 C 
HETATM   11  C9  UNL     1       4.998  54.101  -9.390  1.00  0.00     0.011 C 
HETATM   12  C10 UNL     1       4.178  54.981  -8.454  1.00  0.00    -0.032 C 
HETATM   13  C11 UNL     1       3.684  54.119  -7.266  1.00  0.00     0.016 C 
HETATM   14  C12 UNL     1       4.921  56.251  -7.935  1.00  0.00    -0.002 C 
HETATM   15  C21 UNL     1       3.790  57.277  -7.704  1.00  0.00     0.006 C 
HETATM   16  C22 UNL     1       2.520  56.701  -8.361  1.00  0.00     0.011 C 
HETATM   17  C23 UNL     1       3.028  55.606  -9.316  1.00  0.00    -0.032 C 
HETATM   18  C24 UNL     1       3.521  56.319 -10.617  1.00  0.00     0.016 C 
HETATM   19  C25 UNL     1       1.887  51.930  -9.799  1.00  0.00     0.022 A 
HETATM   20  C26 UNL     1       1.799  52.364 -11.239  1.00  0.00    -0.021 A 
HETATM   21  C31 UNL     1       0.415  52.822 -11.741  1.00  0.00     0.063 C 
ENDROOT
BRANCH  14  22
HETATM   22  C13 UNL     1       6.053  56.147  -6.869  1.00  0.00    -0.014 C 
HETATM   23  C14 UNL     1       7.328  55.599  -7.543  1.00  0.00     0.010 C 
BRANCH  22  24
HETATM   24  C15 UNL     1       6.394  57.325  -5.920  1.00  0.00     0.008 C 
BRANCH  24  25
HETATM   25  C16 UNL     1       7.523  57.234  -4.882  1.00  0.00     0.028 C 
BRANCH  25  26
HETATM   26  C17 UNL     1       8.650  58.197  -5.115  1.00  0.00    -0.025 C 
HETATM   27  C18 UNL     1       8.670  59.525  -4.894  1.00  0.00    -0.091 C 
HETATM   28  C19 UNL     1       7.554  60.319  -4.275  1.00  0.00     0.042 C 
HETATM   29  C20 UNL     1       9.880  60.338  -5.276  1.00  0.00     0.042 C 
ENDBRANCH  25  26
ENDBRANCH  24  25
ENDBRANCH  22  24
ENDBRANCH  14  22
BRANCH  20  30
HETATM   30  C27 UNL     1       2.560  51.511 -12.259  1.00  0.00     0.021 C 
BRANCH  30  31
HETATM   31  C28 UNL     1       2.693  50.054 -11.816  1.00  0.00     0.112 C 
BRANCH  31  32
HETATM   32  C29 UNL     1       3.827  49.378 -12.542  1.00  0.00     0.258 C 
HETATM   33  O3  UNL     1       4.946  49.862 -12.671  1.00  0.00    -0.265 OA
BRANCH  32  34
HETATM   34  O4  UNL     1       3.429  48.172 -13.032  1.00  0.00    -0.326 OA
HETATM   35  C30 UNL     1       2.465  47.504 -12.211  1.00  0.00     0.213 C 
ENDBRANCH  32  34
ENDBRANCH  31  32
ENDBRANCH  30  31
ENDBRANCH  20  30
TORSDOF 8
ENDMDL
MODEL 8
REMARK minimizedAffinity -6.37629271
REMARK CNNscore 0.3074826
REMARK CNNaffinity 5.86954641
REMARK  8 active torsions:
REMARK  status: ('A' for Active; 'I' for Inactive)
REMARK    1  A    between atoms: C12_14  and  C13_15 
REMARK    2  A    between atoms: C13_15  and  C15_17 
REMARK    3  A    between atoms: C15_17  and  C16_18 
REMARK    4  A    between atoms: C16_18  and  C17_19 
REMARK    5  A    between atoms: C26_28  and  C27_29 
REMARK    6  A    between atoms: C27_29  and  C28_30 
REMARK    7  A    between atoms: C28_30  and  C29_31 
REMARK    8  A    between atoms: C29_31  and  O4_33 
ROOT
HETATM    1  C1  UNL     1     -14.391  43.572 -27.144  1.00  0.00     0.025 C 
HETATM    2  C2  UNL     1     -13.681  44.525 -27.759  1.00  0.00     0.015 C 
HETATM    3  C3  UNL     1     -13.832  45.970 -27.451  1.00  0.00     0.289 C 
HETATM    4  O1  UNL     1     -14.417  46.448 -26.495  1.00  0.00    -0.260 OA
HETATM    5  O2  UNL     1     -13.172  46.672 -28.422  1.00  0.00    -0.311 OA
HETATM    6  C4  UNL     1     -12.857  45.770 -29.486  1.00  0.00     0.142 C 
HETATM    7  C5  UNL     1     -11.660  46.206 -30.311  1.00  0.00     0.039 C 
HETATM    8  C6  UNL     1     -10.345  46.308 -29.512  1.00  0.00     0.006 C 
HETATM    9  C7  UNL     1     -10.041  44.995 -28.738  1.00  0.00    -0.027 A 
HETATM   10  C8  UNL     1      -8.590  44.435 -28.746  1.00  0.00     0.011 C 
HETATM   11  C9  UNL     1      -7.474  45.233 -29.431  1.00  0.00     0.011 C 
HETATM   12  C10 UNL     1      -7.814  46.710 -29.604  1.00  0.00    -0.032 C 
HETATM   13  C11 UNL     1      -7.879  47.372 -28.206  1.00  0.00     0.016 C 
HETATM   14  C12 UNL     1      -6.843  47.497 -30.538  1.00  0.00    -0.002 C 
HETATM   15  C21 UNL     1      -7.727  48.609 -31.143  1.00  0.00     0.006 C 
HETATM   16  C22 UNL     1      -9.188  48.259 -30.798  1.00  0.00     0.011 C 
HETATM   17  C23 UNL     1      -9.159  46.770 -30.407  1.00  0.00    -0.032 C 
HETATM   18  C24 UNL     1      -9.148  45.943 -31.734  1.00  0.00     0.016 C 
HETATM   19  C25 UNL     1     -10.651  44.922 -27.340  1.00  0.00     0.022 A 
HETATM   20  C26 UNL     1     -11.248  44.052 -28.415  1.00  0.00    -0.021 A 
HETATM   21  C31 UNL     1     -12.684  44.393 -28.864  1.00  0.00     0.063 C 
ENDROOT
BRANCH  14  22
HETATM   22  C13 UNL     1      -5.401  47.868 -30.077  1.00  0.00    -0.014 C 
HETATM   23  C14 UNL     1      -5.049  49.271 -30.611  1.00  0.00     0.010 C 
BRANCH  22  24
HETATM   24  C15 UNL     1      -4.947  47.708 -28.602  1.00  0.00     0.008 C 
BRANCH  24  25
HETATM   25  C16 UNL     1      -4.167  48.808 -27.867  1.00  0.00     0.028 C 
BRANCH  25  26
HETATM   26  C17 UNL     1      -4.041  48.588 -26.389  1.00  0.00    -0.025 C 
HETATM   27  C18 UNL     1      -3.088  49.050 -25.556  1.00  0.00    -0.091 C 
HETATM   28  C19 UNL     1      -1.968  49.973 -25.946  1.00  0.00     0.042 C 
HETATM   29  C20 UNL     1      -3.090  48.644 -24.105  1.00  0.00     0.042 C 
ENDBRANCH  25  26
ENDBRANCH  24  25
ENDBRANCH  22  24
ENDBRANCH  14  22
BRANCH  20  30
HETATM   30  C27 UNL     1     -10.993  42.546 -28.298  1.00  0.00     0.021 C 
BRANCH  30  31
HETATM   31  C28 UNL     1     -11.179  41.819 -29.630  1.00  0.00     0.112 C 
BRANCH  31  32
HETATM   32  C29 UNL     1     -12.200  40.719 -29.497  1.00  0.00     0.258 C 
HETATM   33  O3  UNL     1     -13.171  40.768 -28.750  1.00  0.00    -0.265 OA
BRANCH  32  34
HETATM   34  O4  UNL     1     -11.887  39.675 -30.313  1.00  0.00    -0.326 OA
HETATM   35  C30 UNL     1     -11.243  40.066 -31.530  1.00  0.00     0.213 C 
ENDBRANCH  32  34
ENDBRANCH  31  32
ENDBRANCH  30  31
ENDBRANCH  20  30
TORSDOF 8
ENDMDL
MODEL 9
REMARK minimizedAffinity -6.544065
REMARK CNNscore 0.253286868
REMARK CNNaffinity 5.68759727
REMARK  8 active torsions:
REMARK  status: ('A' for Active; 'I' for Inactive)
REMARK    1  A    between atoms: C12_14  and  C13_15 
REMARK    2  A    between atoms: C13_15  and  C15_17 
REMARK    3  A    between atoms: C15_17  and  C16_18 
REMARK    4  A    between atoms: C16_18  and  C17_19 
REMARK    5  A    between atoms: C26_28  and  C27_29 
REMARK    6  A    between atoms: C27_29  and  C28_30 
REMARK    7  A    between atoms: C28_30  and  C29_31 
REMARK    8  A    between atoms: C29_31  and  O4_33 
ROOT
HETATM    1  C1  UNL     1      -5.372  47.979 -34.041  1.00  0.00     0.025 C 
HETATM    2  C2  UNL     1      -5.889  47.472 -32.916  1.00  0.00     0.015 C 
HETATM    3  C3  UNL     1      -5.363  47.800 -31.566  1.00  0.00     0.289 C 
HETATM    4  O1  UNL     1      -4.588  48.699 -31.291  1.00  0.00    -0.260 OA
HETATM    5  O2  UNL     1      -5.929  46.927 -30.678  1.00  0.00    -0.311 OA
HETATM    6  C4  UNL     1      -6.557  45.880 -31.423  1.00  0.00     0.142 C 
HETATM    7  C5  UNL     1      -7.690  45.204 -30.673  1.00  0.00     0.039 C 
HETATM    8  C6  UNL     1      -8.855  46.144 -30.304  1.00  0.00     0.006 C 
HETATM    9  C7  UNL     1      -9.388  46.912 -31.546  1.00  0.00    -0.027 A 
HETATM   10  C8  UNL     1     -10.924  47.048 -31.744  1.00  0.00     0.011 C 
HETATM   11  C9  UNL     1     -11.878  46.512 -30.670  1.00  0.00     0.011 C 
HETATM   12  C10 UNL     1     -11.210  46.342 -29.309  1.00  0.00    -0.032 C 
HETATM   13  C11 UNL     1     -10.848  47.742 -28.756  1.00  0.00     0.016 C 
HETATM   14  C12 UNL     1     -12.051  45.542 -28.267  1.00  0.00    -0.002 C 
HETATM   15  C21 UNL     1     -10.991  44.874 -27.366  1.00  0.00     0.006 C 
HETATM   16  C22 UNL     1      -9.630  45.046 -28.070  1.00  0.00     0.011 C 
HETATM   17  C23 UNL     1      -9.978  45.398 -29.528  1.00  0.00    -0.032 C 
HETATM   18  C24 UNL     1     -10.321  44.059 -30.258  1.00  0.00     0.016 C 
HETATM   19  C25 UNL     1      -8.676  48.232 -31.834  1.00  0.00     0.022 A 
HETATM   20  C26 UNL     1      -8.418  47.075 -32.763  1.00  0.00    -0.021 A 
HETATM   21  C31 UNL     1      -6.994  46.480 -32.749  1.00  0.00     0.063 C 
ENDROOT
BRANCH  14  22
HETATM   22  C13 UNL     1     -13.308  46.169 -27.589  1.00  0.00    -0.014 C 
HETATM   23  C14 UNL     1     -14.574  45.628 -28.283  1.00  0.00     0.010 C 
BRANCH  22  24
HETATM   24  C15 UNL     1     -13.485  46.182 -26.048  1.00  0.00     0.008 C 
BRANCH  24  25
HETATM   25  C16 UNL     1     -14.617  46.965 -25.366  1.00  0.00     0.028 C 
BRANCH  25  26
HETATM   26  C17 UNL     1     -15.267  46.236 -24.227  1.00  0.00    -0.025 C 
HETATM   27  C18 UNL     1     -16.569  46.222 -23.883  1.00  0.00    -0.091 C 
HETATM   28  C19 UNL     1     -17.676  46.894 -24.645  1.00  0.00     0.042 C 
HETATM   29  C20 UNL     1     -17.016  45.491 -22.643  1.00  0.00     0.042 C 
ENDBRANCH  25  26
ENDBRANCH  24  25
ENDBRANCH  22  24
ENDBRANCH  14  22
BRANCH  20  30
HETATM   30  C27 UNL     1      -9.016  47.178 -34.170  1.00  0.00     0.021 C 
BRANCH  30  31
HETATM   31  C28 UNL     1      -7.943  47.191 -35.259  1.00  0.00     0.112 C 
BRANCH  31  32
HETATM   32  C29 UNL     1      -8.565  47.395 -36.616  1.00  0.00     0.258 C 
HETATM   33  O3  UNL     1      -9.760  47.259 -36.852  1.00  0.00    -0.265 OA
BRANCH  32  34
HETATM   34  O4  UNL     1      -7.616  47.742 -37.529  1.00  0.00    -0.326 OA
HETATM   35  C30 UNL     1      -7.949  48.904 -38.295  1.00  0.00     0.213 C 
ENDBRANCH  32  34
ENDBRANCH  31  32
ENDBRANCH  30  31
ENDBRANCH  20  30
TORSDOF 8
ENDMDL
