MODEL 1
REMARK minimizedAffinity -8.85499287
REMARK CNNscore 0.463352829
REMARK CNNaffinity 6.66847229
REMARK  11 active torsions:
REMARK  status: ('A' for Active; 'I' for Inactive)
REMARK    1  A    between atoms: C3_3  and  O1_4 
REMARK    2  A    between atoms: N1_14  and  O2_16 
REMARK    3  A    between atoms: O2_16  and  C13_17 
REMARK    4  A    between atoms: C13_17  and  C14_18 
REMARK       I    between atoms: C14_18  and  N2_20 
REMARK    5  A    between atoms: N2_20  and  C15_21 
REMARK    6  A    between atoms: C15_21  and  C16_22 
REMARK    7  A    between atoms: C15_21  and  C17_25 
REMARK    8  A    between atoms: C16_22  and  O5_24 
REMARK    9  A    between atoms: C17_25  and  O6_26 
REMARK   10  A    between atoms: C17_25  and  C18_27 
REMARK   11  A    between atoms: C22_31  and  N3_32 
ROOT
HETATM    1  C1  UNL     1      -0.057  49.946 -17.946  1.00  0.00     0.015 C 
HETATM    2  C2  UNL     1      -1.103  49.509 -18.341  1.00  0.00    -0.078 C 
HETATM    3  C3  UNL     1      -2.409  49.019 -18.812  1.00  0.00     0.128 C 
HETATM    4  C4  UNL     1      -2.374  47.542 -19.227  1.00  0.00     0.052 C 
HETATM    5  C5  UNL     1      -3.478  47.380 -20.281  1.00  0.00     0.010 C 
HETATM    6  C6  UNL     1      -4.072  48.782 -20.525  1.00  0.00     0.002 C 
HETATM    7  C7  UNL     1      -4.620  49.043 -21.947  1.00  0.00    -0.004 C 
HETATM    8  C8  UNL     1      -5.630  47.964 -22.364  1.00  0.00     0.010 C 
HETATM    9  C9  UNL     1      -6.272  48.297 -23.705  1.00  0.00     0.035 C 
HETATM   10  C10 UNL     1      -5.254  48.537 -24.794  1.00  0.00    -0.069 C 
HETATM   11  C11 UNL     1      -5.443  47.985 -26.006  1.00  0.00     0.030 C 
HETATM   12  C12 UNL     1      -4.591  48.345 -27.175  1.00  0.00     0.032 C 
HETATM   13  N1  UNL     1      -4.809  48.005 -28.412  1.00  0.00    -0.271 N 
ATOM     14  H1  UNL     1      -4.218  48.295 -29.190  1.00  0.00     0.194 HD
HETATM   15  C24 UNL     1      -3.418  49.272 -26.938  1.00  0.00     0.060 C 
HETATM   16  C25 UNL     1      -2.951  49.254 -25.494  1.00  0.00     0.020 C 
HETATM   17  C26 UNL     1      -4.094  49.482 -24.464  1.00  0.00    -0.016 C 
HETATM   18  C27 UNL     1      -4.617  50.933 -24.591  1.00  0.00     0.020 C 
HETATM   19  C28 UNL     1      -3.516  49.186 -23.023  1.00  0.00     0.002 C 
HETATM   20  C29 UNL     1      -2.462  50.214 -22.566  1.00  0.00     0.007 C 
HETATM   21  C30 UNL     1      -1.879  49.880 -21.194  1.00  0.00     0.014 C 
HETATM   22  C31 UNL     1      -2.949  49.751 -20.078  1.00  0.00     0.003 C 
HETATM   23  C32 UNL     1      -3.522  51.143 -19.739  1.00  0.00     0.020 C 
ENDROOT
BRANCH   3  24
HETATM   24  O1  UNL     1      -3.351  49.140 -17.743  1.00  0.00    -0.377 OA
HETATM   25  H2  UNL     1      -2.910  48.818 -16.934  1.00  0.00     0.211 HD
ENDBRANCH   3  24
BRANCH  13  26
HETATM   26  O2  UNL     1      -5.946  47.199 -28.557  1.00  0.00    -0.271 OA
BRANCH  26  27
HETATM   27  C13 UNL     1      -7.031  48.017 -28.989  1.00  0.00     0.303 C 
BRANCH  27  28
HETATM   28  C14 UNL     1      -8.275  47.685 -28.181  1.00  0.00     0.244 C 
HETATM   29  O3  UNL     1      -8.400  47.980 -26.997  1.00  0.00    -0.271 OA
HETATM   30  N2  UNL     1      -9.291  47.109 -28.921  1.00  0.00    -0.342 N 
HETATM   31  H16 UNL     1      -9.001  46.629 -29.774  1.00  0.00     0.163 HD
BRANCH  30  32
HETATM   32  C15 UNL     1     -10.506  46.570 -28.268  1.00  0.00     0.216 C 
BRANCH  32  33
HETATM   33  C16 UNL     1     -10.469  45.042 -28.307  1.00  0.00     0.166 C 
HETATM   34  O4  UNL     1     -10.635  44.283 -27.367  1.00  0.00    -0.648 OA
BRANCH  33  35
HETATM   35  O5  UNL     1     -10.254  44.536 -29.547  1.00  0.00    -0.775 OA
HETATM   36  H18 UNL     1     -10.251  43.563 -29.411  1.00  0.00     0.167 HD
ENDBRANCH  33  35
ENDBRANCH  32  33
BRANCH  32  37
HETATM   37  C17 UNL     1     -11.791  47.049 -28.987  1.00  0.00     0.184 C 
BRANCH  37  38
HETATM   38  O6  UNL     1     -11.878  48.482 -29.029  1.00  0.00    -0.388 OA
HETATM   39  H20 UNL     1     -10.963  48.813 -29.020  1.00  0.00     0.210 HD
ENDBRANCH  37  38
BRANCH  37  40
HETATM   40  C18 UNL     1     -13.067  46.559 -28.334  1.00  0.00    -0.025 A 
HETATM   41  C19 UNL     1     -13.927  45.677 -29.013  1.00  0.00     0.010 A 
HETATM   42  C20 UNL     1     -15.100  45.208 -28.412  1.00  0.00     0.003 A 
HETATM   43  C21 UNL     1     -15.433  45.611 -27.120  1.00  0.00     0.036 A 
HETATM   44  C22 UNL     1     -14.588  46.494 -26.438  1.00  0.00     0.103 A 
HETATM   45  C23 UNL     1     -13.410  46.969 -27.037  1.00  0.00     0.045 A 
BRANCH  44  46
HETATM   46  N3  UNL     1     -14.936  46.922 -25.075  1.00  0.00    -0.116 N 
HETATM   47  O7  UNL     1     -14.013  47.281 -24.330  1.00  0.00    -0.532 OA
HETATM   48  O8  UNL     1     -16.131  46.903 -24.749  1.00  0.00    -0.532 OA
ENDBRANCH  44  46
ENDBRANCH  37  40
ENDBRANCH  32  37
ENDBRANCH  30  32
ENDBRANCH  27  28
ENDBRANCH  26  27
ENDBRANCH  13  26
TORSDOF 11
ENDMDL
MODEL 2
REMARK minimizedAffinity -10.0507803
REMARK CNNscore 0.396333903
REMARK CNNaffinity 6.83946228
REMARK  11 active torsions:
REMARK  status: ('A' for Active; 'I' for Inactive)
REMARK    1  A    between atoms: C3_3  and  O1_4 
REMARK    2  A    between atoms: N1_14  and  O2_16 
REMARK    3  A    between atoms: O2_16  and  C13_17 
REMARK    4  A    between atoms: C13_17  and  C14_18 
REMARK       I    between atoms: C14_18  and  N2_20 
REMARK    5  A    between atoms: N2_20  and  C15_21 
REMARK    6  A    between atoms: C15_21  and  C16_22 
REMARK    7  A    between atoms: C15_21  and  C17_25 
REMARK    8  A    between atoms: C16_22  and  O5_24 
REMARK    9  A    between atoms: C17_25  and  O6_26 
REMARK   10  A    between atoms: C17_25  and  C18_27 
REMARK   11  A    between atoms: C22_31  and  N3_32 
ROOT
HETATM    1  C1  UNL     1      -3.690  48.592 -27.403  1.00  0.00     0.015 C 
HETATM    2  C2  UNL     1      -3.076  49.468 -26.858  1.00  0.00    -0.078 C 
HETATM    3  C3  UNL     1      -2.369  50.572 -26.188  1.00  0.00     0.128 C 
HETATM    4  C4  UNL     1      -0.854  50.342 -26.105  1.00  0.00     0.052 C 
HETATM    5  C5  UNL     1      -0.383  51.116 -24.866  1.00  0.00     0.010 C 
HETATM    6  C6  UNL     1      -1.644  51.704 -24.200  1.00  0.00     0.002 C 
HETATM    7  C7  UNL     1      -1.580  51.870 -22.665  1.00  0.00    -0.004 C 
HETATM    8  C8  UNL     1      -0.340  52.668 -22.239  1.00  0.00     0.010 C 
HETATM    9  C9  UNL     1      -0.351  52.950 -20.742  1.00  0.00     0.035 C 
HETATM   10  C10 UNL     1      -0.498  51.695 -19.915  1.00  0.00    -0.069 C 
HETATM   11  C11 UNL     1       0.283  51.524 -18.833  1.00  0.00     0.030 C 
HETATM   12  C12 UNL     1       0.051  50.414 -17.864  1.00  0.00     0.032 C 
HETATM   13  N1  UNL     1       0.631  50.276 -16.709  1.00  0.00    -0.271 N 
ATOM     14  H1  UNL     1       0.424  49.517 -16.059  1.00  0.00     0.194 HD
HETATM   15  C24 UNL     1      -1.027  49.402 -18.191  1.00  0.00     0.060 C 
HETATM   16  C25 UNL     1      -1.323  49.335 -19.678  1.00  0.00     0.020 C 
HETATM   17  C26 UNL     1      -1.609  50.721 -20.322  1.00  0.00    -0.016 C 
HETATM   18  C27 UNL     1      -2.947  51.276 -19.777  1.00  0.00     0.020 C 
HETATM   19  C28 UNL     1      -1.645  50.530 -21.892  1.00  0.00     0.002 C 
HETATM   20  C29 UNL     1      -2.848  49.697 -22.376  1.00  0.00     0.007 C 
HETATM   21  C30 UNL     1      -2.835  49.480 -23.889  1.00  0.00     0.014 C 
HETATM   22  C31 UNL     1      -2.796  50.799 -24.705  1.00  0.00     0.003 C 
HETATM   23  C32 UNL     1      -4.155  51.521 -24.600  1.00  0.00     0.020 C 
ENDROOT
BRANCH   3  24
HETATM   24  O1  UNL     1      -2.579  51.769 -26.941  1.00  0.00    -0.377 OA
HETATM   25  H2  UNL     1      -2.460  51.541 -27.882  1.00  0.00     0.211 HD
ENDBRANCH   3  24
BRANCH  13  26
HETATM   26  O2  UNL     1       1.570  51.285 -16.453  1.00  0.00    -0.271 OA
BRANCH  26  27
HETATM   27  C13 UNL     1       1.008  52.201 -15.516  1.00  0.00     0.303 C 
BRANCH  27  28
HETATM   28  C14 UNL     1       1.324  51.742 -14.101  1.00  0.00     0.244 C 
HETATM   29  O3  UNL     1       0.598  50.980 -13.469  1.00  0.00    -0.271 OA
HETATM   30  N2  UNL     1       2.547  52.177 -13.626  1.00  0.00    -0.342 N 
HETATM   31  H16 UNL     1       2.916  53.022 -14.064  1.00  0.00     0.163 HD
BRANCH  30  32
HETATM   32  C15 UNL     1       2.942  51.965 -12.215  1.00  0.00     0.216 C 
BRANCH  32  33
HETATM   33  C16 UNL     1       2.657  50.516 -11.819  1.00  0.00     0.166 C 
HETATM   34  O4  UNL     1       3.233  49.521 -12.224  1.00  0.00    -0.648 OA
BRANCH  33  35
HETATM   35  O5  UNL     1       1.671  50.390 -10.897  1.00  0.00    -0.775 OA
HETATM   36  H18 UNL     1       1.601  49.421 -10.752  1.00  0.00     0.167 HD
ENDBRANCH  33  35
ENDBRANCH  32  33
BRANCH  32  37
HETATM   37  C17 UNL     1       2.153  52.898 -11.264  1.00  0.00     0.184 C 
BRANCH  37  38
HETATM   38  O6  UNL     1       1.063  53.549 -11.936  1.00  0.00    -0.388 OA
HETATM   39  H20 UNL     1       0.790  52.955 -12.656  1.00  0.00     0.210 HD
ENDBRANCH  37  38
BRANCH  37  40
HETATM   40  C18 UNL     1       3.000  53.996 -10.653  1.00  0.00    -0.025 A 
HETATM   41  C19 UNL     1       2.517  55.314 -10.573  1.00  0.00     0.010 A 
HETATM   42  C20 UNL     1       3.285  56.331  -9.998  1.00  0.00     0.003 A 
HETATM   43  C21 UNL     1       4.552  56.046  -9.490  1.00  0.00     0.036 A 
HETATM   44  C22 UNL     1       5.046  54.739  -9.571  1.00  0.00     0.103 A 
HETATM   45  C23 UNL     1       4.278  53.715 -10.148  1.00  0.00     0.045 A 
BRANCH  44  46
HETATM   46  N3  UNL     1       6.381  54.435  -9.036  1.00  0.00    -0.116 N 
HETATM   47  O7  UNL     1       6.837  55.184  -8.161  1.00  0.00    -0.532 OA
HETATM   48  O8  UNL     1       6.976  53.446  -9.488  1.00  0.00    -0.532 OA
ENDBRANCH  44  46
ENDBRANCH  37  40
ENDBRANCH  32  37
ENDBRANCH  30  32
ENDBRANCH  27  28
ENDBRANCH  26  27
ENDBRANCH  13  26
TORSDOF 11
ENDMDL
MODEL 3
REMARK minimizedAffinity -9.32928181
REMARK CNNscore 0.353863955
REMARK CNNaffinity 6.39662981
REMARK  11 active torsions:
REMARK  status: ('A' for Active; 'I' for Inactive)
REMARK    1  A    between atoms: C3_3  and  O1_4 
REMARK    2  A    between atoms: N1_14  and  O2_16 
REMARK    3  A    between atoms: O2_16  and  C13_17 
REMARK    4  A    between atoms: C13_17  and  C14_18 
REMARK       I    between atoms: C14_18  and  N2_20 
REMARK    5  A    between atoms: N2_20  and  C15_21 
REMARK    6  A    between atoms: C15_21  and  C16_22 
REMARK    7  A    between atoms: C15_21  and  C17_25 
REMARK    8  A    between atoms: C16_22  and  O5_24 
REMARK    9  A    between atoms: C17_25  and  O6_26 
REMARK   10  A    between atoms: C17_25  and  C18_27 
REMARK   11  A    between atoms: C22_31  and  N3_32 
ROOT
HETATM    1  C1  UNL     1       0.566  55.667 -25.102  1.00  0.00     0.015 C 
HETATM    2  C2  UNL     1       0.300  54.610 -25.605  1.00  0.00    -0.078 C 
HETATM    3  C3  UNL     1       0.012  53.290 -26.190  1.00  0.00     0.128 C 
HETATM    4  C4  UNL     1      -0.965  53.365 -27.371  1.00  0.00     0.052 C 
HETATM    5  C5  UNL     1      -1.681  52.008 -27.406  1.00  0.00     0.010 C 
HETATM    6  C6  UNL     1      -1.175  51.204 -26.190  1.00  0.00     0.002 C 
HETATM    7  C7  UNL     1      -2.179  50.200 -25.580  1.00  0.00    -0.004 C 
HETATM    8  C8  UNL     1      -2.735  49.247 -26.648  1.00  0.00     0.010 C 
HETATM    9  C9  UNL     1      -3.615  48.172 -26.023  1.00  0.00     0.035 C 
HETATM   10  C10 UNL     1      -4.728  48.749 -25.180  1.00  0.00    -0.069 C 
HETATM   11  C11 UNL     1      -5.971  48.246 -25.295  1.00  0.00     0.030 C 
HETATM   12  C12 UNL     1      -7.063  48.627 -24.354  1.00  0.00     0.032 C 
HETATM   13  N1  UNL     1      -8.232  48.065 -24.275  1.00  0.00    -0.271 N 
ATOM     14  H1  UNL     1      -8.945  48.335 -23.597  1.00  0.00     0.194 HD
HETATM   15  C24 UNL     1      -6.768  49.695 -23.322  1.00  0.00     0.060 C 
HETATM   16  C25 UNL     1      -5.624  50.600 -23.739  1.00  0.00     0.020 C 
HETATM   17  C26 UNL     1      -4.341  49.832 -24.167  1.00  0.00    -0.016 C 
HETATM   18  C27 UNL     1      -3.729  49.127 -22.933  1.00  0.00     0.020 C 
HETATM   19  C28 UNL     1      -3.341  50.874 -24.809  1.00  0.00     0.002 C 
HETATM   20  C29 UNL     1      -2.782  51.888 -23.792  1.00  0.00     0.007 C 
HETATM   21  C30 UNL     1      -1.859  52.918 -24.442  1.00  0.00     0.014 C 
HETATM   22  C31 UNL     1      -0.666  52.287 -25.206  1.00  0.00     0.003 C 
HETATM   23  C32 UNL     1       0.344  51.693 -24.202  1.00  0.00     0.020 C 
ENDROOT
BRANCH   3  24
HETATM   24  O1  UNL     1       1.235  52.735 -26.681  1.00  0.00    -0.377 OA
HETATM   25  H2  UNL     1       1.704  53.448 -27.155  1.00  0.00     0.211 HD
ENDBRANCH   3  24
BRANCH  13  26
HETATM   26  O2  UNL     1      -8.406  47.046 -25.222  1.00  0.00    -0.271 OA
BRANCH  26  27
HETATM   27  C13 UNL     1      -9.462  47.422 -26.103  1.00  0.00     0.303 C 
BRANCH  27  28
HETATM   28  C14 UNL     1     -10.794  46.969 -25.527  1.00  0.00     0.244 C 
HETATM   29  O3  UNL     1     -11.200  47.326 -24.425  1.00  0.00    -0.271 OA
HETATM   30  N2  UNL     1     -11.551  46.200 -26.391  1.00  0.00    -0.342 N 
HETATM   31  H16 UNL     1     -11.031  45.709 -27.118  1.00  0.00     0.163 HD
BRANCH  30  32
HETATM   32  C15 UNL     1     -12.796  45.538 -25.939  1.00  0.00     0.216 C 
BRANCH  32  33
HETATM   33  C16 UNL     1     -13.033  44.278 -26.772  1.00  0.00     0.166 C 
HETATM   34  O4  UNL     1     -12.451  43.957 -27.795  1.00  0.00    -0.648 OA
BRANCH  33  35
HETATM   35  O5  UNL     1     -13.982  43.457 -26.256  1.00  0.00    -0.775 OA
HETATM   36  H18 UNL     1     -14.025  42.710 -26.893  1.00  0.00     0.167 HD
ENDBRANCH  33  35
ENDBRANCH  32  33
BRANCH  32  37
HETATM   37  C17 UNL     1     -14.021  46.471 -26.101  1.00  0.00     0.184 C 
BRANCH  37  38
HETATM   38  O6  UNL     1     -13.628  47.822 -26.392  1.00  0.00    -0.388 OA
HETATM   39  H20 UNL     1     -12.774  47.766 -26.854  1.00  0.00     0.210 HD
ENDBRANCH  37  38
BRANCH  37  40
HETATM   40  C18 UNL     1     -14.899  46.534 -24.868  1.00  0.00    -0.025 A 
HETATM   41  C19 UNL     1     -14.330  46.573 -23.583  1.00  0.00     0.010 A 
HETATM   42  C20 UNL     1     -15.133  46.646 -22.440  1.00  0.00     0.003 A 
HETATM   43  C21 UNL     1     -16.521  46.683 -22.562  1.00  0.00     0.036 A 
HETATM   44  C22 UNL     1     -17.099  46.638 -23.836  1.00  0.00     0.103 A 
HETATM   45  C23 UNL     1     -16.297  46.564 -24.987  1.00  0.00     0.045 A 
BRANCH  44  46
HETATM   46  N3  UNL     1     -18.562  46.677 -23.970  1.00  0.00    -0.116 N 
HETATM   47  O7  UNL     1     -19.033  47.064 -25.048  1.00  0.00    -0.532 OA
HETATM   48  O8  UNL     1     -19.243  46.318 -22.998  1.00  0.00    -0.532 OA
ENDBRANCH  44  46
ENDBRANCH  37  40
ENDBRANCH  32  37
ENDBRANCH  30  32
ENDBRANCH  27  28
ENDBRANCH  26  27
ENDBRANCH  13  26
TORSDOF 11
ENDMDL
MODEL 4
REMARK minimizedAffinity -8.82738018
REMARK CNNscore 0.350368679
REMARK CNNaffinity 6.555758
REMARK  11 active torsions:
REMARK  status: ('A' for Active; 'I' for Inactive)
REMARK    1  A    between atoms: C3_3  and  O1_4 
REMARK    2  A    between atoms: N1_14  and  O2_16 
REMARK    3  A    between atoms: O2_16  and  C13_17 
REMARK    4  A    between atoms: C13_17  and  C14_18 
REMARK       I    between atoms: C14_18  and  N2_20 
REMARK    5  A    between atoms: N2_20  and  C15_21 
REMARK    6  A    between atoms: C15_21  and  C16_22 
REMARK    7  A    between atoms: C15_21  and  C17_25 
REMARK    8  A    between atoms: C16_22  and  O5_24 
REMARK    9  A    between atoms: C17_25  and  O6_26 
REMARK   10  A    between atoms: C17_25  and  C18_27 
REMARK   11  A    between atoms: C22_31  and  N3_32 
ROOT
HETATM    1  C1  UNL     1       0.276  51.120 -21.373  1.00  0.00     0.015 C 
HETATM    2  C2  UNL     1      -0.523  50.296 -21.023  1.00  0.00    -0.078 C 
HETATM    3  C3  UNL     1      -1.528  49.323 -20.563  1.00  0.00     0.128 C 
HETATM    4  C4  UNL     1      -1.215  47.890 -21.013  1.00  0.00     0.052 C 
HETATM    5  C5  UNL     1      -2.570  47.175 -21.099  1.00  0.00     0.010 C 
HETATM    6  C6  UNL     1      -3.652  48.230 -20.789  1.00  0.00     0.002 C 
HETATM    7  C7  UNL     1      -5.017  48.019 -21.483  1.00  0.00    -0.004 C 
HETATM    8  C8  UNL     1      -5.566  46.610 -21.222  1.00  0.00     0.010 C 
HETATM    9  C9  UNL     1      -6.972  46.451 -21.788  1.00  0.00     0.035 C 
HETATM   10  C10 UNL     1      -7.051  46.800 -23.255  1.00  0.00    -0.069 C 
HETATM   11  C11 UNL     1      -7.736  45.996 -24.088  1.00  0.00     0.030 C 
HETATM   12  C12 UNL     1      -8.023  46.387 -25.498  1.00  0.00     0.032 C 
HETATM   13  N1  UNL     1      -8.823  45.766 -26.314  1.00  0.00    -0.271 N 
ATOM     14  H1  UNL     1      -9.017  46.080 -27.265  1.00  0.00     0.194 HD
HETATM   15  C24 UNL     1      -7.419  47.676 -26.014  1.00  0.00     0.060 C 
HETATM   16  C25 UNL     1      -6.186  48.088 -25.230  1.00  0.00     0.020 C 
HETATM   17  C26 UNL     1      -6.404  48.119 -23.691  1.00  0.00    -0.016 C 
HETATM   18  C27 UNL     1      -7.381  49.265 -23.333  1.00  0.00     0.020 C 
HETATM   19  C28 UNL     1      -4.993  48.310 -23.004  1.00  0.00     0.002 C 
HETATM   20  C29 UNL     1      -4.369  49.695 -23.267  1.00  0.00     0.007 C 
HETATM   21  C30 UNL     1      -2.984  49.839 -22.639  1.00  0.00     0.014 C 
HETATM   22  C31 UNL     1      -2.966  49.581 -21.110  1.00  0.00     0.003 C 
HETATM   23  C32 UNL     1      -3.662  50.744 -20.373  1.00  0.00     0.020 C 
ENDROOT
BRANCH   3  24
HETATM   24  O1  UNL     1      -1.544  49.329 -19.134  1.00  0.00    -0.377 OA
HETATM   25  H2  UNL     1      -0.615  49.330 -18.836  1.00  0.00     0.211 HD
ENDBRANCH   3  24
BRANCH  13  26
HETATM   26  O2  UNL     1      -9.390  44.617 -25.744  1.00  0.00    -0.271 OA
BRANCH  26  27
HETATM   27  C13 UNL     1     -10.385  44.114 -26.633  1.00  0.00     0.303 C 
BRANCH  27  28
HETATM   28  C14 UNL     1     -11.766  44.477 -26.112  1.00  0.00     0.244 C 
HETATM   29  O3  UNL     1     -12.137  44.222 -24.970  1.00  0.00    -0.271 OA
HETATM   30  N2  UNL     1     -12.532  45.206 -27.003  1.00  0.00    -0.342 N 
HETATM   31  H16 UNL     1     -12.287  45.099 -27.987  1.00  0.00     0.163 HD
BRANCH  30  32
HETATM   32  C15 UNL     1     -13.957  45.501 -26.728  1.00  0.00     0.216 C 
BRANCH  32  33
HETATM   33  C16 UNL     1     -14.729  45.553 -28.046  1.00  0.00     0.166 C 
HETATM   34  O4  UNL     1     -15.871  45.171 -28.240  1.00  0.00    -0.648 OA
BRANCH  33  35
HETATM   35  O5  UNL     1     -14.032  46.119 -29.062  1.00  0.00    -0.775 OA
HETATM   36  H18 UNL     1     -14.645  46.075 -29.828  1.00  0.00     0.167 HD
ENDBRANCH  33  35
ENDBRANCH  32  33
BRANCH  32  37
HETATM   37  C17 UNL     1     -14.121  46.863 -26.009  1.00  0.00     0.184 C 
BRANCH  37  38
HETATM   38  O6  UNL     1     -12.862  47.380 -25.549  1.00  0.00    -0.388 OA
HETATM   39  H20 UNL     1     -12.184  47.027 -26.151  1.00  0.00     0.210 HD
ENDBRANCH  37  38
BRANCH  37  40
HETATM   40  C18 UNL     1     -15.029  46.802 -24.798  1.00  0.00    -0.025 A 
HETATM   41  C19 UNL     1     -14.500  46.895 -23.499  1.00  0.00     0.010 A 
HETATM   42  C20 UNL     1     -15.332  46.854 -22.376  1.00  0.00     0.003 A 
HETATM   43  C21 UNL     1     -16.711  46.721 -22.533  1.00  0.00     0.036 A 
HETATM   44  C22 UNL     1     -17.249  46.620 -23.821  1.00  0.00     0.103 A 
HETATM   45  C23 UNL     1     -16.417  46.660 -24.952  1.00  0.00     0.045 A 
BRANCH  44  46
HETATM   46  N3  UNL     1     -18.702  46.480 -23.991  1.00  0.00    -0.116 N 
HETATM   47  O7  UNL     1     -19.295  45.683 -23.250  1.00  0.00    -0.532 OA
HETATM   48  O8  UNL     1     -19.253  47.168 -24.862  1.00  0.00    -0.532 OA
ENDBRANCH  44  46
ENDBRANCH  37  40
ENDBRANCH  32  37
ENDBRANCH  30  32
ENDBRANCH  27  28
ENDBRANCH  26  27
ENDBRANCH  13  26
TORSDOF 11
ENDMDL
MODEL 5
REMARK minimizedAffinity -10.1942043
REMARK CNNscore 0.334861219
REMARK CNNaffinity 7.31886053
REMARK  11 active torsions:
REMARK  status: ('A' for Active; 'I' for Inactive)
REMARK    1  A    between atoms: C3_3  and  O1_4 
REMARK    2  A    between atoms: N1_14  and  O2_16 
REMARK    3  A    between atoms: O2_16  and  C13_17 
REMARK    4  A    between atoms: C13_17  and  C14_18 
REMARK       I    between atoms: C14_18  and  N2_20 
REMARK    5  A    between atoms: N2_20  and  C15_21 
REMARK    6  A    between atoms: C15_21  and  C16_22 
REMARK    7  A    between atoms: C15_21  and  C17_25 
REMARK    8  A    between atoms: C16_22  and  O5_24 
REMARK    9  A    between atoms: C17_25  and  O6_26 
REMARK   10  A    between atoms: C17_25  and  C18_27 
REMARK   11  A    between atoms: C22_31  and  N3_32 
ROOT
HETATM    1  C1  UNL     1       1.618  51.837 -28.225  1.00  0.00     0.015 C 
HETATM    2  C2  UNL     1       0.911  52.288 -27.366  1.00  0.00    -0.078 C 
HETATM    3  C3  UNL     1       0.008  52.854 -26.351  1.00  0.00     0.128 C 
HETATM    4  C4  UNL     1       0.636  52.890 -24.952  1.00  0.00     0.052 C 
HETATM    5  C5  UNL     1      -0.538  52.813 -23.966  1.00  0.00     0.010 C 
HETATM    6  C6  UNL     1      -1.818  52.642 -24.808  1.00  0.00     0.002 C 
HETATM    7  C7  UNL     1      -2.962  51.843 -24.141  1.00  0.00    -0.004 C 
HETATM    8  C8  UNL     1      -3.313  52.416 -22.761  1.00  0.00     0.010 C 
HETATM    9  C9  UNL     1      -4.530  51.717 -22.167  1.00  0.00     0.035 C 
HETATM   10  C10 UNL     1      -4.367  50.217 -22.106  1.00  0.00    -0.069 C 
HETATM   11  C11 UNL     1      -4.728  49.560 -20.988  1.00  0.00     0.030 C 
HETATM   12  C12 UNL     1      -4.785  48.071 -20.936  1.00  0.00     0.032 C 
HETATM   13  N1  UNL     1      -5.290  47.360 -19.972  1.00  0.00    -0.271 N 
ATOM     14  H1  UNL     1      -5.337  46.341 -19.985  1.00  0.00     0.194 HD
HETATM   15  C24 UNL     1      -4.309  47.301 -22.150  1.00  0.00     0.060 C 
HETATM   16  C25 UNL     1      -3.345  48.106 -23.002  1.00  0.00     0.020 C 
HETATM   17  C26 UNL     1      -3.871  49.520 -23.377  1.00  0.00    -0.016 C 
HETATM   18  C27 UNL     1      -5.075  49.382 -24.340  1.00  0.00     0.020 C 
HETATM   19  C28 UNL     1      -2.678  50.324 -24.034  1.00  0.00     0.002 C 
HETATM   20  C29 UNL     1      -2.251  49.767 -25.406  1.00  0.00     0.007 C 
HETATM   21  C30 UNL     1      -1.064  50.526 -25.998  1.00  0.00     0.014 C 
HETATM   22  C31 UNL     1      -1.313  52.050 -26.148  1.00  0.00     0.003 C 
HETATM   23  C32 UNL     1      -2.325  52.306 -27.284  1.00  0.00     0.020 C 
ENDROOT
BRANCH   3  24
HETATM   24  O1  UNL     1      -0.298  54.203 -26.717  1.00  0.00    -0.377 OA
HETATM   25  H2  UNL     1       0.539  54.622 -26.993  1.00  0.00     0.211 HD
ENDBRANCH   3  24
BRANCH  13  26
HETATM   26  O2  UNL     1      -5.764  48.147 -18.913  1.00  0.00    -0.271 OA
BRANCH  26  27
HETATM   27  C13 UNL     1      -5.146  47.705 -17.707  1.00  0.00     0.303 C 
BRANCH  27  28
HETATM   28  C14 UNL     1      -3.935  48.574 -17.406  1.00  0.00     0.244 C 
HETATM   29  O3  UNL     1      -3.395  49.281 -18.250  1.00  0.00    -0.271 OA
HETATM   30  N2  UNL     1      -3.557  48.573 -16.076  1.00  0.00    -0.342 N 
HETATM   31  H16 UNL     1      -3.840  47.755 -15.536  1.00  0.00     0.163 HD
BRANCH  30  32
HETATM   32  C15 UNL     1      -2.305  49.229 -15.634  1.00  0.00     0.216 C 
BRANCH  32  33
HETATM   33  C16 UNL     1      -2.543  50.732 -15.484  1.00  0.00     0.166 C 
HETATM   34  O4  UNL     1      -2.987  51.489 -16.330  1.00  0.00    -0.648 OA
BRANCH  33  35
HETATM   35  O5  UNL     1      -2.236  51.209 -14.252  1.00  0.00    -0.775 OA
HETATM   36  H18 UNL     1      -2.431  52.170 -14.312  1.00  0.00     0.167 HD
ENDBRANCH  33  35
ENDBRANCH  32  33
BRANCH  32  37
HETATM   37  C17 UNL     1      -1.165  49.011 -16.658  1.00  0.00     0.184 C 
BRANCH  37  38
HETATM   38  O6  UNL     1      -0.289  47.943 -16.264  1.00  0.00    -0.388 OA
HETATM   39  H20 UNL     1      -0.825  47.330 -15.732  1.00  0.00     0.210 HD
ENDBRANCH  37  38
BRANCH  37  40
HETATM   40  C18 UNL     1      -0.291  50.233 -16.858  1.00  0.00    -0.025 A 
HETATM   41  C19 UNL     1       0.582  50.665 -15.843  1.00  0.00     0.010 A 
HETATM   42  C20 UNL     1       1.402  51.782 -16.024  1.00  0.00     0.003 A 
HETATM   43  C21 UNL     1       1.367  52.488 -17.226  1.00  0.00     0.036 A 
HETATM   44  C22 UNL     1       0.497  52.072 -18.240  1.00  0.00     0.103 A 
HETATM   45  C23 UNL     1      -0.330  50.951 -18.063  1.00  0.00     0.045 A 
BRANCH  44  46
HETATM   46  N3  UNL     1       0.456  52.813 -19.509  1.00  0.00    -0.116 N 
HETATM   47  O7  UNL     1       0.189  54.022 -19.462  1.00  0.00    -0.532 OA
HETATM   48  O8  UNL     1       0.694  52.190 -20.553  1.00  0.00    -0.532 OA
ENDBRANCH  44  46
ENDBRANCH  37  40
ENDBRANCH  32  37
ENDBRANCH  30  32
ENDBRANCH  27  28
ENDBRANCH  26  27
ENDBRANCH  13  26
TORSDOF 11
ENDMDL
MODEL 6
REMARK minimizedAffinity -10.1815624
REMARK CNNscore 0.282931089
REMARK CNNaffinity 6.45162439
REMARK  11 active torsions:
REMARK  status: ('A' for Active; 'I' for Inactive)
REMARK    1  A    between atoms: C3_3  and  O1_4 
REMARK    2  A    between atoms: N1_14  and  O2_16 
REMARK    3  A    between atoms: O2_16  and  C13_17 
REMARK    4  A    between atoms: C13_17  and  C14_18 
REMARK       I    between atoms: C14_18  and  N2_20 
REMARK    5  A    between atoms: N2_20  and  C15_21 
REMARK    6  A    between atoms: C15_21  and  C16_22 
REMARK    7  A    between atoms: C15_21  and  C17_25 
REMARK    8  A    between atoms: C16_22  and  O5_24 
REMARK    9  A    between atoms: C17_25  and  O6_26 
REMARK   10  A    between atoms: C17_25  and  C18_27 
REMARK   11  A    between atoms: C22_31  and  N3_32 
ROOT
HETATM    1  C1  UNL     1      -1.957  49.896 -26.660  1.00  0.00     0.015 C 
HETATM    2  C2  UNL     1      -1.489  50.728 -25.933  1.00  0.00    -0.078 C 
HETATM    3  C3  UNL     1      -0.963  51.774 -25.039  1.00  0.00     0.128 C 
HETATM    4  C4  UNL     1       0.551  51.660 -24.819  1.00  0.00     0.052 C 
HETATM    5  C5  UNL     1       0.817  52.277 -23.439  1.00  0.00     0.010 C 
HETATM    6  C6  UNL     1      -0.555  52.653 -22.844  1.00  0.00     0.002 C 
HETATM    7  C7  UNL     1      -0.661  52.593 -21.303  1.00  0.00    -0.004 C 
HETATM    8  C8  UNL     1       0.447  53.418 -20.633  1.00  0.00     0.010 C 
HETATM    9  C9  UNL     1       0.258  53.471 -19.122  1.00  0.00     0.035 C 
HETATM   10  C10 UNL     1       0.153  52.099 -18.500  1.00  0.00    -0.069 C 
HETATM   11  C11 UNL     1       0.835  51.833 -17.371  1.00  0.00     0.030 C 
HETATM   12  C12 UNL     1       0.617  50.576 -16.599  1.00  0.00     0.032 C 
HETATM   13  N1  UNL     1       1.090  50.316 -15.416  1.00  0.00    -0.271 N 
ATOM     14  H1  UNL     1       0.895  49.454 -14.907  1.00  0.00     0.194 HD
HETATM   15  C24 UNL     1      -0.318  49.539 -17.184  1.00  0.00     0.060 C 
HETATM   16  C25 UNL     1      -0.456  49.670 -18.689  1.00  0.00     0.020 C 
HETATM   17  C26 UNL     1      -0.811  51.109 -19.162  1.00  0.00    -0.016 C 
HETATM   18  C27 UNL     1      -2.244  51.463 -18.699  1.00  0.00     0.020 C 
HETATM   19  C28 UNL     1      -0.671  51.152 -20.737  1.00  0.00     0.002 C 
HETATM   20  C29 UNL     1      -1.732  50.304 -21.466  1.00  0.00     0.007 C 
HETATM   21  C30 UNL     1      -1.547  50.317 -22.982  1.00  0.00     0.014 C 
HETATM   22  C31 UNL     1      -1.556  51.741 -23.597  1.00  0.00     0.003 C 
HETATM   23  C32 UNL     1      -2.983  52.325 -23.546  1.00  0.00     0.020 C 
ENDROOT
BRANCH   3  24
HETATM   24  O1  UNL     1      -1.214  53.049 -25.637  1.00  0.00    -0.377 OA
HETATM   25  H2  UNL     1      -0.980  52.975 -26.581  1.00  0.00     0.211 HD
ENDBRANCH   3  24
BRANCH  13  26
HETATM   26  O2  UNL     1       1.896  51.349 -14.918  1.00  0.00    -0.271 OA
BRANCH  26  27
HETATM   27  C13 UNL     1       1.307  51.844 -13.717  1.00  0.00     0.303 C 
BRANCH  27  28
HETATM   28  C14 UNL     1       2.372  51.967 -12.640  1.00  0.00     0.244 C 
HETATM   29  O3  UNL     1       3.341  51.217 -12.570  1.00  0.00    -0.271 OA
HETATM   30  N2  UNL     1       2.208  53.057 -11.805  1.00  0.00    -0.342 N 
HETATM   31  H16 UNL     1       1.256  53.419 -11.733  1.00  0.00     0.163 HD
BRANCH  30  32
HETATM   32  C15 UNL     1       3.053  53.238 -10.603  1.00  0.00     0.216 C 
BRANCH  32  33
HETATM   33  C16 UNL     1       2.276  52.794  -9.363  1.00  0.00     0.166 C 
HETATM   34  O4  UNL     1       2.744  52.466  -8.286  1.00  0.00    -0.648 OA
BRANCH  33  35
HETATM   35  O5  UNL     1       0.930  52.814  -9.530  1.00  0.00    -0.775 OA
HETATM   36  H18 UNL     1       0.577  52.503  -8.668  1.00  0.00     0.167 HD
ENDBRANCH  33  35
ENDBRANCH  32  33
BRANCH  32  37
HETATM   37  C17 UNL     1       3.461  54.721 -10.421  1.00  0.00     0.184 C 
BRANCH  37  38
HETATM   38  O6  UNL     1       3.821  55.334 -11.669  1.00  0.00    -0.388 OA
HETATM   39  H20 UNL     1       3.319  54.866 -12.359  1.00  0.00     0.210 HD
ENDBRANCH  37  38
BRANCH  37  40
HETATM   40  C18 UNL     1       4.642  54.912  -9.491  1.00  0.00    -0.025 A 
HETATM   41  C19 UNL     1       5.876  54.294  -9.761  1.00  0.00     0.010 A 
HETATM   42  C20 UNL     1       6.975  54.477  -8.917  1.00  0.00     0.003 A 
HETATM   43  C21 UNL     1       6.861  55.284  -7.786  1.00  0.00     0.036 A 
HETATM   44  C22 UNL     1       5.636  55.899  -7.503  1.00  0.00     0.103 A 
HETATM   45  C23 UNL     1       4.529  55.718  -8.348  1.00  0.00     0.045 A 
BRANCH  44  46
HETATM   46  N3  UNL     1       5.511  56.751  -6.312  1.00  0.00    -0.116 N 
HETATM   47  O7  UNL     1       5.033  56.245  -5.287  1.00  0.00    -0.532 OA
HETATM   48  O8  UNL     1       5.894  57.927  -6.397  1.00  0.00    -0.532 OA
ENDBRANCH  44  46
ENDBRANCH  37  40
ENDBRANCH  32  37
ENDBRANCH  30  32
ENDBRANCH  27  28
ENDBRANCH  26  27
ENDBRANCH  13  26
TORSDOF 11
ENDMDL
MODEL 7
REMARK minimizedAffinity -8.85248852
REMARK CNNscore 0.268597305
REMARK CNNaffinity 6.3120842
REMARK  11 active torsions:
REMARK  status: ('A' for Active; 'I' for Inactive)
REMARK    1  A    between atoms: C3_3  and  O1_4 
REMARK    2  A    between atoms: N1_14  and  O2_16 
REMARK    3  A    between atoms: O2_16  and  C13_17 
REMARK    4  A    between atoms: C13_17  and  C14_18 
REMARK       I    between atoms: C14_18  and  N2_20 
REMARK    5  A    between atoms: N2_20  and  C15_21 
REMARK    6  A    between atoms: C15_21  and  C16_22 
REMARK    7  A    between atoms: C15_21  and  C17_25 
REMARK    8  A    between atoms: C16_22  and  O5_24 
REMARK    9  A    between atoms: C17_25  and  O6_26 
REMARK   10  A    between atoms: C17_25  and  C18_27 
REMARK   11  A    between atoms: C22_31  and  N3_32 
ROOT
HETATM    1  C1  UNL     1       0.263  53.374 -19.538  1.00  0.00     0.015 C 
HETATM    2  C2  UNL     1      -0.114  52.235 -19.572  1.00  0.00    -0.078 C 
HETATM    3  C3  UNL     1      -0.595  50.843 -19.563  1.00  0.00     0.128 C 
HETATM    4  C4  UNL     1      -0.174  50.062 -20.814  1.00  0.00     0.052 C 
HETATM    5  C5  UNL     1      -1.246  48.981 -21.010  1.00  0.00     0.010 C 
HETATM    6  C6  UNL     1      -2.318  49.212 -19.925  1.00  0.00     0.002 C 
HETATM    7  C7  UNL     1      -3.760  48.804 -20.305  1.00  0.00    -0.004 C 
HETATM    8  C8  UNL     1      -3.818  47.353 -20.801  1.00  0.00     0.010 C 
HETATM    9  C9  UNL     1      -5.256  46.909 -21.041  1.00  0.00     0.035 C 
HETATM   10  C10 UNL     1      -6.001  47.832 -21.976  1.00  0.00    -0.069 C 
HETATM   11  C11 UNL     1      -6.762  47.306 -22.953  1.00  0.00     0.030 C 
HETATM   12  C12 UNL     1      -7.678  48.149 -23.775  1.00  0.00     0.032 C 
HETATM   13  N1  UNL     1      -8.575  47.711 -24.608  1.00  0.00    -0.271 N 
ATOM     14  H1  UNL     1      -9.204  48.319 -25.132  1.00  0.00     0.194 HD
HETATM   15  C24 UNL     1      -7.646  49.647 -23.560  1.00  0.00     0.060 C 
HETATM   16  C25 UNL     1      -6.331  50.117 -22.965  1.00  0.00     0.020 C 
HETATM   17  C26 UNL     1      -5.906  49.335 -21.690  1.00  0.00    -0.016 C 
HETATM   18  C27 UNL     1      -6.887  49.658 -20.538  1.00  0.00     0.020 C 
HETATM   19  C28 UNL     1      -4.421  49.750 -21.337  1.00  0.00     0.002 C 
HETATM   20  C29 UNL     1      -4.293  51.214 -20.873  1.00  0.00     0.007 C 
HETATM   21  C30 UNL     1      -2.845  51.609 -20.588  1.00  0.00     0.014 C 
HETATM   22  C31 UNL     1      -2.149  50.703 -19.538  1.00  0.00     0.003 C 
HETATM   23  C32 UNL     1      -2.731  50.981 -18.137  1.00  0.00     0.020 C 
ENDROOT
BRANCH   3  24
HETATM   24  O1  UNL     1      -0.031  50.176 -18.431  1.00  0.00    -0.377 OA
HETATM   25  H2  UNL     1       0.912  50.424 -18.392  1.00  0.00     0.211 HD
ENDBRANCH   3  24
BRANCH  13  26
HETATM   26  O2  UNL     1      -8.584  46.313 -24.706  1.00  0.00    -0.271 OA
BRANCH  26  27
HETATM   27  C13 UNL     1      -8.333  45.952 -26.062  1.00  0.00     0.303 C 
BRANCH  27  28
HETATM   28  C14 UNL     1      -9.643  45.920 -26.833  1.00  0.00     0.244 C 
HETATM   29  O3  UNL     1     -10.528  45.100 -26.611  1.00  0.00    -0.271 OA
HETATM   30  N2  UNL     1      -9.791  46.956 -27.737  1.00  0.00    -0.342 N 
HETATM   31  H16 UNL     1      -8.925  47.378 -28.072  1.00  0.00     0.163 HD
BRANCH  30  32
HETATM   32  C15 UNL     1     -10.926  46.988 -28.688  1.00  0.00     0.216 C 
BRANCH  32  33
HETATM   33  C16 UNL     1     -10.454  47.560 -30.025  1.00  0.00     0.166 C 
HETATM   34  O4  UNL     1     -10.303  46.949 -31.069  1.00  0.00    -0.648 OA
BRANCH  33  35
HETATM   35  O5  UNL     1     -10.223  48.896 -29.992  1.00  0.00    -0.775 OA
HETATM   36  H18 UNL     1      -9.926  49.111 -30.903  1.00  0.00     0.167 HD
ENDBRANCH  33  35
ENDBRANCH  32  33
BRANCH  32  37
HETATM   37  C17 UNL     1     -12.080  47.872 -28.156  1.00  0.00     0.184 C 
BRANCH  37  38
HETATM   38  O6  UNL     1     -11.661  48.691 -27.053  1.00  0.00    -0.388 OA
HETATM   39  H20 UNL     1     -10.710  48.850 -27.175  1.00  0.00     0.210 HD
ENDBRANCH  37  38
BRANCH  37  40
HETATM   40  C18 UNL     1     -13.277  47.078 -27.672  1.00  0.00    -0.025 A 
HETATM   41  C19 UNL     1     -13.925  46.167 -28.525  1.00  0.00     0.010 A 
HETATM   42  C20 UNL     1     -15.020  45.419 -28.083  1.00  0.00     0.003 A 
HETATM   43  C21 UNL     1     -15.487  45.567 -26.778  1.00  0.00     0.036 A 
HETATM   44  C22 UNL     1     -14.854  46.477 -25.922  1.00  0.00     0.103 A 
HETATM   45  C23 UNL     1     -13.754  47.231 -26.362  1.00  0.00     0.045 A 
BRANCH  44  46
HETATM   46  N3  UNL     1     -15.343  46.636 -24.545  1.00  0.00    -0.116 N 
HETATM   47  O7  UNL     1     -16.179  45.821 -24.131  1.00  0.00    -0.532 OA
HETATM   48  O8  UNL     1     -14.890  47.575 -23.874  1.00  0.00    -0.532 OA
ENDBRANCH  44  46
ENDBRANCH  37  40
ENDBRANCH  32  37
ENDBRANCH  30  32
ENDBRANCH  27  28
ENDBRANCH  26  27
ENDBRANCH  13  26
TORSDOF 11
ENDMDL
MODEL 8
REMARK minimizedAffinity -10.2174349
REMARK CNNscore 0.251088977
REMARK CNNaffinity 6.59864855
REMARK  11 active torsions:
REMARK  status: ('A' for Active; 'I' for Inactive)
REMARK    1  A    between atoms: C3_3  and  O1_4 
REMARK    2  A    between atoms: N1_14  and  O2_16 
REMARK    3  A    between atoms: O2_16  and  C13_17 
REMARK    4  A    between atoms: C13_17  and  C14_18 
REMARK       I    between atoms: C14_18  and  N2_20 
REMARK    5  A    between atoms: N2_20  and  C15_21 
REMARK    6  A    between atoms: C15_21  and  C16_22 
REMARK    7  A    between atoms: C15_21  and  C17_25 
REMARK    8  A    between atoms: C16_22  and  O5_24 
REMARK    9  A    between atoms: C17_25  and  O6_26 
REMARK   10  A    between atoms: C17_25  and  C18_27 
REMARK   11  A    between atoms: C22_31  and  N3_32 
ROOT
HETATM    1  C1  UNL     1      -2.308  49.896 -26.882  1.00  0.00     0.015 C 
HETATM    2  C2  UNL     1      -1.812  50.699 -26.139  1.00  0.00    -0.078 C 
HETATM    3  C3  UNL     1      -1.252  51.709 -25.226  1.00  0.00     0.128 C 
HETATM    4  C4  UNL     1       0.261  51.553 -25.024  1.00  0.00     0.052 C 
HETATM    5  C5  UNL     1       0.556  52.129 -23.632  1.00  0.00     0.010 C 
HETATM    6  C6  UNL     1      -0.800  52.523 -23.014  1.00  0.00     0.002 C 
HETATM    7  C7  UNL     1      -0.893  52.427 -21.474  1.00  0.00    -0.004 C 
HETATM    8  C8  UNL     1       0.242  53.208 -20.796  1.00  0.00     0.010 C 
HETATM    9  C9  UNL     1       0.070  53.229 -19.282  1.00  0.00     0.035 C 
HETATM   10  C10 UNL     1      -0.063  51.845 -18.693  1.00  0.00    -0.069 C 
HETATM   11  C11 UNL     1       0.624  51.535 -17.578  1.00  0.00     0.030 C 
HETATM   12  C12 UNL     1       0.383  50.265 -16.835  1.00  0.00     0.032 C 
HETATM   13  N1  UNL     1       0.861  49.964 -15.664  1.00  0.00    -0.271 N 
ATOM     14  H1  UNL     1       0.650  49.095 -15.173  1.00  0.00     0.194 HD
HETATM   15  C24 UNL     1      -0.583  49.265 -17.435  1.00  0.00     0.060 C 
HETATM   16  C25 UNL     1      -0.734  49.437 -18.935  1.00  0.00     0.020 C 
HETATM   17  C26 UNL     1      -1.057  50.895 -19.369  1.00  0.00    -0.016 C 
HETATM   18  C27 UNL     1      -2.477  51.273 -18.882  1.00  0.00     0.020 C 
HETATM   19  C28 UNL     1      -0.932  50.973 -20.943  1.00  0.00     0.002 C 
HETATM   20  C29 UNL     1      -2.021  50.170 -21.681  1.00  0.00     0.007 C 
HETATM   21  C30 UNL     1      -1.851  50.216 -23.199  1.00  0.00     0.014 C 
HETATM   22  C31 UNL     1      -1.831  51.655 -23.778  1.00  0.00     0.003 C 
HETATM   23  C32 UNL     1      -3.243  52.272 -23.698  1.00  0.00     0.020 C 
ENDROOT
BRANCH   3  24
HETATM   24  O1  UNL     1      -1.477  53.004 -25.790  1.00  0.00    -0.377 OA
HETATM   25  H2  UNL     1      -1.254  52.947 -26.738  1.00  0.00     0.211 HD
ENDBRANCH   3  24
BRANCH  13  26
HETATM   26  O2  UNL     1       1.697  50.965 -15.149  1.00  0.00    -0.271 OA
BRANCH  26  27
HETATM   27  C13 UNL     1       1.186  51.375 -13.883  1.00  0.00     0.303 C 
BRANCH  27  28
HETATM   28  C14 UNL     1       2.339  51.642 -12.929  1.00  0.00     0.244 C 
HETATM   29  O3  UNL     1       3.365  50.968 -12.917  1.00  0.00    -0.271 OA
HETATM   30  N2  UNL     1       2.173  52.768 -12.144  1.00  0.00    -0.342 N 
HETATM   31  H16 UNL     1       1.208  53.065 -11.994  1.00  0.00     0.163 HD
BRANCH  30  32
HETATM   32  C15 UNL     1       3.116  53.084 -11.047  1.00  0.00     0.216 C 
BRANCH  32  33
HETATM   33  C16 UNL     1       2.740  52.276  -9.804  1.00  0.00     0.166 C 
HETATM   34  O4  UNL     1       1.686  51.699  -9.598  1.00  0.00    -0.648 OA
BRANCH  33  35
HETATM   35  O5  UNL     1       3.733  52.204  -8.883  1.00  0.00    -0.775 OA
HETATM   36  H18 UNL     1       3.347  51.670  -8.155  1.00  0.00     0.167 HD
ENDBRANCH  33  35
ENDBRANCH  32  33
BRANCH  32  37
HETATM   37  C17 UNL     1       3.073  54.589 -10.684  1.00  0.00     0.184 C 
BRANCH  37  38
HETATM   38  O6  UNL     1       4.111  54.945  -9.757  1.00  0.00    -0.388 OA
HETATM   39  H20 UNL     1       4.842  54.323  -9.912  1.00  0.00     0.210 HD
ENDBRANCH  37  38
BRANCH  37  40
HETATM   40  C18 UNL     1       1.765  55.022 -10.054  1.00  0.00    -0.025 A 
HETATM   41  C19 UNL     1       0.542  54.794 -10.710  1.00  0.00     0.010 A 
HETATM   42  C20 UNL     1      -0.671  55.176 -10.129  1.00  0.00     0.003 A 
HETATM   43  C21 UNL     1      -0.683  55.794  -8.879  1.00  0.00     0.036 A 
HETATM   44  C22 UNL     1       0.529  56.032  -8.220  1.00  0.00     0.103 A 
HETATM   45  C23 UNL     1       1.749  55.650  -8.799  1.00  0.00     0.045 A 
BRANCH  44  46
HETATM   46  N3  UNL     1       0.520  56.683  -6.902  1.00  0.00    -0.116 N 
HETATM   47  O7  UNL     1      -0.414  56.417  -6.133  1.00  0.00    -0.532 OA
HETATM   48  O8  UNL     1       1.448  57.459  -6.632  1.00  0.00    -0.532 OA
ENDBRANCH  44  46
ENDBRANCH  37  40
ENDBRANCH  32  37
ENDBRANCH  30  32
ENDBRANCH  27  28
ENDBRANCH  26  27
ENDBRANCH  13  26
TORSDOF 11
ENDMDL
MODEL 9
REMARK minimizedAffinity -9.72982788
REMARK CNNscore 0.249589652
REMARK CNNaffinity 7.40446472
REMARK  11 active torsions:
REMARK  status: ('A' for Active; 'I' for Inactive)
REMARK    1  A    between atoms: C3_3  and  O1_4 
REMARK    2  A    between atoms: N1_14  and  O2_16 
REMARK    3  A    between atoms: O2_16  and  C13_17 
REMARK    4  A    between atoms: C13_17  and  C14_18 
REMARK       I    between atoms: C14_18  and  N2_20 
REMARK    5  A    between atoms: N2_20  and  C15_21 
REMARK    6  A    between atoms: C15_21  and  C16_22 
REMARK    7  A    between atoms: C15_21  and  C17_25 
REMARK    8  A    between atoms: C16_22  and  O5_24 
REMARK    9  A    between atoms: C17_25  and  O6_26 
REMARK   10  A    between atoms: C17_25  and  C18_27 
REMARK   11  A    between atoms: C22_31  and  N3_32 
ROOT
HETATM    1  C1  UNL     1       1.652  51.766 -28.200  1.00  0.00     0.015 C 
HETATM    2  C2  UNL     1       0.813  52.222 -27.472  1.00  0.00    -0.078 C 
HETATM    3  C3  UNL     1      -0.250  52.785 -26.623  1.00  0.00     0.128 C 
HETATM    4  C4  UNL     1       0.229  53.090 -25.198  1.00  0.00     0.052 C 
HETATM    5  C5  UNL     1      -1.017  52.980 -24.308  1.00  0.00     0.010 C 
HETATM    6  C6  UNL     1      -2.177  52.523 -25.216  1.00  0.00     0.002 C 
HETATM    7  C7  UNL     1      -3.269  51.666 -24.535  1.00  0.00    -0.004 C 
HETATM    8  C8  UNL     1      -3.824  52.360 -23.283  1.00  0.00     0.010 C 
HETATM    9  C9  UNL     1      -4.994  51.583 -22.694  1.00  0.00     0.035 C 
HETATM   10  C10 UNL     1      -4.648  50.141 -22.406  1.00  0.00    -0.069 C 
HETATM   11  C11 UNL     1      -5.031  49.591 -21.239  1.00  0.00     0.030 C 
HETATM   12  C12 UNL     1      -4.902  48.129 -20.980  1.00  0.00     0.032 C 
HETATM   13  N1  UNL     1      -5.405  47.486 -19.967  1.00  0.00    -0.271 N 
ATOM     14  H1  UNL     1      -5.320  46.478 -19.839  1.00  0.00     0.194 HD
HETATM   15  C24 UNL     1      -4.216  47.280 -22.030  1.00  0.00     0.060 C 
HETATM   16  C25 UNL     1      -3.283  48.094 -22.908  1.00  0.00     0.020 C 
HETATM   17  C26 UNL     1      -3.946  49.359 -23.522  1.00  0.00    -0.016 C 
HETATM   18  C27 UNL     1      -5.022  48.930 -24.547  1.00  0.00     0.020 C 
HETATM   19  C28 UNL     1      -2.807  50.229 -24.190  1.00  0.00     0.002 C 
HETATM   20  C29 UNL     1      -2.179  49.563 -25.430  1.00  0.00     0.007 C 
HETATM   21  C30 UNL     1      -1.046  50.395 -26.028  1.00  0.00     0.014 C 
HETATM   22  C31 UNL     1      -1.472  51.837 -26.413  1.00  0.00     0.003 C 
HETATM   23  C32 UNL     1      -2.392  51.799 -27.651  1.00  0.00     0.020 C 
ENDROOT
BRANCH   3  24
HETATM   24  O1  UNL     1      -0.687  54.017 -27.201  1.00  0.00    -0.377 OA
HETATM   25  H2  UNL     1       0.112  54.510 -27.467  1.00  0.00     0.211 HD
ENDBRANCH   3  24
BRANCH  13  26
HETATM   26  O2  UNL     1      -6.077  48.331 -19.072  1.00  0.00    -0.271 OA
BRANCH  26  27
HETATM   27  C13 UNL     1      -5.186  49.371 -18.675  1.00  0.00     0.303 C 
BRANCH  27  28
HETATM   28  C14 UNL     1      -4.208  48.838 -17.641  1.00  0.00     0.244 C 
HETATM   29  O3  UNL     1      -4.308  47.722 -17.140  1.00  0.00    -0.271 OA
HETATM   30  N2  UNL     1      -3.140  49.679 -17.387  1.00  0.00    -0.342 N 
HETATM   31  H16 UNL     1      -3.297  50.667 -17.591  1.00  0.00     0.163 HD
BRANCH  30  32
HETATM   32  C15 UNL     1      -2.184  49.397 -16.293  1.00  0.00     0.216 C 
BRANCH  32  33
HETATM   33  C16 UNL     1      -2.500  50.295 -15.096  1.00  0.00     0.166 C 
HETATM   34  O4  UNL     1      -2.029  50.212 -13.975  1.00  0.00    -0.648 OA
BRANCH  33  35
HETATM   35  O5  UNL     1      -3.382  51.286 -15.380  1.00  0.00    -0.775 OA
HETATM   36  H18 UNL     1      -3.488  51.764 -14.528  1.00  0.00     0.167 HD
ENDBRANCH  33  35
ENDBRANCH  32  33
BRANCH  32  37
HETATM   37  C17 UNL     1      -0.725  49.667 -16.737  1.00  0.00     0.184 C 
BRANCH  37  38
HETATM   38  O6  UNL     1      -0.134  50.750 -16.000  1.00  0.00    -0.388 OA
HETATM   39  H20 UNL     1      -0.575  50.765 -15.134  1.00  0.00     0.210 HD
ENDBRANCH  37  38
BRANCH  37  40
HETATM   40  C18 UNL     1      -0.596  50.023 -18.204  1.00  0.00    -0.025 A 
HETATM   41  C19 UNL     1      -0.864  49.067 -19.200  1.00  0.00     0.010 A 
HETATM   42  C20 UNL     1      -0.762  49.390 -20.556  1.00  0.00     0.003 A 
HETATM   43  C21 UNL     1      -0.390  50.677 -20.942  1.00  0.00     0.036 A 
HETATM   44  C22 UNL     1      -0.113  51.634 -19.959  1.00  0.00     0.103 A 
HETATM   45  C23 UNL     1      -0.214  51.315 -18.595  1.00  0.00     0.045 A 
BRANCH  44  46
HETATM   46  N3  UNL     1       0.280  52.993 -20.361  1.00  0.00    -0.116 N 
HETATM   47  O7  UNL     1      -0.009  53.926 -19.601  1.00  0.00    -0.532 OA
HETATM   48  O8  UNL     1       0.881  53.128 -21.437  1.00  0.00    -0.532 OA
ENDBRANCH  44  46
ENDBRANCH  37  40
ENDBRANCH  32  37
ENDBRANCH  30  32
ENDBRANCH  27  28
ENDBRANCH  26  27
ENDBRANCH  13  26
TORSDOF 11
ENDMDL
