MODEL 1
REMARK minimizedAffinity -10.8689709
REMARK CNNscore 0.624238729
REMARK CNNaffinity 7.65507507
REMARK  11 active torsions:
REMARK  status: ('A' for Active; 'I' for Inactive)
REMARK    1  A    between atoms: C3_4  and  O2_5 
REMARK    2  A    between atoms: O2_5  and  C4_6 
REMARK    3  A    between atoms: C7_9  and  C8_10 
REMARK    4  A    between atoms: N1_11  and  C9_13 
REMARK    5  A    between atoms: C9_13  and  C10_14 
REMARK    6  A    between atoms: C10_14  and  C11_15 
REMARK    7  A    between atoms: C22_26  and  C23_27 
REMARK    8  A    between atoms: C29_35  and  O5_36 
REMARK    9  A    between atoms: C33_40  and  O6_41 
REMARK   10  A    between atoms: C36_44  and  O7_45 
REMARK   11  A    between atoms: C37_46  and  O8_47 
ROOT
HETATM    1  C4  UNL     1      -3.278   6.775  13.462  1.00  0.00     0.127 C 
HETATM    2  C5  UNL     1      -3.163   6.396  14.930  1.00  0.00     0.033 C 
HETATM    3  C6  UNL     1      -2.081   7.164  15.694  1.00  0.00     0.021 C 
HETATM    4  C7  UNL     1      -1.642   8.529  15.069  1.00  0.00     0.026 C 
HETATM    5  C17 UNL     1      -1.041   9.429  16.231  1.00  0.00     0.009 C 
HETATM    6  C18 UNL     1       0.472   9.763  16.124  1.00  0.00     0.007 C 
HETATM    7  C19 UNL     1       1.003  10.597  17.311  1.00  0.00     0.013 C 
HETATM    8  C20 UNL     1       0.140  11.847  17.557  1.00  0.00    -0.005 C 
HETATM    9  C21 UNL     1       0.331  12.803  16.332  1.00  0.00     0.019 C 
HETATM   10  C22 UNL     1       0.440  12.712  18.824  1.00  0.00     0.028 C 
HETATM   11  C27 UNL     1      -0.947  13.316  19.202  1.00  0.00     0.013 C 
HETATM   12  C28 UNL     1      -1.994  12.708  18.244  1.00  0.00     0.040 C 
HETATM   13  C29 UNL     1      -1.337  11.414  17.777  1.00  0.00     0.070 C 
HETATM   14  C30 UNL     1      -1.900  10.700  16.531  1.00  0.00     0.026 C 
HETATM   15  C31 UNL     1      -3.373  10.296  16.660  1.00  0.00     0.011 C 
HETATM   16  C32 UNL     1      -3.937   9.638  15.391  1.00  0.00     0.039 C 
HETATM   17  C33 UNL     1      -2.869   9.186  14.366  1.00  0.00     0.073 C 
HETATM   18  C34 UNL     1      -3.509   8.280  13.283  1.00  0.00     0.071 C 
ENDROOT
BRANCH   1  19
HETATM   19  O2  UNL     1      -4.360   6.014  12.911  1.00  0.00    -0.356 OA
BRANCH  19  20
HETATM   20  C3  UNL     1      -4.087   4.619  12.776  1.00  0.00     0.263 C 
HETATM   21  O1  UNL     1      -2.793   4.422  12.208  1.00  0.00    -0.354 OA
HETATM   22  C2  UNL     1      -2.566   3.169  11.554  1.00  0.00     0.151 C 
HETATM   23  C1  UNL     1      -2.483   3.406  10.047  1.00  0.00     0.042 C 
HETATM   24  C37 UNL     1      -3.563   2.076  11.970  1.00  0.00     0.175 C 
HETATM   25  C36 UNL     1      -5.015   2.525  11.746  1.00  0.00     0.154 C 
HETATM   26  C35 UNL     1      -5.190   4.030  11.904  1.00  0.00     0.095 C 
BRANCH  24  27
HETATM   27  O8  UNL     1      -3.348   0.832  11.298  1.00  0.00    -0.390 OA
HETATM   28  H55 UNL     1      -2.405   0.600  11.393  1.00  0.00     0.210 HD
ENDBRANCH  24  27
BRANCH  25  29
HETATM   29  O7  UNL     1      -5.465   2.132  10.445  1.00  0.00    -0.393 OA
HETATM   30  H53 UNL     1      -5.014   1.280  10.271  1.00  0.00     0.210 HD
ENDBRANCH  25  29
ENDBRANCH  19  20
ENDBRANCH   1  19
BRANCH  17  31
HETATM   31  O6  UNL     1      -2.442  10.384  13.682  1.00  0.00    -0.389 OA
HETATM   32  H47 UNL     1      -3.210  10.745  13.203  1.00  0.00     0.210 HD
ENDBRANCH  17  31
BRANCH   4  33
HETATM   33  C8  UNL     1      -0.572   8.326  13.982  1.00  0.00     0.068 C 
HETATM   34  N1  UNL     1      -0.464   9.112  12.965  1.00  0.00    -0.401 N 
ATOM     35  H1  UNL     1      -1.077   9.913  12.824  1.00  0.00     0.158 HD
BRANCH  34  36
HETATM   36  C9  UNL     1       0.611   8.763  12.026  1.00  0.00     0.123 C 
BRANCH  36  37
HETATM   37  C10 UNL     1      -0.000   8.517  10.643  1.00  0.00     0.053 C 
BRANCH  37  38
HETATM   38  C11 UNL     1       0.971   7.869   9.681  1.00  0.00    -0.082 C 
HETATM   39  C12 UNL     1       1.040   8.244   8.390  1.00  0.00    -0.024 C 
HETATM   40  C13 UNL     1       1.944   7.602   7.379  1.00  0.00     0.027 C 
HETATM   41  C14 UNL     1       2.541   6.278   7.858  1.00  0.00     0.004 C 
HETATM   42  C15 UNL     1       2.995   6.373   9.310  1.00  0.00     0.005 C 
HETATM   43  C16 UNL     1       1.834   6.756  10.232  1.00  0.00     0.034 C 
ENDBRANCH  37  38
ENDBRANCH  36  37
ENDBRANCH  34  36
ENDBRANCH   4  33
BRANCH  13  44
HETATM   44  O5  UNL     1      -1.416  10.504  18.887  1.00  0.00    -0.389 OA
HETATM   45  H41 UNL     1      -2.353  10.367  19.105  1.00  0.00     0.210 HD
ENDBRANCH  13  44
BRANCH  10  46
HETATM   46  C23 UNL     1       1.166  12.093  19.989  1.00  0.00    -0.045 A 
HETATM   47  C24 UNL     1       1.204  10.786  20.253  1.00  0.00     0.087 A 
HETATM   48  C25 UNL     1       2.062  10.600  21.420  1.00  0.00     0.283 A 
HETATM   49  O3  UNL     1       2.315   9.524  21.930  1.00  0.00    -0.260 OA
HETATM   50  O4  UNL     1       2.535  11.807  21.820  1.00  0.00    -0.314 OA
HETATM   51  C26 UNL     1       1.981  12.830  20.984  1.00  0.00     0.213 A 
ENDBRANCH  10  46
TORSDOF 11
ENDMDL
MODEL 2
REMARK minimizedAffinity -10.9801989
REMARK CNNscore 0.555369198
REMARK CNNaffinity 7.70319748
REMARK  11 active torsions:
REMARK  status: ('A' for Active; 'I' for Inactive)
REMARK    1  A    between atoms: C3_4  and  O2_5 
REMARK    2  A    between atoms: O2_5  and  C4_6 
REMARK    3  A    between atoms: C7_9  and  C8_10 
REMARK    4  A    between atoms: N1_11  and  C9_13 
REMARK    5  A    between atoms: C9_13  and  C10_14 
REMARK    6  A    between atoms: C10_14  and  C11_15 
REMARK    7  A    between atoms: C22_26  and  C23_27 
REMARK    8  A    between atoms: C29_35  and  O5_36 
REMARK    9  A    between atoms: C33_40  and  O6_41 
REMARK   10  A    between atoms: C36_44  and  O7_45 
REMARK   11  A    between atoms: C37_46  and  O8_47 
ROOT
HETATM    1  C4  UNL     1      -3.318   5.784  13.316  1.00  0.00     0.127 C 
HETATM    2  C5  UNL     1      -3.134   5.550  14.807  1.00  0.00     0.033 C 
HETATM    3  C6  UNL     1      -2.170   6.530  15.482  1.00  0.00     0.021 C 
HETATM    4  C7  UNL     1      -1.944   7.887  14.738  1.00  0.00     0.026 C 
HETATM    5  C17 UNL     1      -1.471   8.959  15.809  1.00  0.00     0.009 C 
HETATM    6  C18 UNL     1      -0.024   9.502  15.642  1.00  0.00     0.007 C 
HETATM    7  C19 UNL     1       0.389  10.500  16.744  1.00  0.00     0.013 C 
HETATM    8  C20 UNL     1      -0.646  11.627  16.908  1.00  0.00    -0.005 C 
HETATM    9  C21 UNL     1      -0.611  12.494  15.605  1.00  0.00     0.019 C 
HETATM   10  C22 UNL     1      -0.464  12.629  18.093  1.00  0.00     0.028 C 
HETATM   11  C27 UNL     1      -1.921  13.053  18.453  1.00  0.00     0.013 C 
HETATM   12  C28 UNL     1      -2.877  12.220  17.571  1.00  0.00     0.040 C 
HETATM   13  C29 UNL     1      -2.041  11.002  17.196  1.00  0.00     0.070 C 
HETATM   14  C30 UNL     1      -2.504  10.111  16.025  1.00  0.00     0.026 C 
HETATM   15  C31 UNL     1      -3.901   9.508  16.219  1.00  0.00     0.011 C 
HETATM   16  C32 UNL     1      -4.374   8.671  15.021  1.00  0.00     0.039 C 
HETATM   17  C33 UNL     1      -3.261   8.296  14.012  1.00  0.00     0.073 C 
HETATM   18  C34 UNL     1      -3.772   7.219  13.021  1.00  0.00     0.071 C 
ENDROOT
BRANCH   1  19
HETATM   19  O2  UNL     1      -4.282   4.830  12.853  1.00  0.00    -0.356 OA
BRANCH  19  20
HETATM   20  C3  UNL     1      -5.634   5.288  12.907  1.00  0.00     0.263 C 
HETATM   21  O1  UNL     1      -5.925   5.815  14.201  1.00  0.00    -0.354 OA
HETATM   22  C2  UNL     1      -7.303   5.845  14.583  1.00  0.00     0.151 C 
HETATM   23  C1  UNL     1      -7.539   4.794  15.667  1.00  0.00     0.042 C 
HETATM   24  C37 UNL     1      -8.269   5.753  13.391  1.00  0.00     0.175 C 
HETATM   25  C36 UNL     1      -7.991   4.506  12.538  1.00  0.00     0.154 C 
HETATM   26  C35 UNL     1      -6.523   4.100  12.560  1.00  0.00     0.095 C 
BRANCH  24  27
HETATM   27  O8  UNL     1      -9.645   5.760  13.778  1.00  0.00    -0.390 OA
HETATM   28  H55 UNL     1      -9.783   6.520  14.374  1.00  0.00     0.210 HD
ENDBRANCH  24  27
BRANCH  25  29
HETATM   29  O7  UNL     1      -8.791   3.406  12.986  1.00  0.00    -0.393 OA
HETATM   30  H53 UNL     1      -9.628   3.813  13.290  1.00  0.00     0.210 HD
ENDBRANCH  25  29
ENDBRANCH  19  20
ENDBRANCH   1  19
BRANCH  17  31
HETATM   31  O6  UNL     1      -3.023   9.483  13.224  1.00  0.00    -0.389 OA
HETATM   32  H47 UNL     1      -3.841   9.686  12.735  1.00  0.00     0.210 HD
ENDBRANCH  17  31
BRANCH   4  33
HETATM   33  C8  UNL     1      -0.867   7.753  13.647  1.00  0.00     0.068 C 
HETATM   34  N1  UNL     1      -0.403   8.771  13.006  1.00  0.00    -0.401 N 
ATOM     35  H1  UNL     1      -0.720   9.723  13.187  1.00  0.00     0.158 HD
BRANCH  34  36
HETATM   36  C9  UNL     1       0.616   8.455  11.997  1.00  0.00     0.123 C 
BRANCH  36  37
HETATM   37  C10 UNL     1      -0.075   8.243  10.646  1.00  0.00     0.053 C 
BRANCH  37  38
HETATM   38  C11 UNL     1       0.862   7.704   9.587  1.00  0.00    -0.082 C 
HETATM   39  C12 UNL     1       0.873   8.201   8.336  1.00  0.00    -0.024 C 
HETATM   40  C13 UNL     1       1.741   7.672   7.232  1.00  0.00     0.027 C 
HETATM   41  C14 UNL     1       2.372   6.318   7.558  1.00  0.00     0.004 C 
HETATM   42  C15 UNL     1       2.886   6.281   8.993  1.00  0.00     0.005 C 
HETATM   43  C16 UNL     1       1.759   6.558   9.993  1.00  0.00     0.034 C 
ENDBRANCH  37  38
ENDBRANCH  36  37
ENDBRANCH  34  36
ENDBRANCH   4  33
BRANCH  13  44
HETATM   44  O5  UNL     1      -1.972  10.185  18.377  1.00  0.00    -0.389 OA
HETATM   45  H41 UNL     1      -2.877   9.932  18.627  1.00  0.00     0.210 HD
ENDBRANCH  13  44
BRANCH  10  46
HETATM   46  C23 UNL     1       0.358  12.222  19.288  1.00  0.00    -0.045 A 
HETATM   47  C24 UNL     1       0.568  10.962  19.673  1.00  0.00     0.087 A 
HETATM   48  C25 UNL     1       1.465  11.000  20.824  1.00  0.00     0.283 A 
HETATM   49  O3  UNL     1       1.864  10.020  21.425  1.00  0.00    -0.260 OA
HETATM   50  O4  UNL     1       1.786  12.290  21.095  1.00  0.00    -0.314 OA
HETATM   51  C26 UNL     1       1.090  13.149  20.184  1.00  0.00     0.213 A 
ENDBRANCH  10  46
TORSDOF 11
ENDMDL
MODEL 3
REMARK minimizedAffinity -10.4352198
REMARK CNNscore 0.458674699
REMARK CNNaffinity 7.26754713
REMARK  11 active torsions:
REMARK  status: ('A' for Active; 'I' for Inactive)
REMARK    1  A    between atoms: C3_4  and  O2_5 
REMARK    2  A    between atoms: O2_5  and  C4_6 
REMARK    3  A    between atoms: C7_9  and  C8_10 
REMARK    4  A    between atoms: N1_11  and  C9_13 
REMARK    5  A    between atoms: C9_13  and  C10_14 
REMARK    6  A    between atoms: C10_14  and  C11_15 
REMARK    7  A    between atoms: C22_26  and  C23_27 
REMARK    8  A    between atoms: C29_35  and  O5_36 
REMARK    9  A    between atoms: C33_40  and  O6_41 
REMARK   10  A    between atoms: C36_44  and  O7_45 
REMARK   11  A    between atoms: C37_46  and  O8_47 
ROOT
HETATM    1  C4  UNL     1      -1.173   6.860  12.251  1.00  0.00     0.127 C 
HETATM    2  C5  UNL     1      -1.138   8.341  11.904  1.00  0.00     0.033 C 
HETATM    3  C6  UNL     1      -1.912   9.232  12.879  1.00  0.00     0.021 C 
HETATM    4  C7  UNL     1      -2.154   8.637  14.304  1.00  0.00     0.026 C 
HETATM    5  C17 UNL     1      -2.375   9.847  15.309  1.00  0.00     0.009 C 
HETATM    6  C18 UNL     1      -3.787   9.956  15.948  1.00  0.00     0.007 C 
HETATM    7  C19 UNL     1      -3.950  11.181  16.873  1.00  0.00     0.013 C 
HETATM    8  C20 UNL     1      -2.824  11.257  17.919  1.00  0.00    -0.005 C 
HETATM    9  C21 UNL     1      -3.000  10.045  18.893  1.00  0.00     0.019 C 
HETATM   10  C22 UNL     1      -2.745  12.527  18.827  1.00  0.00     0.028 C 
HETATM   11  C27 UNL     1      -1.223  12.676  19.132  1.00  0.00     0.013 C 
HETATM   12  C28 UNL     1      -0.480  11.593  18.321  1.00  0.00     0.040 C 
HETATM   13  C29 UNL     1      -1.449  11.269  17.191  1.00  0.00     0.070 C 
HETATM   14  C30 UNL     1      -1.240   9.976  16.376  1.00  0.00     0.026 C 
HETATM   15  C31 UNL     1       0.123   9.897  15.677  1.00  0.00     0.011 C 
HETATM   16  C32 UNL     1       0.341   8.580  14.917  1.00  0.00     0.039 C 
HETATM   17  C33 UNL     1      -0.940   7.739  14.695  1.00  0.00     0.073 C 
HETATM   18  C34 UNL     1      -0.670   6.603  13.676  1.00  0.00     0.071 C 
ENDROOT
BRANCH   1  19
HETATM   19  O2  UNL     1      -0.364   6.178  11.284  1.00  0.00    -0.356 OA
BRANCH  19  20
HETATM   20  C3  UNL     1       0.906   6.788  11.047  1.00  0.00     0.263 C 
HETATM   21  O1  UNL     1       0.944   7.357   9.740  1.00  0.00    -0.354 OA
HETATM   22  C2  UNL     1       2.240   7.547   9.164  1.00  0.00     0.151 C 
HETATM   23  C1  UNL     1       2.429   6.541   8.029  1.00  0.00     0.042 C 
HETATM   24  C37 UNL     1       3.374   7.553  10.201  1.00  0.00     0.175 C 
HETATM   25  C36 UNL     1       3.363   6.273  11.051  1.00  0.00     0.154 C 
HETATM   26  C35 UNL     1       1.962   5.704  11.230  1.00  0.00     0.095 C 
BRANCH  24  27
HETATM   27  O8  UNL     1       4.670   7.719   9.620  1.00  0.00    -0.390 OA
HETATM   28  H55 UNL     1       4.634   8.497   9.031  1.00  0.00     0.210 HD
ENDBRANCH  24  27
BRANCH  25  29
HETATM   29  O7  UNL     1       4.205   5.275  10.463  1.00  0.00    -0.393 OA
HETATM   30  H53 UNL     1       4.939   5.777  10.052  1.00  0.00     0.210 HD
ENDBRANCH  25  29
ENDBRANCH  19  20
ENDBRANCH   1  19
BRANCH  17  31
HETATM   31  O6  UNL     1      -1.213   7.090  15.955  1.00  0.00    -0.389 OA
HETATM   32  H47 UNL     1      -0.469   6.491  16.150  1.00  0.00     0.210 HD
ENDBRANCH  17  31
BRANCH   4  33
HETATM   33  C8  UNL     1      -3.395   7.728  14.326  1.00  0.00     0.068 C 
HETATM   34  N1  UNL     1      -3.766   7.093  15.385  1.00  0.00    -0.401 N 
ATOM     35  H1  UNL     1      -3.261   7.157  16.269  1.00  0.00     0.158 HD
BRANCH  34  36
HETATM   36  C9  UNL     1      -4.971   6.268  15.221  1.00  0.00     0.123 C 
BRANCH  36  37
HETATM   37  C10 UNL     1      -5.459   6.388  13.774  1.00  0.00     0.053 C 
BRANCH  37  38
HETATM   38  C11 UNL     1      -6.160   5.139  13.287  1.00  0.00    -0.082 C 
HETATM   39  C12 UNL     1      -7.497   5.006  13.362  1.00  0.00    -0.024 C 
HETATM   40  C13 UNL     1      -8.241   3.771  12.945  1.00  0.00     0.027 C 
HETATM   41  C14 UNL     1      -7.330   2.562  12.734  1.00  0.00     0.004 C 
HETATM   42  C15 UNL     1      -6.059   2.954  11.989  1.00  0.00     0.005 C 
HETATM   43  C16 UNL     1      -5.282   4.034  12.746  1.00  0.00     0.034 C 
ENDBRANCH  37  38
ENDBRANCH  36  37
ENDBRANCH  34  36
ENDBRANCH   4  33
BRANCH  13  44
HETATM   44  O5  UNL     1      -1.391  12.383  16.283  1.00  0.00    -0.389 OA
HETATM   45  H41 UNL     1      -0.478  12.464  15.956  1.00  0.00     0.210 HD
ENDBRANCH  13  44
BRANCH  10  46
HETATM   46  C23 UNL     1      -3.397  13.806  18.370  1.00  0.00    -0.045 A 
HETATM   47  C24 UNL     1      -4.699  14.076  18.474  1.00  0.00     0.087 A 
HETATM   48  C25 UNL     1      -4.905  15.434  17.981  1.00  0.00     0.283 A 
HETATM   49  O3  UNL     1      -5.982  15.999  17.936  1.00  0.00    -0.260 OA
HETATM   50  O4  UNL     1      -3.711  15.956  17.604  1.00  0.00    -0.314 OA
HETATM   51  C26 UNL     1      -2.689  14.969  17.781  1.00  0.00     0.213 A 
ENDBRANCH  10  46
TORSDOF 11
ENDMDL
MODEL 4
REMARK minimizedAffinity -9.07899761
REMARK CNNscore 0.418397009
REMARK CNNaffinity 7.35856104
REMARK  11 active torsions:
REMARK  status: ('A' for Active; 'I' for Inactive)
REMARK    1  A    between atoms: C3_4  and  O2_5 
REMARK    2  A    between atoms: O2_5  and  C4_6 
REMARK    3  A    between atoms: C7_9  and  C8_10 
REMARK    4  A    between atoms: N1_11  and  C9_13 
REMARK    5  A    between atoms: C9_13  and  C10_14 
REMARK    6  A    between atoms: C10_14  and  C11_15 
REMARK    7  A    between atoms: C22_26  and  C23_27 
REMARK    8  A    between atoms: C29_35  and  O5_36 
REMARK    9  A    between atoms: C33_40  and  O6_41 
REMARK   10  A    between atoms: C36_44  and  O7_45 
REMARK   11  A    between atoms: C37_46  and  O8_47 
ROOT
HETATM    1  C4  UNL     1      -2.738   6.794  14.553  1.00  0.00     0.127 C 
HETATM    2  C5  UNL     1      -2.145   7.779  13.557  1.00  0.00     0.033 C 
HETATM    3  C6  UNL     1      -2.608   9.225  13.752  1.00  0.00     0.021 C 
HETATM    4  C7  UNL     1      -3.145   9.583  15.176  1.00  0.00     0.026 C 
HETATM    5  C17 UNL     1      -2.980  11.150  15.381  1.00  0.00     0.009 C 
HETATM    6  C18 UNL     1      -4.297  11.964  15.514  1.00  0.00     0.007 C 
HETATM    7  C19 UNL     1      -4.067  13.484  15.659  1.00  0.00     0.013 C 
HETATM    8  C20 UNL     1      -3.063  13.803  16.781  1.00  0.00    -0.005 C 
HETATM    9  C21 UNL     1      -3.732  13.408  18.140  1.00  0.00     0.019 C 
HETATM   10  C22 UNL     1      -2.592  15.283  16.951  1.00  0.00     0.028 C 
HETATM   11  C27 UNL     1      -1.143  15.153  17.514  1.00  0.00     0.013 C 
HETATM   12  C28 UNL     1      -0.790  13.650  17.541  1.00  0.00     0.040 C 
HETATM   13  C29 UNL     1      -1.732  13.046  16.506  1.00  0.00     0.070 C 
HETATM   14  C30 UNL     1      -1.951  11.520  16.498  1.00  0.00     0.026 C 
HETATM   15  C31 UNL     1      -0.665  10.710  16.288  1.00  0.00     0.011 C 
HETATM   16  C32 UNL     1      -0.888   9.191  16.340  1.00  0.00     0.039 C 
HETATM   17  C33 UNL     1      -2.368   8.748  16.240  1.00  0.00     0.073 C 
HETATM   18  C34 UNL     1      -2.460   7.220  16.000  1.00  0.00     0.071 C 
ENDROOT
BRANCH   1  19
HETATM   19  O2  UNL     1      -2.168   5.510  14.272  1.00  0.00    -0.356 OA
BRANCH  19  20
HETATM   20  C3  UNL     1      -2.260   5.115  12.902  1.00  0.00     0.263 C 
HETATM   21  O1  UNL     1      -3.489   4.427  12.669  1.00  0.00    -0.354 OA
HETATM   22  C2  UNL     1      -3.525   3.551  11.538  1.00  0.00     0.151 C 
HETATM   23  C1  UNL     1      -3.556   2.106  12.033  1.00  0.00     0.042 C 
HETATM   24  C37 UNL     1      -2.426   3.844  10.505  1.00  0.00     0.175 C 
HETATM   25  C36 UNL     1      -1.029   3.810  11.145  1.00  0.00     0.154 C 
HETATM   26  C35 UNL     1      -1.049   4.239  12.606  1.00  0.00     0.095 C 
BRANCH  24  27
HETATM   27  O8  UNL     1      -2.450   2.952   9.387  1.00  0.00    -0.390 OA
HETATM   28  H55 UNL     1      -3.362   2.936   9.039  1.00  0.00     0.210 HD
ENDBRANCH  24  27
BRANCH  25  29
HETATM   29  O7  UNL     1      -0.465   2.498  11.046  1.00  0.00    -0.393 OA
HETATM   30  H53 UNL     1      -0.799   2.146  10.196  1.00  0.00     0.210 HD
ENDBRANCH  25  29
ENDBRANCH  19  20
ENDBRANCH   1  19
BRANCH  17  31
HETATM   31  O6  UNL     1      -2.943   8.984  17.544  1.00  0.00    -0.389 OA
HETATM   32  H47 UNL     1      -2.481   8.409  18.181  1.00  0.00     0.210 HD
ENDBRANCH  17  31
BRANCH   4  33
HETATM   33  C8  UNL     1      -4.630   9.207  15.324  1.00  0.00     0.068 C 
HETATM   34  N1  UNL     1      -5.012   8.121  15.904  1.00  0.00    -0.401 N 
ATOM     35  H1  UNL     1      -4.354   7.450  16.300  1.00  0.00     0.158 HD
BRANCH  34  36
HETATM   36  C9  UNL     1      -6.467   7.924  15.949  1.00  0.00     0.123 C 
BRANCH  36  37
HETATM   37  C10 UNL     1      -6.760   6.423  16.033  1.00  0.00     0.053 C 
BRANCH  37  38
HETATM   38  C11 UNL     1      -7.356   5.871  14.757  1.00  0.00    -0.082 C 
HETATM   39  C12 UNL     1      -6.889   4.742  14.191  1.00  0.00    -0.024 C 
HETATM   40  C13 UNL     1      -7.403   4.178  12.898  1.00  0.00     0.027 C 
HETATM   41  C14 UNL     1      -8.274   5.160  12.116  1.00  0.00     0.004 C 
HETATM   42  C15 UNL     1      -9.234   5.901  13.040  1.00  0.00     0.005 C 
HETATM   43  C16 UNL     1      -8.476   6.668  14.128  1.00  0.00     0.034 C 
ENDBRANCH  37  38
ENDBRANCH  36  37
ENDBRANCH  34  36
ENDBRANCH   4  33
BRANCH  13  44
HETATM   44  O5  UNL     1      -1.213  13.430  15.222  1.00  0.00    -0.389 OA
HETATM   45  H41 UNL     1      -0.313  13.071  15.135  1.00  0.00     0.210 HD
ENDBRANCH  13  44
BRANCH  10  46
HETATM   46  C23 UNL     1      -2.703  16.234  15.788  1.00  0.00    -0.045 A 
HETATM   47  C24 UNL     1      -2.886  15.865  14.519  1.00  0.00     0.087 A 
HETATM   48  C25 UNL     1      -3.007  17.083  13.723  1.00  0.00     0.283 A 
HETATM   49  O3  UNL     1      -3.183  17.109  12.518  1.00  0.00    -0.260 OA
HETATM   50  O4  UNL     1      -2.909  18.160  14.541  1.00  0.00    -0.314 OA
HETATM   51  C26 UNL     1      -2.674  17.714  15.881  1.00  0.00     0.213 A 
ENDBRANCH  10  46
TORSDOF 11
ENDMDL
MODEL 5
REMARK minimizedAffinity -10.7520161
REMARK CNNscore 0.413933575
REMARK CNNaffinity 7.21558142
REMARK  11 active torsions:
REMARK  status: ('A' for Active; 'I' for Inactive)
REMARK    1  A    between atoms: C3_4  and  O2_5 
REMARK    2  A    between atoms: O2_5  and  C4_6 
REMARK    3  A    between atoms: C7_9  and  C8_10 
REMARK    4  A    between atoms: N1_11  and  C9_13 
REMARK    5  A    between atoms: C9_13  and  C10_14 
REMARK    6  A    between atoms: C10_14  and  C11_15 
REMARK    7  A    between atoms: C22_26  and  C23_27 
REMARK    8  A    between atoms: C29_35  and  O5_36 
REMARK    9  A    between atoms: C33_40  and  O6_41 
REMARK   10  A    between atoms: C36_44  and  O7_45 
REMARK   11  A    between atoms: C37_46  and  O8_47 
ROOT
HETATM    1  C4  UNL     1      -3.037   7.321  13.303  1.00  0.00     0.127 C 
HETATM    2  C5  UNL     1      -2.881   6.851  14.741  1.00  0.00     0.033 C 
HETATM    3  C6  UNL     1      -1.618   7.365  15.436  1.00  0.00     0.021 C 
HETATM    4  C7  UNL     1      -0.979   8.655  14.826  1.00  0.00     0.026 C 
HETATM    5  C17 UNL     1      -0.130   9.366  15.965  1.00  0.00     0.009 C 
HETATM    6  C18 UNL     1       1.406   9.420  15.740  1.00  0.00     0.007 C 
HETATM    7  C19 UNL     1       2.176  10.077  16.906  1.00  0.00     0.013 C 
HETATM    8  C20 UNL     1       1.587  11.451  17.272  1.00  0.00    -0.005 C 
HETATM    9  C21 UNL     1       1.858  12.418  16.071  1.00  0.00     0.019 C 
HETATM   10  C22 UNL     1       2.142  12.178  18.540  1.00  0.00     0.028 C 
HETATM   11  C27 UNL     1       0.928  13.007  19.059  1.00  0.00     0.013 C 
HETATM   12  C28 UNL     1      -0.287  12.655  18.173  1.00  0.00     0.040 C 
HETATM   13  C29 UNL     1       0.076  11.288  17.603  1.00  0.00     0.070 C 
HETATM   14  C30 UNL     1      -0.707  10.757  16.385  1.00  0.00     0.026 C 
HETATM   15  C31 UNL     1      -2.216  10.626  16.625  1.00  0.00     0.011 C 
HETATM   16  C32 UNL     1      -2.991  10.151  15.387  1.00  0.00     0.039 C 
HETATM   17  C33 UNL     1      -2.111   9.564  14.257  1.00  0.00     0.073 C 
HETATM   18  C34 UNL     1      -2.993   8.850  13.201  1.00  0.00     0.071 C 
ENDROOT
BRANCH   1  19
HETATM   19  O2  UNL     1      -4.283   6.804  12.820  1.00  0.00    -0.356 OA
BRANCH  19  20
HETATM   20  C3  UNL     1      -5.157   6.328  13.844  1.00  0.00     0.263 C 
HETATM   21  O1  UNL     1      -5.675   5.045  13.494  1.00  0.00    -0.354 OA
HETATM   22  C2  UNL     1      -6.903   4.660  14.120  1.00  0.00     0.151 C 
HETATM   23  C1  UNL     1      -8.018   4.681  13.077  1.00  0.00     0.042 C 
HETATM   24  C37 UNL     1      -7.213   5.459  15.396  1.00  0.00     0.175 C 
HETATM   25  C36 UNL     1      -7.219   6.971  15.124  1.00  0.00     0.154 C 
HETATM   26  C35 UNL     1      -6.261   7.366  14.008  1.00  0.00     0.095 C 
BRANCH  24  27
HETATM   27  O8  UNL     1      -8.452   5.087  16.007  1.00  0.00    -0.390 OA
HETATM   28  H55 UNL     1      -8.455   4.116  16.106  1.00  0.00     0.210 HD
ENDBRANCH  24  27
BRANCH  25  29
HETATM   29  O7  UNL     1      -8.539   7.414  14.791  1.00  0.00    -0.393 OA
HETATM   30  H53 UNL     1      -9.135   6.846  15.322  1.00  0.00     0.210 HD
ENDBRANCH  25  29
ENDBRANCH  19  20
ENDBRANCH   1  19
BRANCH  17  31
HETATM   31  O6  UNL     1      -1.520  10.697  13.584  1.00  0.00    -0.389 OA
HETATM   32  H47 UNL     1      -2.241  11.218  13.187  1.00  0.00     0.210 HD
ENDBRANCH  17  31
BRANCH   4  33
HETATM   33  C8  UNL     1      -0.055   8.315  13.644  1.00  0.00     0.068 C 
HETATM   34  N1  UNL     1       0.204   9.160  12.706  1.00  0.00    -0.401 N 
ATOM     35  H1  UNL     1      -0.185  10.103  12.693  1.00  0.00     0.158 HD
BRANCH  34  36
HETATM   36  C9  UNL     1       1.103   8.662  11.655  1.00  0.00     0.123 C 
BRANCH  36  37
HETATM   37  C10 UNL     1       0.259   8.166  10.477  1.00  0.00     0.053 C 
BRANCH  37  38
HETATM   38  C11 UNL     1       1.098   7.593   9.357  1.00  0.00    -0.082 C 
HETATM   39  C12 UNL     1       1.131   8.162   8.137  1.00  0.00    -0.024 C 
HETATM   40  C13 UNL     1       1.902   7.609   6.974  1.00  0.00     0.027 C 
HETATM   41  C14 UNL     1       2.382   6.175   7.198  1.00  0.00     0.004 C 
HETATM   42  C15 UNL     1       2.929   5.992   8.609  1.00  0.00     0.005 C 
HETATM   43  C16 UNL     1       1.870   6.329   9.663  1.00  0.00     0.034 C 
ENDBRANCH  37  38
ENDBRANCH  36  37
ENDBRANCH  34  36
ENDBRANCH   4  33
BRANCH  13  44
HETATM   44  O5  UNL     1      -0.086  10.350  18.681  1.00  0.00    -0.389 OA
HETATM   45  H41 UNL     1      -1.013  10.378  18.975  1.00  0.00     0.210 HD
ENDBRANCH  13  44
BRANCH  10  46
HETATM   46  C23 UNL     1       2.827  11.374  19.613  1.00  0.00    -0.045 A 
HETATM   47  C24 UNL     1       2.197  10.675  20.559  1.00  0.00     0.087 A 
HETATM   48  C25 UNL     1       3.216   9.993  21.351  1.00  0.00     0.283 A 
HETATM   49  O3  UNL     1       2.985   9.266  22.299  1.00  0.00    -0.260 OA
HETATM   50  O4  UNL     1       4.441  10.287  20.848  1.00  0.00    -0.314 OA
HETATM   51  C26 UNL     1       4.293  11.200  19.754  1.00  0.00     0.213 A 
ENDBRANCH  10  46
TORSDOF 11
ENDMDL
MODEL 6
REMARK minimizedAffinity -8.53015041
REMARK CNNscore 0.411703706
REMARK CNNaffinity 6.2810092
REMARK  11 active torsions:
REMARK  status: ('A' for Active; 'I' for Inactive)
REMARK    1  A    between atoms: C3_4  and  O2_5 
REMARK    2  A    between atoms: O2_5  and  C4_6 
REMARK    3  A    between atoms: C7_9  and  C8_10 
REMARK    4  A    between atoms: N1_11  and  C9_13 
REMARK    5  A    between atoms: C9_13  and  C10_14 
REMARK    6  A    between atoms: C10_14  and  C11_15 
REMARK    7  A    between atoms: C22_26  and  C23_27 
REMARK    8  A    between atoms: C29_35  and  O5_36 
REMARK    9  A    between atoms: C33_40  and  O6_41 
REMARK   10  A    between atoms: C36_44  and  O7_45 
REMARK   11  A    between atoms: C37_46  and  O8_47 
ROOT
HETATM    1  C4  UNL     1      -1.965  10.526  14.540  1.00  0.00     0.127 C 
HETATM    2  C5  UNL     1      -3.438  10.185  14.704  1.00  0.00     0.033 C 
HETATM    3  C6  UNL     1      -4.037  10.616  16.045  1.00  0.00     0.021 C 
HETATM    4  C7  UNL     1      -3.279  11.760  16.795  1.00  0.00     0.026 C 
HETATM    5  C17 UNL     1      -4.312  12.478  17.765  1.00  0.00     0.009 C 
HETATM    6  C18 UNL     1      -4.035  12.334  19.287  1.00  0.00     0.007 C 
HETATM    7  C19 UNL     1      -5.103  13.010  20.173  1.00  0.00     0.013 C 
HETATM    8  C20 UNL     1      -5.346  14.471  19.755  1.00  0.00    -0.005 C 
HETATM    9  C21 UNL     1      -4.045  15.278  20.080  1.00  0.00     0.019 C 
HETATM   10  C22 UNL     1      -6.515  15.250  20.441  1.00  0.00     0.028 C 
HETATM   11  C27 UNL     1      -6.984  16.259  19.348  1.00  0.00     0.013 C 
HETATM   12  C28 UNL     1      -6.177  15.963  18.066  1.00  0.00     0.040 C 
HETATM   13  C29 UNL     1      -5.739  14.514  18.251  1.00  0.00     0.070 C 
HETATM   14  C30 UNL     1      -4.606  13.959  17.363  1.00  0.00     0.026 C 
HETATM   15  C31 UNL     1      -4.906  14.025  15.861  1.00  0.00     0.011 C 
HETATM   16  C32 UNL     1      -3.747  13.523  14.986  1.00  0.00     0.039 C 
HETATM   17  C33 UNL     1      -2.656  12.732  15.748  1.00  0.00     0.073 C 
HETATM   18  C34 UNL     1      -1.706  12.023  14.748  1.00  0.00     0.071 C 
ENDROOT
BRANCH   1  19
HETATM   19  O2  UNL     1      -1.576  10.110  13.225  1.00  0.00    -0.356 OA
BRANCH  19  20
HETATM   20  C3  UNL     1      -0.925   8.839  13.181  1.00  0.00     0.263 C 
HETATM   21  O1  UNL     1      -1.823   7.842  12.696  1.00  0.00    -0.354 OA
HETATM   22  C2  UNL     1      -1.526   6.488  13.052  1.00  0.00     0.151 C 
HETATM   23  C1  UNL     1      -2.561   6.006  14.067  1.00  0.00     0.042 C 
HETATM   24  C37 UNL     1      -0.067   6.277  13.485  1.00  0.00     0.175 C 
HETATM   25  C36 UNL     1       0.317   7.216  14.640  1.00  0.00     0.154 C 
HETATM   26  C35 UNL     1      -0.443   8.535  14.595  1.00  0.00     0.095 C 
BRANCH  24  27
HETATM   27  O8  UNL     1       0.220   4.928  13.862  1.00  0.00    -0.390 OA
HETATM   28  H55 UNL     1      -0.094   4.345  13.146  1.00  0.00     0.210 HD
ENDBRANCH  24  27
BRANCH  25  29
HETATM   29  O7  UNL     1       0.082   6.579  15.901  1.00  0.00    -0.393 OA
HETATM   30  H53 UNL     1       0.273   5.632  15.742  1.00  0.00     0.210 HD
ENDBRANCH  25  29
ENDBRANCH  19  20
ENDBRANCH   1  19
BRANCH  17  31
HETATM   31  O6  UNL     1      -1.852  13.719  16.431  1.00  0.00    -0.389 OA
HETATM   32  H47 UNL     1      -1.427  14.277  15.755  1.00  0.00     0.210 HD
ENDBRANCH  17  31
BRANCH   4  33
HETATM   33  C8  UNL     1      -2.109  11.203  17.626  1.00  0.00     0.068 C 
HETATM   34  N1  UNL     1      -1.299  11.967  18.275  1.00  0.00    -0.401 N 
ATOM     35  H1  UNL     1      -1.388  12.982  18.280  1.00  0.00     0.158 HD
BRANCH  34  36
HETATM   36  C9  UNL     1      -0.239  11.262  19.008  1.00  0.00     0.123 C 
BRANCH  36  37
HETATM   37  C10 UNL     1       0.516  12.272  19.878  1.00  0.00     0.053 C 
BRANCH  37  38
HETATM   38  C11 UNL     1       1.521  11.615  20.799  1.00  0.00    -0.082 C 
HETATM   39  C12 UNL     1       1.648  10.277  20.864  1.00  0.00    -0.024 C 
HETATM   40  C13 UNL     1       2.588   9.568  21.796  1.00  0.00     0.027 C 
HETATM   41  C14 UNL     1       3.152  10.477  22.888  1.00  0.00     0.004 C 
HETATM   42  C15 UNL     1       3.546  11.837  22.323  1.00  0.00     0.005 C 
HETATM   43  C16 UNL     1       2.351  12.534  21.667  1.00  0.00     0.034 C 
ENDBRANCH  37  38
ENDBRANCH  36  37
ENDBRANCH  34  36
ENDBRANCH   4  33
BRANCH  13  44
HETATM   44  O5  UNL     1      -6.911  13.711  18.032  1.00  0.00    -0.389 OA
HETATM   45  H41 UNL     1      -7.229  13.873  17.128  1.00  0.00     0.210 HD
ENDBRANCH  13  44
BRANCH  10  46
HETATM   46  C23 UNL     1      -7.643  14.482  21.077  1.00  0.00    -0.045 A 
HETATM   47  C24 UNL     1      -7.513  13.670  22.127  1.00  0.00     0.087 A 
HETATM   48  C25 UNL     1      -8.845  13.181  22.470  1.00  0.00     0.283 A 
HETATM   49  O3  UNL     1      -9.089  12.416  23.384  1.00  0.00    -0.260 OA
HETATM   50  O4  UNL     1      -9.751  13.728  21.622  1.00  0.00    -0.314 OA
HETATM   51  C26 UNL     1      -9.067  14.548  20.667  1.00  0.00     0.213 A 
ENDBRANCH  10  46
TORSDOF 11
ENDMDL
MODEL 7
REMARK minimizedAffinity -7.7800889
REMARK CNNscore 0.364310831
REMARK CNNaffinity 7.00504494
REMARK  11 active torsions:
REMARK  status: ('A' for Active; 'I' for Inactive)
REMARK    1  A    between atoms: C3_4  and  O2_5 
REMARK    2  A    between atoms: O2_5  and  C4_6 
REMARK    3  A    between atoms: C7_9  and  C8_10 
REMARK    4  A    between atoms: N1_11  and  C9_13 
REMARK    5  A    between atoms: C9_13  and  C10_14 
REMARK    6  A    between atoms: C10_14  and  C11_15 
REMARK    7  A    between atoms: C22_26  and  C23_27 
REMARK    8  A    between atoms: C29_35  and  O5_36 
REMARK    9  A    between atoms: C33_40  and  O6_41 
REMARK   10  A    between atoms: C36_44  and  O7_45 
REMARK   11  A    between atoms: C37_46  and  O8_47 
ROOT
HETATM    1  C4  UNL     1      -2.492   6.936  13.306  1.00  0.00     0.127 C 
HETATM    2  C5  UNL     1      -2.602   8.244  12.539  1.00  0.00     0.033 C 
HETATM    3  C6  UNL     1      -3.246   9.385  13.331  1.00  0.00     0.021 C 
HETATM    4  C7  UNL     1      -3.205   9.243  14.888  1.00  0.00     0.026 C 
HETATM    5  C17 UNL     1      -3.318  10.698  15.515  1.00  0.00     0.009 C 
HETATM    6  C18 UNL     1      -4.603  10.990  16.339  1.00  0.00     0.007 C 
HETATM    7  C19 UNL     1      -4.674  12.435  16.875  1.00  0.00     0.013 C 
HETATM    8  C20 UNL     1      -3.391  12.825  17.630  1.00  0.00    -0.005 C 
HETATM    9  C21 UNL     1      -3.327  11.959  18.933  1.00  0.00     0.019 C 
HETATM   10  C22 UNL     1      -3.229  14.309  18.095  1.00  0.00     0.028 C 
HETATM   11  C27 UNL     1      -1.688  14.546  18.061  1.00  0.00     0.013 C 
HETATM   12  C28 UNL     1      -1.035  13.271  17.485  1.00  0.00     0.040 C 
HETATM   13  C29 UNL     1      -2.165  12.621  16.695  1.00  0.00     0.070 C 
HETATM   14  C30 UNL     1      -2.026  11.144  16.272  1.00  0.00     0.026 C 
HETATM   15  C31 UNL     1      -0.802  10.863  15.393  1.00  0.00     0.011 C 
HETATM   16  C32 UNL     1      -0.643   9.379  15.028  1.00  0.00     0.039 C 
HETATM   17  C33 UNL     1      -1.893   8.507  15.299  1.00  0.00     0.073 C 
HETATM   18  C34 UNL     1      -1.738   7.118  14.628  1.00  0.00     0.071 C 
ENDROOT
BRANCH   1  19
HETATM   19  O2  UNL     1      -1.825   5.998  12.453  1.00  0.00    -0.356 OA
BRANCH  19  20
HETATM   20  C3  UNL     1      -0.405   6.150  12.412  1.00  0.00     0.263 C 
HETATM   21  O1  UNL     1      -0.062   7.443  11.917  1.00  0.00    -0.354 OA
HETATM   22  C2  UNL     1       1.244   7.583  11.348  1.00  0.00     0.151 C 
HETATM   23  C1  UNL     1       1.108   7.750   9.835  1.00  0.00     0.042 C 
HETATM   24  C37 UNL     1       2.219   6.476  11.779  1.00  0.00     0.175 C 
HETATM   25  C36 UNL     1       1.659   5.080  11.462  1.00  0.00     0.154 C 
HETATM   26  C35 UNL     1       0.138   5.035  11.525  1.00  0.00     0.095 C 
BRANCH  24  27
HETATM   27  O8  UNL     1       3.515   6.606  11.190  1.00  0.00    -0.390 OA
HETATM   28  H55 UNL     1       3.822   7.520  11.343  1.00  0.00     0.210 HD
ENDBRANCH  24  27
BRANCH  25  29
HETATM   29  O7  UNL     1       2.091   4.651  10.167  1.00  0.00    -0.393 OA
HETATM   30  H53 UNL     1       2.987   5.031  10.063  1.00  0.00     0.210 HD
ENDBRANCH  25  29
ENDBRANCH  19  20
ENDBRANCH   1  19
BRANCH  17  31
HETATM   31  O6  UNL     1      -1.907   8.264  16.722  1.00  0.00    -0.389 OA
HETATM   32  H47 UNL     1      -1.108   7.754  16.946  1.00  0.00     0.210 HD
ENDBRANCH  17  31
BRANCH   4  33
HETATM   33  C8  UNL     1      -4.370   8.379  15.401  1.00  0.00     0.068 C 
HETATM   34  N1  UNL     1      -5.402   8.112  14.677  1.00  0.00    -0.401 N 
ATOM     35  H1  UNL     1      -5.505   8.454  13.722  1.00  0.00     0.158 HD
BRANCH  34  36
HETATM   36  C9  UNL     1      -6.418   7.277  15.332  1.00  0.00     0.123 C 
BRANCH  36  37
HETATM   37  C10 UNL     1      -7.275   6.605  14.255  1.00  0.00     0.053 C 
BRANCH  37  38
HETATM   38  C11 UNL     1      -8.723   7.039  14.304  1.00  0.00    -0.082 C 
HETATM   39  C12 UNL     1      -9.153   7.962  15.185  1.00  0.00    -0.024 C 
HETATM   40  C13 UNL     1     -10.585   8.392  15.316  1.00  0.00     0.027 C 
HETATM   41  C14 UNL     1     -11.561   7.465  14.591  1.00  0.00     0.004 C 
HETATM   42  C15 UNL     1     -11.026   7.064  13.222  1.00  0.00     0.005 C 
HETATM   43  C16 UNL     1      -9.670   6.361  13.340  1.00  0.00     0.034 C 
ENDBRANCH  37  38
ENDBRANCH  36  37
ENDBRANCH  34  36
ENDBRANCH   4  33
BRANCH  13  44
HETATM   44  O5  UNL     1      -2.327  13.412  15.505  1.00  0.00    -0.389 OA
HETATM   45  H41 UNL     1      -1.490  13.394  15.009  1.00  0.00     0.210 HD
ENDBRANCH  13  44
BRANCH  10  46
HETATM   46  C23 UNL     1      -4.021  15.390  17.408  1.00  0.00    -0.045 A 
HETATM   47  C24 UNL     1      -3.562  16.157  16.418  1.00  0.00     0.087 A 
HETATM   48  C25 UNL     1      -4.657  17.023  15.992  1.00  0.00     0.283 A 
HETATM   49  O3  UNL     1      -4.581  17.851  15.103  1.00  0.00    -0.260 OA
HETATM   50  O4  UNL     1      -5.760  16.741  16.729  1.00  0.00    -0.314 OA
HETATM   51  C26 UNL     1      -5.436  15.731  17.692  1.00  0.00     0.213 A 
ENDBRANCH  10  46
TORSDOF 11
ENDMDL
MODEL 8
REMARK minimizedAffinity -9.02256298
REMARK CNNscore 0.338370204
REMARK CNNaffinity 6.70461321
REMARK  11 active torsions:
REMARK  status: ('A' for Active; 'I' for Inactive)
REMARK    1  A    between atoms: C3_4  and  O2_5 
REMARK    2  A    between atoms: O2_5  and  C4_6 
REMARK    3  A    between atoms: C7_9  and  C8_10 
REMARK    4  A    between atoms: N1_11  and  C9_13 
REMARK    5  A    between atoms: C9_13  and  C10_14 
REMARK    6  A    between atoms: C10_14  and  C11_15 
REMARK    7  A    between atoms: C22_26  and  C23_27 
REMARK    8  A    between atoms: C29_35  and  O5_36 
REMARK    9  A    between atoms: C33_40  and  O6_41 
REMARK   10  A    between atoms: C36_44  and  O7_45 
REMARK   11  A    between atoms: C37_46  and  O8_47 
ROOT
HETATM    1  C4  UNL     1      -2.969  11.440  17.622  1.00  0.00     0.127 C 
HETATM    2  C5  UNL     1      -3.212  11.889  16.189  1.00  0.00     0.033 C 
HETATM    3  C6  UNL     1      -2.159  11.400  15.191  1.00  0.00     0.021 C 
HETATM    4  C7  UNL     1      -1.342  10.139  15.624  1.00  0.00     0.026 C 
HETATM    5  C17 UNL     1      -0.799   9.432  14.309  1.00  0.00     0.009 C 
HETATM    6  C18 UNL     1       0.744   9.427  14.123  1.00  0.00     0.007 C 
HETATM    7  C19 UNL     1       1.201   8.771  12.802  1.00  0.00     0.013 C 
HETATM    8  C20 UNL     1       0.581   7.375  12.616  1.00  0.00    -0.005 C 
HETATM    9  C21 UNL     1       1.189   6.438  13.712  1.00  0.00     0.019 C 
HETATM   10  C22 UNL     1       0.807   6.642  11.254  1.00  0.00     0.028 C 
HETATM   11  C27 UNL     1      -0.474   5.770  11.080  1.00  0.00     0.013 C 
HETATM   12  C28 UNL     1      -1.423   6.103  12.250  1.00  0.00     0.040 C 
HETATM   13  C29 UNL     1      -0.968   7.489  12.692  1.00  0.00     0.070 C 
HETATM   14  C30 UNL     1      -1.421   8.019  14.068  1.00  0.00     0.026 C 
HETATM   15  C31 UNL     1      -2.943   8.102  14.231  1.00  0.00     0.011 C 
HETATM   16  C32 UNL     1      -3.381   8.576  15.626  1.00  0.00     0.039 C 
HETATM   17  C33 UNL     1      -2.255   9.208  16.479  1.00  0.00     0.073 C 
HETATM   18  C34 UNL     1      -2.851   9.915  17.723  1.00  0.00     0.071 C 
ENDROOT
BRANCH   1  19
HETATM   19  O2  UNL     1      -4.061  11.929  18.411  1.00  0.00    -0.356 OA
BRANCH  19  20
HETATM   20  C3  UNL     1      -3.762  13.111  19.155  1.00  0.00     0.263 C 
HETATM   21  O1  UNL     1      -4.534  14.209  18.670  1.00  0.00    -0.354 OA
HETATM   22  C2  UNL     1      -4.020  15.517  18.935  1.00  0.00     0.151 C 
HETATM   23  C1  UNL     1      -3.518  16.127  17.627  1.00  0.00     0.042 C 
HETATM   24  C37 UNL     1      -2.998  15.550  20.082  1.00  0.00     0.175 C 
HETATM   25  C36 UNL     1      -1.837  14.576  19.828  1.00  0.00     0.154 C 
HETATM   26  C35 UNL     1      -2.265  13.359  19.018  1.00  0.00     0.095 C 
BRANCH  24  27
HETATM   27  O8  UNL     1      -2.469  16.856  20.330  1.00  0.00    -0.390 OA
HETATM   28  H55 UNL     1      -3.222  17.470  20.419  1.00  0.00     0.210 HD
ENDBRANCH  24  27
BRANCH  25  29
HETATM   29  O7  UNL     1      -0.766  15.241  19.149  1.00  0.00    -0.393 OA
HETATM   30  H53 UNL     1      -0.782  16.158  19.494  1.00  0.00     0.210 HD
ENDBRANCH  25  29
ENDBRANCH  19  20
ENDBRANCH   1  19
BRANCH  17  31
HETATM   31  O6  UNL     1      -1.471   8.104  16.984  1.00  0.00    -0.389 OA
HETATM   32  H47 UNL     1      -2.046   7.570  17.561  1.00  0.00     0.210 HD
ENDBRANCH  17  31
BRANCH   4  33
HETATM   33  C8  UNL     1      -0.151  10.525  16.519  1.00  0.00     0.068 C 
HETATM   34  N1  UNL     1      -0.198  10.442  17.804  1.00  0.00    -0.401 N 
ATOM     35  H1  UNL     1      -1.024  10.114  18.302  1.00  0.00     0.158 HD
BRANCH  34  36
HETATM   36  C9  UNL     1       1.030  10.858  18.496  1.00  0.00     0.123 C 
BRANCH  36  37
HETATM   37  C10 UNL     1       0.764  10.880  20.005  1.00  0.00     0.053 C 
BRANCH  37  38
HETATM   38  C11 UNL     1       1.994  10.546  20.820  1.00  0.00    -0.082 C 
HETATM   39  C12 UNL     1       2.021   9.490  21.655  1.00  0.00    -0.024 C 
HETATM   40  C13 UNL     1       3.192   9.142  22.527  1.00  0.00     0.027 C 
HETATM   41  C14 UNL     1       4.222  10.267  22.630  1.00  0.00     0.004 C 
HETATM   42  C15 UNL     1       4.471  10.911  21.271  1.00  0.00     0.005 C 
HETATM   43  C16 UNL     1       3.177  11.477  20.679  1.00  0.00     0.034 C 
ENDBRANCH  37  38
ENDBRANCH  36  37
ENDBRANCH  34  36
ENDBRANCH   4  33
BRANCH  13  44
HETATM   44  O5  UNL     1      -1.438   8.403  11.686  1.00  0.00    -0.389 OA
HETATM   45  H41 UNL     1      -2.407   8.343  11.646  1.00  0.00     0.210 HD
ENDBRANCH  13  44
BRANCH  10  46
HETATM   46  C23 UNL     1       1.160   7.447  10.030  1.00  0.00    -0.045 A 
HETATM   47  C24 UNL     1       2.403   7.709   9.624  1.00  0.00     0.087 A 
HETATM   48  C25 UNL     1       2.307   8.452   8.372  1.00  0.00     0.283 A 
HETATM   49  O3  UNL     1       3.260   8.851   7.727  1.00  0.00    -0.260 OA
HETATM   50  O4  UNL     1       1.000   8.605   8.045  1.00  0.00    -0.314 OA
HETATM   51  C26 UNL     1       0.187   8.025   9.072  1.00  0.00     0.213 A 
ENDBRANCH  10  46
TORSDOF 11
ENDMDL
MODEL 9
REMARK minimizedAffinity -9.48967457
REMARK CNNscore 0.323585331
REMARK CNNaffinity 7.16200638
REMARK  11 active torsions:
REMARK  status: ('A' for Active; 'I' for Inactive)
REMARK    1  A    between atoms: C3_4  and  O2_5 
REMARK    2  A    between atoms: O2_5  and  C4_6 
REMARK    3  A    between atoms: C7_9  and  C8_10 
REMARK    4  A    between atoms: N1_11  and  C9_13 
REMARK    5  A    between atoms: C9_13  and  C10_14 
REMARK    6  A    between atoms: C10_14  and  C11_15 
REMARK    7  A    between atoms: C22_26  and  C23_27 
REMARK    8  A    between atoms: C29_35  and  O5_36 
REMARK    9  A    between atoms: C33_40  and  O6_41 
REMARK   10  A    between atoms: C36_44  and  O7_45 
REMARK   11  A    between atoms: C37_46  and  O8_47 
ROOT
HETATM    1  C4  UNL     1      -0.722   6.202  12.777  1.00  0.00     0.127 C 
HETATM    2  C5  UNL     1      -0.415   5.834  14.220  1.00  0.00     0.033 C 
HETATM    3  C6  UNL     1       0.670   6.696  14.871  1.00  0.00     0.021 C 
HETATM    4  C7  UNL     1       0.914   8.095  14.216  1.00  0.00     0.026 C 
HETATM    5  C17 UNL     1       1.554   9.045  15.317  1.00  0.00     0.009 C 
HETATM    6  C18 UNL     1       3.011   9.515  15.050  1.00  0.00     0.007 C 
HETATM    7  C19 UNL     1       3.591  10.392  16.182  1.00  0.00     0.013 C 
HETATM    8  C20 UNL     1       2.651  11.559  16.533  1.00  0.00    -0.005 C 
HETATM    9  C21 UNL     1       2.621  12.529  15.305  1.00  0.00     0.019 C 
HETATM   10  C22 UNL     1       3.008  12.446  17.770  1.00  0.00     0.028 C 
HETATM   11  C27 UNL     1       1.622  12.921  18.303  1.00  0.00     0.013 C 
HETATM   12  C28 UNL     1       0.536  12.222  17.457  1.00  0.00     0.040 C 
HETATM   13  C29 UNL     1       1.251  10.994  16.907  1.00  0.00     0.070 C 
HETATM   14  C30 UNL     1       0.623  10.233  15.722  1.00  0.00     0.026 C 
HETATM   15  C31 UNL     1      -0.786   9.697  16.005  1.00  0.00     0.011 C 
HETATM   16  C32 UNL     1      -1.422   8.992  14.798  1.00  0.00     0.039 C 
HETATM   17  C33 UNL     1      -0.436   8.640  13.658  1.00  0.00     0.073 C 
HETATM   18  C34 UNL     1      -1.106   7.680  12.641  1.00  0.00     0.071 C 
ENDROOT
BRANCH   1  19
HETATM   19  O2  UNL     1      -1.786   5.348  12.338  1.00  0.00    -0.356 OA
BRANCH  19  20
HETATM   20  C3  UNL     1      -2.956   5.401  13.155  1.00  0.00     0.263 C 
HETATM   21  O1  UNL     1      -3.877   6.360  12.636  1.00  0.00    -0.354 OA
HETATM   22  C2  UNL     1      -4.829   6.896  13.559  1.00  0.00     0.151 C 
HETATM   23  C1  UNL     1      -4.472   8.353  13.848  1.00  0.00     0.042 C 
HETATM   24  C37 UNL     1      -5.017   6.029  14.814  1.00  0.00     0.175 C 
HETATM   25  C36 UNL     1      -3.680   5.780  15.529  1.00  0.00     0.154 C 
HETATM   26  C35 UNL     1      -2.500   5.753  14.567  1.00  0.00     0.095 C 
BRANCH  24  27
HETATM   27  O8  UNL     1      -5.952   6.579  15.746  1.00  0.00    -0.390 OA
HETATM   28  H55 UNL     1      -6.768   6.794  15.256  1.00  0.00     0.210 HD
ENDBRANCH  24  27
BRANCH  25  29
HETATM   29  O7  UNL     1      -3.452   6.783  16.526  1.00  0.00    -0.393 OA
HETATM   30  H53 UNL     1      -4.342   7.001  16.870  1.00  0.00     0.210 HD
ENDBRANCH  25  29
ENDBRANCH  19  20
ENDBRANCH   1  19
BRANCH  17  31
HETATM   31  O6  UNL     1      -0.195   9.873  12.945  1.00  0.00    -0.389 OA
HETATM   32  H47 UNL     1      -1.040  10.163  12.556  1.00  0.00     0.210 HD
ENDBRANCH  17  31
BRANCH   4  33
HETATM   33  C8  UNL     1       1.873   7.991  13.018  1.00  0.00     0.068 C 
HETATM   34  N1  UNL     1       2.652   6.979  12.843  1.00  0.00    -0.401 N 
ATOM     35  H1  UNL     1       2.676   6.188  13.486  1.00  0.00     0.158 HD
BRANCH  34  36
HETATM   36  C9  UNL     1       3.503   7.053  11.647  1.00  0.00     0.123 C 
BRANCH  36  37
HETATM   37  C10 UNL     1       3.117   5.916  10.695  1.00  0.00     0.053 C 
BRANCH  37  38
HETATM   38  C11 UNL     1       2.591   6.418   9.369  1.00  0.00    -0.082 C 
HETATM   39  C12 UNL     1       2.836   5.763   8.219  1.00  0.00    -0.024 C 
HETATM   40  C13 UNL     1       2.386   6.241   6.869  1.00  0.00     0.027 C 
HETATM   41  C14 UNL     1       1.910   7.693   6.873  1.00  0.00     0.004 C 
HETATM   42  C15 UNL     1       1.045   7.986   8.093  1.00  0.00     0.005 C 
HETATM   43  C16 UNL     1       1.807   7.711   9.393  1.00  0.00     0.034 C 
ENDBRANCH  37  38
ENDBRANCH  36  37
ENDBRANCH  34  36
ENDBRANCH   4  33
BRANCH  13  44
HETATM   44  O5  UNL     1       1.376  10.078  18.009  1.00  0.00    -0.389 OA
HETATM   45  H41 UNL     1       0.484   9.857  18.326  1.00  0.00     0.210 HD
ENDBRANCH  13  44
BRANCH  10  46
HETATM   46  C23 UNL     1       3.909  11.893  18.842  1.00  0.00    -0.045 A 
HETATM   47  C24 UNL     1       3.494  11.439  20.026  1.00  0.00     0.087 A 
HETATM   48  C25 UNL     1       4.664  10.935  20.737  1.00  0.00     0.283 A 
HETATM   49  O3  UNL     1       4.642  10.446  21.851  1.00  0.00    -0.260 OA
HETATM   50  O4  UNL     1       5.760  11.083  19.951  1.00  0.00    -0.314 OA
HETATM   51  C26 UNL     1       5.379  11.727  18.729  1.00  0.00     0.213 A 
ENDBRANCH  10  46
TORSDOF 11
ENDMDL
