MODEL 1
REMARK minimizedAffinity -9.7686224
REMARK CNNscore 0.456958473
REMARK CNNaffinity 7.57999086
REMARK  8 active torsions:
REMARK  status: ('A' for Active; 'I' for Inactive)
REMARK    1  A    between atoms: C3_3  and  O1_4 
REMARK    2  A    between atoms: N1_14  and  O2_16 
REMARK    3  A    between atoms: O2_16  and  C13_17 
REMARK    4  A    between atoms: C13_17  and  C14_18 
REMARK       I    between atoms: C14_18  and  N2_20 
REMARK    5  A    between atoms: N2_20  and  C15_21 
REMARK    6  A    between atoms: C15_21  and  C16_22 
REMARK    7  A    between atoms: C16_22  and  O4_23 
REMARK    8  A    between atoms: C16_22  and  C17_24 
ROOT
HETATM    1  C1  UNL     1       3.102   8.380   8.323  1.00  0.00     0.015 C 
HETATM    2  C2  UNL     1       2.506   7.792   9.184  1.00  0.00    -0.078 C 
HETATM    3  C3  UNL     1       1.758   7.055  10.215  1.00  0.00     0.128 C 
HETATM    4  C4  UNL     1       2.607   5.966  10.880  1.00  0.00     0.052 C 
HETATM    5  C5  UNL     1       1.757   5.580  12.086  1.00  0.00     0.010 C 
HETATM    6  C6  UNL     1       1.280   6.929  12.637  1.00  0.00     0.002 C 
HETATM    7  C7  UNL     1       0.027   6.903  13.544  1.00  0.00    -0.004 C 
HETATM    8  C8  UNL     1      -1.131   5.992  13.103  1.00  0.00     0.010 C 
HETATM    9  C9  UNL     1      -2.304   6.029  14.086  1.00  0.00     0.035 C 
HETATM   10  C10 UNL     1      -2.743   7.423  14.486  1.00  0.00    -0.069 C 
HETATM   11  C11 UNL     1      -4.054   7.726  14.533  1.00  0.00     0.030 C 
HETATM   12  C12 UNL     1      -4.538   9.032  15.072  1.00  0.00     0.032 C 
HETATM   13  N1  UNL     1      -5.768   9.447  15.081  1.00  0.00    -0.271 N 
ATOM     14  H1  UNL     1      -6.066  10.336  15.484  1.00  0.00     0.194 HD
HETATM   15  C23 UNL     1      -3.511   9.932  15.729  1.00  0.00     0.060 C 
HETATM   16  C24 UNL     1      -2.185   9.857  14.985  1.00  0.00     0.020 C 
HETATM   17  C25 UNL     1      -1.633   8.404  14.865  1.00  0.00    -0.016 C 
HETATM   18  C26 UNL     1      -1.073   8.001  16.256  1.00  0.00     0.020 C 
HETATM   19  C27 UNL     1      -0.478   8.348  13.789  1.00  0.00     0.002 C 
HETATM   20  C28 UNL     1      -0.838   9.049  12.451  1.00  0.00     0.007 C 
HETATM   21  C29 UNL     1      -0.155   8.501  11.194  1.00  0.00     0.014 C 
HETATM   22  C30 UNL     1       1.250   7.922  11.425  1.00  0.00     0.003 C 
HETATM   23  C31 UNL     1       2.221   9.094  11.737  1.00  0.00     0.020 C 
ENDROOT
BRANCH   3  24
HETATM   24  O1  UNL     1       0.662   6.392   9.575  1.00  0.00    -0.377 OA
HETATM   25  H2  UNL     1       1.007   6.016   8.747  1.00  0.00     0.211 HD
ENDBRANCH   3  24
BRANCH  13  26
HETATM   26  O2  UNL     1      -6.637   8.533  14.473  1.00  0.00    -0.271 OA
BRANCH  26  27
HETATM   27  C13 UNL     1      -7.493   7.988  15.473  1.00  0.00     0.303 C 
BRANCH  27  28
HETATM   28  C14 UNL     1      -8.332   6.896  14.832  1.00  0.00     0.243 C 
HETATM   29  O3  UNL     1      -9.497   6.671  15.139  1.00  0.00    -0.271 OA
HETATM   30  N2  UNL     1      -7.666   6.169  13.860  1.00  0.00    -0.356 N 
HETATM   31  H16 UNL     1      -6.841   6.597  13.455  1.00  0.00     0.162 HD
BRANCH  30  32
HETATM   32  C15 UNL     1      -8.386   5.210  13.027  1.00  0.00     0.159 C 
BRANCH  32  33
HETATM   33  C16 UNL     1      -7.807   3.777  13.104  1.00  0.00     0.170 C 
BRANCH  33  34
HETATM   34  O4  UNL     1      -7.702   3.410  14.489  1.00  0.00    -0.389 OA
HETATM   35  H20 UNL     1      -8.617   3.383  14.815  1.00  0.00     0.210 HD
ENDBRANCH  33  34
BRANCH  33  36
HETATM   36  C17 UNL     1      -6.461   3.690  12.426  1.00  0.00    -0.013 A 
HETATM   37  C18 UNL     1      -5.300   4.260  12.949  1.00  0.00     0.013 A 
HETATM   38  C19 UNL     1      -4.095   4.143  12.261  1.00  0.00     0.025 A 
HETATM   39  C20 UNL     1      -4.074   3.448  11.056  1.00  0.00     0.005 A 
HETATM   40  C21 UNL     1      -2.794   3.305  10.289  1.00  0.00     0.068 C 
HETATM   41  N3  UNL     1      -5.185   2.892  10.520  1.00  0.00    -0.369 N 
HETATM   42  C22 UNL     1      -6.338   3.017  11.215  1.00  0.00     0.097 A 
ATOM     43  H3  UNL     1      -5.154   2.399   9.628  1.00  0.00     0.165 HD
ENDBRANCH  33  36
ENDBRANCH  32  33
ENDBRANCH  30  32
ENDBRANCH  27  28
ENDBRANCH  26  27
ENDBRANCH  13  26
TORSDOF 8
ENDMDL
MODEL 2
REMARK minimizedAffinity -8.03869057
REMARK CNNscore 0.390835464
REMARK CNNaffinity 5.65947104
REMARK  8 active torsions:
REMARK  status: ('A' for Active; 'I' for Inactive)
REMARK    1  A    between atoms: C3_3  and  O1_4 
REMARK    2  A    between atoms: N1_14  and  O2_16 
REMARK    3  A    between atoms: O2_16  and  C13_17 
REMARK    4  A    between atoms: C13_17  and  C14_18 
REMARK       I    between atoms: C14_18  and  N2_20 
REMARK    5  A    between atoms: N2_20  and  C15_21 
REMARK    6  A    between atoms: C15_21  and  C16_22 
REMARK    7  A    between atoms: C16_22  and  O4_23 
REMARK    8  A    between atoms: C16_22  and  C17_24 
ROOT
HETATM    1  C1  UNL     1      -7.656  -8.394   9.722  1.00  0.00     0.015 C 
HETATM    2  C2  UNL     1      -7.116  -8.802   8.730  1.00  0.00    -0.078 C 
HETATM    3  C3  UNL     1      -6.437  -9.273   7.512  1.00  0.00     0.128 C 
HETATM    4  C4  UNL     1      -5.385 -10.347   7.814  1.00  0.00     0.052 C 
HETATM    5  C5  UNL     1      -5.065 -10.890   6.425  1.00  0.00     0.010 C 
HETATM    6  C6  UNL     1      -6.443 -11.021   5.764  1.00  0.00     0.002 C 
HETATM    7  C7  UNL     1      -6.467 -11.075   4.218  1.00  0.00    -0.004 C 
HETATM    8  C8  UNL     1      -5.534 -10.105   3.474  1.00  0.00     0.010 C 
HETATM    9  C9  UNL     1      -5.625 -10.264   1.954  1.00  0.00     0.035 C 
HETATM   10  C10 UNL     1      -7.039 -10.289   1.410  1.00  0.00    -0.069 C 
HETATM   11  C11 UNL     1      -7.344  -9.583   0.305  1.00  0.00     0.030 C 
HETATM   12  C12 UNL     1      -8.679  -9.702  -0.357  1.00  0.00     0.032 C 
HETATM   13  N1  UNL     1      -9.094  -9.005  -1.370  1.00  0.00    -0.271 N 
ATOM     14  H1  UNL     1     -10.004  -9.134  -1.815  1.00  0.00     0.194 HD
HETATM   15  C23 UNL     1      -9.612 -10.779   0.158  1.00  0.00     0.060 C 
HETATM   16  C24 UNL     1      -9.496 -10.904   1.670  1.00  0.00     0.020 C 
HETATM   17  C25 UNL     1      -8.039 -11.177   2.151  1.00  0.00    -0.016 C 
HETATM   18  C26 UNL     1      -7.711 -12.661   1.829  1.00  0.00     0.020 C 
HETATM   19  C27 UNL     1      -7.924 -10.932   3.706  1.00  0.00     0.002 C 
HETATM   20  C28 UNL     1      -8.551  -9.591   4.174  1.00  0.00     0.007 C 
HETATM   21  C29 UNL     1      -7.935  -8.954   5.424  1.00  0.00     0.014 C 
HETATM   22  C30 UNL     1      -7.368  -9.955   6.444  1.00  0.00     0.003 C 
HETATM   23  C31 UNL     1      -8.555 -10.702   7.112  1.00  0.00     0.020 C 
ENDROOT
BRANCH   3  24
HETATM   24  O1  UNL     1      -5.741  -8.162   6.938  1.00  0.00    -0.377 OA
HETATM   25  H2  UNL     1      -5.320  -7.684   7.674  1.00  0.00     0.211 HD
ENDBRANCH   3  24
BRANCH  13  26
HETATM   26  O2  UNL     1      -8.149  -8.058  -1.782  1.00  0.00    -0.271 OA
BRANCH  26  27
HETATM   27  C13 UNL     1      -8.721  -6.760  -1.646  1.00  0.00     0.303 C 
BRANCH  27  28
HETATM   28  C14 UNL     1      -9.486  -6.446  -2.921  1.00  0.00     0.243 C 
HETATM   29  O3  UNL     1     -10.558  -6.966  -3.211  1.00  0.00    -0.271 OA
HETATM   30  N2  UNL     1      -8.867  -5.513  -3.735  1.00  0.00    -0.356 N 
HETATM   31  H16 UNL     1      -8.171  -4.918  -3.300  1.00  0.00     0.162 HD
BRANCH  30  32
HETATM   32  C15 UNL     1      -9.561  -4.971  -4.902  1.00  0.00     0.159 C 
BRANCH  32  33
HETATM   33  C16 UNL     1     -10.351  -3.677  -4.595  1.00  0.00     0.170 C 
BRANCH  33  34
HETATM   34  O4  UNL     1     -11.743  -3.933  -4.841  1.00  0.00    -0.389 OA
HETATM   35  H20 UNL     1     -11.998  -4.604  -4.187  1.00  0.00     0.210 HD
ENDBRANCH  33  34
BRANCH  33  36
HETATM   36  C17 UNL     1      -9.864  -2.522  -5.438  1.00  0.00    -0.013 A 
HETATM   37  C18 UNL     1      -9.755  -1.216  -4.959  1.00  0.00     0.013 A 
HETATM   38  C19 UNL     1      -9.304  -0.201  -5.800  1.00  0.00     0.025 A 
HETATM   39  C20 UNL     1      -8.963  -0.517  -7.111  1.00  0.00     0.005 A 
HETATM   40  C21 UNL     1      -8.475   0.551  -8.042  1.00  0.00     0.068 C 
HETATM   41  N3  UNL     1      -9.066  -1.772  -7.605  1.00  0.00    -0.369 N 
HETATM   42  C22 UNL     1      -9.501  -2.737  -6.763  1.00  0.00     0.097 A 
ATOM     43  H3  UNL     1      -8.826  -1.983  -8.573  1.00  0.00     0.165 HD
ENDBRANCH  33  36
ENDBRANCH  32  33
ENDBRANCH  30  32
ENDBRANCH  27  28
ENDBRANCH  26  27
ENDBRANCH  13  26
TORSDOF 8
ENDMDL
MODEL 3
REMARK minimizedAffinity -7.91907454
REMARK CNNscore 0.36665535
REMARK CNNaffinity 5.83966112
REMARK  8 active torsions:
REMARK  status: ('A' for Active; 'I' for Inactive)
REMARK    1  A    between atoms: C3_3  and  O1_4 
REMARK    2  A    between atoms: N1_14  and  O2_16 
REMARK    3  A    between atoms: O2_16  and  C13_17 
REMARK    4  A    between atoms: C13_17  and  C14_18 
REMARK       I    between atoms: C14_18  and  N2_20 
REMARK    5  A    between atoms: N2_20  and  C15_21 
REMARK    6  A    between atoms: C15_21  and  C16_22 
REMARK    7  A    between atoms: C16_22  and  O4_23 
REMARK    8  A    between atoms: C16_22  and  C17_24 
ROOT
HETATM    1  C1  UNL     1      -9.559  -4.380  -6.346  1.00  0.00     0.015 C 
HETATM    2  C2  UNL     1      -9.733  -5.165  -5.454  1.00  0.00    -0.078 C 
HETATM    3  C3  UNL     1      -9.949  -6.101  -4.339  1.00  0.00     0.128 C 
HETATM    4  C4  UNL     1     -11.350  -6.722  -4.367  1.00  0.00     0.052 C 
HETATM    5  C5  UNL     1     -11.226  -7.854  -3.352  1.00  0.00     0.010 C 
HETATM    6  C6  UNL     1      -9.864  -8.481  -3.676  1.00  0.00     0.002 C 
HETATM    7  C7  UNL     1      -9.205  -9.322  -2.558  1.00  0.00    -0.004 C 
HETATM    8  C8  UNL     1      -9.280  -8.758  -1.129  1.00  0.00     0.010 C 
HETATM    9  C9  UNL     1      -8.616  -9.684  -0.106  1.00  0.00     0.035 C 
HETATM   10  C10 UNL     1      -7.235 -10.166  -0.499  1.00  0.00    -0.069 C 
HETATM   11  C11 UNL     1      -6.242 -10.172   0.410  1.00  0.00     0.030 C 
HETATM   12  C12 UNL     1      -4.911 -10.784   0.114  1.00  0.00     0.032 C 
HETATM   13  N1  UNL     1      -3.872 -10.765   0.891  1.00  0.00    -0.271 N 
ATOM     14  H1  UNL     1      -2.986 -11.219   0.667  1.00  0.00     0.194 HD
HETATM   15  C23 UNL     1      -4.779 -11.555  -1.183  1.00  0.00     0.060 C 
HETATM   16  C24 UNL     1      -5.569 -10.872  -2.291  1.00  0.00     0.020 C 
HETATM   17  C25 UNL     1      -7.072 -10.670  -1.934  1.00  0.00    -0.016 C 
HETATM   18  C26 UNL     1      -7.770 -12.052  -2.051  1.00  0.00     0.020 C 
HETATM   19  C27 UNL     1      -7.738  -9.650  -2.939  1.00  0.00     0.002 C 
HETATM   20  C28 UNL     1      -6.911  -8.352  -3.149  1.00  0.00     0.007 C 
HETATM   21  C29 UNL     1      -7.706  -7.092  -3.504  1.00  0.00     0.014 C 
HETATM   22  C30 UNL     1      -8.990  -7.346  -4.312  1.00  0.00     0.003 C 
HETATM   23  C31 UNL     1      -8.589  -7.792  -5.745  1.00  0.00     0.020 C 
ENDROOT
BRANCH   3  24
HETATM   24  O1  UNL     1      -9.849  -5.361  -3.117  1.00  0.00    -0.377 OA
HETATM   25  H2  UNL     1     -10.326  -4.524  -3.257  1.00  0.00     0.211 HD
ENDBRANCH   3  24
BRANCH  13  26
HETATM   26  O2  UNL     1      -4.108 -10.048   2.071  1.00  0.00    -0.271 OA
BRANCH  26  27
HETATM   27  C13 UNL     1      -3.216 -10.525   3.075  1.00  0.00     0.303 C 
BRANCH  27  28
HETATM   28  C14 UNL     1      -4.034 -10.854   4.313  1.00  0.00     0.243 C 
HETATM   29  O3  UNL     1      -5.058 -11.528   4.287  1.00  0.00    -0.271 OA
HETATM   30  N2  UNL     1      -3.521 -10.325   5.486  1.00  0.00    -0.356 N 
HETATM   31  H16 UNL     1      -2.544 -10.056   5.475  1.00  0.00     0.162 HD
BRANCH  30  32
HETATM   32  C15 UNL     1      -4.086 -10.702   6.779  1.00  0.00     0.159 C 
BRANCH  32  33
HETATM   33  C16 UNL     1      -4.152  -9.527   7.782  1.00  0.00     0.170 C 
BRANCH  33  34
HETATM   34  O4  UNL     1      -2.807  -9.156   8.128  1.00  0.00    -0.389 OA
HETATM   35  H20 UNL     1      -2.415  -8.826   7.302  1.00  0.00     0.210 HD
ENDBRANCH  33  34
BRANCH  33  36
HETATM   36  C17 UNL     1      -4.936  -9.901   9.018  1.00  0.00    -0.013 A 
HETATM   37  C18 UNL     1      -6.270 -10.307   8.986  1.00  0.00     0.013 A 
HETATM   38  C19 UNL     1      -6.929 -10.629  10.171  1.00  0.00     0.025 A 
HETATM   39  C20 UNL     1      -6.232 -10.544  11.372  1.00  0.00     0.005 A 
HETATM   40  C21 UNL     1      -6.911 -10.883  12.664  1.00  0.00     0.068 C 
HETATM   41  N3  UNL     1      -4.940 -10.146  11.434  1.00  0.00    -0.369 N 
HETATM   42  C22 UNL     1      -4.326  -9.845  10.267  1.00  0.00     0.097 A 
ATOM     43  H3  UNL     1      -4.449 -10.075  12.325  1.00  0.00     0.165 HD
ENDBRANCH  33  36
ENDBRANCH  32  33
ENDBRANCH  30  32
ENDBRANCH  27  28
ENDBRANCH  26  27
ENDBRANCH  13  26
TORSDOF 8
ENDMDL
MODEL 4
REMARK minimizedAffinity -8.73077297
REMARK CNNscore 0.359053731
REMARK CNNaffinity 6.26976204
REMARK  8 active torsions:
REMARK  status: ('A' for Active; 'I' for Inactive)
REMARK    1  A    between atoms: C3_3  and  O1_4 
REMARK    2  A    between atoms: N1_14  and  O2_16 
REMARK    3  A    between atoms: O2_16  and  C13_17 
REMARK    4  A    between atoms: C13_17  and  C14_18 
REMARK       I    between atoms: C14_18  and  N2_20 
REMARK    5  A    between atoms: N2_20  and  C15_21 
REMARK    6  A    between atoms: C15_21  and  C16_22 
REMARK    7  A    between atoms: C16_22  and  O4_23 
REMARK    8  A    between atoms: C16_22  and  C17_24 
ROOT
HETATM    1  C1  UNL     1      -8.698  14.939  24.628  1.00  0.00     0.015 C 
HETATM    2  C2  UNL     1      -9.330  14.052  24.122  1.00  0.00    -0.078 C 
HETATM    3  C3  UNL     1     -10.082  12.943  23.513  1.00  0.00     0.128 C 
HETATM    4  C4  UNL     1     -11.363  12.617  24.289  1.00  0.00     0.052 C 
HETATM    5  C5  UNL     1     -12.105  11.699  23.324  1.00  0.00     0.010 C 
HETATM    6  C6  UNL     1     -11.925  12.384  21.964  1.00  0.00     0.002 C 
HETATM    7  C7  UNL     1     -12.121  11.499  20.710  1.00  0.00    -0.004 C 
HETATM    8  C8  UNL     1     -11.513  10.087  20.755  1.00  0.00     0.010 C 
HETATM    9  C9  UNL     1     -11.789   9.297  19.473  1.00  0.00     0.035 C 
HETATM   10  C10 UNL     1     -11.487  10.051  18.194  1.00  0.00    -0.069 C 
HETATM   11  C11 UNL     1     -10.836   9.435  17.190  1.00  0.00     0.030 C 
HETATM   12  C12 UNL     1     -10.656  10.084  15.856  1.00  0.00     0.032 C 
HETATM   13  N1  UNL     1      -9.976   9.607  14.859  1.00  0.00    -0.271 N 
ATOM     14  H1  UNL     1      -9.898  10.067  13.951  1.00  0.00     0.194 HD
HETATM   15  C23 UNL     1     -11.388  11.389  15.620  1.00  0.00     0.060 C 
HETATM   16  C24 UNL     1     -11.392  12.234  16.886  1.00  0.00     0.020 C 
HETATM   17  C25 UNL     1     -11.998  11.490  18.114  1.00  0.00    -0.016 C 
HETATM   18  C26 UNL     1     -13.540  11.454  17.925  1.00  0.00     0.020 C 
HETATM   19  C27 UNL     1     -11.643  12.260  19.446  1.00  0.00     0.002 C 
HETATM   20  C28 UNL     1     -10.144  12.648  19.561  1.00  0.00     0.007 C 
HETATM   21  C29 UNL     1      -9.577  12.750  20.980  1.00  0.00     0.014 C 
HETATM   22  C30 UNL     1     -10.589  13.199  22.048  1.00  0.00     0.003 C 
HETATM   23  C31 UNL     1     -10.922  14.698  21.810  1.00  0.00     0.020 C 
ENDROOT
BRANCH   3  24
HETATM   24  O1  UNL     1      -9.259  11.773  23.565  1.00  0.00    -0.377 OA
HETATM   25  H2  UNL     1      -8.842  11.761  24.444  1.00  0.00     0.211 HD
ENDBRANCH   3  24
BRANCH  13  26
HETATM   26  O2  UNL     1      -9.360   8.390  15.175  1.00  0.00    -0.271 OA
BRANCH  26  27
HETATM   27  C13 UNL     1     -10.087   7.339  14.544  1.00  0.00     0.303 C 
BRANCH  27  28
HETATM   28  C14 UNL     1      -9.086   6.347  13.978  1.00  0.00     0.243 C 
HETATM   29  O3  UNL     1      -8.908   6.178  12.777  1.00  0.00    -0.271 OA
HETATM   30  N2  UNL     1      -8.381   5.643  14.941  1.00  0.00    -0.356 N 
HETATM   31  H16 UNL     1      -8.357   6.044  15.872  1.00  0.00     0.162 HD
BRANCH  30  32
HETATM   32  C15 UNL     1      -7.259   4.789  14.562  1.00  0.00     0.159 C 
BRANCH  32  33
HETATM   33  C16 UNL     1      -7.403   4.183  13.146  1.00  0.00     0.170 C 
BRANCH  33  34
HETATM   34  O4  UNL     1      -8.119   2.942  13.259  1.00  0.00    -0.389 OA
HETATM   35  H20 UNL     1      -9.004   3.187  13.574  1.00  0.00     0.210 HD
ENDBRANCH  33  34
BRANCH  33  36
HETATM   36  C17 UNL     1      -6.056   3.965  12.500  1.00  0.00    -0.013 A 
HETATM   37  C18 UNL     1      -4.880   4.559  12.958  1.00  0.00     0.013 A 
HETATM   38  C19 UNL     1      -3.675   4.315  12.304  1.00  0.00     0.025 A 
HETATM   39  C20 UNL     1      -3.669   3.469  11.199  1.00  0.00     0.005 A 
HETATM   40  C21 UNL     1      -2.389   3.186  10.473  1.00  0.00     0.068 C 
HETATM   41  N3  UNL     1      -4.795   2.885  10.728  1.00  0.00    -0.369 N 
HETATM   42  C22 UNL     1      -5.948   3.137  11.387  1.00  0.00     0.097 A 
ATOM     43  H3  UNL     1      -4.774   2.279   9.908  1.00  0.00     0.165 HD
ENDBRANCH  33  36
ENDBRANCH  32  33
ENDBRANCH  30  32
ENDBRANCH  27  28
ENDBRANCH  26  27
ENDBRANCH  13  26
TORSDOF 8
ENDMDL
MODEL 5
REMARK minimizedAffinity -7.89356184
REMARK CNNscore 0.355992347
REMARK CNNaffinity 6.85259867
REMARK  8 active torsions:
REMARK  status: ('A' for Active; 'I' for Inactive)
REMARK    1  A    between atoms: C3_3  and  O1_4 
REMARK    2  A    between atoms: N1_14  and  O2_16 
REMARK    3  A    between atoms: O2_16  and  C13_17 
REMARK    4  A    between atoms: C13_17  and  C14_18 
REMARK       I    between atoms: C14_18  and  N2_20 
REMARK    5  A    between atoms: N2_20  and  C15_21 
REMARK    6  A    between atoms: C15_21  and  C16_22 
REMARK    7  A    between atoms: C16_22  and  O4_23 
REMARK    8  A    between atoms: C16_22  and  C17_24 
ROOT
HETATM    1  C1  UNL     1      -7.357   2.909  13.227  1.00  0.00     0.015 C 
HETATM    2  C2  UNL     1      -7.506   3.913  13.869  1.00  0.00    -0.078 C 
HETATM    3  C3  UNL     1      -7.692   5.125  14.684  1.00  0.00     0.128 C 
HETATM    4  C4  UNL     1      -6.377   5.881  14.905  1.00  0.00     0.052 C 
HETATM    5  C5  UNL     1      -6.858   7.213  15.471  1.00  0.00     0.010 C 
HETATM    6  C6  UNL     1      -8.061   7.567  14.587  1.00  0.00     0.002 C 
HETATM    7  C7  UNL     1      -9.073   8.582  15.168  1.00  0.00    -0.004 C 
HETATM    8  C8  UNL     1      -9.446   8.421  16.651  1.00  0.00     0.010 C 
HETATM    9  C9  UNL     1     -10.434   9.493  17.119  1.00  0.00     0.035 C 
HETATM   10  C10 UNL     1     -11.628   9.687  16.207  1.00  0.00    -0.069 C 
HETATM   11  C11 UNL     1     -12.861   9.809  16.734  1.00  0.00     0.030 C 
HETATM   12  C12 UNL     1     -14.043  10.159  15.889  1.00  0.00     0.032 C 
HETATM   13  N1  UNL     1     -15.277  10.216  16.288  1.00  0.00    -0.271 N 
ATOM     14  H1  UNL     1     -16.057  10.487  15.688  1.00  0.00     0.194 HD
HETATM   15  C23 UNL     1     -13.773  10.546  14.450  1.00  0.00     0.060 C 
HETATM   16  C24 UNL     1     -12.647   9.700  13.874  1.00  0.00     0.020 C 
HETATM   17  C25 UNL     1     -11.334   9.780  14.710  1.00  0.00    -0.016 C 
HETATM   18  C26 UNL     1     -10.679  11.159  14.422  1.00  0.00     0.020 C 
HETATM   19  C27 UNL     1     -10.347   8.623  14.285  1.00  0.00     0.002 C 
HETATM   20  C28 UNL     1     -11.020   7.225  14.212  1.00  0.00     0.007 C 
HETATM   21  C29 UNL     1     -10.114   6.021  14.486  1.00  0.00     0.014 C 
HETATM   22  C30 UNL     1      -8.646   6.210  14.066  1.00  0.00     0.003 C 
HETATM   23  C31 UNL     1      -8.576   6.218  12.514  1.00  0.00     0.020 C 
ENDROOT
BRANCH   3  24
HETATM   24  O1  UNL     1      -8.158   4.719  15.975  1.00  0.00    -0.377 OA
HETATM   25  H2  UNL     1      -7.636   3.939  16.229  1.00  0.00     0.211 HD
ENDBRANCH   3  24
BRANCH  13  26
HETATM   26  O2  UNL     1     -15.413   9.863  17.636  1.00  0.00    -0.271 OA
BRANCH  26  27
HETATM   27  C13 UNL     1     -15.529   8.446  17.723  1.00  0.00     0.303 C 
BRANCH  27  28
HETATM   28  C14 UNL     1     -15.446   8.056  19.189  1.00  0.00     0.243 C 
HETATM   29  O3  UNL     1     -16.324   8.311  20.006  1.00  0.00    -0.271 OA
HETATM   30  N2  UNL     1     -14.287   7.378  19.529  1.00  0.00    -0.356 N 
HETATM   31  H16 UNL     1     -13.774   6.945  18.771  1.00  0.00     0.162 HD
BRANCH  30  32
HETATM   32  C15 UNL     1     -14.141   6.777  20.853  1.00  0.00     0.159 C 
BRANCH  32  33
HETATM   33  C16 UNL     1     -14.747   5.357  20.949  1.00  0.00     0.170 C 
BRANCH  33  34
HETATM   34  O4  UNL     1     -16.172   5.485  21.078  1.00  0.00    -0.389 OA
HETATM   35  H20 UNL     1     -16.468   5.883  20.243  1.00  0.00     0.210 HD
ENDBRANCH  33  34
BRANCH  33  36
HETATM   36  C17 UNL     1     -14.172   4.591  22.116  1.00  0.00    -0.013 A 
HETATM   37  C18 UNL     1     -14.059   5.122  23.401  1.00  0.00     0.013 A 
HETATM   38  C19 UNL     1     -13.510   4.355  24.427  1.00  0.00     0.025 A 
HETATM   39  C20 UNL     1     -13.088   3.060  24.144  1.00  0.00     0.005 A 
HETATM   40  C21 UNL     1     -12.492   2.208  25.225  1.00  0.00     0.068 C 
HETATM   41  N3  UNL     1     -13.178   2.522  22.907  1.00  0.00    -0.369 N 
HETATM   42  C22 UNL     1     -13.720   3.288  21.934  1.00  0.00     0.097 A 
ATOM     43  H3  UNL     1     -12.849   1.576  22.715  1.00  0.00     0.165 HD
ENDBRANCH  33  36
ENDBRANCH  32  33
ENDBRANCH  30  32
ENDBRANCH  27  28
ENDBRANCH  26  27
ENDBRANCH  13  26
TORSDOF 8
ENDMDL
MODEL 6
REMARK minimizedAffinity -8.9080658
REMARK CNNscore 0.348559797
REMARK CNNaffinity 7.12822771
REMARK  8 active torsions:
REMARK  status: ('A' for Active; 'I' for Inactive)
REMARK    1  A    between atoms: C3_3  and  O1_4 
REMARK    2  A    between atoms: N1_14  and  O2_16 
REMARK    3  A    between atoms: O2_16  and  C13_17 
REMARK    4  A    between atoms: C13_17  and  C14_18 
REMARK       I    between atoms: C14_18  and  N2_20 
REMARK    5  A    between atoms: N2_20  and  C15_21 
REMARK    6  A    between atoms: C15_21  and  C16_22 
REMARK    7  A    between atoms: C16_22  and  O4_23 
REMARK    8  A    between atoms: C16_22  and  C17_24 
ROOT
HETATM    1  C1  UNL     1       6.744   7.869  10.770  1.00  0.00     0.015 C 
HETATM    2  C2  UNL     1       5.569   8.031  10.586  1.00  0.00    -0.078 C 
HETATM    3  C3  UNL     1       4.131   8.262  10.371  1.00  0.00     0.128 C 
HETATM    4  C4  UNL     1       3.776   8.355   8.883  1.00  0.00     0.052 C 
HETATM    5  C5  UNL     1       2.253   8.269   8.904  1.00  0.00     0.010 C 
HETATM    6  C6  UNL     1       1.970   7.152   9.916  1.00  0.00     0.002 C 
HETATM    7  C7  UNL     1       0.556   7.128  10.543  1.00  0.00    -0.004 C 
HETATM    8  C8  UNL     1      -0.042   8.481  10.961  1.00  0.00     0.010 C 
HETATM    9  C9  UNL     1      -1.450   8.336  11.547  1.00  0.00     0.035 C 
HETATM   10  C10 UNL     1      -1.582   7.259  12.602  1.00  0.00    -0.069 C 
HETATM   11  C11 UNL     1      -2.272   7.507  13.732  1.00  0.00     0.030 C 
HETATM   12  C12 UNL     1      -2.563   6.430  14.726  1.00  0.00     0.032 C 
HETATM   13  N1  UNL     1      -3.144   6.588  15.876  1.00  0.00    -0.271 N 
ATOM     14  H1  UNL     1      -3.352   5.823  16.518  1.00  0.00     0.194 HD
HETATM   15  C23 UNL     1      -2.208   5.011  14.331  1.00  0.00     0.060 C 
HETATM   16  C24 UNL     1      -0.907   4.989  13.540  1.00  0.00     0.020 C 
HETATM   17  C25 UNL     1      -0.942   5.907  12.281  1.00  0.00    -0.016 C 
HETATM   18  C26 UNL     1      -1.810   5.195  11.207  1.00  0.00     0.020 C 
HETATM   19  C27 UNL     1       0.520   6.125  11.726  1.00  0.00     0.002 C 
HETATM   20  C28 UNL     1       1.551   6.515  12.820  1.00  0.00     0.007 C 
HETATM   21  C29 UNL     1       2.734   7.373  12.362  1.00  0.00     0.014 C 
HETATM   22  C30 UNL     1       3.181   7.132  10.911  1.00  0.00     0.003 C 
HETATM   23  C31 UNL     1       3.850   5.733  10.828  1.00  0.00     0.020 C 
ENDROOT
BRANCH   3  24
HETATM   24  O1  UNL     1       3.796   9.525  10.956  1.00  0.00    -0.377 OA
HETATM   25  H2  UNL     1       4.511  10.141  10.721  1.00  0.00     0.211 HD
ENDBRANCH   3  24
BRANCH  13  26
HETATM   26  O2  UNL     1      -3.451   7.930  16.132  1.00  0.00    -0.271 OA
BRANCH  26  27
HETATM   27  C13 UNL     1      -3.523   8.623  14.889  1.00  0.00     0.303 C 
BRANCH  27  28
HETATM   28  C14 UNL     1      -4.982   8.684  14.468  1.00  0.00     0.243 C 
HETATM   29  O3  UNL     1      -5.348   8.703  13.298  1.00  0.00    -0.271 OA
HETATM   30  N2  UNL     1      -5.875   8.716  15.527  1.00  0.00    -0.356 N 
HETATM   31  H16 UNL     1      -5.529   8.393  16.424  1.00  0.00     0.162 HD
BRANCH  30  32
HETATM   32  C15 UNL     1      -7.311   8.592  15.290  1.00  0.00     0.159 C 
BRANCH  32  33
HETATM   33  C16 UNL     1      -7.935   7.346  15.962  1.00  0.00     0.170 C 
BRANCH  33  34
HETATM   34  O4  UNL     1      -7.223   7.091  17.184  1.00  0.00    -0.389 OA
HETATM   35  H20 UNL     1      -7.405   7.860  17.748  1.00  0.00     0.210 HD
ENDBRANCH  33  34
BRANCH  33  36
HETATM   36  C17 UNL     1      -7.878   6.143  15.051  1.00  0.00    -0.013 A 
HETATM   37  C18 UNL     1      -8.049   6.218  13.668  1.00  0.00     0.013 A 
HETATM   38  C19 UNL     1      -7.990   5.061  12.894  1.00  0.00     0.025 A 
HETATM   39  C20 UNL     1      -7.753   3.844  13.523  1.00  0.00     0.005 A 
HETATM   40  C21 UNL     1      -7.683   2.580  12.720  1.00  0.00     0.068 C 
HETATM   41  N3  UNL     1      -7.591   3.739  14.862  1.00  0.00    -0.369 N 
HETATM   42  C22 UNL     1      -7.647   4.879  15.586  1.00  0.00     0.097 A 
ATOM     43  H3  UNL     1      -7.432   2.835  15.308  1.00  0.00     0.165 HD
ENDBRANCH  33  36
ENDBRANCH  32  33
ENDBRANCH  30  32
ENDBRANCH  27  28
ENDBRANCH  26  27
ENDBRANCH  13  26
TORSDOF 8
ENDMDL
MODEL 7
REMARK minimizedAffinity -8.70070744
REMARK CNNscore 0.31269297
REMARK CNNaffinity 6.59869146
REMARK  8 active torsions:
REMARK  status: ('A' for Active; 'I' for Inactive)
REMARK    1  A    between atoms: C3_3  and  O1_4 
REMARK    2  A    between atoms: N1_14  and  O2_16 
REMARK    3  A    between atoms: O2_16  and  C13_17 
REMARK    4  A    between atoms: C13_17  and  C14_18 
REMARK       I    between atoms: C14_18  and  N2_20 
REMARK    5  A    between atoms: N2_20  and  C15_21 
REMARK    6  A    between atoms: C15_21  and  C16_22 
REMARK    7  A    between atoms: C16_22  and  O4_23 
REMARK    8  A    between atoms: C16_22  and  C17_24 
ROOT
HETATM    1  C1  UNL     1      -7.122   7.887  15.796  1.00  0.00     0.015 C 
HETATM    2  C2  UNL     1      -6.204   7.244  15.365  1.00  0.00    -0.078 C 
HETATM    3  C3  UNL     1      -5.073   6.444  14.868  1.00  0.00     0.128 C 
HETATM    4  C4  UNL     1      -5.534   5.262  14.007  1.00  0.00     0.052 C 
HETATM    5  C5  UNL     1      -4.231   4.797  13.365  1.00  0.00     0.010 C 
HETATM    6  C6  UNL     1      -3.546   6.106  12.954  1.00  0.00     0.002 C 
HETATM    7  C7  UNL     1      -2.018   6.044  12.723  1.00  0.00    -0.004 C 
HETATM    8  C8  UNL     1      -1.194   5.228  13.733  1.00  0.00     0.010 C 
HETATM    9  C9  UNL     1       0.298   5.219  13.391  1.00  0.00     0.035 C 
HETATM   10  C10 UNL     1       0.881   6.585  13.092  1.00  0.00    -0.069 C 
HETATM   11  C11 UNL     1       2.072   6.935  13.614  1.00  0.00     0.030 C 
HETATM   12  C12 UNL     1       2.758   8.203  13.221  1.00  0.00     0.032 C 
HETATM   13  N1  UNL     1       3.860   8.665  13.728  1.00  0.00    -0.271 N 
ATOM     14  H1  UNL     1       4.315   9.522  13.414  1.00  0.00     0.194 HD
HETATM   15  C23 UNL     1       2.149   8.993  12.080  1.00  0.00     0.060 C 
HETATM   16  C24 UNL     1       0.629   8.935  12.145  1.00  0.00     0.020 C 
HETATM   17  C25 UNL     1       0.073   7.480  12.151  1.00  0.00    -0.016 C 
HETATM   18  C26 UNL     1       0.205   6.922  10.708  1.00  0.00     0.020 C 
HETATM   19  C27 UNL     1      -1.446   7.479  12.585  1.00  0.00     0.002 C 
HETATM   20  C28 UNL     1      -1.730   8.319  13.860  1.00  0.00     0.007 C 
HETATM   21  C29 UNL     1      -2.914   7.866  14.719  1.00  0.00     0.014 C 
HETATM   22  C30 UNL     1      -4.064   7.210  13.937  1.00  0.00     0.003 C 
HETATM   23  C31 UNL     1      -4.778   8.307  13.099  1.00  0.00     0.020 C 
ENDROOT
BRANCH   3  24
HETATM   24  O1  UNL     1      -4.394   5.890  16.000  1.00  0.00    -0.377 OA
HETATM   25  H2  UNL     1      -5.082   5.581  16.616  1.00  0.00     0.211 HD
ENDBRANCH   3  24
BRANCH  13  26
HETATM   26  O2  UNL     1       4.350   7.850  14.755  1.00  0.00    -0.271 OA
BRANCH  26  27
HETATM   27  C13 UNL     1       5.695   7.494  14.448  1.00  0.00     0.303 C 
BRANCH  27  28
HETATM   28  C14 UNL     1       6.610   8.240  15.404  1.00  0.00     0.243 C 
HETATM   29  O3  UNL     1       6.218   9.114  16.170  1.00  0.00    -0.271 OA
HETATM   30  N2  UNL     1       7.935   7.845  15.342  1.00  0.00    -0.356 N 
HETATM   31  H16 UNL     1       8.122   6.938  14.929  1.00  0.00     0.162 HD
BRANCH  30  32
HETATM   32  C15 UNL     1       8.902   8.335  16.321  1.00  0.00     0.159 C 
BRANCH  32  33
HETATM   33  C16 UNL     1       9.500   9.714  15.952  1.00  0.00     0.170 C 
BRANCH  33  34
HETATM   34  O4  UNL     1      10.795   9.499  15.368  1.00  0.00    -0.389 OA
HETATM   35  H20 UNL     1      10.625   9.014  14.544  1.00  0.00     0.210 HD
ENDBRANCH  33  34
BRANCH  33  36
HETATM   36  C17 UNL     1       9.603  10.611  17.162  1.00  0.00    -0.013 A 
HETATM   37  C18 UNL     1       8.733  10.534  18.250  1.00  0.00     0.013 A 
HETATM   38  C19 UNL     1       8.887  11.403  19.329  1.00  0.00     0.025 A 
HETATM   39  C20 UNL     1       9.920  12.334  19.298  1.00  0.00     0.005 A 
HETATM   40  C21 UNL     1      10.113  13.284  20.442  1.00  0.00     0.068 C 
HETATM   41  N3  UNL     1      10.773  12.437  18.253  1.00  0.00    -0.369 N 
HETATM   42  C22 UNL     1      10.602  11.577  17.225  1.00  0.00     0.097 A 
ATOM     43  H3  UNL     1      11.515  13.136  18.242  1.00  0.00     0.165 HD
ENDBRANCH  33  36
ENDBRANCH  32  33
ENDBRANCH  30  32
ENDBRANCH  27  28
ENDBRANCH  26  27
ENDBRANCH  13  26
TORSDOF 8
ENDMDL
MODEL 8
REMARK minimizedAffinity -8.7990694
REMARK CNNscore 0.309227586
REMARK CNNaffinity 6.43855619
REMARK  8 active torsions:
REMARK  status: ('A' for Active; 'I' for Inactive)
REMARK    1  A    between atoms: C3_3  and  O1_4 
REMARK    2  A    between atoms: N1_14  and  O2_16 
REMARK    3  A    between atoms: O2_16  and  C13_17 
REMARK    4  A    between atoms: C13_17  and  C14_18 
REMARK       I    between atoms: C14_18  and  N2_20 
REMARK    5  A    between atoms: N2_20  and  C15_21 
REMARK    6  A    between atoms: C15_21  and  C16_22 
REMARK    7  A    between atoms: C16_22  and  O4_23 
REMARK    8  A    between atoms: C16_22  and  C17_24 
ROOT
HETATM    1  C1  UNL     1       4.798   5.046   9.972  1.00  0.00     0.015 C 
HETATM    2  C2  UNL     1       3.827   5.748  10.048  1.00  0.00    -0.078 C 
HETATM    3  C3  UNL     1       2.657   6.637  10.142  1.00  0.00     0.128 C 
HETATM    4  C4  UNL     1       1.943   6.799   8.796  1.00  0.00     0.052 C 
HETATM    5  C5  UNL     1       0.632   7.467   9.199  1.00  0.00     0.010 C 
HETATM    6  C6  UNL     1       0.205   6.694  10.453  1.00  0.00     0.002 C 
HETATM    7  C7  UNL     1      -0.800   7.400  11.393  1.00  0.00    -0.004 C 
HETATM    8  C8  UNL     1      -0.568   8.896  11.661  1.00  0.00     0.010 C 
HETATM    9  C9  UNL     1      -1.635   9.491  12.584  1.00  0.00     0.035 C 
HETATM   10  C10 UNL     1      -1.904   8.682  13.836  1.00  0.00    -0.069 C 
HETATM   11  C11 UNL     1      -2.025   9.304  15.023  1.00  0.00     0.030 C 
HETATM   12  C12 UNL     1      -2.445   8.569  16.255  1.00  0.00     0.032 C 
HETATM   13  N1  UNL     1      -2.509   9.060  17.454  1.00  0.00    -0.271 N 
ATOM     14  H1  UNL     1      -2.829   8.535  18.268  1.00  0.00     0.194 HD
HETATM   15  C23 UNL     1      -2.903   7.135  16.080  1.00  0.00     0.060 C 
HETATM   16  C24 UNL     1      -2.064   6.434  15.021  1.00  0.00     0.020 C 
HETATM   17  C25 UNL     1      -2.070   7.173  13.649  1.00  0.00    -0.016 C 
HETATM   18  C26 UNL     1      -3.447   6.909  12.982  1.00  0.00     0.020 C 
HETATM   19  C27 UNL     1      -0.916   6.617  12.727  1.00  0.00     0.002 C 
HETATM   20  C28 UNL     1       0.461   6.522  13.440  1.00  0.00     0.007 C 
HETATM   21  C29 UNL     1       1.698   6.666  12.547  1.00  0.00     0.014 C 
HETATM   22  C30 UNL     1       1.519   6.148  11.110  1.00  0.00     0.003 C 
HETATM   23  C31 UNL     1       1.429   4.598  11.153  1.00  0.00     0.020 C 
ENDROOT
BRANCH   3  24
HETATM   24  O1  UNL     1       3.120   7.936  10.523  1.00  0.00    -0.377 OA
HETATM   25  H2  UNL     1       3.925   8.110  10.004  1.00  0.00     0.211 HD
ENDBRANCH   3  24
BRANCH  13  26
HETATM   26  O2  UNL     1      -2.087  10.395  17.501  1.00  0.00    -0.271 OA
BRANCH  26  27
HETATM   27  C13 UNL     1      -0.665  10.423  17.429  1.00  0.00     0.303 C 
BRANCH  27  28
HETATM   28  C14 UNL     1      -0.137  10.947  18.754  1.00  0.00     0.243 C 
HETATM   29  O3  UNL     1      -0.713  11.800  19.421  1.00  0.00    -0.271 OA
HETATM   30  N2  UNL     1       1.060  10.375  19.152  1.00  0.00    -0.356 N 
HETATM   31  H16 UNL     1       1.305   9.489  18.725  1.00  0.00     0.162 HD
BRANCH  30  32
HETATM   32  C15 UNL     1       1.601  10.638  20.483  1.00  0.00     0.159 C 
BRANCH  32  33
HETATM   33  C16 UNL     1       2.797   9.726  20.846  1.00  0.00     0.170 C 
BRANCH  33  34
HETATM   34  O4  UNL     1       2.339   8.737  21.783  1.00  0.00    -0.389 OA
HETATM   35  H20 UNL     1       1.691   8.204  21.293  1.00  0.00     0.210 HD
ENDBRANCH  33  34
BRANCH  33  36
HETATM   36  C17 UNL     1       3.940  10.523  21.428  1.00  0.00    -0.013 A 
HETATM   37  C18 UNL     1       4.235  10.557  22.791  1.00  0.00     0.013 A 
HETATM   38  C19 UNL     1       5.303  11.323  23.254  1.00  0.00     0.025 A 
HETATM   39  C20 UNL     1       6.064  12.039  22.335  1.00  0.00     0.005 A 
HETATM   40  C21 UNL     1       7.220  12.873  22.800  1.00  0.00     0.068 C 
HETATM   41  N3  UNL     1       5.796  12.030  21.009  1.00  0.00    -0.369 N 
HETATM   42  C22 UNL     1       4.758  11.274  20.590  1.00  0.00     0.097 A 
ATOM     43  H3  UNL     1       6.356  12.573  20.352  1.00  0.00     0.165 HD
ENDBRANCH  33  36
ENDBRANCH  32  33
ENDBRANCH  30  32
ENDBRANCH  27  28
ENDBRANCH  26  27
ENDBRANCH  13  26
TORSDOF 8
ENDMDL
MODEL 9
REMARK minimizedAffinity -7.68912506
REMARK CNNscore 0.254657596
REMARK CNNaffinity 6.14116335
REMARK  8 active torsions:
REMARK  status: ('A' for Active; 'I' for Inactive)
REMARK    1  A    between atoms: C3_3  and  O1_4 
REMARK    2  A    between atoms: N1_14  and  O2_16 
REMARK    3  A    between atoms: O2_16  and  C13_17 
REMARK    4  A    between atoms: C13_17  and  C14_18 
REMARK       I    between atoms: C14_18  and  N2_20 
REMARK    5  A    between atoms: N2_20  and  C15_21 
REMARK    6  A    between atoms: C15_21  and  C16_22 
REMARK    7  A    between atoms: C16_22  and  O4_23 
REMARK    8  A    between atoms: C16_22  and  C17_24 
ROOT
HETATM    1  C1  UNL     1     -20.602   9.880   8.296  1.00  0.00     0.015 C 
HETATM    2  C2  UNL     1     -19.991  10.193   9.282  1.00  0.00    -0.078 C 
HETATM    3  C3  UNL     1     -19.223  10.596  10.471  1.00  0.00     0.128 C 
HETATM    4  C4  UNL     1     -20.014  11.548  11.375  1.00  0.00     0.052 C 
HETATM    5  C5  UNL     1     -19.174  11.562  12.648  1.00  0.00     0.010 C 
HETATM    6  C6  UNL     1     -18.807  10.087  12.854  1.00  0.00     0.002 C 
HETATM    7  C7  UNL     1     -17.581   9.798  13.751  1.00  0.00    -0.004 C 
HETATM    8  C8  UNL     1     -16.351  10.701  13.561  1.00  0.00     0.010 C 
HETATM    9  C9  UNL     1     -15.212  10.336  14.517  1.00  0.00     0.035 C 
HETATM   10  C10 UNL     1     -14.882   8.859  14.565  1.00  0.00    -0.069 C 
HETATM   11  C11 UNL     1     -13.597   8.458  14.549  1.00  0.00     0.030 C 
HETATM   12  C12 UNL     1     -13.219   7.026  14.753  1.00  0.00     0.032 C 
HETATM   13  N1  UNL     1     -12.022   6.532  14.672  1.00  0.00    -0.271 N 
ATOM     14  H1  UNL     1     -11.797   5.552  14.847  1.00  0.00     0.194 HD
HETATM   15  C23 UNL     1     -14.324   6.072  15.157  1.00  0.00     0.060 C 
HETATM   16  C24 UNL     1     -15.620   6.425  14.441  1.00  0.00     0.020 C 
HETATM   17  C25 UNL     1     -16.067   7.899  14.677  1.00  0.00    -0.016 C 
HETATM   18  C26 UNL     1     -16.637   7.989  16.120  1.00  0.00     0.020 C 
HETATM   19  C27 UNL     1     -17.184   8.303  13.638  1.00  0.00     0.002 C 
HETATM   20  C28 UNL     1     -16.836   7.928  12.171  1.00  0.00     0.007 C 
HETATM   21  C29 UNL     1     -17.444   8.816  11.082  1.00  0.00     0.014 C 
HETATM   22  C30 UNL     1     -18.812   9.424  11.434  1.00  0.00     0.003 C 
HETATM   23  C31 UNL     1     -19.869   8.286  11.437  1.00  0.00     0.020 C 
ENDROOT
BRANCH   3  24
HETATM   24  O1  UNL     1     -18.067  11.313  10.026  1.00  0.00    -0.377 OA
HETATM   25  H2  UNL     1     -18.362  11.906   9.313  1.00  0.00     0.211 HD
ENDBRANCH   3  24
BRANCH  13  26
HETATM   26  O2  UNL     1     -11.075   7.501  14.318  1.00  0.00    -0.271 OA
BRANCH  26  27
HETATM   27  C13 UNL     1      -9.928   7.336  15.147  1.00  0.00     0.303 C 
BRANCH  27  28
HETATM   28  C14 UNL     1      -8.937   6.451  14.410  1.00  0.00     0.243 C 
HETATM   29  O3  UNL     1      -8.628   6.616  13.235  1.00  0.00    -0.271 OA
HETATM   30  N2  UNL     1      -8.403   5.434  15.184  1.00  0.00    -0.356 N 
HETATM   31  H16 UNL     1      -8.464   5.547  16.189  1.00  0.00     0.162 HD
BRANCH  30  32
HETATM   32  C15 UNL     1      -7.305   4.615  14.677  1.00  0.00     0.159 C 
BRANCH  32  33
HETATM   33  C16 UNL     1      -7.491   4.192  13.200  1.00  0.00     0.170 C 
BRANCH  33  34
HETATM   34  O4  UNL     1      -8.609   3.293  13.128  1.00  0.00    -0.389 OA
HETATM   35  H20 UNL     1      -9.380   3.824  13.388  1.00  0.00     0.210 HD
ENDBRANCH  33  34
BRANCH  33  36
HETATM   36  C17 UNL     1      -6.244   3.537  12.654  1.00  0.00    -0.013 A 
HETATM   37  C18 UNL     1      -6.267   2.408  11.835  1.00  0.00     0.013 A 
HETATM   38  C19 UNL     1      -5.073   1.856  11.376  1.00  0.00     0.025 A 
HETATM   39  C20 UNL     1      -3.871   2.453  11.744  1.00  0.00     0.005 A 
HETATM   40  C21 UNL     1      -2.569   1.884  11.268  1.00  0.00     0.068 C 
HETATM   41  N3  UNL     1      -3.819   3.543  12.543  1.00  0.00    -0.369 N 
HETATM   42  C22 UNL     1      -4.994   4.059  12.968  1.00  0.00     0.097 A 
ATOM     43  H3  UNL     1      -2.928   3.959  12.815  1.00  0.00     0.165 HD
ENDBRANCH  33  36
ENDBRANCH  32  33
ENDBRANCH  30  32
ENDBRANCH  27  28
ENDBRANCH  26  27
ENDBRANCH  13  26
TORSDOF 8
ENDMDL
