MODEL 1
REMARK minimizedAffinity -8.20452404
REMARK  7 active torsions:
REMARK  status: ('A' for Active; 'I' for Inactive)
REMARK    1  A    between atoms: O1_2  and  C2_3 
REMARK    2  A    between atoms: C2_3  and  C3_5 
REMARK    3  A    between atoms: C14_16  and  C15_17 
REMARK    4  A    between atoms: C15_17  and  O4_19 
REMARK    5  A    between atoms: O4_19  and  C16_20 
REMARK    6  A    between atoms: C16_20  and  C17_21 
REMARK    7  A    between atoms: C17_21  and  N1_22 
ROOT
HETATM    1  C3  UNL     1      -7.025   4.082  12.824  1.00  0.00     0.049 C 
HETATM    2  C4  UNL     1      -7.131   3.596  14.288  1.00  0.00     0.026 C 
HETATM    3  C5  UNL     1      -7.466   2.924  11.900  1.00  0.00     0.020 C 
HETATM    4  C6  UNL     1      -6.508   1.743  11.869  1.00  0.00     0.002 C 
HETATM    5  C7  UNL     1      -5.055   2.097  12.166  1.00  0.00     0.010 C 
HETATM    6  C8  UNL     1      -4.625   3.529  11.757  1.00  0.00    -0.034 C 
HETATM    7  C9  UNL     1      -4.720   3.654  10.213  1.00  0.00     0.016 C 
HETATM    8  C10 UNL     1      -3.121   3.742  12.224  1.00  0.00     0.006 C 
HETATM    9  C11 UNL     1      -2.085   2.926  11.419  1.00  0.00     0.010 C 
HETATM   10  C12 UNL     1      -0.668   3.103  11.961  1.00  0.00     0.035 C 
HETATM   11  C13 UNL     1      -0.264   4.563  12.008  1.00  0.00    -0.070 C 
HETATM   12  C14 UNL     1       0.888   4.942  11.416  1.00  0.00     0.085 C 
HETATM   13  C20 UNL     1      -1.251   5.459  12.748  1.00  0.00     0.022 C 
HETATM   14  C21 UNL     1      -1.094   5.249  14.263  1.00  0.00     0.015 C 
HETATM   15  C22 UNL     1      -2.696   5.230  12.227  1.00  0.00     0.068 C 
HETATM   16  C23 UNL     1      -3.683   6.072  13.016  1.00  0.00     0.132 C 
HETATM   17  O5  UNL     1      -3.498   7.270  13.224  1.00  0.00    -0.298 OA
HETATM   18  C24 UNL     1      -4.903   5.367  13.554  1.00  0.00     0.085 C 
HETATM   19  C25 UNL     1      -5.594   4.605  12.412  1.00  0.00     0.019 C 
ENDROOT
BRANCH  12  20
HETATM   20  C15 UNL     1       1.576   6.251  11.328  1.00  0.00     0.283 C 
HETATM   21  O3  UNL     1       1.077   7.263  11.801  1.00  0.00    -0.260 OA
BRANCH  20  22
HETATM   22  O4  UNL     1       2.729   6.189  10.630  1.00  0.00    -0.316 OA
BRANCH  22  23
HETATM   23  C16 UNL     1       2.591   6.128   9.199  1.00  0.00     0.209 C 
BRANCH  23  24
HETATM   24  C17 UNL     1       3.003   7.468   8.568  1.00  0.00     0.298 C 
BRANCH  24  25
HETATM   25  N1  UNL     1       1.992   8.038   7.657  1.00  0.00     0.082 N 
HETATM   26  C18 UNL     1       1.796   7.147   6.510  1.00  0.00     0.309 C 
HETATM   27  C19 UNL     1       0.712   8.249   8.338  1.00  0.00     0.309 C 
ENDBRANCH  24  25
ENDBRANCH  23  24
ENDBRANCH  22  23
ENDBRANCH  20  22
ENDBRANCH  12  20
BRANCH   1  28
HETATM   28  C2  UNL     1      -8.035   5.234  12.604  1.00  0.00     0.267 C 
HETATM   29  O2  UNL     1      -8.574   5.489  11.534  1.00  0.00    -0.264 OA
BRANCH  28  30
HETATM   30  O1  UNL     1      -8.215   5.963  13.738  1.00  0.00    -0.326 OA
HETATM   31  C1  UNL     1      -9.490   6.600  13.835  1.00  0.00     0.213 C 
ENDBRANCH  28  30
ENDBRANCH   1  28
TORSDOF 7
ENDMDL
MODEL 2
REMARK minimizedAffinity -8.06496525
REMARK  7 active torsions:
REMARK  status: ('A' for Active; 'I' for Inactive)
REMARK    1  A    between atoms: O1_2  and  C2_3 
REMARK    2  A    between atoms: C2_3  and  C3_5 
REMARK    3  A    between atoms: C14_16  and  C15_17 
REMARK    4  A    between atoms: C15_17  and  O4_19 
REMARK    5  A    between atoms: O4_19  and  C16_20 
REMARK    6  A    between atoms: C16_20  and  C17_21 
REMARK    7  A    between atoms: C17_21  and  N1_22 
ROOT
HETATM    1  C3  UNL     1       3.178   5.975   9.643  1.00  0.00     0.049 C 
HETATM    2  C4  UNL     1       4.221   5.936  10.785  1.00  0.00     0.026 C 
HETATM    3  C5  UNL     1       3.454   7.229   8.783  1.00  0.00     0.020 C 
HETATM    4  C6  UNL     1       3.152   8.548   9.478  1.00  0.00     0.002 C 
HETATM    5  C7  UNL     1       2.074   8.466  10.554  1.00  0.00     0.010 C 
HETATM    6  C8  UNL     1       0.995   7.377  10.329  1.00  0.00    -0.034 C 
HETATM    7  C9  UNL     1       0.197   7.727   9.044  1.00  0.00     0.016 C 
HETATM    8  C10 UNL     1       0.022   7.383  11.586  1.00  0.00     0.006 C 
HETATM    9  C11 UNL     1      -0.888   8.628  11.677  1.00  0.00     0.010 C 
HETATM   10  C12 UNL     1      -1.740   8.623  12.945  1.00  0.00     0.035 C 
HETATM   11  C13 UNL     1      -2.568   7.359  13.058  1.00  0.00    -0.070 C 
HETATM   12  C14 UNL     1      -3.900   7.465  13.251  1.00  0.00     0.085 C 
HETATM   13  C20 UNL     1      -1.760   6.072  12.936  1.00  0.00     0.022 C 
HETATM   14  C21 UNL     1      -0.994   5.824  14.245  1.00  0.00     0.015 C 
HETATM   15  C22 UNL     1      -0.855   6.111  11.674  1.00  0.00     0.068 C 
HETATM   16  C23 UNL     1      -0.000   4.859  11.596  1.00  0.00     0.132 C 
HETATM   17  O5  UNL     1      -0.478   3.734  11.734  1.00  0.00    -0.298 OA
HETATM   18  C24 UNL     1       1.476   5.055  11.359  1.00  0.00     0.085 C 
HETATM   19  C25 UNL     1       1.677   5.956  10.129  1.00  0.00     0.019 C 
ENDROOT
BRANCH  12  20
HETATM   20  C15 UNL     1      -4.959   6.448  13.448  1.00  0.00     0.283 C 
HETATM   21  O3  UNL     1      -6.130   6.693  13.192  1.00  0.00    -0.260 OA
BRANCH  20  22
HETATM   22  O4  UNL     1      -4.490   5.304  13.987  1.00  0.00    -0.316 OA
BRANCH  22  23
HETATM   23  C16 UNL     1      -4.323   4.205  13.073  1.00  0.00     0.209 C 
BRANCH  23  24
HETATM   24  C17 UNL     1      -5.694   3.679  12.618  1.00  0.00     0.298 C 
BRANCH  24  25
HETATM   25  N1  UNL     1      -5.695   3.101  11.261  1.00  0.00     0.082 N 
HETATM   26  C18 UNL     1      -4.414   3.375  10.602  1.00  0.00     0.309 C 
HETATM   27  C19 UNL     1      -5.930   1.655  11.292  1.00  0.00     0.309 C 
ENDBRANCH  24  25
ENDBRANCH  23  24
ENDBRANCH  22  23
ENDBRANCH  20  22
ENDBRANCH  12  20
BRANCH   1  28
HETATM   28  C2  UNL     1       3.397   4.750   8.723  1.00  0.00     0.267 C 
HETATM   29  O2  UNL     1       3.796   3.657   9.105  1.00  0.00    -0.264 OA
BRANCH  28  30
HETATM   30  O1  UNL     1       3.135   5.050   7.422  1.00  0.00    -0.326 OA
HETATM   31  C1  UNL     1       3.545   4.048   6.489  1.00  0.00     0.213 C 
ENDBRANCH  28  30
ENDBRANCH   1  28
TORSDOF 7
ENDMDL
MODEL 3
REMARK minimizedAffinity -7.85564756
REMARK  7 active torsions:
REMARK  status: ('A' for Active; 'I' for Inactive)
REMARK    1  A    between atoms: O1_2  and  C2_3 
REMARK    2  A    between atoms: C2_3  and  C3_5 
REMARK    3  A    between atoms: C14_16  and  C15_17 
REMARK    4  A    between atoms: C15_17  and  O4_19 
REMARK    5  A    between atoms: O4_19  and  C16_20 
REMARK    6  A    between atoms: C16_20  and  C17_21 
REMARK    7  A    between atoms: C17_21  and  N1_22 
ROOT
HETATM    1  C3  UNL     1       3.196   5.959   9.618  1.00  0.00     0.049 C 
HETATM    2  C4  UNL     1       4.255   5.969  10.744  1.00  0.00     0.026 C 
HETATM    3  C5  UNL     1       3.433   7.198   8.724  1.00  0.00     0.020 C 
HETATM    4  C6  UNL     1       3.113   8.527   9.393  1.00  0.00     0.002 C 
HETATM    5  C7  UNL     1       2.054   8.448  10.487  1.00  0.00     0.010 C 
HETATM    6  C8  UNL     1       0.994   7.332  10.303  1.00  0.00    -0.034 C 
HETATM    7  C9  UNL     1       0.171   7.636   9.023  1.00  0.00     0.016 C 
HETATM    8  C10 UNL     1       0.040   7.348  11.574  1.00  0.00     0.006 C 
HETATM    9  C11 UNL     1      -0.895   8.576  11.651  1.00  0.00     0.010 C 
HETATM   10  C12 UNL     1      -1.728   8.584  12.931  1.00  0.00     0.035 C 
HETATM   11  C13 UNL     1      -2.528   7.306  13.085  1.00  0.00    -0.070 C 
HETATM   12  C14 UNL     1      -3.859   7.389  13.295  1.00  0.00     0.085 C 
HETATM   13  C20 UNL     1      -1.696   6.033  12.982  1.00  0.00     0.022 C 
HETATM   14  C21 UNL     1      -0.905   5.832  14.284  1.00  0.00     0.015 C 
HETATM   15  C22 UNL     1      -0.810   6.061  11.705  1.00  0.00     0.068 C 
HETATM   16  C23 UNL     1       0.070   4.825  11.644  1.00  0.00     0.132 C 
HETATM   17  O5  UNL     1      -0.383   3.694  11.815  1.00  0.00    -0.298 OA
HETATM   18  C24 UNL     1       1.538   5.045  11.379  1.00  0.00     0.085 C 
HETATM   19  C25 UNL     1       1.702   5.921  10.127  1.00  0.00     0.019 C 
ENDROOT
BRANCH  12  20
HETATM   20  C15 UNL     1      -4.893   6.355  13.533  1.00  0.00     0.283 C 
HETATM   21  O3  UNL     1      -4.908   5.313  12.891  1.00  0.00    -0.260 OA
BRANCH  20  22
HETATM   22  O4  UNL     1      -5.807   6.732  14.451  1.00  0.00    -0.316 OA
BRANCH  22  23
HETATM   23  C16 UNL     1      -7.175   6.747  14.003  1.00  0.00     0.209 C 
BRANCH  23  24
HETATM   24  C17 UNL     1      -7.892   5.461  14.445  1.00  0.00     0.298 C 
BRANCH  24  25
HETATM   25  N1  UNL     1      -8.506   4.705  13.338  1.00  0.00     0.082 N 
HETATM   26  C18 UNL     1      -8.444   5.493  12.103  1.00  0.00     0.309 C 
HETATM   27  C19 UNL     1      -7.840   3.416  13.131  1.00  0.00     0.309 C 
ENDBRANCH  24  25
ENDBRANCH  23  24
ENDBRANCH  22  23
ENDBRANCH  20  22
ENDBRANCH  12  20
BRANCH   1  28
HETATM   28  C2  UNL     1       3.426   4.718   8.723  1.00  0.00     0.267 C 
HETATM   29  O2  UNL     1       3.826   3.634   9.130  1.00  0.00    -0.264 OA
BRANCH  28  30
HETATM   30  O1  UNL     1       3.176   4.992   7.414  1.00  0.00    -0.326 OA
HETATM   31  C1  UNL     1       3.601   3.976   6.505  1.00  0.00     0.213 C 
ENDBRANCH  28  30
ENDBRANCH   1  28
TORSDOF 7
ENDMDL
MODEL 4
REMARK minimizedAffinity -7.81526232
REMARK  7 active torsions:
REMARK  status: ('A' for Active; 'I' for Inactive)
REMARK    1  A    between atoms: O1_2  and  C2_3 
REMARK    2  A    between atoms: C2_3  and  C3_5 
REMARK    3  A    between atoms: C14_16  and  C15_17 
REMARK    4  A    between atoms: C15_17  and  O4_19 
REMARK    5  A    between atoms: O4_19  and  C16_20 
REMARK    6  A    between atoms: C16_20  and  C17_21 
REMARK    7  A    between atoms: C17_21  and  N1_22 
ROOT
HETATM    1  C3  UNL     1      -7.534   4.517  13.521  1.00  0.00     0.049 C 
HETATM    2  C4  UNL     1      -7.473   4.121  15.015  1.00  0.00     0.026 C 
HETATM    3  C5  UNL     1      -8.131   3.329  12.732  1.00  0.00     0.020 C 
HETATM    4  C6  UNL     1      -7.230   2.106  12.658  1.00  0.00     0.002 C 
HETATM    5  C7  UNL     1      -5.739   2.410  12.751  1.00  0.00     0.010 C 
HETATM    6  C8  UNL     1      -5.310   3.795  12.204  1.00  0.00    -0.034 C 
HETATM    7  C9  UNL     1      -5.592   3.835  10.678  1.00  0.00     0.016 C 
HETATM    8  C10 UNL     1      -3.752   3.966  12.468  1.00  0.00     0.006 C 
HETATM    9  C11 UNL     1      -2.857   3.059  11.594  1.00  0.00     0.010 C 
HETATM   10  C12 UNL     1      -1.377   3.201  11.946  1.00  0.00     0.035 C 
HETATM   11  C13 UNL     1      -0.916   4.642  11.851  1.00  0.00    -0.070 C 
HETATM   12  C14 UNL     1       0.167   4.933  11.099  1.00  0.00     0.085 C 
HETATM   13  C20 UNL     1      -1.766   5.623  12.650  1.00  0.00     0.022 C 
HETATM   14  C21 UNL     1      -1.429   5.493  14.144  1.00  0.00     0.015 C 
HETATM   15  C22 UNL     1      -3.274   5.431  12.325  1.00  0.00     0.068 C 
HETATM   16  C23 UNL     1      -4.121   6.360  13.176  1.00  0.00     0.132 C 
HETATM   17  O5  UNL     1      -3.866   7.559  13.284  1.00  0.00    -0.298 OA
HETATM   18  C24 UNL     1      -5.290   5.744  13.903  1.00  0.00     0.085 C 
HETATM   19  C25 UNL     1      -6.147   4.950  12.904  1.00  0.00     0.019 C 
ENDROOT
BRANCH  12  20
HETATM   20  C15 UNL     1       0.888   6.202  10.845  1.00  0.00     0.283 C 
HETATM   21  O3  UNL     1       0.465   7.022  10.041  1.00  0.00    -0.260 OA
BRANCH  20  22
HETATM   22  O4  UNL     1       2.045   6.291  11.531  1.00  0.00    -0.316 OA
BRANCH  22  23
HETATM   23  C16 UNL     1       3.241   6.361  10.733  1.00  0.00     0.209 C 
BRANCH  23  24
HETATM   24  C17 UNL     1       4.403   6.927  11.566  1.00  0.00     0.298 C 
BRANCH  24  25
HETATM   25  N1  UNL     1       5.617   7.220  10.781  1.00  0.00     0.082 N 
HETATM   26  C18 UNL     1       5.801   8.671  10.673  1.00  0.00     0.309 C 
HETATM   27  C19 UNL     1       6.808   6.619  11.386  1.00  0.00     0.309 C 
ENDBRANCH  24  25
ENDBRANCH  23  24
ENDBRANCH  22  23
ENDBRANCH  20  22
ENDBRANCH  12  20
BRANCH   1  28
HETATM   28  C2  UNL     1      -8.519   5.699  13.355  1.00  0.00     0.267 C 
HETATM   29  O2  UNL     1      -9.095   5.981  12.312  1.00  0.00    -0.264 OA
BRANCH  28  30
HETATM   30  O1  UNL     1      -8.631   6.420  14.504  1.00  0.00    -0.326 OA
HETATM   31  C1  UNL     1      -9.832   7.186  14.606  1.00  0.00     0.213 C 
ENDBRANCH  28  30
ENDBRANCH   1  28
TORSDOF 7
ENDMDL
MODEL 5
REMARK minimizedAffinity -7.56524849
REMARK  7 active torsions:
REMARK  status: ('A' for Active; 'I' for Inactive)
REMARK    1  A    between atoms: O1_2  and  C2_3 
REMARK    2  A    between atoms: C2_3  and  C3_5 
REMARK    3  A    between atoms: C14_16  and  C15_17 
REMARK    4  A    between atoms: C15_17  and  O4_19 
REMARK    5  A    between atoms: O4_19  and  C16_20 
REMARK    6  A    between atoms: C16_20  and  C17_21 
REMARK    7  A    between atoms: C17_21  and  N1_22 
ROOT
HETATM    1  C3  UNL     1      -3.180   3.413  11.647  1.00  0.00     0.049 C 
HETATM    2  C4  UNL     1      -3.813   3.786  10.286  1.00  0.00     0.026 C 
HETATM    3  C5  UNL     1      -4.293   3.445  12.719  1.00  0.00     0.020 C 
HETATM    4  C6  UNL     1      -4.825   4.835  13.034  1.00  0.00     0.002 C 
HETATM    5  C7  UNL     1      -3.827   5.964  12.799  1.00  0.00     0.010 C 
HETATM    6  C8  UNL     1      -2.337   5.580  12.986  1.00  0.00    -0.034 C 
HETATM    7  C9  UNL     1      -2.107   5.196  14.473  1.00  0.00     0.016 C 
HETATM    8  C10 UNL     1      -1.454   6.848  12.614  1.00  0.00     0.006 C 
HETATM    9  C11 UNL     1      -1.547   8.007  13.631  1.00  0.00     0.010 C 
HETATM   10  C12 UNL     1      -0.747   9.229  13.184  1.00  0.00     0.035 C 
HETATM   11  C13 UNL     1       0.704   8.881  12.918  1.00  0.00    -0.070 C 
HETATM   12  C14 UNL     1       1.671   9.599  13.527  1.00  0.00     0.085 C 
HETATM   13  C20 UNL     1       0.899   7.716  11.954  1.00  0.00     0.022 C 
HETATM   14  C21 UNL     1       0.629   8.190  10.517  1.00  0.00     0.015 C 
HETATM   15  C22 UNL     1       0.037   6.497  12.387  1.00  0.00     0.068 C 
HETATM   16  C23 UNL     1       0.178   5.365  11.386  1.00  0.00     0.132 C 
HETATM   17  O5  UNL     1       1.277   4.981  10.989  1.00  0.00    -0.298 OA
HETATM   18  C24 UNL     1      -1.096   4.738  10.881  1.00  0.00     0.085 C 
HETATM   19  C25 UNL     1      -1.970   4.330  12.078  1.00  0.00     0.019 C 
ENDROOT
BRANCH  12  20
HETATM   20  C15 UNL     1       3.149   9.548  13.442  1.00  0.00     0.283 C 
HETATM   21  O3  UNL     1       3.813  10.569  13.324  1.00  0.00    -0.260 OA
BRANCH  20  22
HETATM   22  O4  UNL     1       3.628   8.287  13.442  1.00  0.00    -0.316 OA
BRANCH  22  23
HETATM   23  C16 UNL     1       4.961   8.125  12.925  1.00  0.00     0.209 C 
BRANCH  23  24
HETATM   24  C17 UNL     1       4.962   8.288  11.396  1.00  0.00     0.298 C 
BRANCH  24  25
HETATM   25  N1  UNL     1       5.429   7.095  10.666  1.00  0.00     0.082 N 
HETATM   26  C18 UNL     1       6.501   6.438  11.420  1.00  0.00     0.309 C 
HETATM   27  C19 UNL     1       4.338   6.144  10.435  1.00  0.00     0.309 C 
ENDBRANCH  24  25
ENDBRANCH  23  24
ENDBRANCH  22  23
ENDBRANCH  20  22
ENDBRANCH  12  20
BRANCH   1  28
HETATM   28  C2  UNL     1      -2.671   1.953  11.580  1.00  0.00     0.267 C 
HETATM   29  O2  UNL     1      -3.388   0.963  11.665  1.00  0.00    -0.264 OA
BRANCH  28  30
HETATM   30  O1  UNL     1      -1.317   1.901  11.463  1.00  0.00    -0.326 OA
HETATM   31  C1  UNL     1      -0.834   0.837  10.641  1.00  0.00     0.213 C 
ENDBRANCH  28  30
ENDBRANCH   1  28
TORSDOF 7
ENDMDL
MODEL 6
REMARK minimizedAffinity -7.37585497
REMARK  7 active torsions:
REMARK  status: ('A' for Active; 'I' for Inactive)
REMARK    1  A    between atoms: O1_2  and  C2_3 
REMARK    2  A    between atoms: C2_3  and  C3_5 
REMARK    3  A    between atoms: C14_16  and  C15_17 
REMARK    4  A    between atoms: C15_17  and  O4_19 
REMARK    5  A    between atoms: O4_19  and  C16_20 
REMARK    6  A    between atoms: C16_20  and  C17_21 
REMARK    7  A    between atoms: C17_21  and  N1_22 
ROOT
HETATM    1  C3  UNL     1      -1.548   6.043  13.225  1.00  0.00     0.049 C 
HETATM    2  C4  UNL     1      -1.067   5.217  14.441  1.00  0.00     0.026 C 
HETATM    3  C5  UNL     1      -0.833   7.413  13.261  1.00  0.00     0.020 C 
HETATM    4  C6  UNL     1      -1.268   8.321  14.401  1.00  0.00     0.002 C 
HETATM    5  C7  UNL     1      -2.691   8.084  14.893  1.00  0.00     0.010 C 
HETATM    6  C8  UNL     1      -3.682   7.555  13.825  1.00  0.00    -0.034 C 
HETATM    7  C9  UNL     1      -3.855   8.641  12.729  1.00  0.00     0.016 C 
HETATM    8  C10 UNL     1      -5.076   7.285  14.540  1.00  0.00     0.006 C 
HETATM    9  C11 UNL     1      -5.826   8.565  14.972  1.00  0.00     0.010 C 
HETATM   10  C12 UNL     1      -7.116   8.247  15.727  1.00  0.00     0.035 C 
HETATM   11  C13 UNL     1      -8.031   7.350  14.917  1.00  0.00    -0.070 C 
HETATM   12  C14 UNL     1      -9.311   7.732  14.719  1.00  0.00     0.085 C 
HETATM   13  C20 UNL     1      -7.366   6.077  14.408  1.00  0.00     0.022 C 
HETATM   14  C21 UNL     1      -7.222   5.077  15.566  1.00  0.00     0.015 C 
HETATM   15  C22 UNL     1      -6.027   6.407  13.692  1.00  0.00     0.068 C 
HETATM   16  C23 UNL     1      -5.334   5.131  13.250  1.00  0.00     0.132 C 
HETATM   17  O5  UNL     1      -5.928   4.244  12.638  1.00  0.00    -0.298 OA
HETATM   18  C24 UNL     1      -3.877   4.987  13.611  1.00  0.00     0.085 C 
HETATM   19  C25 UNL     1      -3.113   6.237  13.146  1.00  0.00     0.019 C 
ENDROOT
BRANCH  12  20
HETATM   20  C15 UNL     1     -10.448   7.075  14.033  1.00  0.00     0.283 C 
HETATM   21  O3  UNL     1     -10.272   6.359  13.056  1.00  0.00    -0.260 OA
BRANCH  20  22
HETATM   22  O4  UNL     1     -11.642   7.412  14.562  1.00  0.00    -0.316 OA
BRANCH  22  23
HETATM   23  C16 UNL     1     -12.732   6.521  14.265  1.00  0.00     0.209 C 
BRANCH  23  24
HETATM   24  C17 UNL     1     -13.439   6.958  12.972  1.00  0.00     0.298 C 
BRANCH  24  25
HETATM   25  N1  UNL     1     -14.728   7.639  13.194  1.00  0.00     0.082 N 
HETATM   26  C18 UNL     1     -14.571   9.082  12.988  1.00  0.00     0.309 C 
HETATM   27  C19 UNL     1     -15.770   7.127  12.298  1.00  0.00     0.309 C 
ENDBRANCH  24  25
ENDBRANCH  23  24
ENDBRANCH  22  23
ENDBRANCH  20  22
ENDBRANCH  12  20
BRANCH   1  28
HETATM   28  C2  UNL     1      -1.090   5.338  11.926  1.00  0.00     0.267 C 
HETATM   29  O2  UNL     1      -0.525   5.897  10.995  1.00  0.00    -0.264 OA
BRANCH  28  30
HETATM   30  O1  UNL     1      -1.436   4.022  11.924  1.00  0.00    -0.326 OA
HETATM   31  C1  UNL     1      -0.342   3.123  11.728  1.00  0.00     0.213 C 
ENDBRANCH  28  30
ENDBRANCH   1  28
TORSDOF 7
ENDMDL
MODEL 7
REMARK minimizedAffinity -7.12905216
REMARK  7 active torsions:
REMARK  status: ('A' for Active; 'I' for Inactive)
REMARK    1  A    between atoms: O1_2  and  C2_3 
REMARK    2  A    between atoms: C2_3  and  C3_5 
REMARK    3  A    between atoms: C14_16  and  C15_17 
REMARK    4  A    between atoms: C15_17  and  O4_19 
REMARK    5  A    between atoms: O4_19  and  C16_20 
REMARK    6  A    between atoms: C16_20  and  C17_21 
REMARK    7  A    between atoms: C17_21  and  N1_22 
ROOT
HETATM    1  C3  UNL     1      -3.165   3.428  11.574  1.00  0.00     0.049 C 
HETATM    2  C4  UNL     1      -3.629   3.845  10.158  1.00  0.00     0.026 C 
HETATM    3  C5  UNL     1      -4.413   3.347  12.484  1.00  0.00     0.020 C 
HETATM    4  C6  UNL     1      -5.058   4.690  12.788  1.00  0.00     0.002 C 
HETATM    5  C7  UNL     1      -4.102   5.877  12.748  1.00  0.00     0.010 C 
HETATM    6  C8  UNL     1      -2.632   5.557  13.118  1.00  0.00    -0.034 C 
HETATM    7  C9  UNL     1      -2.582   5.103  14.602  1.00  0.00     0.016 C 
HETATM    8  C10 UNL     1      -1.778   6.884  12.932  1.00  0.00     0.006 C 
HETATM    9  C11 UNL     1      -2.072   7.980  13.981  1.00  0.00     0.010 C 
HETATM   10  C12 UNL     1      -1.288   9.262  13.707  1.00  0.00     0.035 C 
HETATM   11  C13 UNL     1       0.203   9.000  13.626  1.00  0.00    -0.070 C 
HETATM   12  C14 UNL     1       1.038   9.730  14.396  1.00  0.00     0.085 C 
HETATM   13  C20 UNL     1       0.590   7.900  12.644  1.00  0.00     0.022 C 
HETATM   14  C21 UNL     1       0.490   8.439  11.208  1.00  0.00     0.015 C 
HETATM   15  C22 UNL     1      -0.254   6.619  12.896  1.00  0.00     0.068 C 
HETATM   16  C23 UNL     1       0.084   5.553  11.870  1.00  0.00     0.132 C 
HETATM   17  O5  UNL     1       1.246   5.244  11.609  1.00  0.00    -0.298 OA
HETATM   18  C24 UNL     1      -1.074   4.893  11.165  1.00  0.00     0.085 C 
HETATM   19  C25 UNL     1      -2.077   4.378  12.210  1.00  0.00     0.019 C 
ENDROOT
BRANCH  12  20
HETATM   20  C15 UNL     1       2.514   9.755  14.512  1.00  0.00     0.283 C 
HETATM   21  O3  UNL     1       3.229   9.731  13.519  1.00  0.00    -0.260 OA
BRANCH  20  22
HETATM   22  O4  UNL     1       2.937   9.735  15.793  1.00  0.00    -0.316 OA
BRANCH  22  23
HETATM   23  C16 UNL     1       1.909   9.586  16.789  1.00  0.00     0.209 C 
BRANCH  23  24
HETATM   24  C17 UNL     1       2.209  10.483  18.001  1.00  0.00     0.298 C 
BRANCH  24  25
HETATM   25  N1  UNL     1       1.016  11.127  18.580  1.00  0.00     0.082 N 
HETATM   26  C18 UNL     1      -0.185  10.688  17.863  1.00  0.00     0.309 C 
HETATM   27  C19 UNL     1       0.875  10.816  20.006  1.00  0.00     0.309 C 
ENDBRANCH  24  25
ENDBRANCH  23  24
ENDBRANCH  22  23
ENDBRANCH  20  22
ENDBRANCH  12  20
BRANCH   1  28
HETATM   28  C2  UNL     1      -2.572   2.000  11.508  1.00  0.00     0.267 C 
HETATM   29  O2  UNL     1      -3.189   0.979  11.783  1.00  0.00    -0.264 OA
BRANCH  28  30
HETATM   30  O1  UNL     1      -1.259   2.021  11.151  1.00  0.00    -0.326 OA
HETATM   31  C1  UNL     1      -0.763   0.779  10.649  1.00  0.00     0.213 C 
ENDBRANCH  28  30
ENDBRANCH   1  28
TORSDOF 7
ENDMDL
MODEL 8
REMARK minimizedAffinity -7.08136702
REMARK  7 active torsions:
REMARK  status: ('A' for Active; 'I' for Inactive)
REMARK    1  A    between atoms: O1_2  and  C2_3 
REMARK    2  A    between atoms: C2_3  and  C3_5 
REMARK    3  A    between atoms: C14_16  and  C15_17 
REMARK    4  A    between atoms: C15_17  and  O4_19 
REMARK    5  A    between atoms: O4_19  and  C16_20 
REMARK    6  A    between atoms: C16_20  and  C17_21 
REMARK    7  A    between atoms: C17_21  and  N1_22 
ROOT
HETATM    1  C3  UNL     1       3.191   6.016   9.386  1.00  0.00     0.049 C 
HETATM    2  C4  UNL     1       4.254   5.849  10.498  1.00  0.00     0.026 C 
HETATM    3  C5  UNL     1       3.507   7.315   8.610  1.00  0.00     0.020 C 
HETATM    4  C6  UNL     1       3.280   8.593   9.404  1.00  0.00     0.002 C 
HETATM    5  C7  UNL     1       2.222   8.482  10.496  1.00  0.00     0.010 C 
HETATM    6  C8  UNL     1       1.090   7.461  10.220  1.00  0.00    -0.034 C 
HETATM    7  C9  UNL     1       0.283   7.937   8.983  1.00  0.00     0.016 C 
HETATM    8  C10 UNL     1       0.144   7.420  11.497  1.00  0.00     0.006 C 
HETATM    9  C11 UNL     1      -0.706   8.695  11.698  1.00  0.00     0.010 C 
HETATM   10  C12 UNL     1      -1.532   8.638  12.982  1.00  0.00     0.035 C 
HETATM   11  C13 UNL     1      -2.415   7.406  13.025  1.00  0.00    -0.070 C 
HETATM   12  C14 UNL     1      -3.736   7.558  13.256  1.00  0.00     0.085 C 
HETATM   13  C20 UNL     1      -1.670   6.097  12.794  1.00  0.00     0.022 C 
HETATM   14  C21 UNL     1      -0.889   5.722  14.063  1.00  0.00     0.015 C 
HETATM   15  C22 UNL     1      -0.789   6.186  11.516  1.00  0.00     0.068 C 
HETATM   16  C23 UNL     1       0.005   4.906  11.331  1.00  0.00     0.132 C 
HETATM   17  O5  UNL     1      -0.521   3.796  11.400  1.00  0.00    -0.298 OA
HETATM   18  C24 UNL     1       1.484   5.052  11.072  1.00  0.00     0.085 C 
HETATM   19  C25 UNL     1       1.701   6.029   9.905  1.00  0.00     0.019 C 
ENDROOT
BRANCH  12  20
HETATM   20  C15 UNL     1      -4.837   6.577  13.406  1.00  0.00     0.283 C 
HETATM   21  O3  UNL     1      -4.865   5.549  12.743  1.00  0.00    -0.260 OA
BRANCH  20  22
HETATM   22  O4  UNL     1      -5.785   6.986  14.273  1.00  0.00    -0.316 OA
BRANCH  22  23
HETATM   23  C16 UNL     1      -5.303   7.575  15.495  1.00  0.00     0.209 C 
BRANCH  23  24
HETATM   24  C17 UNL     1      -5.505   9.099  15.466  1.00  0.00     0.298 C 
BRANCH  24  25
HETATM   25  N1  UNL     1      -4.250   9.871  15.530  1.00  0.00     0.082 N 
HETATM   26  C18 UNL     1      -4.522  11.222  16.033  1.00  0.00     0.309 C 
HETATM   27  C19 UNL     1      -3.259   9.219  16.390  1.00  0.00     0.309 C 
ENDBRANCH  24  25
ENDBRANCH  23  24
ENDBRANCH  22  23
ENDBRANCH  20  22
ENDBRANCH  12  20
BRANCH   1  28
HETATM   28  C2  UNL     1       3.334   4.851   8.377  1.00  0.00     0.267 C 
HETATM   29  O2  UNL     1       2.996   4.906   7.202  1.00  0.00    -0.264 OA
BRANCH  28  30
HETATM   30  O1  UNL     1       3.841   3.736   8.970  1.00  0.00    -0.326 OA
HETATM   31  C1  UNL     1       4.881   3.094   8.231  1.00  0.00     0.213 C 
ENDBRANCH  28  30
ENDBRANCH   1  28
TORSDOF 7
ENDMDL
MODEL 9
REMARK minimizedAffinity -7.07140493
REMARK  7 active torsions:
REMARK  status: ('A' for Active; 'I' for Inactive)
REMARK    1  A    between atoms: O1_2  and  C2_3 
REMARK    2  A    between atoms: C2_3  and  C3_5 
REMARK    3  A    between atoms: C14_16  and  C15_17 
REMARK    4  A    between atoms: C15_17  and  O4_19 
REMARK    5  A    between atoms: O4_19  and  C16_20 
REMARK    6  A    between atoms: C16_20  and  C17_21 
REMARK    7  A    between atoms: C17_21  and  N1_22 
ROOT
HETATM    1  C3  UNL     1       1.093   6.734  12.077  1.00  0.00     0.049 C 
HETATM    2  C4  UNL     1       1.895   6.242  13.305  1.00  0.00     0.026 C 
HETATM    3  C5  UNL     1       1.675   8.097  11.639  1.00  0.00     0.020 C 
HETATM    4  C6  UNL     1       1.414   9.236  12.614  1.00  0.00     0.002 C 
HETATM    5  C7  UNL     1       0.155   9.072  13.458  1.00  0.00     0.010 C 
HETATM    6  C8  UNL     1      -0.989   8.268  12.792  1.00  0.00    -0.034 C 
HETATM    7  C9  UNL     1      -1.488   9.051  11.548  1.00  0.00     0.016 C 
HETATM    8  C10 UNL     1      -2.169   8.126  13.848  1.00  0.00     0.006 C 
HETATM    9  C11 UNL     1      -2.921   9.444  14.140  1.00  0.00     0.010 C 
HETATM   10  C12 UNL     1      -3.986   9.270  15.221  1.00  0.00     0.035 C 
HETATM   11  C13 UNL     1      -4.970   8.172  14.865  1.00  0.00    -0.070 C 
HETATM   12  C14 UNL     1      -6.291   8.448  14.883  1.00  0.00     0.085 C 
HETATM   13  C20 UNL     1      -4.317   6.839  14.519  1.00  0.00     0.022 C 
HETATM   14  C21 UNL     1      -3.841   6.152  15.808  1.00  0.00     0.015 C 
HETATM   15  C22 UNL     1      -3.197   7.036  13.460  1.00  0.00     0.068 C 
HETATM   16  C23 UNL     1      -2.503   5.718  13.171  1.00  0.00     0.132 C 
HETATM   17  O5  UNL     1      -3.133   4.689  12.928  1.00  0.00    -0.298 OA
HETATM   18  C24 UNL     1      -0.996   5.717  13.213  1.00  0.00     0.085 C 
HETATM   19  C25 UNL     1      -0.463   6.846  12.316  1.00  0.00     0.019 C 
ENDROOT
BRANCH  12  20
HETATM   20  C15 UNL     1      -7.485   7.605  14.642  1.00  0.00     0.283 C 
HETATM   21  O3  UNL     1      -8.528   7.792  15.254  1.00  0.00    -0.260 OA
BRANCH  20  22
HETATM   22  O4  UNL     1      -7.253   6.615  13.756  1.00  0.00    -0.316 OA
BRANCH  22  23
HETATM   23  C16 UNL     1      -8.409   5.860  13.346  1.00  0.00     0.209 C 
BRANCH  23  24
HETATM   24  C17 UNL     1      -8.016   4.826  12.278  1.00  0.00     0.298 C 
BRANCH  24  25
HETATM   25  N1  UNL     1      -6.967   3.885  12.710  1.00  0.00     0.082 N 
HETATM   26  C18 UNL     1      -7.581   2.679  13.273  1.00  0.00     0.309 C 
HETATM   27  C19 UNL     1      -6.086   3.514  11.599  1.00  0.00     0.309 C 
ENDBRANCH  24  25
ENDBRANCH  23  24
ENDBRANCH  22  23
ENDBRANCH  20  22
ENDBRANCH  12  20
BRANCH   1  28
HETATM   28  C2  UNL     1       1.325   5.755  10.902  1.00  0.00     0.267 C 
HETATM   29  O2  UNL     1       1.368   4.536  11.012  1.00  0.00    -0.264 OA
BRANCH  28  30
HETATM   30  O1  UNL     1       1.526   6.419   9.731  1.00  0.00    -0.326 OA
HETATM   31  C1  UNL     1       2.674   5.990   8.997  1.00  0.00     0.213 C 
ENDBRANCH  28  30
ENDBRANCH   1  28
TORSDOF 7
ENDMDL
