MODEL 1
REMARK minimizedAffinity -9.7937994
REMARK  7 active torsions:
REMARK  status: ('A' for Active; 'I' for Inactive)
REMARK    1  A    between atoms: C2_2  and  O2_4 
REMARK    2  A    between atoms: O2_4  and  C3_5 
REMARK    3  A    between atoms: C3_5  and  C4_6 
REMARK    4  A    between atoms: C3_5  and  C9_12 
REMARK    5  A    between atoms: C5_7  and  C6_8 
REMARK    6  A    between atoms: C6_8  and  O3_11 
REMARK    7  A    between atoms: C9_12  and  C11_14 
ROOT
HETATM    1  C11 UNL     1      -1.379  50.706 -22.816  1.00  0.00     0.001 C 
HETATM    2  C12 UNL     1      -1.066  52.231 -22.805  1.00  0.00     0.007 C 
HETATM    3  C13 UNL     1      -0.526  52.596 -21.411  1.00  0.00     0.015 C 
HETATM    4  C14 UNL     1      -0.222  51.248 -20.743  1.00  0.00    -0.013 C 
HETATM    5  C15 UNL     1       1.198  50.806 -21.221  1.00  0.00     0.021 C 
HETATM    6  C16 UNL     1      -0.166  51.188 -19.221  1.00  0.00    -0.068 C 
HETATM    7  C17 UNL     1      -0.493  50.051 -18.559  1.00  0.00    -0.068 C 
HETATM    8  C18 UNL     1      -0.944  48.802 -19.335  1.00  0.00     0.036 C 
HETATM    9  C19 UNL     1      -1.130  48.929 -20.866  1.00  0.00     0.015 C 
HETATM   10  C20 UNL     1      -1.418  50.376 -21.286  1.00  0.00    -0.029 C 
HETATM   11  C21 UNL     1      -2.806  50.800 -20.709  1.00  0.00     0.016 C 
HETATM   12  C22 UNL     1      -0.507  49.959 -17.004  1.00  0.00    -0.015 C 
HETATM   13  C23 UNL     1      -1.980  49.702 -16.577  1.00  0.00     0.020 C 
HETATM   14  C24 UNL     1       0.394  48.794 -16.533  1.00  0.00     0.021 C 
HETATM   15  C25 UNL     1       0.315  48.526 -15.034  1.00  0.00     0.080 C 
HETATM   16  C26 UNL     1       0.092  49.779 -14.219  1.00  0.00     0.135 C 
HETATM   17  O4  UNL     1      -0.369  49.696 -13.080  1.00  0.00    -0.297 OA
HETATM   18  C27 UNL     1       0.542  51.111 -14.826  1.00  0.00     0.018 C 
HETATM   19  C28 UNL     1       0.016  52.272 -13.952  1.00  0.00     0.023 C 
HETATM   20  C29 UNL     1       2.084  51.119 -14.717  1.00  0.00     0.023 C 
HETATM   21  C30 UNL     1      -0.028  51.288 -16.289  1.00  0.00     0.013 C 
HETATM   22  C31 UNL     1       0.939  52.096 -17.170  1.00  0.00     0.011 C 
HETATM   23  C32 UNL     1       0.320  52.422 -18.517  1.00  0.00     0.036 C 
ENDROOT
BRANCH   1  24
HETATM   24  C9  UNL     1      -2.604  50.338 -23.720  1.00  0.00     0.020 C 
HETATM   25  C10 UNL     1      -2.933  48.840 -23.627  1.00  0.00     0.013 C 
BRANCH  24  26
HETATM   26  C3  UNL     1      -2.433  50.693 -25.236  1.00  0.00     0.158 C 
BRANCH  26  27
HETATM   27  O2  UNL     1      -2.355  49.492 -26.027  1.00  0.00    -0.312 OA
BRANCH  27  28
HETATM   28  C2  UNL     1      -3.161  49.419 -27.121  1.00  0.00     0.255 C 
HETATM   29  C1  UNL     1      -4.215  48.376 -26.906  1.00  0.00     0.126 C 
HETATM   30  O1  UNL     1      -3.082  50.114 -28.124  1.00  0.00    -0.266 OA
ENDBRANCH  27  28
ENDBRANCH  26  27
BRANCH  26  31
HETATM   31  C4  UNL     1      -1.185  51.482 -25.551  1.00  0.00     0.005 C 
HETATM   32  C5  UNL     1      -0.158  51.008 -26.277  1.00  0.00     0.008 C 
BRANCH  32  33
HETATM   33  C6  UNL     1       1.123  51.725 -26.640  1.00  0.00     0.068 C 
HETATM   34  C7  UNL     1       1.178  51.957 -28.152  1.00  0.00     0.050 C 
HETATM   35  C8  UNL     1       2.416  51.048 -26.171  1.00  0.00     0.050 C 
BRANCH  33  36
HETATM   36  O3  UNL     1       1.054  53.008 -26.011  1.00  0.00    -0.387 OA
HETATM   37  H13 UNL     1       0.943  52.850 -25.057  1.00  0.00     0.211 HD
ENDBRANCH  33  36
ENDBRANCH  32  33
ENDBRANCH  26  31
ENDBRANCH  24  26
ENDBRANCH   1  24
TORSDOF 7
ENDMDL
MODEL 2
REMARK minimizedAffinity -9.43608665
REMARK  7 active torsions:
REMARK  status: ('A' for Active; 'I' for Inactive)
REMARK    1  A    between atoms: C2_2  and  O2_4 
REMARK    2  A    between atoms: O2_4  and  C3_5 
REMARK    3  A    between atoms: C3_5  and  C4_6 
REMARK    4  A    between atoms: C3_5  and  C9_12 
REMARK    5  A    between atoms: C5_7  and  C6_8 
REMARK    6  A    between atoms: C6_8  and  O3_11 
REMARK    7  A    between atoms: C9_12  and  C11_14 
ROOT
HETATM    1  C11 UNL     1      -1.945  50.812 -23.012  1.00  0.00     0.001 C 
HETATM    2  C12 UNL     1      -1.762  50.506 -24.527  1.00  0.00     0.007 C 
HETATM    3  C13 UNL     1      -3.005  49.737 -25.011  1.00  0.00     0.015 C 
HETATM    4  C14 UNL     1      -4.027  49.891 -23.876  1.00  0.00    -0.013 C 
HETATM    5  C15 UNL     1      -4.745  51.262 -24.086  1.00  0.00     0.021 C 
HETATM    6  C16 UNL     1      -5.150  48.867 -23.767  1.00  0.00    -0.068 C 
HETATM    7  C17 UNL     1      -5.696  48.561 -22.564  1.00  0.00    -0.068 C 
HETATM    8  C18 UNL     1      -5.178  49.235 -21.282  1.00  0.00     0.036 C 
HETATM    9  C19 UNL     1      -3.945  50.163 -21.399  1.00  0.00     0.015 C 
HETATM   10  C20 UNL     1      -3.082  49.811 -22.617  1.00  0.00    -0.029 C 
HETATM   11  C21 UNL     1      -2.459  48.395 -22.400  1.00  0.00     0.016 C 
HETATM   12  C22 UNL     1      -6.805  47.481 -22.395  1.00  0.00    -0.015 C 
HETATM   13  C23 UNL     1      -6.198  46.339 -21.531  1.00  0.00     0.020 C 
HETATM   14  C24 UNL     1      -8.035  48.088 -21.684  1.00  0.00     0.021 C 
HETATM   15  C25 UNL     1      -9.108  47.063 -21.331  1.00  0.00     0.080 C 
HETATM   16  C26 UNL     1      -9.206  45.939 -22.336  1.00  0.00     0.135 C 
HETATM   17  O4  UNL     1      -9.724  44.870 -22.011  1.00  0.00    -0.297 OA
HETATM   18  C27 UNL     1      -8.730  46.218 -23.764  1.00  0.00     0.018 C 
HETATM   19  C28 UNL     1      -8.693  44.893 -24.557  1.00  0.00     0.023 C 
HETATM   20  C29 UNL     1      -9.823  47.104 -24.403  1.00  0.00     0.023 C 
HETATM   21  C30 UNL     1      -7.277  46.841 -23.764  1.00  0.00     0.013 C 
HETATM   22  C31 UNL     1      -7.087  47.809 -24.944  1.00  0.00     0.011 C 
HETATM   23  C32 UNL     1      -5.644  48.271 -25.054  1.00  0.00     0.036 C 
ENDROOT
BRANCH   1  24
HETATM   24  C9  UNL     1      -0.596  50.806 -22.218  1.00  0.00     0.020 C 
HETATM   25  C10 UNL     1      -0.843  50.866 -20.702  1.00  0.00     0.013 C 
BRANCH  24  26
HETATM   26  C3  UNL     1       0.389  51.968 -22.585  1.00  0.00     0.158 C 
BRANCH  26  27
HETATM   27  O2  UNL     1       0.032  53.171 -21.878  1.00  0.00    -0.312 OA
BRANCH  27  28
HETATM   28  C2  UNL     1       1.050  53.903 -21.350  1.00  0.00     0.255 C 
HETATM   29  C1  UNL     1       1.325  53.455 -19.948  1.00  0.00     0.126 C 
HETATM   30  O1  UNL     1       1.685  54.775 -21.926  1.00  0.00    -0.266 OA
ENDBRANCH  27  28
ENDBRANCH  26  27
BRANCH  26  31
HETATM   31  C4  UNL     1       0.400  52.332 -24.049  1.00  0.00     0.005 C 
HETATM   32  C5  UNL     1       1.161  51.717 -24.972  1.00  0.00     0.008 C 
BRANCH  32  33
HETATM   33  C6  UNL     1       1.235  52.014 -26.452  1.00  0.00     0.068 C 
HETATM   34  C7  UNL     1       0.163  51.215 -27.197  1.00  0.00     0.050 C 
HETATM   35  C8  UNL     1       2.603  51.782 -27.106  1.00  0.00     0.050 C 
BRANCH  33  36
HETATM   36  O3  UNL     1       0.915  53.400 -26.598  1.00  0.00    -0.387 OA
HETATM   37  H13 UNL     1       1.557  53.897 -26.060  1.00  0.00     0.211 HD
ENDBRANCH  33  36
ENDBRANCH  32  33
ENDBRANCH  26  31
ENDBRANCH  24  26
ENDBRANCH   1  24
TORSDOF 7
ENDMDL
MODEL 3
REMARK minimizedAffinity -9.36191368
REMARK  7 active torsions:
REMARK  status: ('A' for Active; 'I' for Inactive)
REMARK    1  A    between atoms: C2_2  and  O2_4 
REMARK    2  A    between atoms: O2_4  and  C3_5 
REMARK    3  A    between atoms: C3_5  and  C4_6 
REMARK    4  A    between atoms: C3_5  and  C9_12 
REMARK    5  A    between atoms: C5_7  and  C6_8 
REMARK    6  A    between atoms: C6_8  and  O3_11 
REMARK    7  A    between atoms: C9_12  and  C11_14 
ROOT
HETATM    1  C11 UNL     1      -1.468  50.344 -23.982  1.00  0.00     0.001 C 
HETATM    2  C12 UNL     1      -0.993  50.972 -22.640  1.00  0.00     0.007 C 
HETATM    3  C13 UNL     1      -1.996  50.569 -21.544  1.00  0.00     0.015 C 
HETATM    4  C14 UNL     1      -2.845  49.459 -22.179  1.00  0.00    -0.013 C 
HETATM    5  C15 UNL     1      -2.058  48.121 -22.006  1.00  0.00     0.021 C 
HETATM    6  C16 UNL     1      -4.228  49.184 -21.603  1.00  0.00    -0.068 C 
HETATM    7  C17 UNL     1      -5.225  48.705 -22.389  1.00  0.00    -0.068 C 
HETATM    8  C18 UNL     1      -4.978  48.446 -23.884  1.00  0.00     0.036 C 
HETATM    9  C19 UNL     1      -3.611  48.865 -24.476  1.00  0.00     0.015 C 
HETATM   10  C20 UNL     1      -2.958  49.988 -23.660  1.00  0.00    -0.029 C 
HETATM   11  C21 UNL     1      -3.829  51.277 -23.792  1.00  0.00     0.016 C 
HETATM   12  C22 UNL     1      -6.669  48.464 -21.859  1.00  0.00    -0.015 C 
HETATM   13  C23 UNL     1      -7.603  49.448 -22.621  1.00  0.00     0.020 C 
HETATM   14  C24 UNL     1      -7.098  47.005 -22.133  1.00  0.00     0.021 C 
HETATM   15  C25 UNL     1      -8.558  46.720 -21.794  1.00  0.00     0.080 C 
HETATM   16  C26 UNL     1      -9.058  47.520 -20.614  1.00  0.00     0.135 C 
HETATM   17  O4  UNL     1     -10.268  47.698 -20.462  1.00  0.00    -0.297 OA
HETATM   18  C27 UNL     1      -8.024  48.006 -19.595  1.00  0.00     0.018 C 
HETATM   19  C28 UNL     1      -8.700  48.990 -18.613  1.00  0.00     0.023 C 
HETATM   20  C29 UNL     1      -7.619  46.755 -18.783  1.00  0.00     0.023 C 
HETATM   21  C30 UNL     1      -6.832  48.756 -20.311  1.00  0.00     0.013 C 
HETATM   22  C31 UNL     1      -5.511  48.557 -19.550  1.00  0.00     0.011 C 
HETATM   23  C32 UNL     1      -4.402  49.417 -20.130  1.00  0.00     0.036 C 
ENDROOT
BRANCH   1  24
HETATM   24  C9  UNL     1      -1.135  51.234 -25.227  1.00  0.00     0.020 C 
HETATM   25  C10 UNL     1      -0.194  50.502 -26.198  1.00  0.00     0.013 C 
BRANCH  24  26
HETATM   26  C3  UNL     1      -0.485  52.619 -24.891  1.00  0.00     0.158 C 
BRANCH  26  27
HETATM   27  O2  UNL     1       0.387  53.037 -25.958  1.00  0.00    -0.312 OA
BRANCH  27  28
HETATM   28  C2  UNL     1       0.051  54.177 -26.620  1.00  0.00     0.255 C 
HETATM   29  C1  UNL     1      -0.525  53.837 -27.960  1.00  0.00     0.126 C 
HETATM   30  O1  UNL     1       0.158  55.318 -26.192  1.00  0.00    -0.266 OA
ENDBRANCH  27  28
ENDBRANCH  26  27
BRANCH  26  31
HETATM   31  C4  UNL     1       0.357  52.621 -23.638  1.00  0.00     0.005 C 
HETATM   32  C5  UNL     1       0.472  53.674 -22.810  1.00  0.00     0.008 C 
BRANCH  32  33
HETATM   33  C6  UNL     1       1.288  53.763 -21.541  1.00  0.00     0.068 C 
HETATM   34  C7  UNL     1       2.076  52.466 -21.337  1.00  0.00     0.050 C 
HETATM   35  C8  UNL     1       0.500  54.096 -20.269  1.00  0.00     0.050 C 
BRANCH  33  36
HETATM   36  O3  UNL     1       2.237  54.812 -21.749  1.00  0.00    -0.387 OA
HETATM   37  H13 UNL     1       1.729  55.617 -21.952  1.00  0.00     0.211 HD
ENDBRANCH  33  36
ENDBRANCH  32  33
ENDBRANCH  26  31
ENDBRANCH  24  26
ENDBRANCH   1  24
TORSDOF 7
ENDMDL
MODEL 4
REMARK minimizedAffinity -9.31781673
REMARK  7 active torsions:
REMARK  status: ('A' for Active; 'I' for Inactive)
REMARK    1  A    between atoms: C2_2  and  O2_4 
REMARK    2  A    between atoms: O2_4  and  C3_5 
REMARK    3  A    between atoms: C3_5  and  C4_6 
REMARK    4  A    between atoms: C3_5  and  C9_12 
REMARK    5  A    between atoms: C5_7  and  C6_8 
REMARK    6  A    between atoms: C6_8  and  O3_11 
REMARK    7  A    between atoms: C9_12  and  C11_14 
ROOT
HETATM    1  C11 UNL     1      -0.281  51.561 -22.509  1.00  0.00     0.001 C 
HETATM    2  C12 UNL     1      -0.164  52.349 -21.172  1.00  0.00     0.007 C 
HETATM    3  C13 UNL     1      -1.175  51.752 -20.177  1.00  0.00     0.015 C 
HETATM    4  C14 UNL     1      -1.627  50.434 -20.822  1.00  0.00    -0.013 C 
HETATM    5  C15 UNL     1      -0.565  49.352 -20.452  1.00  0.00     0.021 C 
HETATM    6  C16 UNL     1      -2.965  49.840 -20.397  1.00  0.00    -0.068 C 
HETATM    7  C17 UNL     1      -3.694  49.088 -21.257  1.00  0.00    -0.068 C 
HETATM    8  C18 UNL     1      -3.190  48.834 -22.688  1.00  0.00     0.036 C 
HETATM    9  C19 UNL     1      -1.903  49.562 -23.141  1.00  0.00     0.015 C 
HETATM   10  C20 UNL     1      -1.666  50.850 -22.342  1.00  0.00    -0.029 C 
HETATM   11  C21 UNL     1      -2.804  51.866 -22.678  1.00  0.00     0.016 C 
HETATM   12  C22 UNL     1      -5.092  48.508 -20.889  1.00  0.00    -0.015 C 
HETATM   13  C23 UNL     1      -6.128  49.185 -21.831  1.00  0.00     0.020 C 
HETATM   14  C24 UNL     1      -5.104  46.976 -21.098  1.00  0.00     0.021 C 
HETATM   15  C25 UNL     1      -6.480  46.343 -20.916  1.00  0.00     0.080 C 
HETATM   16  C26 UNL     1      -7.318  47.040 -19.870  1.00  0.00     0.135 C 
HETATM   17  O4  UNL     1      -8.543  46.909 -19.880  1.00  0.00    -0.297 OA
HETATM   18  C27 UNL     1      -6.586  47.819 -18.775  1.00  0.00     0.018 C 
HETATM   19  C28 UNL     1      -7.612  48.640 -17.961  1.00  0.00     0.023 C 
HETATM   20  C29 UNL     1      -5.998  46.751 -17.826  1.00  0.00     0.023 C 
HETATM   21  C30 UNL     1      -5.531  48.817 -19.399  1.00  0.00     0.013 C 
HETATM   22  C31 UNL     1      -4.319  48.997 -18.470  1.00  0.00     0.011 C 
HETATM   23  C32 UNL     1      -3.389  50.085 -18.978  1.00  0.00     0.036 C 
ENDROOT
BRANCH   1  24
HETATM   24  C9  UNL     1      -0.014  52.450 -23.770  1.00  0.00     0.020 C 
HETATM   25  C10 UNL     1      -1.171  53.432 -24.014  1.00  0.00     0.013 C 
BRANCH  24  26
HETATM   26  C3  UNL     1       0.220  51.654 -25.099  1.00  0.00     0.158 C 
BRANCH  26  27
HETATM   27  O2  UNL     1       1.158  52.349 -25.943  1.00  0.00    -0.312 OA
BRANCH  27  28
HETATM   28  C2  UNL     1       2.031  51.587 -26.656  1.00  0.00     0.255 C 
HETATM   29  C1  UNL     1       1.801  51.787 -28.122  1.00  0.00     0.126 C 
HETATM   30  O1  UNL     1       2.906  50.869 -26.193  1.00  0.00    -0.266 OA
ENDBRANCH  27  28
ENDBRANCH  26  27
BRANCH  26  31
HETATM   31  C4  UNL     1      -1.024  51.457 -25.930  1.00  0.00     0.005 C 
HETATM   32  C5  UNL     1      -1.709  50.302 -25.997  1.00  0.00     0.008 C 
BRANCH  32  33
HETATM   33  C6  UNL     1      -2.958  50.017 -26.799  1.00  0.00     0.068 C 
HETATM   34  C7  UNL     1      -3.111  48.507 -27.004  1.00  0.00     0.050 C 
HETATM   35  C8  UNL     1      -3.055  50.735 -28.150  1.00  0.00     0.050 C 
BRANCH  33  36
HETATM   36  O3  UNL     1      -4.057  50.454 -25.996  1.00  0.00    -0.387 OA
HETATM   37  H13 UNL     1      -3.912  51.398 -25.809  1.00  0.00     0.211 HD
ENDBRANCH  33  36
ENDBRANCH  32  33
ENDBRANCH  26  31
ENDBRANCH  24  26
ENDBRANCH   1  24
TORSDOF 7
ENDMDL
MODEL 5
REMARK minimizedAffinity -9.27540779
REMARK  7 active torsions:
REMARK  status: ('A' for Active; 'I' for Inactive)
REMARK    1  A    between atoms: C2_2  and  O2_4 
REMARK    2  A    between atoms: O2_4  and  C3_5 
REMARK    3  A    between atoms: C3_5  and  C4_6 
REMARK    4  A    between atoms: C3_5  and  C9_12 
REMARK    5  A    between atoms: C5_7  and  C6_8 
REMARK    6  A    between atoms: C6_8  and  O3_11 
REMARK    7  A    between atoms: C9_12  and  C11_14 
ROOT
HETATM    1  C11 UNL     1      -0.935  51.533 -17.257  1.00  0.00     0.001 C 
HETATM    2  C12 UNL     1       0.617  51.632 -17.298  1.00  0.00     0.007 C 
HETATM    3  C13 UNL     1       1.042  51.850 -18.761  1.00  0.00     0.015 C 
HETATM    4  C14 UNL     1      -0.258  52.201 -19.498  1.00  0.00    -0.013 C 
HETATM    5  C15 UNL     1      -0.502  53.730 -19.301  1.00  0.00     0.021 C 
HETATM    6  C16 UNL     1      -0.321  51.980 -21.005  1.00  0.00    -0.068 C 
HETATM    7  C17 UNL     1      -1.496  51.689 -21.615  1.00  0.00    -0.068 C 
HETATM    8  C18 UNL     1      -2.789  51.561 -20.791  1.00  0.00     0.036 C 
HETATM    9  C19 UNL     1      -2.677  51.649 -19.251  1.00  0.00     0.015 C 
HETATM   10  C20 UNL     1      -1.279  51.254 -18.758  1.00  0.00    -0.029 C 
HETATM   11  C21 UNL     1      -1.049  49.739 -19.060  1.00  0.00     0.016 C 
HETATM   12  C22 UNL     1      -1.601  51.399 -23.142  1.00  0.00    -0.015 C 
HETATM   13  C23 UNL     1      -2.056  49.919 -23.292  1.00  0.00     0.020 C 
HETATM   14  C24 UNL     1      -2.637  52.342 -23.793  1.00  0.00     0.021 C 
HETATM   15  C25 UNL     1      -2.924  52.022 -25.256  1.00  0.00     0.080 C 
HETATM   16  C26 UNL     1      -1.718  51.486 -25.992  1.00  0.00     0.135 C 
HETATM   17  O4  UNL     1      -1.871  50.836 -27.027  1.00  0.00    -0.297 OA
HETATM   18  C27 UNL     1      -0.334  51.860 -25.456  1.00  0.00     0.018 C 
HETATM   19  C28 UNL     1       0.740  51.030 -26.195  1.00  0.00     0.023 C 
HETATM   20  C29 UNL     1      -0.119  53.339 -25.849  1.00  0.00     0.023 C 
HETATM   21  C30 UNL     1      -0.224  51.553 -23.909  1.00  0.00     0.013 C 
HETATM   22  C31 UNL     1       0.713  52.551 -23.209  1.00  0.00     0.011 C 
HETATM   23  C32 UNL     1       0.962  52.157 -21.764  1.00  0.00     0.036 C 
ENDROOT
BRANCH   1  24
HETATM   24  C9  UNL     1      -1.458  50.558 -16.148  1.00  0.00     0.020 C 
HETATM   25  C10 UNL     1      -2.987  50.418 -16.207  1.00  0.00     0.013 C 
BRANCH  24  26
HETATM   26  C3  UNL     1      -1.075  50.962 -14.684  1.00  0.00     0.158 C 
BRANCH  26  27
HETATM   27  O2  UNL     1      -0.493  49.843 -13.989  1.00  0.00    -0.312 OA
BRANCH  27  28
HETATM   28  C2  UNL     1      -0.540  48.635 -14.614  1.00  0.00     0.255 C 
HETATM   29  C1  UNL     1       0.716  48.421 -15.402  1.00  0.00     0.126 C 
HETATM   30  O1  UNL     1      -1.442  47.814 -14.530  1.00  0.00    -0.266 OA
ENDBRANCH  27  28
ENDBRANCH  26  27
BRANCH  26  31
HETATM   31  C4  UNL     1      -2.242  51.415 -13.840  1.00  0.00     0.005 C 
HETATM   32  C5  UNL     1      -2.125  52.185 -12.744  1.00  0.00     0.008 C 
BRANCH  32  33
HETATM   33  C6  UNL     1      -3.233  52.683 -11.845  1.00  0.00     0.068 C 
HETATM   34  C7  UNL     1      -2.657  53.621 -10.780  1.00  0.00     0.050 C 
HETATM   35  C8  UNL     1      -4.081  51.596 -11.175  1.00  0.00     0.050 C 
BRANCH  33  36
HETATM   36  O3  UNL     1      -4.102  53.460 -12.675  1.00  0.00    -0.387 OA
HETATM   37  H13 UNL     1      -4.404  52.875 -13.392  1.00  0.00     0.211 HD
ENDBRANCH  33  36
ENDBRANCH  32  33
ENDBRANCH  26  31
ENDBRANCH  24  26
ENDBRANCH   1  24
TORSDOF 7
ENDMDL
MODEL 6
REMARK minimizedAffinity -9.04536247
REMARK  7 active torsions:
REMARK  status: ('A' for Active; 'I' for Inactive)
REMARK    1  A    between atoms: C2_2  and  O2_4 
REMARK    2  A    between atoms: O2_4  and  C3_5 
REMARK    3  A    between atoms: C3_5  and  C4_6 
REMARK    4  A    between atoms: C3_5  and  C9_12 
REMARK    5  A    between atoms: C5_7  and  C6_8 
REMARK    6  A    between atoms: C6_8  and  O3_11 
REMARK    7  A    between atoms: C9_12  and  C11_14 
ROOT
HETATM    1  C11 UNL     1      -0.894  51.378 -17.472  1.00  0.00     0.001 C 
HETATM    2  C12 UNL     1       0.652  51.551 -17.493  1.00  0.00     0.007 C 
HETATM    3  C13 UNL     1       1.077  51.872 -18.937  1.00  0.00     0.015 C 
HETATM    4  C14 UNL     1      -0.233  52.206 -19.665  1.00  0.00    -0.013 C 
HETATM    5  C15 UNL     1      -0.549  53.708 -19.382  1.00  0.00     0.021 C 
HETATM    6  C16 UNL     1      -0.274  52.070 -21.182  1.00  0.00    -0.068 C 
HETATM    7  C17 UNL     1      -1.431  51.761 -21.820  1.00  0.00    -0.068 C 
HETATM    8  C18 UNL     1      -2.722  51.526 -21.018  1.00  0.00     0.036 C 
HETATM    9  C19 UNL     1      -2.625  51.529 -19.473  1.00  0.00     0.015 C 
HETATM   10  C20 UNL     1      -1.214  51.171 -18.991  1.00  0.00    -0.029 C 
HETATM   11  C21 UNL     1      -0.912  49.688 -19.377  1.00  0.00     0.016 C 
HETATM   12  C22 UNL     1      -1.511  51.555 -23.361  1.00  0.00    -0.015 C 
HETATM   13  C23 UNL     1      -1.896  50.067 -23.602  1.00  0.00     0.020 C 
HETATM   14  C24 UNL     1      -2.585  52.486 -23.967  1.00  0.00     0.021 C 
HETATM   15  C25 UNL     1      -2.847  52.239 -25.449  1.00  0.00     0.080 C 
HETATM   16  C26 UNL     1      -1.612  51.803 -26.203  1.00  0.00     0.135 C 
HETATM   17  O4  UNL     1      -1.727  51.207 -27.275  1.00  0.00    -0.297 OA
HETATM   18  C27 UNL     1      -0.250  52.208 -25.633  1.00  0.00     0.018 C 
HETATM   19  C28 UNL     1       0.866  51.472 -26.408  1.00  0.00     0.023 C 
HETATM   20  C29 UNL     1      -0.102  53.716 -25.937  1.00  0.00     0.023 C 
HETATM   21  C30 UNL     1      -0.138  51.817 -24.106  1.00  0.00     0.013 C 
HETATM   22  C31 UNL     1       0.747  52.815 -23.340  1.00  0.00     0.011 C 
HETATM   23  C32 UNL     1       1.004  52.349 -21.918  1.00  0.00     0.036 C 
ENDROOT
BRANCH   1  24
HETATM   24  C9  UNL     1      -1.379  50.317 -16.427  1.00  0.00     0.020 C 
HETATM   25  C10 UNL     1      -2.911  50.196 -16.428  1.00  0.00     0.013 C 
BRANCH  24  26
HETATM   26  C3  UNL     1      -0.926  50.593 -14.953  1.00  0.00     0.158 C 
BRANCH  26  27
HETATM   27  O2  UNL     1      -1.827  51.519 -14.315  1.00  0.00    -0.312 OA
BRANCH  27  28
HETATM   28  C2  UNL     1      -2.234  51.216 -13.053  1.00  0.00     0.255 C 
HETATM   29  C1  UNL     1      -2.863  52.419 -12.419  1.00  0.00     0.126 C 
HETATM   30  O1  UNL     1      -2.145  50.124 -12.509  1.00  0.00    -0.266 OA
ENDBRANCH  27  28
ENDBRANCH  26  27
BRANCH  26  31
HETATM   31  C4  UNL     1       0.451  51.198 -14.829  1.00  0.00     0.005 C 
HETATM   32  C5  UNL     1       1.389  50.765 -13.969  1.00  0.00     0.008 C 
BRANCH  32  33
HETATM   33  C6  UNL     1       2.787  51.309 -13.779  1.00  0.00     0.068 C 
HETATM   34  C7  UNL     1       3.289  51.921 -15.090  1.00  0.00     0.050 C 
HETATM   35  C8  UNL     1       3.819  50.308 -13.246  1.00  0.00     0.050 C 
BRANCH  33  36
HETATM   36  O3  UNL     1       2.678  52.368 -12.825  1.00  0.00    -0.387 OA
HETATM   37  H13 UNL     1       2.288  51.985 -12.020  1.00  0.00     0.211 HD
ENDBRANCH  33  36
ENDBRANCH  32  33
ENDBRANCH  26  31
ENDBRANCH  24  26
ENDBRANCH   1  24
TORSDOF 7
ENDMDL
MODEL 7
REMARK minimizedAffinity -8.89463997
REMARK  7 active torsions:
REMARK  status: ('A' for Active; 'I' for Inactive)
REMARK    1  A    between atoms: C2_2  and  O2_4 
REMARK    2  A    between atoms: O2_4  and  C3_5 
REMARK    3  A    between atoms: C3_5  and  C4_6 
REMARK    4  A    between atoms: C3_5  and  C9_12 
REMARK    5  A    between atoms: C5_7  and  C6_8 
REMARK    6  A    between atoms: C6_8  and  O3_11 
REMARK    7  A    between atoms: C9_12  and  C11_14 
ROOT
HETATM    1  C11 UNL     1      -5.462  49.002 -20.754  1.00  0.00     0.001 C 
HETATM    2  C12 UNL     1      -4.243  48.803 -19.807  1.00  0.00     0.007 C 
HETATM    3  C13 UNL     1      -3.004  49.409 -20.492  1.00  0.00     0.015 C 
HETATM    4  C14 UNL     1      -3.566  50.234 -21.658  1.00  0.00    -0.013 C 
HETATM    5  C15 UNL     1      -3.978  51.626 -21.083  1.00  0.00     0.021 C 
HETATM    6  C16 UNL     1      -2.649  50.546 -22.834  1.00  0.00    -0.068 C 
HETATM    7  C17 UNL     1      -3.153  50.712 -24.082  1.00  0.00    -0.068 C 
HETATM    8  C18 UNL     1      -4.664  50.573 -24.335  1.00  0.00     0.036 C 
HETATM    9  C19 UNL     1      -5.556  50.116 -23.156  1.00  0.00     0.015 C 
HETATM   10  C20 UNL     1      -4.761  49.314 -22.118  1.00  0.00    -0.029 C 
HETATM   11  C21 UNL     1      -4.295  47.973 -22.770  1.00  0.00     0.016 C 
HETATM   12  C22 UNL     1      -2.251  50.975 -25.324  1.00  0.00    -0.015 C 
HETATM   13  C23 UNL     1      -2.412  49.751 -26.270  1.00  0.00     0.020 C 
HETATM   14  C24 UNL     1      -2.702  52.266 -26.045  1.00  0.00     0.021 C 
HETATM   15  C25 UNL     1      -1.979  52.516 -27.365  1.00  0.00     0.080 C 
HETATM   16  C26 UNL     1      -0.548  52.032 -27.356  1.00  0.00     0.135 C 
HETATM   17  O4  UNL     1       0.030  51.808 -28.421  1.00  0.00    -0.297 OA
HETATM   18  C27 UNL     1       0.159  51.926 -26.002  1.00  0.00     0.018 C 
HETATM   19  C28 UNL     1       1.510  51.197 -26.189  1.00  0.00     0.023 C 
HETATM   20  C29 UNL     1       0.477  53.379 -25.583  1.00  0.00     0.023 C 
HETATM   21  C30 UNL     1      -0.713  51.105 -24.971  1.00  0.00     0.013 C 
HETATM   22  C31 UNL     1      -0.496  51.607 -23.535  1.00  0.00     0.011 C 
HETATM   23  C32 UNL     1      -1.190  50.712 -22.524  1.00  0.00     0.036 C 
ENDROOT
BRANCH   1  24
HETATM   24  C9  UNL     1      -6.503  47.835 -20.666  1.00  0.00     0.020 C 
HETATM   25  C10 UNL     1      -6.072  46.639 -21.531  1.00  0.00     0.013 C 
BRANCH  24  26
HETATM   26  C3  UNL     1      -7.962  48.222 -21.085  1.00  0.00     0.158 C 
BRANCH  26  27
HETATM   27  O2  UNL     1      -8.920  47.570 -20.230  1.00  0.00    -0.312 OA
BRANCH  27  28
HETATM   28  C2  UNL     1      -9.554  48.344 -19.308  1.00  0.00     0.255 C 
HETATM   29  C1  UNL     1     -11.031  48.104 -19.370  1.00  0.00     0.126 C 
HETATM   30  O1  UNL     1      -9.017  49.102 -18.512  1.00  0.00    -0.266 OA
ENDBRANCH  27  28
ENDBRANCH  26  27
BRANCH  26  31
HETATM   31  C4  UNL     1      -8.326  47.829 -22.496  1.00  0.00     0.005 C 
HETATM   32  C5  UNL     1      -8.399  48.694 -23.523  1.00  0.00     0.008 C 
BRANCH  32  33
HETATM   33  C6  UNL     1      -8.754  48.389 -24.961  1.00  0.00     0.068 C 
HETATM   34  C7  UNL     1      -9.958  47.445 -25.010  1.00  0.00     0.050 C 
HETATM   35  C8  UNL     1      -7.615  47.823 -25.817  1.00  0.00     0.050 C 
BRANCH  33  36
HETATM   36  O3  UNL     1      -9.158  49.631 -25.544  1.00  0.00    -0.387 OA
HETATM   37  H13 UNL     1      -8.413  50.248 -25.441  1.00  0.00     0.211 HD
ENDBRANCH  33  36
ENDBRANCH  32  33
ENDBRANCH  26  31
ENDBRANCH  24  26
ENDBRANCH   1  24
TORSDOF 7
ENDMDL
MODEL 8
REMARK minimizedAffinity -8.71948433
REMARK  7 active torsions:
REMARK  status: ('A' for Active; 'I' for Inactive)
REMARK    1  A    between atoms: C2_2  and  O2_4 
REMARK    2  A    between atoms: O2_4  and  C3_5 
REMARK    3  A    between atoms: C3_5  and  C4_6 
REMARK    4  A    between atoms: C3_5  and  C9_12 
REMARK    5  A    between atoms: C5_7  and  C6_8 
REMARK    6  A    between atoms: C6_8  and  O3_11 
REMARK    7  A    between atoms: C9_12  and  C11_14 
ROOT
HETATM    1  C11 UNL     1      -1.824  50.541 -22.396  1.00  0.00     0.001 C 
HETATM    2  C12 UNL     1      -1.821  50.227 -20.872  1.00  0.00     0.007 C 
HETATM    3  C13 UNL     1      -2.999  49.280 -20.579  1.00  0.00     0.015 C 
HETATM    4  C14 UNL     1      -3.466  48.796 -21.959  1.00  0.00    -0.013 C 
HETATM    5  C15 UNL     1      -2.551  47.597 -22.362  1.00  0.00     0.021 C 
HETATM    6  C16 UNL     1      -4.891  48.275 -22.101  1.00  0.00    -0.068 C 
HETATM    7  C17 UNL     1      -5.559  48.392 -23.275  1.00  0.00    -0.068 C 
HETATM    8  C18 UNL     1      -4.892  49.071 -24.484  1.00  0.00     0.036 C 
HETATM    9  C19 UNL     1      -3.503  49.719 -24.276  1.00  0.00     0.015 C 
HETATM   10  C20 UNL     1      -3.271  50.109 -22.810  1.00  0.00    -0.029 C 
HETATM   11  C21 UNL     1      -4.270  51.248 -22.430  1.00  0.00     0.016 C 
HETATM   12  C22 UNL     1      -7.034  47.927 -23.453  1.00  0.00    -0.015 C 
HETATM   13  C23 UNL     1      -7.880  49.199 -23.745  1.00  0.00     0.020 C 
HETATM   14  C24 UNL     1      -7.141  46.935 -24.633  1.00  0.00     0.021 C 
HETATM   15  C25 UNL     1      -8.574  46.550 -24.984  1.00  0.00     0.080 C 
HETATM   16  C26 UNL     1      -9.485  46.500 -23.779  1.00  0.00     0.135 C 
HETATM   17  O4  UNL     1     -10.704  46.589 -23.928  1.00  0.00    -0.297 OA
HETATM   18  C27 UNL     1      -8.843  46.248 -22.412  1.00  0.00     0.018 C 
HETATM   19  C28 UNL     1      -9.898  46.469 -21.305  1.00  0.00     0.023 C 
HETATM   20  C29 UNL     1      -8.471  44.747 -22.397  1.00  0.00     0.023 C 
HETATM   21  C30 UNL     1      -7.639  47.240 -22.160  1.00  0.00     0.013 C 
HETATM   22  C31 UNL     1      -6.548  46.584 -21.297  1.00  0.00     0.011 C 
HETATM   23  C32 UNL     1      -5.477  47.585 -20.903  1.00  0.00     0.036 C 
ENDROOT
BRANCH   1  24
HETATM   24  C9  UNL     1      -1.323  51.988 -22.725  1.00  0.00     0.020 C 
HETATM   25  C10 UNL     1      -2.196  52.647 -23.805  1.00  0.00     0.013 C 
BRANCH  24  26
HETATM   26  C3  UNL     1       0.167  52.076 -23.201  1.00  0.00     0.158 C 
BRANCH  26  27
HETATM   27  O2  UNL     1       0.626  53.441 -23.166  1.00  0.00    -0.312 OA
BRANCH  27  28
HETATM   28  C2  UNL     1       1.275  53.846 -22.041  1.00  0.00     0.255 C 
HETATM   29  C1  UNL     1       1.440  52.689 -21.104  1.00  0.00     0.126 C 
HETATM   30  O1  UNL     1       1.702  54.971 -21.820  1.00  0.00    -0.266 OA
ENDBRANCH  27  28
ENDBRANCH  26  27
BRANCH  26  31
HETATM   31  C4  UNL     1       0.396  51.595 -24.613  1.00  0.00     0.005 C 
HETATM   32  C5  UNL     1       0.633  52.408 -25.657  1.00  0.00     0.008 C 
BRANCH  32  33
HETATM   33  C6  UNL     1       0.873  52.015 -27.096  1.00  0.00     0.068 C 
HETATM   34  C7  UNL     1       2.359  51.716 -27.313  1.00  0.00     0.050 C 
HETATM   35  C8  UNL     1       0.388  53.021 -28.146  1.00  0.00     0.050 C 
BRANCH  33  36
HETATM   36  O3  UNL     1       0.156  50.795 -27.301  1.00  0.00    -0.387 OA
HETATM   37  H13 UNL     1      -0.776  50.976 -27.089  1.00  0.00     0.211 HD
ENDBRANCH  33  36
ENDBRANCH  32  33
ENDBRANCH  26  31
ENDBRANCH  24  26
ENDBRANCH   1  24
TORSDOF 7
ENDMDL
MODEL 9
REMARK minimizedAffinity -8.68077469
REMARK  7 active torsions:
REMARK  status: ('A' for Active; 'I' for Inactive)
REMARK    1  A    between atoms: C2_2  and  O2_4 
REMARK    2  A    between atoms: O2_4  and  C3_5 
REMARK    3  A    between atoms: C3_5  and  C4_6 
REMARK    4  A    between atoms: C3_5  and  C9_12 
REMARK    5  A    between atoms: C5_7  and  C6_8 
REMARK    6  A    between atoms: C6_8  and  O3_11 
REMARK    7  A    between atoms: C9_12  and  C11_14 
ROOT
HETATM    1  C11 UNL     1      -2.400  49.740 -22.283  1.00  0.00     0.001 C 
HETATM    2  C12 UNL     1      -2.249  48.195 -22.398  1.00  0.00     0.007 C 
HETATM    3  C13 UNL     1      -2.290  47.605 -20.977  1.00  0.00     0.015 C 
HETATM    4  C14 UNL     1      -2.789  48.755 -20.091  1.00  0.00    -0.013 C 
HETATM    5  C15 UNL     1      -4.348  48.760 -20.176  1.00  0.00     0.021 C 
HETATM    6  C16 UNL     1      -2.473  48.712 -18.601  1.00  0.00    -0.068 C 
HETATM    7  C17 UNL     1      -2.329  49.857 -17.888  1.00  0.00    -0.068 C 
HETATM    8  C18 UNL     1      -2.468  51.224 -18.579  1.00  0.00     0.036 C 
HETATM    9  C19 UNL     1      -2.647  51.245 -20.116  1.00  0.00     0.015 C 
HETATM   10  C20 UNL     1      -2.072  49.983 -20.772  1.00  0.00    -0.029 C 
HETATM   11  C21 UNL     1      -0.522  49.979 -20.581  1.00  0.00     0.016 C 
HETATM   12  C22 UNL     1      -1.950  49.865 -16.378  1.00  0.00    -0.015 C 
HETATM   13  C23 UNL     1      -0.554  50.542 -16.263  1.00  0.00     0.020 C 
HETATM   14  C24 UNL     1      -2.997  50.666 -15.571  1.00  0.00     0.021 C 
HETATM   15  C25 UNL     1      -2.622  50.864 -14.106  1.00  0.00     0.080 C 
HETATM   16  C26 UNL     1      -1.850  49.699 -13.530  1.00  0.00     0.135 C 
HETATM   17  O4  UNL     1      -1.159  49.860 -12.523  1.00  0.00    -0.297 OA
HETATM   18  C27 UNL     1      -2.037  48.329 -14.186  1.00  0.00     0.018 C 
HETATM   19  C28 UNL     1      -0.996  47.342 -13.609  1.00  0.00     0.023 C 
HETATM   20  C29 UNL     1      -3.431  47.837 -13.736  1.00  0.00     0.023 C 
HETATM   21  C30 UNL     1      -1.829  48.416 -15.750  1.00  0.00     0.013 C 
HETATM   22  C31 UNL     1      -2.713  47.397 -16.487  1.00  0.00     0.011 C 
HETATM   23  C32 UNL     1      -2.389  47.352 -17.970  1.00  0.00     0.036 C 
ENDROOT
BRANCH   1  24
HETATM   24  C9  UNL     1      -1.603  50.517 -23.385  1.00  0.00     0.020 C 
HETATM   25  C10 UNL     1      -1.585  52.027 -23.096  1.00  0.00     0.013 C 
BRANCH  24  26
HETATM   26  C3  UNL     1      -2.135  50.320 -24.845  1.00  0.00     0.158 C 
BRANCH  26  27
HETATM   27  O2  UNL     1      -2.440  48.934 -25.086  1.00  0.00    -0.312 OA
BRANCH  27  28
HETATM   28  C2  UNL     1      -3.644  48.655 -25.654  1.00  0.00     0.255 C 
HETATM   29  C1  UNL     1      -3.472  48.423 -27.124  1.00  0.00     0.126 C 
HETATM   30  O1  UNL     1      -4.714  48.563 -25.068  1.00  0.00    -0.266 OA
ENDBRANCH  27  28
ENDBRANCH  26  27
BRANCH  26  31
HETATM   31  C4  UNL     1      -1.158  50.726 -25.921  1.00  0.00     0.005 C 
HETATM   32  C5  UNL     1      -0.041  51.440 -25.694  1.00  0.00     0.008 C 
BRANCH  32  33
HETATM   33  C6  UNL     1       0.988  51.888 -26.706  1.00  0.00     0.068 C 
HETATM   34  C7  UNL     1       0.495  51.576 -28.122  1.00  0.00     0.050 C 
HETATM   35  C8  UNL     1       2.399  51.320 -26.511  1.00  0.00     0.050 C 
BRANCH  33  36
HETATM   36  O3  UNL     1       1.074  53.311 -26.586  1.00  0.00    -0.387 OA
HETATM   37  H13 UNL     1       1.315  53.502 -25.663  1.00  0.00     0.211 HD
ENDBRANCH  33  36
ENDBRANCH  32  33
ENDBRANCH  26  31
ENDBRANCH  24  26
ENDBRANCH   1  24
TORSDOF 7
ENDMDL
