MODEL 1
REMARK minimizedAffinity -7.2739563
REMARK CNNscore 0.147969499
REMARK CNNaffinity 6.6740613
REMARK  9 active torsions:
REMARK  status: ('A' for Active; 'I' for Inactive)
REMARK    1  A    between atoms: C13_13  and  S1_14 
REMARK    2  A    between atoms: C22_26  and  C23_27 
REMARK    3  A    between atoms: C23_27  and  O4_28 
REMARK    4  A    between atoms: C29_34  and  O5_35 
REMARK    5  A    between atoms: C41_48  and  C42_49 
REMARK    6  A    between atoms: C41_48  and  N1_58 
REMARK    7  A    between atoms: C42_49  and  C43_50 
REMARK    8  A    between atoms: C43_50  and  C44_51 
REMARK    9  A    between atoms: C44_51  and  O7_52 
REMARK       I    between atoms: C50_60  and  N2_61 
REMARK       I    between atoms: C50_60  and  N3_62 
ROOT
HETATM    1  C1  UNL     1     -15.693  19.547   6.723  1.00  0.00     0.010 C 
HETATM    2  C2  UNL     1     -15.241  19.172   5.313  1.00  0.00    -0.010 C 
HETATM    3  C3  UNL     1     -16.045  19.994   4.297  1.00  0.00     0.009 C 
HETATM    4  C4  UNL     1     -15.726  19.556   2.869  1.00  0.00     0.039 C 
HETATM    5  C5  UNL     1     -16.096  18.110   2.691  1.00  0.00    -0.049 C 
HETATM    6  C6  UNL     1     -16.270  17.575   1.420  1.00  0.00     0.044 C 
HETATM    7  C7  UNL     1     -16.508  16.207   1.272  1.00  0.00     0.072 C 
HETATM    8  C8  UNL     1     -16.786  15.419   2.390  1.00  0.00     0.037 C 
HETATM    9  C9  UNL     1     -16.583  15.938   3.664  1.00  0.00     0.011 C 
HETATM   10  C10 UNL     1     -16.130  17.259   3.817  1.00  0.00    -0.047 C 
HETATM   11  C11 UNL     1     -15.330  17.635   5.084  1.00  0.00     0.024 C 
HETATM   12  C12 UNL     1     -13.940  16.997   4.801  1.00  0.00     0.033 C 
HETATM   13  C13 UNL     1     -12.721  17.161   5.722  1.00  0.00     0.139 C 
HETATM   14  C14 UNL     1     -11.416  16.885   4.880  1.00  0.00     0.037 C 
HETATM   15  C15 UNL     1     -10.118  17.257   5.577  1.00  0.00    -0.014 C 
HETATM   16  C16 UNL     1      -9.116  16.366   5.734  1.00  0.00    -0.050 C 
HETATM   17  C17 UNL     1      -9.354  14.929   5.380  1.00  0.00     0.042 C 
HETATM   18  C18 UNL     1      -9.892  14.954   3.951  1.00  0.00    -0.001 C 
HETATM   19  C19 UNL     1      -8.981  15.754   2.965  1.00  0.00     0.037 C 
HETATM   20  C20 UNL     1      -7.504  15.971   3.393  1.00  0.00     0.123 C 
HETATM   21  C21 UNL     1      -6.663  16.373   2.158  1.00  0.00     0.039 C 
HETATM   22  C22 UNL     1      -5.125  16.293   2.384  1.00  0.00     0.023 C 
HETATM   23  C24 UNL     1      -4.477  17.655   2.737  1.00  0.00     0.101 C 
HETATM   24  C25 UNL     1      -4.818  18.113   4.080  1.00  0.00    -0.101 C 
HETATM   25  C26 UNL     1      -5.267  18.417   5.154  1.00  0.00    -0.066 C 
HETATM   26  C27 UNL     1      -6.029  18.641   6.339  1.00  0.00     0.029 A 
HETATM   27  C28 UNL     1      -5.579  19.620   7.234  1.00  0.00     0.057 A 
HETATM   28  C29 UNL     1      -6.275  19.859   8.411  1.00  0.00     0.067 A 
HETATM   29  C30 UNL     1      -7.413  19.126   8.722  1.00  0.00     0.037 A 
HETATM   30  C31 UNL     1      -7.865  18.138   7.838  1.00  0.00     0.014 A 
HETATM   31  C32 UNL     1      -7.200  17.893   6.618  1.00  0.00    -0.006 A 
HETATM   32  C33 UNL     1      -7.665  16.757   5.703  1.00  0.00     0.185 C 
HETATM   33  O6  UNL     1      -7.425  17.066   4.313  1.00  0.00    -0.371 OA
HETATM   34  C34 UNL     1     -11.350  15.506   4.085  1.00  0.00     0.031 C 
HETATM   35  C35 UNL     1     -12.103  15.451   2.754  1.00  0.00     0.051 A 
HETATM   36  C36 UNL     1     -12.977  14.381   2.509  1.00  0.00     0.004 A 
HETATM   37  C37 UNL     1     -13.853  14.403   1.416  1.00  0.00     0.008 A 
HETATM   38  C38 UNL     1     -13.887  15.505   0.537  1.00  0.00    -0.003 A 
HETATM   39  C39 UNL     1     -12.920  16.505   0.722  1.00  0.00     0.114 A 
HETATM   40  C40 UNL     1     -12.038  16.476   1.805  1.00  0.00     0.064 A 
HETATM   41  C41 UNL     1     -15.017  15.666  -0.538  1.00  0.00     0.169 C 
HETATM   42  O8  UNL     1     -16.364  15.561   0.069  1.00  0.00    -0.316 OA
HETATM   43 NA1  UNL     1     -11.673  16.193   2.250  1.00  0.00    -0.401 Na
ATOM     44  HA1 UNL     1     -10.801  16.679   2.463  1.00  0.00     0.155 HD
ENDROOT
BRANCH  41  45
HETATM   45  C42 UNL     1     -14.941  14.417  -1.465  1.00  0.00     0.070 C 
BRANCH  45  46
HETATM   46  C43 UNL     1     -13.532  14.067  -1.988  1.00  0.00     0.043 C 
BRANCH  46  47
HETATM   47  C44 UNL     1     -13.232  12.553  -2.048  1.00  0.00     0.058 C 
HETATM   48  C45 UNL     1     -13.907  11.869  -0.833  1.00  0.00     0.038 C 
HETATM   49  C46 UNL     1     -14.252  10.410  -1.121  1.00  0.00     0.003 C 
HETATM   50  C47 UNL     1     -15.248  10.292  -2.277  1.00  0.00     0.000 C 
HETATM   51  C48 UNL     1     -15.083  11.390  -3.330  1.00  0.00     0.003 C 
HETATM   52  C49 UNL     1     -13.650  11.891  -3.378  1.00  0.00     0.038 C 
BRANCH  47  53
HETATM   53  O7  UNL     1     -11.818  12.352  -1.927  1.00  0.00    -0.390 OA
HETATM   54  H46 UNL     1     -11.444  13.119  -1.445  1.00  0.00     0.210 HD
ENDBRANCH  47  53
ENDBRANCH  46  47
ENDBRANCH  45  46
ENDBRANCH  41  45
BRANCH  41  55
HETATM   55  N1  UNL     1     -14.827  16.930  -1.274  1.00  0.00    -0.336 N 
HETATM   56  C50 UNL     1     -13.957  17.291  -2.111  1.00  0.00     0.124 C 
HETATM   57  N2  UNL     1     -14.034  18.536  -2.619  1.00  0.00    -0.279 NA
HETATM   58  N3  UNL     1     -12.893  16.656  -2.658  1.00  0.00    -0.279 NA
HETATM   59  H57 UNL     1     -14.872  19.014  -2.301  1.00  0.00     0.126 HD
HETATM   60  H58 UNL     1     -13.898  18.622  -3.623  1.00  0.00     0.126 HD
HETATM   61  H59 UNL     1     -13.195  15.908  -3.286  1.00  0.00     0.126 HD
HETATM   62  H60 UNL     1     -12.327  17.306  -3.191  1.00  0.00     0.126 HD
ATOM     63  H1  UNL     1     -15.527  17.641  -1.066  1.00  0.00     0.165 HD
ENDBRANCH  41  55
BRANCH  13  64
HETATM   64  S1  UNL     1     -12.857  16.175   7.217  1.00  0.00     0.106 S 
HETATM   65  O1  UNL     1     -11.950  16.793   8.178  1.00  0.00    -0.595 OA
HETATM   66  O2  UNL     1     -12.446  14.837   6.776  1.00  0.00    -0.595 OA
HETATM   67  O3  UNL     1     -14.269  16.247   7.586  1.00  0.00    -0.595 OA
ENDBRANCH  13  64
BRANCH  22  68
HETATM   68  C23 UNL     1      -4.445  15.770   1.102  1.00  0.00     0.169 C 
BRANCH  68  69
HETATM   69  O4  UNL     1      -5.232  14.769   0.464  1.00  0.00    -0.400 OA
HETATM   70  H29 UNL     1      -6.106  15.150   0.259  1.00  0.00     0.209 HD
ENDBRANCH  68  69
ENDBRANCH  22  68
BRANCH  28  71
HETATM   71  O5  UNL     1      -5.793  20.822   9.250  1.00  0.00    -0.361 OA
HETATM   72  H33 UNL     1      -6.379  20.860  10.023  1.00  0.00     0.217 HD
ENDBRANCH  28  71
TORSDOF 9
ENDMDL
MODEL 2
REMARK minimizedAffinity -7.41856289
REMARK CNNscore 0.107273601
REMARK CNNaffinity 5.96348238
REMARK  9 active torsions:
REMARK  status: ('A' for Active; 'I' for Inactive)
REMARK    1  A    between atoms: C13_13  and  S1_14 
REMARK    2  A    between atoms: C22_26  and  C23_27 
REMARK    3  A    between atoms: C23_27  and  O4_28 
REMARK    4  A    between atoms: C29_34  and  O5_35 
REMARK    5  A    between atoms: C41_48  and  C42_49 
REMARK    6  A    between atoms: C41_48  and  N1_58 
REMARK    7  A    between atoms: C42_49  and  C43_50 
REMARK    8  A    between atoms: C43_50  and  C44_51 
REMARK    9  A    between atoms: C44_51  and  O7_52 
REMARK       I    between atoms: C50_60  and  N2_61 
REMARK       I    between atoms: C50_60  and  N3_62 
ROOT
HETATM    1  C1  UNL     1       2.251   9.097  22.095  1.00  0.00     0.010 C 
HETATM    2  C2  UNL     1       3.305  10.174  21.840  1.00  0.00    -0.010 C 
HETATM    3  C3  UNL     1       4.393  10.071  22.916  1.00  0.00     0.009 C 
HETATM    4  C4  UNL     1       5.398  11.213  22.784  1.00  0.00     0.039 C 
HETATM    5  C5  UNL     1       4.692  12.528  22.963  1.00  0.00    -0.049 C 
HETATM    6  C6  UNL     1       5.408  13.680  23.270  1.00  0.00     0.044 C 
HETATM    7  C7  UNL     1       4.749  14.909  23.327  1.00  0.00     0.072 C 
HETATM    8  C8  UNL     1       3.354  14.959  23.292  1.00  0.00     0.037 C 
HETATM    9  C9  UNL     1       2.634  13.819  22.953  1.00  0.00     0.011 C 
HETATM   10  C10 UNL     1       3.312  12.619  22.680  1.00  0.00    -0.047 C 
HETATM   11  C11 UNL     1       2.655  11.584  21.740  1.00  0.00     0.024 C 
HETATM   12  C12 UNL     1       2.856  12.230  20.341  1.00  0.00     0.033 C 
HETATM   13  C13 UNL     1       2.462  11.551  19.020  1.00  0.00     0.139 C 
HETATM   14  C14 UNL     1       3.294  12.207  17.851  1.00  0.00     0.037 C 
HETATM   15  C15 UNL     1       3.211  11.474  16.522  1.00  0.00    -0.014 C 
HETATM   16  C16 UNL     1       2.832  12.101  15.388  1.00  0.00    -0.050 C 
HETATM   17  C17 UNL     1       2.304  13.502  15.469  1.00  0.00     0.042 C 
HETATM   18  C18 UNL     1       3.365  14.284  16.240  1.00  0.00    -0.001 C 
HETATM   19  C19 UNL     1       4.799  14.133  15.638  1.00  0.00     0.037 C 
HETATM   20  C20 UNL     1       4.894  13.673  14.157  1.00  0.00     0.123 C 
HETATM   21  C21 UNL     1       6.303  13.992  13.607  1.00  0.00     0.039 C 
HETATM   22  C22 UNL     1       6.419  13.889  12.058  1.00  0.00     0.023 C 
HETATM   23  C24 UNL     1       6.999  12.539  11.566  1.00  0.00     0.101 C 
HETATM   24  C25 UNL     1       6.069  11.428  11.737  1.00  0.00    -0.101 C 
HETATM   25  C26 UNL     1       5.253  10.596  12.037  1.00  0.00    -0.066 C 
HETATM   26  C27 UNL     1       4.234   9.779  12.611  1.00  0.00     0.029 A 
HETATM   27  C28 UNL     1       4.123   8.456  12.164  1.00  0.00     0.057 A 
HETATM   28  C29 UNL     1       3.133   7.629  12.677  1.00  0.00     0.067 A 
HETATM   29  C30 UNL     1       2.236   8.103  13.626  1.00  0.00     0.037 A 
HETATM   30  C31 UNL     1       2.333   9.427  14.072  1.00  0.00     0.014 A 
HETATM   31  C32 UNL     1       3.348  10.284  13.594  1.00  0.00    -0.006 A 
HETATM   32  C33 UNL     1       3.388  11.750  14.037  1.00  0.00     0.185 C 
HETATM   33  O6  UNL     1       4.742  12.250  14.085  1.00  0.00    -0.371 OA
HETATM   34  C34 UNL     1       3.225  13.793  17.719  1.00  0.00     0.031 C 
HETATM   35  C35 UNL     1       4.116  14.594  18.671  1.00  0.00     0.051 A 
HETATM   36  C36 UNL     1       3.553  15.647  19.408  1.00  0.00     0.004 A 
HETATM   37  C37 UNL     1       4.263  16.256  20.450  1.00  0.00     0.008 A 
HETATM   38  C38 UNL     1       5.559  15.822  20.794  1.00  0.00    -0.003 A 
HETATM   39  C39 UNL     1       6.155  14.858  19.967  1.00  0.00     0.114 A 
HETATM   40  C40 UNL     1       5.451  14.259  18.920  1.00  0.00     0.064 A 
HETATM   41  C41 UNL     1       6.272  16.314  22.102  1.00  0.00     0.169 C 
HETATM   42  O8  UNL     1       5.420  16.106  23.296  1.00  0.00    -0.316 OA
HETATM   43 NA1  UNL     1       5.018  14.240  18.447  1.00  0.00    -0.401 Na
ATOM     44  HA1 UNL     1       5.297  13.691  17.632  1.00  0.00     0.155 HD
ENDROOT
BRANCH  41  45
HETATM   45  C42 UNL     1       6.382  17.863  22.002  1.00  0.00     0.070 C 
BRANCH  45  46
HETATM   46  C43 UNL     1       5.977  18.638  23.273  1.00  0.00     0.043 C 
BRANCH  46  47
HETATM   47  C44 UNL     1       4.842  19.665  23.059  1.00  0.00     0.058 C 
HETATM   48  C45 UNL     1       3.496  18.902  22.980  1.00  0.00     0.038 C 
HETATM   49  C46 UNL     1       2.324  19.767  23.434  1.00  0.00     0.003 C 
HETATM   50  C47 UNL     1       2.480  20.195  24.896  1.00  0.00     0.000 C 
HETATM   51  C48 UNL     1       3.939  20.383  25.316  1.00  0.00     0.003 C 
HETATM   52  C49 UNL     1       4.803  20.776  24.130  1.00  0.00     0.038 C 
BRANCH  47  53
HETATM   53  O7  UNL     1       5.039  20.326  21.804  1.00  0.00    -0.390 OA
HETATM   54  H46 UNL     1       5.555  19.726  21.224  1.00  0.00     0.210 HD
ENDBRANCH  47  53
ENDBRANCH  46  47
ENDBRANCH  45  46
ENDBRANCH  41  45
BRANCH  41  55
HETATM   55  N1  UNL     1       7.587  15.659  22.227  1.00  0.00    -0.336 N 
HETATM   56  C50 UNL     1       8.719  15.953  21.758  1.00  0.00     0.124 C 
HETATM   57  N2  UNL     1       9.760  15.145  22.040  1.00  0.00    -0.279 NA
HETATM   58  N3  UNL     1       9.154  16.979  20.988  1.00  0.00    -0.279 NA
HETATM   59  H57 UNL     1       9.494  14.412  22.691  1.00  0.00     0.126 HD
HETATM   60  H58 UNL     1      10.627  15.604  22.309  1.00  0.00     0.126 HD
HETATM   61  H59 UNL     1       9.132  17.861  21.505  1.00  0.00     0.126 HD
HETATM   62  H60 UNL     1      10.105  16.816  20.682  1.00  0.00     0.126 HD
ATOM     63  H1  UNL     1       7.578  14.813  22.796  1.00  0.00     0.165 HD
ENDBRANCH  41  55
BRANCH  13  64
HETATM   64  S1  UNL     1       0.686  11.554  18.754  1.00  0.00     0.106 S 
HETATM   65  O1  UNL     1       0.459  10.680  17.608  1.00  0.00    -0.595 OA
HETATM   66  O2  UNL     1       0.386  12.968  18.500  1.00  0.00    -0.595 OA
HETATM   67  O3  UNL     1       0.118  11.066  20.008  1.00  0.00    -0.595 OA
ENDBRANCH  13  64
BRANCH  22  68
HETATM   68  C23 UNL     1       7.340  15.012  11.536  1.00  0.00     0.169 C 
BRANCH  68  69
HETATM   69  O4  UNL     1       8.708  14.743  11.829  1.00  0.00    -0.400 OA
HETATM   70  H29 UNL     1       8.946  13.887  11.426  1.00  0.00     0.209 HD
ENDBRANCH  68  69
ENDBRANCH  22  68
BRANCH  28  71
HETATM   71  O5  UNL     1       3.068   6.350  12.206  1.00  0.00    -0.361 OA
HETATM   72  H33 UNL     1       2.325   5.910  12.651  1.00  0.00     0.217 HD
ENDBRANCH  28  71
TORSDOF 9
ENDMDL
MODEL 3
REMARK minimizedAffinity -9.34225845
REMARK CNNscore 0.105341591
REMARK CNNaffinity 6.62844706
REMARK  9 active torsions:
REMARK  status: ('A' for Active; 'I' for Inactive)
REMARK    1  A    between atoms: C13_13  and  S1_14 
REMARK    2  A    between atoms: C22_26  and  C23_27 
REMARK    3  A    between atoms: C23_27  and  O4_28 
REMARK    4  A    between atoms: C29_34  and  O5_35 
REMARK    5  A    between atoms: C41_48  and  C42_49 
REMARK    6  A    between atoms: C41_48  and  N1_58 
REMARK    7  A    between atoms: C42_49  and  C43_50 
REMARK    8  A    between atoms: C43_50  and  C44_51 
REMARK    9  A    between atoms: C44_51  and  O7_52 
REMARK       I    between atoms: C50_60  and  N2_61 
REMARK       I    between atoms: C50_60  and  N3_62 
ROOT
HETATM    1  C1  UNL     1     -22.458   3.817  11.460  1.00  0.00     0.010 C 
HETATM    2  C2  UNL     1     -21.125   3.095  11.652  1.00  0.00    -0.010 C 
HETATM    3  C3  UNL     1     -21.046   1.924  10.664  1.00  0.00     0.009 C 
HETATM    4  C4  UNL     1     -19.791   1.089  10.910  1.00  0.00     0.039 C 
HETATM    5  C5  UNL     1     -19.829   0.520  12.301  1.00  0.00    -0.049 C 
HETATM    6  C6  UNL     1     -19.027  -0.562  12.644  1.00  0.00     0.044 C 
HETATM    7  C7  UNL     1     -18.997  -1.008  13.967  1.00  0.00     0.072 C 
HETATM    8  C8  UNL     1     -19.921  -0.518  14.893  1.00  0.00     0.037 C 
HETATM    9  C9  UNL     1     -20.702   0.584  14.567  1.00  0.00     0.011 C 
HETATM   10  C10 UNL     1     -20.579   1.178  13.299  1.00  0.00    -0.047 C 
HETATM   11  C11 UNL     1     -20.921   2.676  13.136  1.00  0.00     0.024 C 
HETATM   12  C12 UNL     1     -19.689   3.370  13.783  1.00  0.00     0.033 C 
HETATM   13  C13 UNL     1     -19.474   4.891  13.799  1.00  0.00     0.139 C 
HETATM   14  C14 UNL     1     -17.937   5.179  14.006  1.00  0.00     0.037 C 
HETATM   15  C15 UNL     1     -17.525   6.626  13.787  1.00  0.00    -0.014 C 
HETATM   16  C16 UNL     1     -16.859   7.324  14.731  1.00  0.00    -0.050 C 
HETATM   17  C17 UNL     1     -16.679   6.725  16.094  1.00  0.00     0.042 C 
HETATM   18  C18 UNL     1     -16.067   5.348  15.847  1.00  0.00    -0.001 C 
HETATM   19  C19 UNL     1     -14.786   5.396  14.953  1.00  0.00     0.037 C 
HETATM   20  C20 UNL     1     -14.047   6.759  14.858  1.00  0.00     0.123 C 
HETATM   21  C21 UNL     1     -12.615   6.533  14.320  1.00  0.00     0.039 C 
HETATM   22  C22 UNL     1     -11.671   7.759  14.493  1.00  0.00     0.023 C 
HETATM   23  C24 UNL     1     -11.552   8.635  13.220  1.00  0.00     0.101 C 
HETATM   24  C25 UNL     1     -12.764   9.398  12.942  1.00  0.00    -0.101 C 
HETATM   25  C26 UNL     1     -13.856   9.876  12.774  1.00  0.00    -0.066 C 
HETATM   26  C27 UNL     1     -15.242  10.202  12.688  1.00  0.00     0.029 A 
HETATM   27  C28 UNL     1     -15.615  11.271  11.863  1.00  0.00     0.057 A 
HETATM   28  C29 UNL     1     -16.949  11.640  11.765  1.00  0.00     0.067 A 
HETATM   29  C30 UNL     1     -17.926  10.967  12.489  1.00  0.00     0.037 A 
HETATM   30  C31 UNL     1     -17.561   9.904  13.323  1.00  0.00     0.014 A 
HETATM   31  C32 UNL     1     -16.217   9.482  13.421  1.00  0.00    -0.006 A 
HETATM   32  C33 UNL     1     -15.831   8.368  14.398  1.00  0.00     0.185 C 
HETATM   33  O6  UNL     1     -14.711   7.601  13.906  1.00  0.00    -0.371 OA
HETATM   34  C34 UNL     1     -17.238   4.491  15.262  1.00  0.00     0.031 C 
HETATM   35  C35 UNL     1     -16.841   3.022  15.099  1.00  0.00     0.051 A 
HETATM   36  C36 UNL     1     -17.218   2.101  16.088  1.00  0.00     0.004 A 
HETATM   37  C37 UNL     1     -17.080   0.723  15.878  1.00  0.00     0.008 A 
HETATM   38  C38 UNL     1     -16.568   0.223  14.663  1.00  0.00    -0.003 A 
HETATM   39  C39 UNL     1     -16.078   1.158  13.738  1.00  0.00     0.114 A 
HETATM   40  C40 UNL     1     -16.205   2.532  13.954  1.00  0.00     0.064 A 
HETATM   41  C41 UNL     1     -16.634  -1.303  14.308  1.00  0.00     0.169 C 
HETATM   42  O8  UNL     1     -18.010  -1.834  14.443  1.00  0.00    -0.316 OA
HETATM   43 NA1  UNL     1     -16.235   3.064  14.311  1.00  0.00    -0.401 Na
ATOM     44  HA1 UNL     1     -15.797   3.887  13.895  1.00  0.00     0.155 HD
ENDROOT
BRANCH  41  45
HETATM   45  C42 UNL     1     -15.845  -2.060  15.416  1.00  0.00     0.070 C 
BRANCH  45  46
HETATM   46  C43 UNL     1     -16.097  -1.572  16.858  1.00  0.00     0.043 C 
BRANCH  46  47
HETATM   47  C44 UNL     1     -16.801  -2.604  17.767  1.00  0.00     0.058 C 
HETATM   48  C45 UNL     1     -18.311  -2.267  17.817  1.00  0.00     0.038 C 
HETATM   49  C46 UNL     1     -19.162  -3.505  18.086  1.00  0.00     0.003 C 
HETATM   50  C47 UNL     1     -19.000  -4.545  16.976  1.00  0.00     0.000 C 
HETATM   51  C48 UNL     1     -17.603  -4.546  16.350  1.00  0.00     0.003 C 
HETATM   52  C49 UNL     1     -16.559  -4.068  17.344  1.00  0.00     0.038 C 
BRANCH  47  53
HETATM   53  O7  UNL     1     -16.286  -2.482  19.099  1.00  0.00    -0.390 OA
HETATM   54  H46 UNL     1     -15.952  -1.567  19.211  1.00  0.00     0.210 HD
ENDBRANCH  47  53
ENDBRANCH  46  47
ENDBRANCH  45  46
ENDBRANCH  41  45
BRANCH  41  55
HETATM   55  N1  UNL     1     -16.074  -1.525  12.962  1.00  0.00    -0.336 N 
HETATM   56  C50 UNL     1     -15.013  -2.086  12.576  1.00  0.00     0.124 C 
HETATM   57  N2  UNL     1     -14.756  -2.130  11.254  1.00  0.00    -0.279 NA
HETATM   58  N3  UNL     1     -14.010  -2.705  13.242  1.00  0.00    -0.279 NA
HETATM   59  H57 UNL     1     -15.530  -1.755  10.714  1.00  0.00     0.126 HD
HETATM   60  H58 UNL     1     -14.426  -3.020  10.890  1.00  0.00     0.126 HD
HETATM   61  H59 UNL     1     -14.331  -3.584  13.655  1.00  0.00     0.126 HD
HETATM   62  H60 UNL     1     -13.242  -2.914  12.615  1.00  0.00     0.126 HD
ATOM     63  H1  UNL     1     -16.650  -1.155  12.206  1.00  0.00     0.165 HD
ENDBRANCH  41  55
BRANCH  13  64
HETATM   64  S1  UNL     1     -20.546   5.719  14.979  1.00  0.00     0.106 S 
HETATM   65  O1  UNL     1     -21.879   5.173  14.749  1.00  0.00    -0.595 OA
HETATM   66  O2  UNL     1     -20.408   7.136  14.622  1.00  0.00    -0.595 OA
HETATM   67  O3  UNL     1     -19.980   5.401  16.287  1.00  0.00    -0.595 OA
ENDBRANCH  13  64
BRANCH  22  68
HETATM   68  C23 UNL     1     -10.254   7.269  14.857  1.00  0.00     0.169 C 
BRANCH  68  69
HETATM   69  O4  UNL     1      -9.877   6.135  14.080  1.00  0.00    -0.400 OA
HETATM   70  H29 UNL     1      -9.925   6.380  13.137  1.00  0.00     0.209 HD
ENDBRANCH  68  69
ENDBRANCH  22  68
BRANCH  28  71
HETATM   71  O5  UNL     1     -17.259  12.689  10.949  1.00  0.00    -0.361 OA
HETATM   72  H33 UNL     1     -18.220  12.827  10.996  1.00  0.00     0.217 HD
ENDBRANCH  28  71
TORSDOF 9
ENDMDL
MODEL 4
REMARK minimizedAffinity -7.95701981
REMARK CNNscore 0.100049987
REMARK CNNaffinity 6.94482946
REMARK  9 active torsions:
REMARK  status: ('A' for Active; 'I' for Inactive)
REMARK    1  A    between atoms: C13_13  and  S1_14 
REMARK    2  A    between atoms: C22_26  and  C23_27 
REMARK    3  A    between atoms: C23_27  and  O4_28 
REMARK    4  A    between atoms: C29_34  and  O5_35 
REMARK    5  A    between atoms: C41_48  and  C42_49 
REMARK    6  A    between atoms: C41_48  and  N1_58 
REMARK    7  A    between atoms: C42_49  and  C43_50 
REMARK    8  A    between atoms: C43_50  and  C44_51 
REMARK    9  A    between atoms: C44_51  and  O7_52 
REMARK       I    between atoms: C50_60  and  N2_61 
REMARK       I    between atoms: C50_60  and  N3_62 
ROOT
HETATM    1  C1  UNL     1       1.281  16.576  18.362  1.00  0.00     0.010 C 
HETATM    2  C2  UNL     1       0.480  15.281  18.232  1.00  0.00    -0.010 C 
HETATM    3  C3  UNL     1       1.455  14.102  18.120  1.00  0.00     0.009 C 
HETATM    4  C4  UNL     1       0.704  12.800  17.851  1.00  0.00     0.039 C 
HETATM    5  C5  UNL     1      -0.044  12.909  16.551  1.00  0.00    -0.049 C 
HETATM    6  C6  UNL     1      -0.484  11.768  15.890  1.00  0.00     0.044 C 
HETATM    7  C7  UNL     1      -1.268  11.893  14.742  1.00  0.00     0.072 C 
HETATM    8  C8  UNL     1      -1.430  13.141  14.136  1.00  0.00     0.037 C 
HETATM    9  C9  UNL     1      -1.022  14.288  14.807  1.00  0.00     0.011 C 
HETATM   10  C10 UNL     1      -0.422  14.182  16.073  1.00  0.00    -0.047 C 
HETATM   11  C11 UNL     1      -0.538  15.366  17.059  1.00  0.00     0.024 C 
HETATM   12  C12 UNL     1      -2.011  15.250  17.544  1.00  0.00     0.033 C 
HETATM   13  C13 UNL     1      -2.627  16.148  18.629  1.00  0.00     0.139 C 
HETATM   14  C14 UNL     1      -3.881  15.409  19.238  1.00  0.00     0.037 C 
HETATM   15  C15 UNL     1      -4.446  16.048  20.497  1.00  0.00    -0.014 C 
HETATM   16  C16 UNL     1      -5.744  16.405  20.589  1.00  0.00    -0.050 C 
HETATM   17  C17 UNL     1      -6.609  16.342  19.366  1.00  0.00     0.042 C 
HETATM   18  C18 UNL     1      -6.432  14.926  18.824  1.00  0.00    -0.001 C 
HETATM   19  C19 UNL     1      -6.694  13.820  19.897  1.00  0.00     0.037 C 
HETATM   20  C20 UNL     1      -7.536  14.230  21.136  1.00  0.00     0.123 C 
HETATM   21  C21 UNL     1      -8.058  12.960  21.848  1.00  0.00     0.039 C 
HETATM   22  C22 UNL     1      -9.177  13.233  22.895  1.00  0.00     0.023 C 
HETATM   23  C24 UNL     1      -8.657  13.319  24.352  1.00  0.00     0.101 C 
HETATM   24  C25 UNL     1      -7.890  14.534  24.609  1.00  0.00    -0.101 C 
HETATM   25  C26 UNL     1      -7.193  15.514  24.647  1.00  0.00    -0.066 C 
HETATM   26  C27 UNL     1      -6.308  16.611  24.425  1.00  0.00     0.029 A 
HETATM   27  C28 UNL     1      -5.822  17.300  25.543  1.00  0.00     0.057 A 
HETATM   28  C29 UNL     1      -4.977  18.388  25.376  1.00  0.00     0.067 A 
HETATM   29  C30 UNL     1      -4.613  18.814  24.105  1.00  0.00     0.037 A 
HETATM   30  C31 UNL     1      -5.101  18.136  22.980  1.00  0.00     0.014 A 
HETATM   31  C32 UNL     1      -5.937  17.007  23.116  1.00  0.00    -0.006 A 
HETATM   32  C33 UNL     1      -6.521  16.330  21.873  1.00  0.00     0.185 C 
HETATM   33  O6  UNL     1      -6.701  14.912  22.081  1.00  0.00    -0.371 OA
HETATM   34  C34 UNL     1      -4.992  14.911  18.212  1.00  0.00     0.031 C 
HETATM   35  C35 UNL     1      -4.701  13.601  17.476  1.00  0.00     0.051 A 
HETATM   36  C36 UNL     1      -4.842  13.556  16.081  1.00  0.00     0.004 A 
HETATM   37  C37 UNL     1      -4.373  12.461  15.345  1.00  0.00     0.008 A 
HETATM   38  C38 UNL     1      -3.737  11.377  15.984  1.00  0.00    -0.003 A 
HETATM   39  C39 UNL     1      -3.718  11.379  17.387  1.00  0.00     0.114 A 
HETATM   40  C40 UNL     1      -4.198  12.466  18.122  1.00  0.00     0.064 A 
HETATM   41  C41 UNL     1      -2.989  10.265  15.170  1.00  0.00     0.169 C 
HETATM   42  O8  UNL     1      -2.000  10.849  14.234  1.00  0.00    -0.316 OA
HETATM   43 NA1  UNL     1      -4.582  12.967  18.234  1.00  0.00    -0.401 Na
ATOM     44  HA1 UNL     1      -4.841  13.099  19.213  1.00  0.00     0.155 HD
ENDROOT
BRANCH  41  45
HETATM   45  C42 UNL     1      -4.039   9.612  14.225  1.00  0.00     0.070 C 
BRANCH  45  46
HETATM   46  C43 UNL     1      -3.644   8.236  13.649  1.00  0.00     0.043 C 
BRANCH  46  47
HETATM   47  C44 UNL     1      -4.391   7.041  14.281  1.00  0.00     0.058 C 
HETATM   48  C45 UNL     1      -5.756   6.880  13.568  1.00  0.00     0.038 C 
HETATM   49  C46 UNL     1      -6.254   5.437  13.610  1.00  0.00     0.003 C 
HETATM   50  C47 UNL     1      -5.289   4.494  12.887  1.00  0.00     0.000 C 
HETATM   51  C48 UNL     1      -3.826   4.934  12.990  1.00  0.00     0.003 C 
HETATM   52  C49 UNL     1      -3.583   5.726  14.263  1.00  0.00     0.038 C 
BRANCH  47  53
HETATM   53  O7  UNL     1      -4.654   7.330  15.660  1.00  0.00    -0.390 OA
HETATM   54  H46 UNL     1      -4.684   8.304  15.764  1.00  0.00     0.210 HD
ENDBRANCH  47  53
ENDBRANCH  46  47
ENDBRANCH  45  46
ENDBRANCH  41  45
BRANCH  41  55
HETATM   55  N1  UNL     1      -2.380   9.295  16.098  1.00  0.00    -0.336 N 
HETATM   56  C50 UNL     1      -1.395   8.518  15.974  1.00  0.00     0.124 C 
HETATM   57  N2  UNL     1      -1.071   7.723  17.012  1.00  0.00    -0.279 NA
HETATM   58  N3  UNL     1      -0.524   8.297  14.961  1.00  0.00    -0.279 NA
HETATM   59  H57 UNL     1      -1.646   7.923  17.826  1.00  0.00     0.126 HD
HETATM   60  H58 UNL     1      -0.082   7.664  17.243  1.00  0.00     0.126 HD
HETATM   61  H59 UNL     1       0.087   9.105  14.821  1.00  0.00     0.126 HD
HETATM   62  H60 UNL     1       0.057   7.492  15.160  1.00  0.00     0.126 HD
ATOM     63  H1  UNL     1      -2.841   9.242  17.007  1.00  0.00     0.165 HD
ENDBRANCH  41  55
BRANCH  13  64
HETATM   64  S1  UNL     1      -2.965  17.807  18.032  1.00  0.00     0.106 S 
HETATM   65  O1  UNL     1      -3.365  18.573  19.207  1.00  0.00    -0.595 OA
HETATM   66  O2  UNL     1      -4.040  17.600  17.054  1.00  0.00    -0.595 OA
HETATM   67  O3  UNL     1      -1.713  18.248  17.420  1.00  0.00    -0.595 OA
ENDBRANCH  13  64
BRANCH  22  68
HETATM   68  C23 UNL     1     -10.221  12.099  22.838  1.00  0.00     0.169 C 
BRANCH  68  69
HETATM   69  O4  UNL     1     -10.062  11.187  23.920  1.00  0.00    -0.400 OA
HETATM   70  H29 UNL     1     -10.140  11.685  24.755  1.00  0.00     0.209 HD
ENDBRANCH  68  69
ENDBRANCH  22  68
BRANCH  28  71
HETATM   71  O5  UNL     1      -4.534  19.026  26.498  1.00  0.00    -0.361 OA
HETATM   72  H33 UNL     1      -3.967  19.762  26.215  1.00  0.00     0.217 HD
ENDBRANCH  28  71
TORSDOF 9
ENDMDL
MODEL 5
REMARK minimizedAffinity -7.79478741
REMARK CNNscore 0.0949396417
REMARK CNNaffinity 6.05334806
REMARK  9 active torsions:
REMARK  status: ('A' for Active; 'I' for Inactive)
REMARK    1  A    between atoms: C13_13  and  S1_14 
REMARK    2  A    between atoms: C22_26  and  C23_27 
REMARK    3  A    between atoms: C23_27  and  O4_28 
REMARK    4  A    between atoms: C29_34  and  O5_35 
REMARK    5  A    between atoms: C41_48  and  C42_49 
REMARK    6  A    between atoms: C41_48  and  N1_58 
REMARK    7  A    between atoms: C42_49  and  C43_50 
REMARK    8  A    between atoms: C43_50  and  C44_51 
REMARK    9  A    between atoms: C44_51  and  O7_52 
REMARK       I    between atoms: C50_60  and  N2_61 
REMARK       I    between atoms: C50_60  and  N3_62 
ROOT
HETATM    1  C1  UNL     1      -5.879  14.581  17.196  1.00  0.00     0.010 C 
HETATM    2  C2  UNL     1      -4.468  14.051  16.942  1.00  0.00    -0.010 C 
HETATM    3  C3  UNL     1      -4.407  12.577  17.362  1.00  0.00     0.009 C 
HETATM    4  C4  UNL     1      -2.981  12.040  17.256  1.00  0.00     0.039 C 
HETATM    5  C5  UNL     1      -2.079  12.821  18.171  1.00  0.00    -0.049 C 
HETATM    6  C6  UNL     1      -0.844  12.309  18.553  1.00  0.00     0.044 C 
HETATM    7  C7  UNL     1       0.023  13.093  19.315  1.00  0.00     0.072 C 
HETATM    8  C8  UNL     1      -0.424  14.293  19.874  1.00  0.00     0.037 C 
HETATM    9  C9  UNL     1      -1.643  14.826  19.471  1.00  0.00     0.011 C 
HETATM   10  C10 UNL     1      -2.429  14.140  18.530  1.00  0.00    -0.047 C 
HETATM   11  C11 UNL     1      -3.400  14.944  17.636  1.00  0.00     0.024 C 
HETATM   12  C12 UNL     1      -2.435  15.612  16.616  1.00  0.00     0.033 C 
HETATM   13  C13 UNL     1      -2.904  16.461  15.424  1.00  0.00     0.139 C 
HETATM   14  C14 UNL     1      -1.756  16.486  14.343  1.00  0.00     0.037 C 
HETATM   15  C15 UNL     1      -2.161  17.067  12.997  1.00  0.00    -0.014 C 
HETATM   16  C16 UNL     1      -1.480  18.085  12.430  1.00  0.00    -0.050 C 
HETATM   17  C17 UNL     1      -0.414  18.783  13.221  1.00  0.00     0.042 C 
HETATM   18  C18 UNL     1       0.507  17.671  13.718  1.00  0.00    -0.001 C 
HETATM   19  C19 UNL     1       1.015  16.736  12.573  1.00  0.00     0.037 C 
HETATM   20  C20 UNL     1       0.955  17.302  11.127  1.00  0.00     0.123 C 
HETATM   21  C21 UNL     1       1.870  16.461  10.206  1.00  0.00     0.039 C 
HETATM   22  C22 UNL     1       2.156  17.118   8.824  1.00  0.00     0.023 C 
HETATM   23  C24 UNL     1       1.246  16.592   7.686  1.00  0.00     0.101 C 
HETATM   24  C25 UNL     1      -0.134  17.053   7.806  1.00  0.00    -0.101 C 
HETATM   25  C26 UNL     1      -1.246  17.412   8.088  1.00  0.00    -0.066 C 
HETATM   26  C27 UNL     1      -2.479  17.808   8.689  1.00  0.00     0.029 A 
HETATM   27  C28 UNL     1      -3.622  17.846   7.880  1.00  0.00     0.057 A 
HETATM   28  C29 UNL     1      -4.839  18.246   8.414  1.00  0.00     0.067 A 
HETATM   29  C30 UNL     1      -4.937  18.624   9.747  1.00  0.00     0.037 A 
HETATM   30  C31 UNL     1      -3.798  18.598  10.561  1.00  0.00     0.014 A 
HETATM   31  C32 UNL     1      -2.552  18.166  10.058  1.00  0.00    -0.006 A 
HETATM   32  C33 UNL     1      -1.304  18.220  10.944  1.00  0.00     0.185 C 
HETATM   33  O6  UNL     1      -0.376  17.165  10.612  1.00  0.00    -0.371 OA
HETATM   34  C34 UNL     1      -0.312  16.945  14.836  1.00  0.00     0.031 C 
HETATM   35  C35 UNL     1       0.526  15.889  15.560  1.00  0.00     0.051 A 
HETATM   36  C36 UNL     1       1.119  16.215  16.789  1.00  0.00     0.004 A 
HETATM   37  C37 UNL     1       1.700  15.226  17.593  1.00  0.00     0.008 A 
HETATM   38  C38 UNL     1       1.695  13.874  17.194  1.00  0.00    -0.003 A 
HETATM   39  C39 UNL     1       1.214  13.583  15.909  1.00  0.00     0.114 A 
HETATM   40  C40 UNL     1       0.647  14.573  15.102  1.00  0.00     0.064 A 
HETATM   41  C41 UNL     1       2.111  12.724  18.177  1.00  0.00     0.169 C 
HETATM   42  O8  UNL     1       1.356  12.798  19.450  1.00  0.00    -0.316 OA
HETATM   43 NA1  UNL     1       0.577  15.169  14.875  1.00  0.00    -0.401 Na
ATOM     44  HA1 UNL     1       0.357  15.227  13.880  1.00  0.00     0.155 HD
ENDROOT
BRANCH  41  45
HETATM   45  C42 UNL     1       3.579  13.008  18.611  1.00  0.00     0.070 C 
BRANCH  45  46
HETATM   46  C43 UNL     1       3.846  12.934  20.128  1.00  0.00     0.043 C 
BRANCH  46  47
HETATM   47  C44 UNL     1       5.039  12.034  20.522  1.00  0.00     0.058 C 
HETATM   48  C45 UNL     1       6.315  12.909  20.587  1.00  0.00     0.038 C 
HETATM   49  C46 UNL     1       7.345  12.342  21.561  1.00  0.00     0.003 C 
HETATM   50  C47 UNL     1       6.795  12.295  22.988  1.00  0.00     0.000 C 
HETATM   51  C48 UNL     1       5.286  12.045  23.045  1.00  0.00     0.003 C 
HETATM   52  C49 UNL     1       4.818  11.254  21.836  1.00  0.00     0.038 C 
BRANCH  47  53
HETATM   53  O7  UNL     1       5.240  11.050  19.501  1.00  0.00    -0.390 OA
HETATM   54  H46 UNL     1       4.887  11.410  18.661  1.00  0.00     0.210 HD
ENDBRANCH  47  53
ENDBRANCH  46  47
ENDBRANCH  45  46
ENDBRANCH  41  45
BRANCH  41  55
HETATM   55  N1  UNL     1       1.960  11.419  17.507  1.00  0.00    -0.336 N 
HETATM   56  C50 UNL     1       2.124  10.240  17.920  1.00  0.00     0.124 C 
HETATM   57  N2  UNL     1       1.917   9.225  17.059  1.00  0.00    -0.279 NA
HETATM   58  N3  UNL     1       2.479   9.732  19.124  1.00  0.00    -0.279 NA
HETATM   59  H57 UNL     1       1.562   9.561  16.169  1.00  0.00     0.126 HD
HETATM   60  H58 UNL     1       1.384   8.435  17.414  1.00  0.00     0.126 HD
HETATM   61  H59 UNL     1       1.740   9.877  19.816  1.00  0.00     0.126 HD
HETATM   62  H60 UNL     1       2.653   8.736  19.053  1.00  0.00     0.126 HD
ATOM     63  H1  UNL     1       1.671  11.483  16.531  1.00  0.00     0.165 HD
ENDBRANCH  41  55
BRANCH  13  64
HETATM   64  S1  UNL     1      -3.480  18.086  15.928  1.00  0.00     0.106 S 
HETATM   65  O1  UNL     1      -4.374  17.853  17.057  1.00  0.00    -0.595 OA
HETATM   66  O2  UNL     1      -4.152  18.592  14.725  1.00  0.00    -0.595 OA
HETATM   67  O3  UNL     1      -2.266  18.828  16.260  1.00  0.00    -0.595 OA
ENDBRANCH  13  64
BRANCH  22  68
HETATM   68  C23 UNL     1       3.619  16.842   8.418  1.00  0.00     0.169 C 
BRANCH  68  69
HETATM   69  O4  UNL     1       4.529  17.240   9.440  1.00  0.00    -0.400 OA
HETATM   70  H29 UNL     1       4.302  16.758  10.257  1.00  0.00     0.209 HD
ENDBRANCH  68  69
ENDBRANCH  22  68
BRANCH  28  71
HETATM   71  O5  UNL     1      -5.921  18.266   7.583  1.00  0.00    -0.361 OA
HETATM   72  H33 UNL     1      -6.684  18.574   8.099  1.00  0.00     0.217 HD
ENDBRANCH  28  71
TORSDOF 9
ENDMDL
MODEL 6
REMARK minimizedAffinity -7.06451511
REMARK CNNscore 0.0946291387
REMARK CNNaffinity 6.260777
REMARK  9 active torsions:
REMARK  status: ('A' for Active; 'I' for Inactive)
REMARK    1  A    between atoms: C13_13  and  S1_14 
REMARK    2  A    between atoms: C22_26  and  C23_27 
REMARK    3  A    between atoms: C23_27  and  O4_28 
REMARK    4  A    between atoms: C29_34  and  O5_35 
REMARK    5  A    between atoms: C41_48  and  C42_49 
REMARK    6  A    between atoms: C41_48  and  N1_58 
REMARK    7  A    between atoms: C42_49  and  C43_50 
REMARK    8  A    between atoms: C43_50  and  C44_51 
REMARK    9  A    between atoms: C44_51  and  O7_52 
REMARK       I    between atoms: C50_60  and  N2_61 
REMARK       I    between atoms: C50_60  and  N3_62 
ROOT
HETATM    1  C1  UNL     1     -21.973   9.994  13.445  1.00  0.00     0.010 C 
HETATM    2  C2  UNL     1     -20.502  10.078  13.849  1.00  0.00    -0.010 C 
HETATM    3  C3  UNL     1     -19.969  11.475  13.504  1.00  0.00     0.009 C 
HETATM    4  C4  UNL     1     -18.466  11.562  13.763  1.00  0.00     0.039 C 
HETATM    5  C5  UNL     1     -17.747  10.565  12.899  1.00  0.00    -0.049 C 
HETATM    6  C6  UNL     1     -16.384  10.694  12.654  1.00  0.00     0.044 C 
HETATM    7  C7  UNL     1     -15.714   9.701  11.938  1.00  0.00     0.072 C 
HETATM    8  C8  UNL     1     -16.435   8.697  11.287  1.00  0.00     0.037 C 
HETATM    9  C9  UNL     1     -17.790   8.543  11.554  1.00  0.00     0.011 C 
HETATM   10  C10 UNL     1     -18.431   9.414  12.450  1.00  0.00    -0.047 C 
HETATM   11  C11 UNL     1     -19.679   8.920  13.215  1.00  0.00     0.024 C 
HETATM   12  C12 UNL     1     -19.059   7.979  14.287  1.00  0.00     0.033 C 
HETATM   13  C13 UNL     1     -19.873   7.288  15.392  1.00  0.00     0.139 C 
HETATM   14  C14 UNL     1     -18.897   6.905  16.570  1.00  0.00     0.037 C 
HETATM   15  C15 UNL     1     -19.586   6.449  17.846  1.00  0.00    -0.014 C 
HETATM   16  C16 UNL     1     -19.294   5.265  18.425  1.00  0.00    -0.050 C 
HETATM   17  C17 UNL     1     -18.407   4.296  17.703  1.00  0.00     0.042 C 
HETATM   18  C18 UNL     1     -17.155   5.093  17.343  1.00  0.00    -0.001 C 
HETATM   19  C19 UNL     1     -16.512   5.815  18.570  1.00  0.00     0.037 C 
HETATM   20  C20 UNL     1     -16.880   5.270  19.977  1.00  0.00     0.123 C 
HETATM   21  C21 UNL     1     -15.855   5.786  21.015  1.00  0.00     0.039 C 
HETATM   22  C22 UNL     1     -15.913   5.051  22.386  1.00  0.00     0.023 C 
HETATM   23  C24 UNL     1     -16.739   5.804  23.459  1.00  0.00     0.101 C 
HETATM   24  C25 UNL     1     -18.173   5.774  23.195  1.00  0.00    -0.101 C 
HETATM   25  C26 UNL     1     -19.308   5.766  22.797  1.00  0.00    -0.066 C 
HETATM   26  C27 UNL     1     -20.536   5.763  22.070  1.00  0.00     0.029 A 
HETATM   27  C28 UNL     1     -21.715   6.052  22.769  1.00  0.00     0.057 A 
HETATM   28  C29 UNL     1     -22.936   6.040  22.110  1.00  0.00     0.067 A 
HETATM   29  C30 UNL     1     -23.007   5.730  20.757  1.00  0.00     0.037 A 
HETATM   30  C31 UNL     1     -21.835   5.431  20.052  1.00  0.00     0.014 A 
HETATM   31  C32 UNL     1     -20.574   5.466  20.685  1.00  0.00    -0.006 A 
HETATM   32  C33 UNL     1     -19.316   5.059  19.914  1.00  0.00     0.185 C 
HETATM   33  O6  UNL     1     -18.156   5.786  20.376  1.00  0.00    -0.371 OA
HETATM   34  C34 UNL     1     -17.609   6.048  16.190  1.00  0.00     0.031 C 
HETATM   35  C35 UNL     1     -16.430   6.819  15.593  1.00  0.00     0.051 A 
HETATM   36  C36 UNL     1     -15.839   6.352  14.409  1.00  0.00     0.004 A 
HETATM   37  C37 UNL     1     -14.917   7.139  13.707  1.00  0.00     0.008 A 
HETATM   38  C38 UNL     1     -14.564   8.425  14.164  1.00  0.00    -0.003 A 
HETATM   39  C39 UNL     1     -15.066   8.823  15.413  1.00  0.00     0.114 A 
HETATM   40  C40 UNL     1     -15.975   8.032  16.119  1.00  0.00     0.064 A 
HETATM   41  C41 UNL     1     -13.734   9.415  13.276  1.00  0.00     0.169 C 
HETATM   42  O8  UNL     1     -14.346   9.590  11.938  1.00  0.00    -0.316 OA
HETATM   43 NA1  UNL     1     -16.239   7.480  16.312  1.00  0.00    -0.401 Na
ATOM     44  HA1 UNL     1     -16.565   7.473  17.279  1.00  0.00     0.155 HD
ENDROOT
BRANCH  41  45
HETATM   45  C42 UNL     1     -12.378   8.716  12.965  1.00  0.00     0.070 C 
BRANCH  45  46
HETATM   46  C43 UNL     1     -11.358   8.708  14.122  1.00  0.00     0.043 C 
BRANCH  46  47
HETATM   47  C44 UNL     1     -10.708   7.332  14.390  1.00  0.00     0.058 C 
HETATM   48  C45 UNL     1     -10.123   6.796  13.061  1.00  0.00     0.038 C 
HETATM   49  C46 UNL     1      -8.943   5.857  13.296  1.00  0.00     0.003 C 
HETATM   50  C47 UNL     1      -7.791   6.575  14.003  1.00  0.00     0.000 C 
HETATM   51  C48 UNL     1      -8.263   7.668  14.965  1.00  0.00     0.003 C 
HETATM   52  C49 UNL     1      -9.646   7.357  15.510  1.00  0.00     0.038 C 
BRANCH  47  53
HETATM   53  O7  UNL     1     -11.720   6.413  14.819  1.00  0.00    -0.390 OA
HETATM   54  H46 UNL     1     -12.579   6.720  14.461  1.00  0.00     0.210 HD
ENDBRANCH  47  53
ENDBRANCH  46  47
ENDBRANCH  45  46
ENDBRANCH  41  45
BRANCH  41  55
HETATM   55  N1  UNL     1     -13.561  10.695  13.988  1.00  0.00    -0.336 N 
HETATM   56  C50 UNL     1     -13.326  11.861  13.573  1.00  0.00     0.124 C 
HETATM   57  N2  UNL     1     -13.208  12.852  14.479  1.00  0.00    -0.279 NA
HETATM   58  N3  UNL     1     -13.164  12.377  12.332  1.00  0.00    -0.279 NA
HETATM   59  H57 UNL     1     -13.413  12.523  15.417  1.00  0.00     0.126 HD
HETATM   60  H58 UNL     1     -13.691  13.721  14.261  1.00  0.00     0.126 HD
HETATM   61  H59 UNL     1     -14.043  12.363  11.810  1.00  0.00     0.126 HD
HETATM   62  H60 UNL     1     -12.844  13.337  12.384  1.00  0.00     0.126 HD
ATOM     63  H1  UNL     1     -13.647  10.622  15.002  1.00  0.00     0.165 HD
ENDBRANCH  41  55
BRANCH  13  64
HETATM   64  S1  UNL     1     -20.847   5.915  14.765  1.00  0.00     0.106 S 
HETATM   65  O1  UNL     1     -19.884   4.872  14.427  1.00  0.00    -0.595 OA
HETATM   66  O2  UNL     1     -21.537   6.494  13.606  1.00  0.00    -0.595 OA
HETATM   67  O3  UNL     1     -21.754   5.569  15.857  1.00  0.00    -0.595 OA
ENDBRANCH  13  64
BRANCH  22  68
HETATM   68  C23 UNL     1     -14.483   4.873  22.935  1.00  0.00     0.169 C 
BRANCH  68  69
HETATM   69  O4  UNL     1     -13.695   6.042  22.727  1.00  0.00    -0.400 OA
HETATM   70  H29 UNL     1     -14.140   6.793  23.162  1.00  0.00     0.209 HD
ENDBRANCH  68  69
ENDBRANCH  22  68
BRANCH  28  71
HETATM   71  O5  UNL     1     -24.054   6.327  22.838  1.00  0.00    -0.361 OA
HETATM   72  H33 UNL     1     -24.818   6.268  22.241  1.00  0.00     0.217 HD
ENDBRANCH  28  71
TORSDOF 9
ENDMDL
MODEL 7
REMARK minimizedAffinity -7.06654501
REMARK CNNscore 0.0926680043
REMARK CNNaffinity 6.23662043
REMARK  9 active torsions:
REMARK  status: ('A' for Active; 'I' for Inactive)
REMARK    1  A    between atoms: C13_13  and  S1_14 
REMARK    2  A    between atoms: C22_26  and  C23_27 
REMARK    3  A    between atoms: C23_27  and  O4_28 
REMARK    4  A    between atoms: C29_34  and  O5_35 
REMARK    5  A    between atoms: C41_48  and  C42_49 
REMARK    6  A    between atoms: C41_48  and  N1_58 
REMARK    7  A    between atoms: C42_49  and  C43_50 
REMARK    8  A    between atoms: C43_50  and  C44_51 
REMARK    9  A    between atoms: C44_51  and  O7_52 
REMARK       I    between atoms: C50_60  and  N2_61 
REMARK       I    between atoms: C50_60  and  N3_62 
ROOT
HETATM    1  C1  UNL     1     -14.174  10.437  13.322  1.00  0.00     0.010 C 
HETATM    2  C2  UNL     1     -12.816  11.045  13.671  1.00  0.00    -0.010 C 
HETATM    3  C3  UNL     1     -11.877   9.928  14.145  1.00  0.00     0.009 C 
HETATM    4  C4  UNL     1     -10.550  10.504  14.635  1.00  0.00     0.039 C 
HETATM    5  C5  UNL     1     -10.799  11.425  15.796  1.00  0.00    -0.049 C 
HETATM    6  C6  UNL     1      -9.764  11.773  16.657  1.00  0.00     0.044 C 
HETATM    7  C7  UNL     1      -9.990  12.712  17.666  1.00  0.00     0.072 C 
HETATM    8  C8  UNL     1     -11.290  13.137  17.949  1.00  0.00     0.037 C 
HETATM    9  C9  UNL     1     -12.322  12.821  17.074  1.00  0.00     0.011 C 
HETATM   10  C10 UNL     1     -12.058  12.050  15.930  1.00  0.00    -0.047 C 
HETATM   11  C11 UNL     1     -12.967  12.210  14.690  1.00  0.00     0.024 C 
HETATM   12  C12 UNL     1     -12.494  13.572  14.107  1.00  0.00     0.033 C 
HETATM   13  C13 UNL     1     -13.019  14.167  12.791  1.00  0.00     0.139 C 
HETATM   14  C14 UNL     1     -11.960  15.204  12.251  1.00  0.00     0.037 C 
HETATM   15  C15 UNL     1     -12.207  15.687  10.832  1.00  0.00    -0.014 C 
HETATM   16  C16 UNL     1     -12.303  17.001  10.536  1.00  0.00    -0.050 C 
HETATM   17  C17 UNL     1     -12.350  18.001  11.653  1.00  0.00     0.042 C 
HETATM   18  C18 UNL     1     -11.134  17.686  12.521  1.00  0.00    -0.001 C 
HETATM   19  C19 UNL     1      -9.798  17.635  11.712  1.00  0.00     0.037 C 
HETATM   20  C20 UNL     1      -9.781  18.358  10.337  1.00  0.00     0.123 C 
HETATM   21  C21 UNL     1      -8.318  18.584   9.891  1.00  0.00     0.039 C 
HETATM   22  C22 UNL     1      -8.162  19.583   8.707  1.00  0.00     0.023 C 
HETATM   23  C24 UNL     1      -8.028  18.894   7.326  1.00  0.00     0.101 C 
HETATM   24  C25 UNL     1      -9.276  18.291   6.870  1.00  0.00    -0.101 C 
HETATM   25  C26 UNL     1     -10.332  17.750   6.674  1.00  0.00    -0.066 C 
HETATM   26  C27 UNL     1     -11.590  17.077   6.721  1.00  0.00     0.029 A 
HETATM   27  C28 UNL     1     -12.101  16.557   5.525  1.00  0.00     0.057 A 
HETATM   28  C29 UNL     1     -13.331  15.914   5.516  1.00  0.00     0.067 A 
HETATM   29  C30 UNL     1     -14.074  15.789   6.684  1.00  0.00     0.037 A 
HETATM   30  C31 UNL     1     -13.574  16.314   7.882  1.00  0.00     0.014 A 
HETATM   31  C32 UNL     1     -12.313  16.945   7.932  1.00  0.00    -0.006 A 
HETATM   32  C33 UNL     1     -11.822  17.581   9.236  1.00  0.00     0.185 C 
HETATM   33  O6  UNL     1     -10.384  17.517   9.345  1.00  0.00    -0.371 OA
HETATM   34  C34 UNL     1     -11.502  16.354  13.255  1.00  0.00     0.031 C 
HETATM   35  C35 UNL     1     -10.450  15.969  14.297  1.00  0.00     0.051 A 
HETATM   36  C36 UNL     1     -10.678  16.286  15.645  1.00  0.00     0.004 A 
HETATM   37  C37 UNL     1      -9.863  15.759  16.655  1.00  0.00     0.008 A 
HETATM   38  C38 UNL     1      -8.797  14.889  16.347  1.00  0.00    -0.003 A 
HETATM   39  C39 UNL     1      -8.505  14.685  14.989  1.00  0.00     0.114 A 
HETATM   40  C40 UNL     1      -9.311  15.222  13.982  1.00  0.00     0.064 A 
HETATM   41  C41 UNL     1      -8.033  14.096  17.463  1.00  0.00     0.169 C 
HETATM   42  O8  UNL     1      -8.966  13.340  18.329  1.00  0.00    -0.316 OA
HETATM   43 NA1  UNL     1      -9.701  15.658  13.720  1.00  0.00    -0.401 Na
ATOM     44  HA1 UNL     1      -9.575  15.802  12.718  1.00  0.00     0.155 HD
ENDROOT
BRANCH  41  45
HETATM   45  C42 UNL     1      -7.419  15.152  18.428  1.00  0.00     0.070 C 
BRANCH  45  46
HETATM   46  C43 UNL     1      -6.515  14.584  19.542  1.00  0.00     0.043 C 
BRANCH  46  47
HETATM   47  C44 UNL     1      -6.943  14.977  20.974  1.00  0.00     0.058 C 
HETATM   48  C45 UNL     1      -8.340  14.370  21.254  1.00  0.00     0.038 C 
HETATM   49  C46 UNL     1      -8.559  14.110  22.742  1.00  0.00     0.003 C 
HETATM   50  C47 UNL     1      -7.545  13.100  23.286  1.00  0.00     0.000 C 
HETATM   51  C48 UNL     1      -6.185  13.175  22.588  1.00  0.00     0.003 C 
HETATM   52  C49 UNL     1      -5.920  14.574  22.057  1.00  0.00     0.038 C 
BRANCH  47  53
HETATM   53  O7  UNL     1      -7.067  16.402  21.051  1.00  0.00    -0.390 OA
HETATM   54  H46 UNL     1      -7.257  16.738  20.149  1.00  0.00     0.210 HD
ENDBRANCH  47  53
ENDBRANCH  46  47
ENDBRANCH  45  46
ENDBRANCH  41  45
BRANCH  41  55
HETATM   55  N1  UNL     1      -7.010  13.232  16.846  1.00  0.00    -0.336 N 
HETATM   56  C50 UNL     1      -5.875  13.488  16.362  1.00  0.00     0.124 C 
HETATM   57  N2  UNL     1      -5.153  12.473  15.848  1.00  0.00    -0.279 NA
HETATM   58  N3  UNL     1      -5.168  14.637  16.243  1.00  0.00    -0.279 NA
HETATM   59  H57 UNL     1      -5.610  11.579  16.000  1.00  0.00     0.126 HD
HETATM   60  H58 UNL     1      -4.167  12.450  16.100  1.00  0.00     0.126 HD
HETATM   61  H59 UNL     1      -4.860  14.974  17.158  1.00  0.00     0.126 HD
HETATM   62  H60 UNL     1      -4.347  14.492  15.668  1.00  0.00     0.126 HD
ATOM     63  H1  UNL     1      -7.269  12.246  16.803  1.00  0.00     0.165 HD
ENDBRANCH  41  55
BRANCH  13  64
HETATM   64  S1  UNL     1     -14.681  14.826  12.954  1.00  0.00     0.106 S 
HETATM   65  O1  UNL     1     -14.943  15.544  11.711  1.00  0.00    -0.595 OA
HETATM   66  O2  UNL     1     -14.586  15.689  14.137  1.00  0.00    -0.595 OA
HETATM   67  O3  UNL     1     -15.529  13.655  13.166  1.00  0.00    -0.595 OA
ENDBRANCH  13  64
BRANCH  22  68
HETATM   68  C23 UNL     1      -6.901  20.444   8.925  1.00  0.00     0.169 C 
BRANCH  68  69
HETATM   69  O4  UNL     1      -5.725  19.643   8.984  1.00  0.00    -0.400 OA
HETATM   70  H29 UNL     1      -5.656  19.136   8.153  1.00  0.00     0.209 HD
ENDBRANCH  68  69
ENDBRANCH  22  68
BRANCH  28  71
HETATM   71  O5  UNL     1     -13.784  15.426   4.325  1.00  0.00    -0.361 OA
HETATM   72  H33 UNL     1     -14.652  15.019   4.483  1.00  0.00     0.217 HD
ENDBRANCH  28  71
TORSDOF 9
ENDMDL
MODEL 8
REMARK minimizedAffinity -9.03993988
REMARK CNNscore 0.0869142041
REMARK CNNaffinity 6.88328934
REMARK  9 active torsions:
REMARK  status: ('A' for Active; 'I' for Inactive)
REMARK    1  A    between atoms: C13_13  and  S1_14 
REMARK    2  A    between atoms: C22_26  and  C23_27 
REMARK    3  A    between atoms: C23_27  and  O4_28 
REMARK    4  A    between atoms: C29_34  and  O5_35 
REMARK    5  A    between atoms: C41_48  and  C42_49 
REMARK    6  A    between atoms: C41_48  and  N1_58 
REMARK    7  A    between atoms: C42_49  and  C43_50 
REMARK    8  A    between atoms: C43_50  and  C44_51 
REMARK    9  A    between atoms: C44_51  and  O7_52 
REMARK       I    between atoms: C50_60  and  N2_61 
REMARK       I    between atoms: C50_60  and  N3_62 
ROOT
HETATM    1  C1  UNL     1     -17.980  11.772  20.615  1.00  0.00     0.010 C 
HETATM    2  C2  UNL     1     -16.587  11.351  21.083  1.00  0.00    -0.010 C 
HETATM    3  C3  UNL     1     -16.698  10.727  22.480  1.00  0.00     0.009 C 
HETATM    4  C4  UNL     1     -15.316  10.415  23.048  1.00  0.00     0.039 C 
HETATM    5  C5  UNL     1     -14.523  11.686  23.170  1.00  0.00    -0.049 C 
HETATM    6  C6  UNL     1     -13.406  11.747  23.996  1.00  0.00     0.044 C 
HETATM    7  C7  UNL     1     -12.622  12.901  24.014  1.00  0.00     0.072 C 
HETATM    8  C8  UNL     1     -13.069  14.063  23.380  1.00  0.00     0.037 C 
HETATM    9  C9  UNL     1     -14.165  14.001  22.527  1.00  0.00     0.011 C 
HETATM   10  C10 UNL     1     -14.833  12.781  22.334  1.00  0.00    -0.047 C 
HETATM   11  C11 UNL     1     -15.586  12.539  21.007  1.00  0.00     0.024 C 
HETATM   12  C12 UNL     1     -14.423  12.271  20.010  1.00  0.00     0.033 C 
HETATM   13  C13 UNL     1     -14.631  11.872  18.541  1.00  0.00     0.139 C 
HETATM   14  C14 UNL     1     -13.323  11.158  18.025  1.00  0.00     0.037 C 
HETATM   15  C15 UNL     1     -13.461  10.475  16.674  1.00  0.00    -0.014 C 
HETATM   16  C16 UNL     1     -12.627  10.753  15.650  1.00  0.00    -0.050 C 
HETATM   17  C17 UNL     1     -11.658  11.890  15.783  1.00  0.00     0.042 C 
HETATM   18  C18 UNL     1     -10.911  11.626  17.088  1.00  0.00    -0.001 C 
HETATM   19  C19 UNL     1     -10.289  10.194  17.162  1.00  0.00     0.037 C 
HETATM   20  C20 UNL     1     -10.073   9.453  15.814  1.00  0.00     0.123 C 
HETATM   21  C21 UNL     1      -9.081   8.284  16.022  1.00  0.00     0.039 C 
HETATM   22  C22 UNL     1      -8.528   7.678  14.699  1.00  0.00     0.023 C 
HETATM   23  C24 UNL     1      -9.275   6.400  14.241  1.00  0.00     0.101 C 
HETATM   24  C25 UNL     1     -10.620   6.677  13.746  1.00  0.00    -0.101 C 
HETATM   25  C26 UNL     1     -11.736   7.034  13.473  1.00  0.00    -0.066 C 
HETATM   26  C27 UNL     1     -13.019   7.647  13.353  1.00  0.00     0.029 A 
HETATM   27  C28 UNL     1     -14.009   6.964  12.636  1.00  0.00     0.057 A 
HETATM   28  C29 UNL     1     -15.265   7.530  12.473  1.00  0.00     0.067 A 
HETATM   29  C30 UNL     1     -15.553   8.780  13.006  1.00  0.00     0.037 A 
HETATM   30  C31 UNL     1     -14.567   9.475  13.718  1.00  0.00     0.014 A 
HETATM   31  C32 UNL     1     -13.289   8.914  13.928  1.00  0.00    -0.006 A 
HETATM   32  C33 UNL     1     -12.202   9.723  14.641  1.00  0.00     0.185 C 
HETATM   33  O6  UNL     1     -11.308   8.866  15.384  1.00  0.00    -0.371 OA
HETATM   34  C34 UNL     1     -11.950  11.944  18.214  1.00  0.00     0.031 C 
HETATM   35  C35 UNL     1     -11.317  11.883  19.606  1.00  0.00     0.051 A 
HETATM   36  C36 UNL     1     -10.911  13.076  20.222  1.00  0.00     0.004 A 
HETATM   37  C37 UNL     1     -10.541  13.097  21.573  1.00  0.00     0.008 A 
HETATM   38  C38 UNL     1     -10.575  11.923  22.353  1.00  0.00    -0.003 A 
HETATM   39  C39 UNL     1     -10.860  10.719  21.691  1.00  0.00     0.114 A 
HETATM   40  C40 UNL     1     -11.216  10.697  20.340  1.00  0.00     0.064 A 
HETATM   41  C41 UNL     1     -10.407  11.965  23.912  1.00  0.00     0.169 C 
HETATM   42  O8  UNL     1     -11.352  12.920  24.535  1.00  0.00    -0.316 OA
HETATM   43 NA1  UNL     1     -11.206  10.902  19.732  1.00  0.00    -0.401 Na
ATOM     44  HA1 UNL     1     -11.256  10.165  19.028  1.00  0.00     0.155 HD
ENDROOT
BRANCH  41  45
HETATM   45  C42 UNL     1      -9.013  12.595  24.200  1.00  0.00     0.070 C 
BRANCH  45  46
HETATM   46  C43 UNL     1      -8.866  14.081  23.811  1.00  0.00     0.043 C 
BRANCH  46  47
HETATM   47  C44 UNL     1      -7.471  14.464  23.268  1.00  0.00     0.058 C 
HETATM   48  C45 UNL     1      -6.674  13.163  22.999  1.00  0.00     0.038 C 
HETATM   49  C46 UNL     1      -5.632  13.351  21.899  1.00  0.00     0.003 C 
HETATM   50  C47 UNL     1      -6.289  13.724  20.568  1.00  0.00     0.000 C 
HETATM   51  C48 UNL     1      -7.564  14.554  20.736  1.00  0.00     0.003 C 
HETATM   52  C49 UNL     1      -7.521  15.368  22.018  1.00  0.00     0.038 C 
BRANCH  47  53
HETATM   53  O7  UNL     1      -6.766  15.205  24.271  1.00  0.00    -0.390 OA
HETATM   54  H46 UNL     1      -7.128  14.949  25.145  1.00  0.00     0.210 HD
ENDBRANCH  47  53
ENDBRANCH  46  47
ENDBRANCH  45  46
ENDBRANCH  41  45
BRANCH  41  55
HETATM   55  N1  UNL     1     -10.538  10.603  24.462  1.00  0.00    -0.336 N 
HETATM   56  C50 UNL     1     -11.207   9.605  24.082  1.00  0.00     0.124 C 
HETATM   57  N2  UNL     1     -11.134   8.471  24.806  1.00  0.00    -0.279 NA
HETATM   58  N3  UNL     1     -12.036   9.404  23.030  1.00  0.00    -0.279 NA
HETATM   59  H57 UNL     1     -10.452   8.553  25.554  1.00  0.00     0.126 HD
HETATM   60  H58 UNL     1     -11.028   7.607  24.279  1.00  0.00     0.126 HD
HETATM   61  H59 UNL     1     -11.515   9.397  22.150  1.00  0.00     0.126 HD
HETATM   62  H60 UNL     1     -12.516   8.517  23.120  1.00  0.00     0.126 HD
ATOM     63  H1  UNL     1      -9.985  10.439  25.303  1.00  0.00     0.165 HD
ENDBRANCH  41  55
BRANCH  13  64
HETATM   64  S1  UNL     1     -15.166  13.255  17.527  1.00  0.00     0.106 S 
HETATM   65  O1  UNL     1     -13.964  14.041  17.269  1.00  0.00    -0.595 OA
HETATM   66  O2  UNL     1     -16.154  13.931  18.376  1.00  0.00    -0.595 OA
HETATM   67  O3  UNL     1     -15.755  12.643  16.339  1.00  0.00    -0.595 OA
ENDBRANCH  13  64
BRANCH  22  68
HETATM   68  C23 UNL     1      -7.042   7.309  14.886  1.00  0.00     0.169 C 
BRANCH  68  69
HETATM   69  O4  UNL     1      -6.666   7.332  16.260  1.00  0.00    -0.400 OA
HETATM   70  H29 UNL     1      -7.239   6.709  16.745  1.00  0.00     0.209 HD
ENDBRANCH  68  69
ENDBRANCH  22  68
BRANCH  28  71
HETATM   71  O5  UNL     1     -16.193   6.824  11.764  1.00  0.00    -0.361 OA
HETATM   72  H33 UNL     1     -17.007   7.354  11.733  1.00  0.00     0.217 HD
ENDBRANCH  28  71
TORSDOF 9
ENDMDL
MODEL 9
REMARK minimizedAffinity -9.69640827
REMARK CNNscore 0.0799134597
REMARK CNNaffinity 6.53576136
REMARK  9 active torsions:
REMARK  status: ('A' for Active; 'I' for Inactive)
REMARK    1  A    between atoms: C13_13  and  S1_14 
REMARK    2  A    between atoms: C22_26  and  C23_27 
REMARK    3  A    between atoms: C23_27  and  O4_28 
REMARK    4  A    between atoms: C29_34  and  O5_35 
REMARK    5  A    between atoms: C41_48  and  C42_49 
REMARK    6  A    between atoms: C41_48  and  N1_58 
REMARK    7  A    between atoms: C42_49  and  C43_50 
REMARK    8  A    between atoms: C43_50  and  C44_51 
REMARK    9  A    between atoms: C44_51  and  O7_52 
REMARK       I    between atoms: C50_60  and  N2_61 
REMARK       I    between atoms: C50_60  and  N3_62 
ROOT
HETATM    1  C1  UNL     1     -21.999   1.782  11.211  1.00  0.00     0.010 C 
HETATM    2  C2  UNL     1     -20.570   1.301  11.457  1.00  0.00    -0.010 C 
HETATM    3  C3  UNL     1     -20.274   0.120  10.523  1.00  0.00     0.009 C 
HETATM    4  C4  UNL     1     -18.905  -0.484  10.827  1.00  0.00     0.039 C 
HETATM    5  C5  UNL     1     -18.882  -0.995  12.241  1.00  0.00    -0.049 C 
HETATM    6  C6  UNL     1     -17.921  -1.914  12.646  1.00  0.00     0.044 C 
HETATM    7  C7  UNL     1     -17.850  -2.294  13.987  1.00  0.00     0.072 C 
HETATM    8  C8  UNL     1     -18.864  -1.928  14.875  1.00  0.00     0.037 C 
HETATM    9  C9  UNL     1     -19.808  -0.985  14.487  1.00  0.00     0.011 C 
HETATM   10  C10 UNL     1     -19.755  -0.431  13.197  1.00  0.00    -0.047 C 
HETATM   11  C11 UNL     1     -20.336   0.982  12.962  1.00  0.00     0.024 C 
HETATM   12  C12 UNL     1     -19.251   1.896  13.599  1.00  0.00     0.033 C 
HETATM   13  C13 UNL     1     -19.292   3.432  13.552  1.00  0.00     0.139 C 
HETATM   14  C14 UNL     1     -17.829   3.979  13.772  1.00  0.00     0.037 C 
HETATM   15  C15 UNL     1     -17.657   5.465  13.497  1.00  0.00    -0.014 C 
HETATM   16  C16 UNL     1     -17.138   6.302  14.420  1.00  0.00    -0.050 C 
HETATM   17  C17 UNL     1     -16.896   5.797  15.811  1.00  0.00     0.042 C 
HETATM   18  C18 UNL     1     -16.058   4.532  15.636  1.00  0.00    -0.001 C 
HETATM   19  C19 UNL     1     -14.781   4.756  14.763  1.00  0.00     0.037 C 
HETATM   20  C20 UNL     1     -14.277   6.218  14.620  1.00  0.00     0.123 C 
HETATM   21  C21 UNL     1     -12.814   6.212  14.118  1.00  0.00     0.039 C 
HETATM   22  C22 UNL     1     -12.090   7.584  14.252  1.00  0.00     0.023 C 
HETATM   23  C24 UNL     1     -12.087   8.415  12.945  1.00  0.00     0.101 C 
HETATM   24  C25 UNL     1     -13.401   8.953  12.612  1.00  0.00    -0.101 C 
HETATM   25  C26 UNL     1     -14.552   9.236  12.405  1.00  0.00    -0.066 C 
HETATM   26  C27 UNL     1     -15.971   9.324  12.281  1.00  0.00     0.029 A 
HETATM   27  C28 UNL     1     -16.496  10.281  11.403  1.00  0.00     0.057 A 
HETATM   28  C29 UNL     1     -17.870  10.419  11.266  1.00  0.00     0.067 A 
HETATM   29  C30 UNL     1     -18.739   9.623  12.001  1.00  0.00     0.037 A 
HETATM   30  C31 UNL     1     -18.224   8.669  12.888  1.00  0.00     0.014 A 
HETATM   31  C32 UNL     1     -16.832   8.481  13.028  1.00  0.00    -0.006 A 
HETATM   32  C33 UNL     1     -16.290   7.488  14.059  1.00  0.00     0.185 C 
HETATM   33  O6  UNL     1     -15.047   6.898  13.621  1.00  0.00    -0.371 OA
HETATM   34  C34 UNL     1     -17.056   3.469  15.069  1.00  0.00     0.031 C 
HETATM   35  C35 UNL     1     -16.418   2.081  14.978  1.00  0.00     0.051 A 
HETATM   36  C36 UNL     1     -16.661   1.151  16.000  1.00  0.00     0.004 A 
HETATM   37  C37 UNL     1     -16.292  -0.192  15.853  1.00  0.00     0.008 A 
HETATM   38  C38 UNL     1     -15.675  -0.649  14.670  1.00  0.00    -0.003 A 
HETATM   39  C39 UNL     1     -15.325   0.316  13.714  1.00  0.00     0.114 A 
HETATM   40  C40 UNL     1     -15.682   1.658  13.867  1.00  0.00     0.064 A 
HETATM   41  C41 UNL     1     -15.479  -2.178  14.382  1.00  0.00     0.169 C 
HETATM   42  O8  UNL     1     -16.751  -2.924  14.516  1.00  0.00    -0.316 OA
HETATM   43 NA1  UNL     1     -15.808   2.192  14.199  1.00  0.00    -0.401 Na
ATOM     44  HA1 UNL     1     -15.502   3.058  13.755  1.00  0.00     0.155 HD
ENDROOT
BRANCH  41  45
HETATM   45  C42 UNL     1     -14.602  -2.747  15.536  1.00  0.00     0.070 C 
BRANCH  45  46
HETATM   46  C43 UNL     1     -13.171  -3.162  15.136  1.00  0.00     0.043 C 
BRANCH  46  47
HETATM   47  C44 UNL     1     -12.933  -4.688  15.107  1.00  0.00     0.058 C 
HETATM   48  C45 UNL     1     -14.265  -5.400  15.451  1.00  0.00     0.038 C 
HETATM   49  C46 UNL     1     -14.344  -6.791  14.827  1.00  0.00     0.003 C 
HETATM   50  C47 UNL     1     -14.286  -6.720  13.299  1.00  0.00     0.000 C 
HETATM   51  C48 UNL     1     -13.433  -5.561  12.781  1.00  0.00     0.003 C 
HETATM   52  C49 UNL     1     -12.344  -5.197  13.775  1.00  0.00     0.038 C 
BRANCH  47  53
HETATM   53  O7  UNL     1     -11.984  -5.032  16.123  1.00  0.00    -0.390 OA
HETATM   54  H46 UNL     1     -12.027  -4.347  16.823  1.00  0.00     0.210 HD
ENDBRANCH  47  53
ENDBRANCH  46  47
ENDBRANCH  45  46
ENDBRANCH  41  45
BRANCH  41  55
HETATM   55  N1  UNL     1     -14.857  -2.357  13.057  1.00  0.00    -0.336 N 
HETATM   56  C50 UNL     1     -14.931  -1.681  11.997  1.00  0.00     0.124 C 
HETATM   57  N2  UNL     1     -14.245  -2.103  10.917  1.00  0.00    -0.279 NA
HETATM   58  N3  UNL     1     -15.587  -0.538  11.683  1.00  0.00    -0.279 NA
HETATM   59  H57 UNL     1     -13.667  -2.909  11.137  1.00  0.00     0.126 HD
HETATM   60  H58 UNL     1     -13.733  -1.390  10.402  1.00  0.00     0.126 HD
HETATM   61  H59 UNL     1     -15.183   0.263  12.173  1.00  0.00     0.126 HD
HETATM   62  H60 UNL     1     -15.533  -0.359  10.687  1.00  0.00     0.126 HD
ATOM     63  H1  UNL     1     -14.258  -3.180  12.986  1.00  0.00     0.165 HD
ENDBRANCH  41  55
BRANCH  13  64
HETATM   64  S1  UNL     1     -20.514   4.117  14.675  1.00  0.00     0.106 S 
HETATM   65  O1  UNL     1     -20.668   5.514  14.283  1.00  0.00    -0.595 OA
HETATM   66  O2  UNL     1     -19.901   3.928  15.995  1.00  0.00    -0.595 OA
HETATM   67  O3  UNL     1     -21.708   3.298  14.475  1.00  0.00    -0.595 OA
ENDBRANCH  13  64
BRANCH  22  68
HETATM   68  C23 UNL     1     -10.621   7.351  14.662  1.00  0.00     0.169 C 
BRANCH  68  69
HETATM   69  O4  UNL     1     -10.068   6.216  14.003  1.00  0.00    -0.400 OA
HETATM   70  H29 UNL     1     -10.138   6.356  13.040  1.00  0.00     0.209 HD
ENDBRANCH  68  69
ENDBRANCH  22  68
BRANCH  28  71
HETATM   71  O5  UNL     1     -18.329  11.367  10.399  1.00  0.00    -0.361 OA
HETATM   72  H33 UNL     1     -19.300  11.345  10.424  1.00  0.00     0.217 HD
ENDBRANCH  28  71
TORSDOF 9
ENDMDL
