MODEL 1
REMARK minimizedAffinity -7.05505753
REMARK CNNscore 0.566174805
REMARK CNNaffinity 6.97618151
REMARK  5 active torsions:
REMARK  status: ('A' for Active; 'I' for Inactive)
REMARK    1  A    between atoms: C2_2  and  C3_3 
REMARK    2  A    between atoms: C4_5  and  C5_6 
REMARK    3  A    between atoms: C5_6  and  C6_7 
REMARK    4  A    between atoms: C6_7  and  C7_8 
REMARK    5  A    between atoms: C7_8  and  C9_10 
ROOT
HETATM    1  C9  UNL     1       2.287  50.122 -11.147  1.00  0.00    -0.002 C 
HETATM    2  C10 UNL     1       3.712  49.524 -11.218  1.00  0.00     0.007 C 
HETATM    3  C11 UNL     1       4.674  50.612 -10.684  1.00  0.00     0.015 C 
HETATM    4  C12 UNL     1       3.766  51.651  -9.989  1.00  0.00    -0.005 C 
HETATM    5  C13 UNL     1       3.473  51.118  -8.552  1.00  0.00     0.021 C 
HETATM    6  C14 UNL     1       4.231  53.084  -9.769  1.00  0.00    -0.000 C 
HETATM    7  C15 UNL     1       3.351  54.119  -9.735  1.00  0.00    -0.060 C 
HETATM    8  C16 UNL     1       1.855  53.884 -10.022  1.00  0.00     0.036 C 
HETATM    9  C17 UNL     1       1.407  52.447 -10.361  1.00  0.00     0.015 C 
HETATM   10  C18 UNL     1       2.546  51.646 -10.993  1.00  0.00    -0.028 C 
HETATM   11  C19 UNL     1       2.906  52.299 -12.362  1.00  0.00     0.016 C 
HETATM   12  C20 UNL     1       3.768  55.585  -9.458  1.00  0.00    -0.014 C 
HETATM   13  C21 UNL     1       3.718  56.343 -10.815  1.00  0.00     0.020 C 
HETATM   14  C22 UNL     1       2.762  56.268  -8.485  1.00  0.00     0.021 C 
HETATM   15  C23 UNL     1       3.378  57.411  -7.698  1.00  0.00     0.080 C 
HETATM   16  C24 UNL     1       4.443  56.859  -6.778  1.00  0.00     0.135 C 
HETATM   17  O2  UNL     1       4.579  57.323  -5.645  1.00  0.00    -0.297 OA
HETATM   18  C25 UNL     1       5.337  55.726  -7.319  1.00  0.00     0.018 C 
HETATM   19  C26 UNL     1       6.782  56.048  -6.872  1.00  0.00     0.023 C 
HETATM   20  C27 UNL     1       4.908  54.422  -6.630  1.00  0.00     0.023 C 
HETATM   21  C28 UNL     1       5.233  55.717  -8.888  1.00  0.00     0.020 C 
HETATM   22  C29 UNL     1       6.179  54.747  -9.602  1.00  0.00     0.090 C 
HETATM   23  C30 UNL     1       5.688  53.328  -9.552  1.00  0.00     0.157 C 
HETATM   24  O3  UNL     1       6.475  52.401  -9.378  1.00  0.00    -0.293 OA
ENDROOT
BRANCH   1  25
HETATM   25  C7  UNL     1       1.212  49.566 -12.119  1.00  0.00    -0.014 C 
HETATM   26  C8  UNL     1       0.419  48.443 -11.419  1.00  0.00     0.010 C 
BRANCH  25  27
HETATM   27  C6  UNL     1       1.569  49.126 -13.555  1.00  0.00     0.008 C 
BRANCH  27  28
HETATM   28  C5  UNL     1       1.618  50.203 -14.640  1.00  0.00     0.028 C 
BRANCH  28  29
HETATM   29  C4  UNL     1       0.697  49.855 -15.778  1.00  0.00    -0.017 C 
HETATM   30  C2  UNL     1       0.435  50.595 -16.871  1.00  0.00    -0.028 C 
HETATM   31  C1  UNL     1       1.030  51.919 -17.229  1.00  0.00     0.051 C 
BRANCH  30  32
HETATM   32  C3  UNL     1      -0.538  50.047 -17.867  1.00  0.00     0.265 C 
HETATM   33  O1  UNL     1      -0.379  50.096 -19.080  1.00  0.00    -0.302 OA
ENDBRANCH  30  32
ENDBRANCH  28  29
ENDBRANCH  27  28
ENDBRANCH  25  27
ENDBRANCH   1  25
TORSDOF 5
ENDMDL
MODEL 2
REMARK minimizedAffinity -8.75757599
REMARK CNNscore 0.461210161
REMARK CNNaffinity 7.38579798
REMARK  5 active torsions:
REMARK  status: ('A' for Active; 'I' for Inactive)
REMARK    1  A    between atoms: C2_2  and  C3_3 
REMARK    2  A    between atoms: C4_5  and  C5_6 
REMARK    3  A    between atoms: C5_6  and  C6_7 
REMARK    4  A    between atoms: C6_7  and  C7_8 
REMARK    5  A    between atoms: C7_8  and  C9_10 
ROOT
HETATM    1  C9  UNL     1      -1.594  49.150 -18.780  1.00  0.00    -0.002 C 
HETATM    2  C10 UNL     1      -2.514  47.918 -18.613  1.00  0.00     0.007 C 
HETATM    3  C11 UNL     1      -3.350  47.812 -19.911  1.00  0.00     0.015 C 
HETATM    4  C12 UNL     1      -2.648  48.745 -20.923  1.00  0.00    -0.005 C 
HETATM    5  C13 UNL     1      -1.465  47.940 -21.546  1.00  0.00     0.021 C 
HETATM    6  C14 UNL     1      -3.392  49.308 -22.125  1.00  0.00    -0.000 C 
HETATM    7  C15 UNL     1      -3.064  50.511 -22.664  1.00  0.00    -0.060 C 
HETATM    8  C16 UNL     1      -1.987  51.396 -22.006  1.00  0.00     0.036 C 
HETATM    9  C17 UNL     1      -1.318  50.873 -20.718  1.00  0.00     0.015 C 
HETATM   10  C18 UNL     1      -2.248  49.928 -19.955  1.00  0.00    -0.028 C 
HETATM   11  C19 UNL     1      -3.487  50.741 -19.474  1.00  0.00     0.016 C 
HETATM   12  C20 UNL     1      -3.753  51.100 -23.920  1.00  0.00    -0.014 C 
HETATM   13  C21 UNL     1      -4.709  52.228 -23.437  1.00  0.00     0.020 C 
HETATM   14  C22 UNL     1      -2.701  51.736 -24.877  1.00  0.00     0.021 C 
HETATM   15  C23 UNL     1      -3.155  51.766 -26.325  1.00  0.00     0.080 C 
HETATM   16  C24 UNL     1      -3.285  50.348 -26.832  1.00  0.00     0.135 C 
HETATM   17  O2  UNL     1      -2.945  50.071 -27.983  1.00  0.00    -0.297 OA
HETATM   18  C25 UNL     1      -3.860  49.294 -25.866  1.00  0.00     0.018 C 
HETATM   19  C26 UNL     1      -4.843  48.428 -26.686  1.00  0.00     0.023 C 
HETATM   20  C27 UNL     1      -2.702  48.394 -25.411  1.00  0.00     0.023 C 
HETATM   21  C28 UNL     1      -4.618  50.043 -24.708  1.00  0.00     0.020 C 
HETATM   22  C29 UNL     1      -5.384  49.141 -23.736  1.00  0.00     0.090 C 
HETATM   23  C30 UNL     1      -4.480  48.484 -22.732  1.00  0.00     0.157 C 
HETATM   24  O3  UNL     1      -4.664  47.317 -22.397  1.00  0.00    -0.293 OA
ENDROOT
BRANCH   1  25
HETATM   25  C7  UNL     1      -1.094  49.868 -17.498  1.00  0.00    -0.014 C 
HETATM   26  C8  UNL     1      -2.069  51.005 -17.132  1.00  0.00     0.010 C 
BRANCH  25  27
HETATM   27  C6  UNL     1       0.359  50.374 -17.368  1.00  0.00     0.008 C 
BRANCH  27  28
HETATM   28  C5  UNL     1       0.591  51.886 -17.368  1.00  0.00     0.028 C 
BRANCH  28  29
HETATM   29  C4  UNL     1       1.231  52.326 -18.658  1.00  0.00    -0.017 C 
HETATM   30  C2  UNL     1       0.784  53.265 -19.512  1.00  0.00    -0.028 C 
HETATM   31  C1  UNL     1      -0.434  54.119 -19.357  1.00  0.00     0.051 C 
BRANCH  30  32
HETATM   32  C3  UNL     1       1.584  53.520 -20.749  1.00  0.00     0.265 C 
HETATM   33  O1  UNL     1       1.899  54.635 -21.145  1.00  0.00    -0.302 OA
ENDBRANCH  30  32
ENDBRANCH  28  29
ENDBRANCH  27  28
ENDBRANCH  25  27
ENDBRANCH   1  25
TORSDOF 5
ENDMDL
MODEL 3
REMARK minimizedAffinity -7.19986391
REMARK CNNscore 0.43054992
REMARK CNNaffinity 5.73675203
REMARK  5 active torsions:
REMARK  status: ('A' for Active; 'I' for Inactive)
REMARK    1  A    between atoms: C2_2  and  C3_3 
REMARK    2  A    between atoms: C4_5  and  C5_6 
REMARK    3  A    between atoms: C5_6  and  C6_7 
REMARK    4  A    between atoms: C6_7  and  C7_8 
REMARK    5  A    between atoms: C7_8  and  C9_10 
ROOT
HETATM    1  C9  UNL     1     -11.700  45.587 -28.047  1.00  0.00    -0.002 C 
HETATM    2  C10 UNL     1     -11.785  44.109 -28.494  1.00  0.00     0.007 C 
HETATM    3  C11 UNL     1     -13.095  43.543 -27.896  1.00  0.00     0.015 C 
HETATM    4  C12 UNL     1     -13.900  44.779 -27.437  1.00  0.00    -0.005 C 
HETATM    5  C13 UNL     1     -14.641  45.338 -28.691  1.00  0.00     0.021 C 
HETATM    6  C14 UNL     1     -14.988  44.664 -26.379  1.00  0.00    -0.000 C 
HETATM    7  C15 UNL     1     -15.283  45.698 -25.548  1.00  0.00    -0.060 C 
HETATM    8  C16 UNL     1     -14.450  46.995 -25.585  1.00  0.00     0.036 C 
HETATM    9  C17 UNL     1     -13.271  47.061 -26.579  1.00  0.00     0.015 C 
HETATM   10  C18 UNL     1     -12.718  45.667 -26.877  1.00  0.00    -0.028 C 
HETATM   11  C19 UNL     1     -12.116  45.086 -25.562  1.00  0.00     0.016 C 
HETATM   12  C20 UNL     1     -16.418  45.649 -24.495  1.00  0.00    -0.014 C 
HETATM   13  C21 UNL     1     -15.749  45.480 -23.102  1.00  0.00     0.020 C 
HETATM   14  C22 UNL     1     -17.218  46.987 -24.487  1.00  0.00     0.021 C 
HETATM   15  C23 UNL     1     -18.643  46.824 -23.989  1.00  0.00     0.080 C 
HETATM   16  C24 UNL     1     -19.410  45.957 -24.960  1.00  0.00     0.135 C 
HETATM   17  O2  UNL     1     -20.587  46.215 -25.220  1.00  0.00    -0.297 OA
HETATM   18  C25 UNL     1     -18.671  44.757 -25.585  1.00  0.00     0.018 C 
HETATM   19  C26 UNL     1     -19.659  43.568 -25.567  1.00  0.00     0.023 C 
HETATM   20  C27 UNL     1     -18.373  45.103 -27.051  1.00  0.00     0.023 C 
HETATM   21  C28 UNL     1     -17.408  44.439 -24.704  1.00  0.00     0.020 C 
HETATM   22  C29 UNL     1     -16.638  43.175 -25.095  1.00  0.00     0.090 C 
HETATM   23  C30 UNL     1     -15.759  43.388 -26.294  1.00  0.00     0.157 C 
HETATM   24  O3  UNL     1     -15.654  42.517 -27.154  1.00  0.00    -0.293 OA
ENDROOT
BRANCH   1  25
HETATM   25  C7  UNL     1     -10.295  46.244 -27.959  1.00  0.00    -0.014 C 
HETATM   26  C8  UNL     1     -10.302  47.576 -28.737  1.00  0.00     0.010 C 
BRANCH  25  27
HETATM   27  C6  UNL     1      -9.011  45.457 -28.297  1.00  0.00     0.008 C 
BRANCH  27  28
HETATM   28  C5  UNL     1      -7.667  46.095 -27.937  1.00  0.00     0.028 C 
BRANCH  28  29
HETATM   29  C4  UNL     1      -6.884  46.422 -29.179  1.00  0.00    -0.017 C 
HETATM   30  C2  UNL     1      -5.849  47.275 -29.291  1.00  0.00    -0.028 C 
HETATM   31  C1  UNL     1      -5.212  48.068 -28.195  1.00  0.00     0.051 C 
BRANCH  30  32
HETATM   32  C3  UNL     1      -5.235  47.455 -30.643  1.00  0.00     0.265 C 
HETATM   33  O1  UNL     1      -4.876  48.534 -31.095  1.00  0.00    -0.302 OA
ENDBRANCH  30  32
ENDBRANCH  28  29
ENDBRANCH  27  28
ENDBRANCH  25  27
ENDBRANCH   1  25
TORSDOF 5
ENDMDL
MODEL 4
REMARK minimizedAffinity -6.77282476
REMARK CNNscore 0.381548375
REMARK CNNaffinity 6.5887332
REMARK  5 active torsions:
REMARK  status: ('A' for Active; 'I' for Inactive)
REMARK    1  A    between atoms: C2_2  and  C3_3 
REMARK    2  A    between atoms: C4_5  and  C5_6 
REMARK    3  A    between atoms: C5_6  and  C6_7 
REMARK    4  A    between atoms: C6_7  and  C7_8 
REMARK    5  A    between atoms: C7_8  and  C9_10 
ROOT
HETATM    1  C9  UNL     1      -1.959  52.094 -11.734  1.00  0.00    -0.002 C 
HETATM    2  C10 UNL     1      -2.852  51.628 -10.560  1.00  0.00     0.007 C 
HETATM    3  C11 UNL     1      -2.230  52.218  -9.272  1.00  0.00     0.015 C 
HETATM    4  C12 UNL     1      -1.229  53.289  -9.758  1.00  0.00    -0.005 C 
HETATM    5  C13 UNL     1      -2.044  54.591 -10.033  1.00  0.00     0.021 C 
HETATM    6  C14 UNL     1      -0.076  53.750  -8.876  1.00  0.00    -0.000 C 
HETATM    7  C15 UNL     1       1.096  54.183  -9.409  1.00  0.00    -0.060 C 
HETATM    8  C16 UNL     1       1.333  54.126 -10.931  1.00  0.00     0.036 C 
HETATM    9  C17 UNL     1       0.205  53.548 -11.811  1.00  0.00     0.015 C 
HETATM   10  C18 UNL     1      -0.651  52.550 -11.029  1.00  0.00    -0.028 C 
HETATM   11  C19 UNL     1       0.240  51.330 -10.648  1.00  0.00     0.016 C 
HETATM   12  C20 UNL     1       2.276  54.714  -8.557  1.00  0.00    -0.014 C 
HETATM   13  C21 UNL     1       3.365  53.605  -8.534  1.00  0.00     0.020 C 
HETATM   14  C22 UNL     1       2.895  55.986  -9.210  1.00  0.00     0.021 C 
HETATM   15  C23 UNL     1       3.585  56.893  -8.206  1.00  0.00     0.080 C 
HETATM   16  C24 UNL     1       2.553  57.450  -7.253  1.00  0.00     0.135 C 
HETATM   17  O2  UNL     1       2.637  58.616  -6.864  1.00  0.00    -0.297 OA
HETATM   18  C25 UNL     1       1.425  56.507  -6.790  1.00  0.00     0.018 C 
HETATM   19  C26 UNL     1       1.238  56.746  -5.274  1.00  0.00     0.023 C 
HETATM   20  C27 UNL     1       0.134  56.938  -7.501  1.00  0.00     0.023 C 
HETATM   21  C28 UNL     1       1.874  55.024  -7.064  1.00  0.00     0.020 C 
HETATM   22  C29 UNL     1       0.932  53.944  -6.524  1.00  0.00     0.090 C 
HETATM   23  C30 UNL     1      -0.275  53.750  -7.396  1.00  0.00     0.157 C 
HETATM   24  O3  UNL     1      -1.381  53.556  -6.898  1.00  0.00    -0.293 OA
ENDROOT
BRANCH   1  25
HETATM   25  C7  UNL     1      -1.938  51.231 -13.024  1.00  0.00    -0.014 C 
HETATM   26  C8  UNL     1      -1.786  49.744 -12.645  1.00  0.00     0.010 C 
BRANCH  25  27
HETATM   27  C6  UNL     1      -0.997  51.560 -14.203  1.00  0.00     0.008 C 
BRANCH  27  28
HETATM   28  C5  UNL     1       0.172  50.609 -14.471  1.00  0.00     0.028 C 
BRANCH  28  29
HETATM   29  C4  UNL     1       1.241  51.294 -15.278  1.00  0.00    -0.017 C 
HETATM   30  C2  UNL     1       2.422  51.765 -14.835  1.00  0.00    -0.028 C 
HETATM   31  C1  UNL     1       2.963  51.679 -13.443  1.00  0.00     0.051 C 
BRANCH  30  32
HETATM   32  C3  UNL     1       3.323  52.431 -15.825  1.00  0.00     0.265 C 
HETATM   33  O1  UNL     1       4.489  52.111 -16.016  1.00  0.00    -0.302 OA
ENDBRANCH  30  32
ENDBRANCH  28  29
ENDBRANCH  27  28
ENDBRANCH  25  27
ENDBRANCH   1  25
TORSDOF 5
ENDMDL
MODEL 5
REMARK minimizedAffinity -7.87923622
REMARK CNNscore 0.344462693
REMARK CNNaffinity 6.62761927
REMARK  5 active torsions:
REMARK  status: ('A' for Active; 'I' for Inactive)
REMARK    1  A    between atoms: C2_2  and  C3_3 
REMARK    2  A    between atoms: C4_5  and  C5_6 
REMARK    3  A    between atoms: C5_6  and  C6_7 
REMARK    4  A    between atoms: C6_7  and  C7_8 
REMARK    5  A    between atoms: C7_8  and  C9_10 
ROOT
HETATM    1  C9  UNL     1      -3.705  50.512 -24.590  1.00  0.00    -0.002 C 
HETATM    2  C10 UNL     1      -4.197  49.506 -25.658  1.00  0.00     0.007 C 
HETATM    3  C11 UNL     1      -5.008  48.425 -24.903  1.00  0.00     0.015 C 
HETATM    4  C12 UNL     1      -5.269  49.018 -23.501  1.00  0.00    -0.005 C 
HETATM    5  C13 UNL     1      -6.511  49.954 -23.620  1.00  0.00     0.021 C 
HETATM    6  C14 UNL     1      -5.588  48.122 -22.312  1.00  0.00    -0.000 C 
HETATM    7  C15 UNL     1      -5.248  48.475 -21.045  1.00  0.00    -0.060 C 
HETATM    8  C16 UNL     1      -4.430  49.755 -20.782  1.00  0.00     0.036 C 
HETATM    9  C17 UNL     1      -4.007  50.599 -22.002  1.00  0.00     0.015 C 
HETATM   10  C18 UNL     1      -3.882  49.734 -23.257  1.00  0.00    -0.028 C 
HETATM   11  C19 UNL     1      -2.722  48.716 -23.039  1.00  0.00     0.016 C 
HETATM   12  C20 UNL     1      -5.600  47.625 -19.799  1.00  0.00    -0.014 C 
HETATM   13  C21 UNL     1      -4.294  46.920 -19.336  1.00  0.00     0.020 C 
HETATM   14  C22 UNL     1      -6.097  48.536 -18.636  1.00  0.00     0.021 C 
HETATM   15  C23 UNL     1      -7.010  47.812 -17.663  1.00  0.00     0.080 C 
HETATM   16  C24 UNL     1      -8.283  47.423 -18.377  1.00  0.00     0.135 C 
HETATM   17  O2  UNL     1      -9.365  47.495 -17.792  1.00  0.00    -0.297 OA
HETATM   18  C25 UNL     1      -8.164  46.930 -19.832  1.00  0.00     0.018 C 
HETATM   19  C26 UNL     1      -9.106  45.712 -19.968  1.00  0.00     0.023 C 
HETATM   20  C27 UNL     1      -8.695  48.043 -20.748  1.00  0.00     0.023 C 
HETATM   21  C28 UNL     1      -6.672  46.506 -20.093  1.00  0.00     0.020 C 
HETATM   22  C29 UNL     1      -6.405  45.847 -21.449  1.00  0.00     0.090 C 
HETATM   23  C30 UNL     1      -6.326  46.849 -22.566  1.00  0.00     0.157 C 
HETATM   24  O3  UNL     1      -6.819  46.601 -23.663  1.00  0.00    -0.293 OA
ENDROOT
BRANCH   1  25
HETATM   25  C7  UNL     1      -2.424  51.334 -24.897  1.00  0.00    -0.014 C 
HETATM   26  C8  UNL     1      -1.409  50.445 -25.643  1.00  0.00     0.010 C 
BRANCH  25  27
HETATM   27  C6  UNL     1      -1.695  52.137 -23.799  1.00  0.00     0.008 C 
BRANCH  27  28
HETATM   28  C5  UNL     1      -0.501  51.478 -23.106  1.00  0.00     0.028 C 
BRANCH  28  29
HETATM   29  C4  UNL     1       0.339  52.507 -22.399  1.00  0.00    -0.017 C 
HETATM   30  C2  UNL     1       0.377  52.761 -21.078  1.00  0.00    -0.028 C 
HETATM   31  C1  UNL     1      -0.377  52.050 -20.000  1.00  0.00     0.051 C 
BRANCH  30  32
HETATM   32  C3  UNL     1       1.282  53.854 -20.603  1.00  0.00     0.265 C 
HETATM   33  O1  UNL     1       1.779  54.699 -21.336  1.00  0.00    -0.302 OA
ENDBRANCH  30  32
ENDBRANCH  28  29
ENDBRANCH  27  28
ENDBRANCH  25  27
ENDBRANCH   1  25
TORSDOF 5
ENDMDL
MODEL 6
REMARK minimizedAffinity -7.28645849
REMARK CNNscore 0.318450749
REMARK CNNaffinity 5.65129089
REMARK  5 active torsions:
REMARK  status: ('A' for Active; 'I' for Inactive)
REMARK    1  A    between atoms: C2_2  and  C3_3 
REMARK    2  A    between atoms: C4_5  and  C5_6 
REMARK    3  A    between atoms: C5_6  and  C6_7 
REMARK    4  A    between atoms: C6_7  and  C7_8 
REMARK    5  A    between atoms: C7_8  and  C9_10 
ROOT
HETATM    1  C9  UNL     1     -13.659  46.372 -27.784  1.00  0.00    -0.002 C 
HETATM    2  C10 UNL     1     -13.402  47.564 -26.831  1.00  0.00     0.007 C 
HETATM    3  C11 UNL     1     -11.880  47.843 -26.875  1.00  0.00     0.015 C 
HETATM    4  C12 UNL     1     -11.360  47.064 -28.104  1.00  0.00    -0.005 C 
HETATM    5  C13 UNL     1     -11.622  47.954 -29.358  1.00  0.00     0.021 C 
HETATM    6  C14 UNL     1      -9.895  46.668 -28.225  1.00  0.00    -0.000 C 
HETATM    7  C15 UNL     1      -9.514  45.552 -28.901  1.00  0.00    -0.060 C 
HETATM    8  C16 UNL     1     -10.570  44.592 -29.484  1.00  0.00     0.036 C 
HETATM    9  C17 UNL     1     -12.056  44.936 -29.256  1.00  0.00     0.015 C 
HETATM   10  C18 UNL     1     -12.245  45.760 -27.981  1.00  0.00    -0.028 C 
HETATM   11  C19 UNL     1     -11.835  44.881 -26.762  1.00  0.00     0.016 C 
HETATM   12  C20 UNL     1      -8.035  45.139 -29.100  1.00  0.00    -0.014 C 
HETATM   13  C21 UNL     1      -7.755  43.949 -28.138  1.00  0.00     0.020 C 
HETATM   14  C22 UNL     1      -7.793  44.648 -30.559  1.00  0.00     0.021 C 
HETATM   15  C23 UNL     1      -6.354  44.816 -31.011  1.00  0.00     0.080 C 
HETATM   16  C24 UNL     1      -6.024  46.290 -31.073  1.00  0.00     0.135 C 
HETATM   17  O2  UNL     1      -5.315  46.726 -31.982  1.00  0.00    -0.297 OA
HETATM   18  C25 UNL     1      -6.593  47.196 -29.964  1.00  0.00     0.018 C 
HETATM   19  C26 UNL     1      -5.458  48.162 -29.553  1.00  0.00     0.023 C 
HETATM   20  C27 UNL     1      -7.726  48.032 -30.578  1.00  0.00     0.023 C 
HETATM   21  C28 UNL     1      -7.015  46.290 -28.750  1.00  0.00     0.020 C 
HETATM   22  C29 UNL     1      -7.463  47.044 -27.494  1.00  0.00     0.090 C 
HETATM   23  C30 UNL     1      -8.869  47.561 -27.609  1.00  0.00     0.157 C 
HETATM   24  O3  UNL     1      -9.164  48.669 -27.169  1.00  0.00    -0.293 OA
ENDROOT
BRANCH   1  25
HETATM   25  C7  UNL     1     -14.908  45.487 -27.526  1.00  0.00    -0.014 C 
HETATM   26  C8  UNL     1     -14.972  45.112 -26.032  1.00  0.00     0.010 C 
BRANCH  25  27
HETATM   27  C6  UNL     1     -15.206  44.238 -28.383  1.00  0.00     0.008 C 
BRANCH  27  28
HETATM   28  C5  UNL     1     -16.670  43.843 -28.586  1.00  0.00     0.028 C 
BRANCH  28  29
HETATM   29  C4  UNL     1     -17.560  44.590 -27.629  1.00  0.00    -0.017 C 
HETATM   30  C2  UNL     1     -18.767  44.210 -27.171  1.00  0.00    -0.028 C 
HETATM   31  C1  UNL     1     -19.488  42.936 -27.477  1.00  0.00     0.051 C 
BRANCH  30  32
HETATM   32  C3  UNL     1     -19.480  45.133 -26.235  1.00  0.00     0.265 C 
HETATM   33  O1  UNL     1     -19.005  46.175 -25.804  1.00  0.00    -0.302 OA
ENDBRANCH  30  32
ENDBRANCH  28  29
ENDBRANCH  27  28
ENDBRANCH  25  27
ENDBRANCH   1  25
TORSDOF 5
ENDMDL
MODEL 7
REMARK minimizedAffinity -7.26680279
REMARK CNNscore 0.297060579
REMARK CNNaffinity 5.93298483
REMARK  5 active torsions:
REMARK  status: ('A' for Active; 'I' for Inactive)
REMARK    1  A    between atoms: C2_2  and  C3_3 
REMARK    2  A    between atoms: C4_5  and  C5_6 
REMARK    3  A    between atoms: C5_6  and  C6_7 
REMARK    4  A    between atoms: C6_7  and  C7_8 
REMARK    5  A    between atoms: C7_8  and  C9_10 
ROOT
HETATM    1  C9  UNL     1      -7.681  47.419 -29.853  1.00  0.00    -0.002 C 
HETATM    2  C10 UNL     1      -7.898  46.637 -31.170  1.00  0.00     0.007 C 
HETATM    3  C11 UNL     1      -9.153  45.757 -30.958  1.00  0.00     0.015 C 
HETATM    4  C12 UNL     1      -9.829  46.315 -29.685  1.00  0.00    -0.005 C 
HETATM    5  C13 UNL     1     -10.688  47.543 -30.120  1.00  0.00     0.021 C 
HETATM    6  C14 UNL     1     -10.785  45.463 -28.862  1.00  0.00    -0.000 C 
HETATM    7  C15 UNL     1     -10.922  45.642 -27.522  1.00  0.00    -0.060 C 
HETATM    8  C16 UNL     1     -10.032  46.654 -26.772  1.00  0.00     0.036 C 
HETATM    9  C17 UNL     1      -8.982  47.431 -27.593  1.00  0.00     0.015 C 
HETATM   10  C18 UNL     1      -8.543  46.637 -28.825  1.00  0.00    -0.028 C 
HETATM   11  C19 UNL     1      -7.816  45.345 -28.344  1.00  0.00     0.016 C 
HETATM   12  C20 UNL     1     -11.921  44.840 -26.651  1.00  0.00    -0.014 C 
HETATM   13  C21 UNL     1     -11.096  43.799 -25.843  1.00  0.00     0.020 C 
HETATM   14  C22 UNL     1     -12.642  45.778 -25.637  1.00  0.00     0.021 C 
HETATM   15  C23 UNL     1     -14.002  45.257 -25.209  1.00  0.00     0.080 C 
HETATM   16  C24 UNL     1     -14.927  45.248 -26.404  1.00  0.00     0.135 C 
HETATM   17  O2  UNL     1     -16.111  45.561 -26.269  1.00  0.00    -0.297 OA
HETATM   18  C25 UNL     1     -14.334  44.827 -27.763  1.00  0.00     0.018 C 
HETATM   19  C26 UNL     1     -15.374  43.901 -28.434  1.00  0.00     0.023 C 
HETATM   20  C27 UNL     1     -14.199  46.090 -28.626  1.00  0.00     0.023 C 
HETATM   21  C28 UNL     1     -12.991  44.052 -27.500  1.00  0.00     0.020 C 
HETATM   22  C29 UNL     1     -12.342  43.426 -28.738  1.00  0.00     0.090 C 
HETATM   23  C30 UNL     1     -11.607  44.437 -29.570  1.00  0.00     0.157 C 
HETATM   24  O3  UNL     1     -11.653  44.388 -30.797  1.00  0.00    -0.293 OA
ENDROOT
BRANCH   1  25
HETATM   25  C7  UNL     1      -6.243  47.903 -29.519  1.00  0.00    -0.014 C 
HETATM   26  C8  UNL     1      -5.265  47.386 -30.593  1.00  0.00     0.010 C 
BRANCH  25  27
HETATM   27  C6  UNL     1      -5.626  47.700 -28.119  1.00  0.00     0.008 C 
BRANCH  27  28
HETATM   28  C5  UNL     1      -4.337  48.456 -27.790  1.00  0.00     0.028 C 
BRANCH  28  29
HETATM   29  C4  UNL     1      -4.056  48.411 -26.312  1.00  0.00    -0.017 C 
HETATM   30  C2  UNL     1      -3.023  48.977 -25.661  1.00  0.00    -0.028 C 
HETATM   31  C1  UNL     1      -1.935  49.816 -26.250  1.00  0.00     0.051 C 
BRANCH  30  32
HETATM   32  C3  UNL     1      -2.941  48.781 -24.180  1.00  0.00     0.265 C 
HETATM   33  O1  UNL     1      -2.439  49.587 -23.408  1.00  0.00    -0.302 OA
ENDBRANCH  30  32
ENDBRANCH  28  29
ENDBRANCH  27  28
ENDBRANCH  25  27
ENDBRANCH   1  25
TORSDOF 5
ENDMDL
MODEL 8
REMARK minimizedAffinity -7.40395403
REMARK CNNscore 0.286729902
REMARK CNNaffinity 6.04026413
REMARK  5 active torsions:
REMARK  status: ('A' for Active; 'I' for Inactive)
REMARK    1  A    between atoms: C2_2  and  C3_3 
REMARK    2  A    between atoms: C4_5  and  C5_6 
REMARK    3  A    between atoms: C5_6  and  C6_7 
REMARK    4  A    between atoms: C6_7  and  C7_8 
REMARK    5  A    between atoms: C7_8  and  C9_10 
ROOT
HETATM    1  C9  UNL     1      -7.954  47.656 -23.366  1.00  0.00    -0.002 C 
HETATM    2  C10 UNL     1      -7.589  46.304 -22.709  1.00  0.00     0.007 C 
HETATM    3  C11 UNL     1      -6.126  46.434 -22.220  1.00  0.00     0.015 C 
HETATM    4  C12 UNL     1      -5.812  47.946 -22.274  1.00  0.00    -0.005 C 
HETATM    5  C13 UNL     1      -6.372  48.580 -20.964  1.00  0.00     0.021 C 
HETATM    6  C14 UNL     1      -4.378  48.451 -22.352  1.00  0.00    -0.000 C 
HETATM    7  C15 UNL     1      -4.070  49.620 -22.973  1.00  0.00    -0.060 C 
HETATM    8  C16 UNL     1      -5.158  50.425 -23.711  1.00  0.00     0.036 C 
HETATM    9  C17 UNL     1      -6.588  49.847 -23.730  1.00  0.00     0.015 C 
HETATM   10  C18 UNL     1      -6.572  48.323 -23.607  1.00  0.00    -0.028 C 
HETATM   11  C19 UNL     1      -5.874  47.735 -24.871  1.00  0.00     0.016 C 
HETATM   12  C20 UNL     1      -2.636  50.204 -23.029  1.00  0.00    -0.014 C 
HETATM   13  C21 UNL     1      -2.098  49.968 -24.468  1.00  0.00     0.020 C 
HETATM   14  C22 UNL     1      -2.658  51.740 -22.767  1.00  0.00     0.021 C 
HETATM   15  C23 UNL     1      -1.350  52.265 -22.202  1.00  0.00     0.080 C 
HETATM   16  C24 UNL     1      -1.133  51.674 -20.829  1.00  0.00     0.135 C 
HETATM   17  O2  UNL     1      -0.646  52.363 -19.931  1.00  0.00    -0.297 OA
HETATM   18  C25 UNL     1      -1.526  50.199 -20.615  1.00  0.00     0.018 C 
HETATM   19  C26 UNL     1      -0.395  49.553 -19.783  1.00  0.00     0.023 C 
HETATM   20  C27 UNL     1      -2.808  50.175 -19.770  1.00  0.00     0.023 C 
HETATM   21  C28 UNL     1      -1.642  49.507 -22.023  1.00  0.00     0.020 C 
HETATM   22  C29 UNL     1      -1.879  47.994 -21.991  1.00  0.00     0.090 C 
HETATM   23  C30 UNL     1      -3.308  47.645 -21.692  1.00  0.00     0.157 C 
HETATM   24  O3  UNL     1      -3.579  46.698 -20.958  1.00  0.00    -0.293 OA
ENDROOT
BRANCH   1  25
HETATM   25  C7  UNL     1      -9.070  47.666 -24.447  1.00  0.00    -0.014 C 
HETATM   26  C8  UNL     1      -9.076  46.315 -25.190  1.00  0.00     0.010 C 
BRANCH  25  27
HETATM   27  C6  UNL     1      -9.197  48.816 -25.468  1.00  0.00     0.008 C 
BRANCH  27  28
HETATM   28  C5  UNL     1      -9.868  48.510 -26.809  1.00  0.00     0.028 C 
BRANCH  28  29
HETATM   29  C4  UNL     1     -11.293  48.071 -26.603  1.00  0.00    -0.017 C 
HETATM   30  C2  UNL     1     -12.203  47.782 -27.551  1.00  0.00    -0.028 C 
HETATM   31  C1  UNL     1     -11.997  47.793 -29.033  1.00  0.00     0.051 C 
BRANCH  30  32
HETATM   32  C3  UNL     1     -13.573  47.383 -27.105  1.00  0.00     0.265 C 
HETATM   33  O1  UNL     1     -13.936  47.367 -25.936  1.00  0.00    -0.302 OA
ENDBRANCH  30  32
ENDBRANCH  28  29
ENDBRANCH  27  28
ENDBRANCH  25  27
ENDBRANCH   1  25
TORSDOF 5
ENDMDL
MODEL 9
REMARK minimizedAffinity -7.14487982
REMARK CNNscore 0.28195551
REMARK CNNaffinity 5.89749718
REMARK  5 active torsions:
REMARK  status: ('A' for Active; 'I' for Inactive)
REMARK    1  A    between atoms: C2_2  and  C3_3 
REMARK    2  A    between atoms: C4_5  and  C5_6 
REMARK    3  A    between atoms: C5_6  and  C6_7 
REMARK    4  A    between atoms: C6_7  and  C7_8 
REMARK    5  A    between atoms: C7_8  and  C9_10 
ROOT
HETATM    1  C9  UNL     1     -10.943  45.853 -34.834  1.00  0.00    -0.002 C 
HETATM    2  C10 UNL     1     -11.813  44.718 -34.246  1.00  0.00     0.007 C 
HETATM    3  C11 UNL     1     -11.212  44.373 -32.862  1.00  0.00     0.015 C 
HETATM    4  C12 UNL     1     -10.256  45.541 -32.533  1.00  0.00    -0.005 C 
HETATM    5  C13 UNL     1     -11.124  46.693 -31.938  1.00  0.00     0.021 C 
HETATM    6  C14 UNL     1      -9.120  45.374 -31.533  1.00  0.00    -0.000 C 
HETATM    7  C15 UNL     1      -7.967  46.086 -31.641  1.00  0.00    -0.060 C 
HETATM    8  C16 UNL     1      -7.733  47.017 -32.847  1.00  0.00     0.036 C 
HETATM    9  C17 UNL     1      -8.840  47.094 -33.920  1.00  0.00     0.015 C 
HETATM   10  C18 UNL     1      -9.653  45.799 -33.971  1.00  0.00    -0.028 C 
HETATM   11  C19 UNL     1      -8.712  44.646 -34.431  1.00  0.00     0.016 C 
HETATM   12  C20 UNL     1      -6.808  45.992 -30.619  1.00  0.00    -0.014 C 
HETATM   13  C21 UNL     1      -5.675  45.158 -31.281  1.00  0.00     0.020 C 
HETATM   14  C22 UNL     1      -6.242  47.408 -30.300  1.00  0.00     0.021 C 
HETATM   15  C23 UNL     1      -5.586  47.492 -28.933  1.00  0.00     0.080 C 
HETATM   16  C24 UNL     1      -6.637  47.281 -27.867  1.00  0.00     0.135 C 
HETATM   17  O2  UNL     1      -6.598  47.936 -26.824  1.00  0.00    -0.297 OA
HETATM   18  C25 UNL     1      -7.725  46.222 -28.136  1.00  0.00     0.018 C 
HETATM   19  C26 UNL     1      -7.917  45.437 -26.819  1.00  0.00     0.023 C 
HETATM   20  C27 UNL     1      -9.034  46.964 -28.440  1.00  0.00     0.023 C 
HETATM   21  C28 UNL     1      -7.217  45.268 -29.279  1.00  0.00     0.020 C 
HETATM   22  C29 UNL     1      -8.113  44.061 -29.571  1.00  0.00     0.090 C 
HETATM   23  C30 UNL     1      -9.314  44.426 -30.396  1.00  0.00     0.157 C 
HETATM   24  O3  UNL     1     -10.410  43.923 -30.160  1.00  0.00    -0.293 OA
ENDROOT
BRANCH   1  25
HETATM   25  C7  UNL     1     -10.891  46.009 -36.379  1.00  0.00    -0.014 C 
HETATM   26  C8  UNL     1      -9.934  47.161 -36.747  1.00  0.00     0.010 C 
BRANCH  25  27
HETATM   27  C6  UNL     1     -12.178  46.118 -37.224  1.00  0.00     0.008 C 
BRANCH  27  28
HETATM   28  C5  UNL     1     -13.176  47.222 -36.867  1.00  0.00     0.028 C 
BRANCH  28  29
HETATM   29  C4  UNL     1     -13.809  47.788 -38.109  1.00  0.00    -0.017 C 
HETATM   30  C2  UNL     1     -13.318  48.753 -38.908  1.00  0.00    -0.028 C 
HETATM   31  C1  UNL     1     -12.006  49.458 -38.770  1.00  0.00     0.051 C 
BRANCH  30  32
HETATM   32  C3  UNL     1     -14.141  49.170 -40.085  1.00  0.00     0.265 C 
HETATM   33  O1  UNL     1     -14.757  48.393 -40.802  1.00  0.00    -0.302 OA
ENDBRANCH  30  32
ENDBRANCH  28  29
ENDBRANCH  27  28
ENDBRANCH  25  27
ENDBRANCH   1  25
TORSDOF 5
ENDMDL
