MODEL 1
REMARK minimizedAffinity -9.46144295
REMARK CNNscore 0.81328243
REMARK CNNaffinity 7.56501436
REMARK  12 active torsions:
REMARK  status: ('A' for Active; 'I' for Inactive)
REMARK    1  A    between atoms: C2_2  and  C4_4 
REMARK    2  A    between atoms: C4_4  and  C6_6 
REMARK    3  A    between atoms: C7_8  and  C8_9 
REMARK    4  A    between atoms: C8_9  and  O2_11 
REMARK    5  A    between atoms: C8_9  and  C10_12 
REMARK    6  A    between atoms: C13_15  and  O3_16 
REMARK    7  A    between atoms: C24_28  and  O5_29 
REMARK    8  A    between atoms: C25_30  and  O6_31 
REMARK    9  A    between atoms: C29_35  and  C30_36 
REMARK   10  A    between atoms: C30_36  and  C31_37 
REMARK   11  A    between atoms: C31_37  and  C32_38 
REMARK   12  A    between atoms: C36_42  and  O7_43 
ROOT
HETATM    1  C10 UNL     1      -1.399  49.498 -16.513  1.00  0.00     0.034 C 
HETATM    2  C11 UNL     1      -2.459  50.501 -15.949  1.00  0.00     0.012 C 
HETATM    3  C12 UNL     1      -3.368  50.918 -17.122  1.00  0.00     0.044 C 
HETATM    4  C13 UNL     1      -3.006  49.925 -18.223  1.00  0.00     0.090 C 
HETATM    5  C14 UNL     1      -3.414  50.116 -19.659  1.00  0.00    -0.037 C 
HETATM    6  C15 UNL     1      -3.968  51.249 -20.111  1.00  0.00     0.057 C 
HETATM    7  C16 UNL     1      -4.171  51.485 -21.549  1.00  0.00     0.155 C 
HETATM    8  O4  UNL     1      -4.656  52.559 -21.904  1.00  0.00    -0.293 OA
HETATM    9  C17 UNL     1      -3.721  50.430 -22.548  1.00  0.00     0.075 C 
HETATM   10  C18 UNL     1      -4.640  50.428 -23.797  1.00  0.00     0.029 C 
HETATM   11  C19 UNL     1      -4.216  49.336 -24.815  1.00  0.00     0.008 C 
HETATM   12  C20 UNL     1      -2.892  48.670 -24.472  1.00  0.00     0.001 C 
HETATM   13  C21 UNL     1      -2.816  48.153 -23.027  1.00  0.00     0.011 C 
HETATM   14  C22 UNL     1      -3.663  48.983 -21.999  1.00  0.00    -0.019 C 
HETATM   15  C23 UNL     1      -5.120  48.349 -21.988  1.00  0.00     0.045 C 
HETATM   16  C24 UNL     1      -6.273  49.346 -22.133  1.00  0.00     0.148 C 
HETATM   17  C25 UNL     1      -6.120  50.269 -23.364  1.00  0.00     0.151 C 
HETATM   18  C26 UNL     1      -3.064  48.913 -20.534  1.00  0.00     0.027 C 
HETATM   19  C27 UNL     1      -1.551  48.615 -20.401  1.00  0.00     0.011 C 
HETATM   20  C28 UNL     1      -0.994  48.600 -18.956  1.00  0.00     0.014 C 
HETATM   21  C29 UNL     1      -1.444  49.789 -18.077  1.00  0.00     0.002 C 
ENDROOT
BRANCH   1  22
HETATM   22  C8  UNL     1      -0.063  49.514 -15.700  1.00  0.00     0.087 C 
HETATM   23  C9  UNL     1       0.277  48.124 -15.136  1.00  0.00     0.049 C 
BRANCH  22  24
HETATM   24  C7  UNL     1      -0.186  50.470 -14.516  1.00  0.00     0.185 A 
HETATM   25  C6  UNL     1       0.989  50.898 -13.641  1.00  0.00     0.158 A 
HETATM   26  O1  UNL     1       0.453  51.744 -14.668  1.00  0.00    -0.372 OA
BRANCH  25  27
HETATM   27  C4  UNL     1       0.769  51.415 -12.235  1.00  0.00     0.017 C 
HETATM   28  C5  UNL     1       0.099  50.318 -11.394  1.00  0.00     0.013 C 
BRANCH  27  29
HETATM   29  C2  UNL     1      -0.078  52.721 -12.245  1.00  0.00    -0.016 C 
HETATM   30  C1  UNL     1       0.548  53.820 -11.373  1.00  0.00     0.010 C 
HETATM   31  C3  UNL     1      -1.518  52.481 -11.777  1.00  0.00     0.010 C 
ENDBRANCH  27  29
ENDBRANCH  25  27
ENDBRANCH  22  24
BRANCH  22  32
HETATM   32  O2  UNL     1       1.019  49.917 -16.543  1.00  0.00    -0.387 OA
HETATM   33  H17 UNL     1       1.840  49.837 -16.034  1.00  0.00     0.210 HD
ENDBRANCH  22  32
ENDBRANCH   1  22
BRANCH  21  34
HETATM   34  C30 UNL     1      -0.601  51.096 -18.369  1.00  0.00     0.018 C 
BRANCH  34  35
HETATM   35  C31 UNL     1      -1.100  52.252 -19.254  1.00  0.00     0.039 C 
BRANCH  35  36
HETATM   36  C32 UNL     1      -0.413  52.539 -20.574  1.00  0.00    -0.056 A 
HETATM   37  C33 UNL     1      -0.590  51.765 -21.728  1.00  0.00     0.007 A 
HETATM   38  C34 UNL     1       0.101  52.069 -22.907  1.00  0.00     0.003 A 
HETATM   39  C35 UNL     1       0.989  53.142 -22.948  1.00  0.00     0.036 A 
HETATM   40  C36 UNL     1       1.193  53.896 -21.801  1.00  0.00     0.066 A 
HETATM   41  C37 UNL     1       0.515  53.595 -20.623  1.00  0.00     0.043 A 
BRANCH  40  42
HETATM   42  O7  UNL     1       2.055  54.952 -21.786  1.00  0.00    -0.361 OA
HETATM   43  H51 UNL     1       2.462  55.028 -22.664  1.00  0.00     0.217 HD
ENDBRANCH  40  42
ENDBRANCH  35  36
ENDBRANCH  34  35
ENDBRANCH  21  34
BRANCH   4  44
HETATM   44  O3  UNL     1      -3.649  48.691 -17.829  1.00  0.00    -0.384 OA
HETATM   45  H23 UNL     1      -4.610  48.839 -17.873  1.00  0.00     0.211 HD
ENDBRANCH   4  44
BRANCH  16  46
HETATM   46  O5  UNL     1      -7.509  48.631 -22.199  1.00  0.00    -0.393 OA
HETATM   47  H36 UNL     1      -7.760  48.655 -23.149  1.00  0.00     0.210 HD
ENDBRANCH  16  46
BRANCH  17  48
HETATM   48  O6  UNL     1      -6.939  49.772 -24.434  1.00  0.00    -0.393 OA
HETATM   49  H38 UNL     1      -6.892  50.433 -25.151  1.00  0.00     0.210 HD
ENDBRANCH  17  48
TORSDOF 12
ENDMDL
MODEL 2
REMARK minimizedAffinity -10.0125761
REMARK CNNscore 0.79032445
REMARK CNNaffinity 8.00988197
REMARK  12 active torsions:
REMARK  status: ('A' for Active; 'I' for Inactive)
REMARK    1  A    between atoms: C2_2  and  C4_4 
REMARK    2  A    between atoms: C4_4  and  C6_6 
REMARK    3  A    between atoms: C7_8  and  C8_9 
REMARK    4  A    between atoms: C8_9  and  O2_11 
REMARK    5  A    between atoms: C8_9  and  C10_12 
REMARK    6  A    between atoms: C13_15  and  O3_16 
REMARK    7  A    between atoms: C24_28  and  O5_29 
REMARK    8  A    between atoms: C25_30  and  O6_31 
REMARK    9  A    between atoms: C29_35  and  C30_36 
REMARK   10  A    between atoms: C30_36  and  C31_37 
REMARK   11  A    between atoms: C31_37  and  C32_38 
REMARK   12  A    between atoms: C36_42  and  O7_43 
ROOT
HETATM    1  C10 UNL     1      -2.790  51.444 -21.128  1.00  0.00     0.034 C 
HETATM    2  C11 UNL     1      -3.860  50.539 -20.432  1.00  0.00     0.012 C 
HETATM    3  C12 UNL     1      -3.289  50.119 -19.064  1.00  0.00     0.044 C 
HETATM    4  C13 UNL     1      -2.075  51.029 -18.890  1.00  0.00     0.090 C 
HETATM    5  C14 UNL     1      -1.020  50.790 -17.845  1.00  0.00    -0.037 C 
HETATM    6  C15 UNL     1      -0.969  49.672 -17.109  1.00  0.00     0.057 C 
HETATM    7  C16 UNL     1       0.182  49.374 -16.242  1.00  0.00     0.155 C 
HETATM    8  O4  UNL     1       0.185  48.315 -15.614  1.00  0.00    -0.293 OA
HETATM    9  C17 UNL     1       1.351  50.346 -16.196  1.00  0.00     0.075 C 
HETATM   10  C18 UNL     1       2.016  50.340 -14.795  1.00  0.00     0.029 C 
HETATM   11  C19 UNL     1       3.193  51.349 -14.718  1.00  0.00     0.008 C 
HETATM   12  C20 UNL     1       3.565  51.949 -16.065  1.00  0.00     0.001 C 
HETATM   13  C21 UNL     1       2.369  52.534 -16.833  1.00  0.00     0.011 C 
HETATM   14  C22 UNL     1       1.004  51.813 -16.551  1.00  0.00    -0.019 C 
HETATM   15  C23 UNL     1       0.356  52.536 -15.292  1.00  0.00     0.045 C 
HETATM   16  C24 UNL     1      -0.134  51.606 -14.179  1.00  0.00     0.148 C 
HETATM   17  C25 UNL     1       0.950  50.612 -13.702  1.00  0.00     0.151 C 
HETATM   18  C26 UNL     1       0.005  51.922 -17.774  1.00  0.00     0.027 C 
HETATM   19  C27 UNL     1       0.622  52.132 -19.177  1.00  0.00     0.011 C 
HETATM   20  C28 UNL     1      -0.384  52.187 -20.352  1.00  0.00     0.014 C 
HETATM   21  C29 UNL     1      -1.458  51.076 -20.338  1.00  0.00     0.002 C 
ENDROOT
BRANCH   1  22
HETATM   22  C8  UNL     1      -2.876  51.388 -22.689  1.00  0.00     0.087 C 
HETATM   23  C9  UNL     1      -2.824  49.942 -23.210  1.00  0.00     0.049 C 
BRANCH  22  24
HETATM   24  C7  UNL     1      -1.694  52.137 -23.302  1.00  0.00     0.185 A 
HETATM   25  C6  UNL     1      -1.219  51.946 -24.739  1.00  0.00     0.158 A 
HETATM   26  O1  UNL     1      -2.014  53.072 -24.341  1.00  0.00    -0.372 OA
BRANCH  25  27
HETATM   27  C4  UNL     1       0.195  52.301 -25.149  1.00  0.00     0.017 C 
HETATM   28  C5  UNL     1       0.210  53.723 -25.729  1.00  0.00     0.013 C 
BRANCH  27  29
HETATM   29  C2  UNL     1       0.760  51.266 -26.165  1.00  0.00    -0.016 C 
HETATM   30  C1  UNL     1       2.280  51.400 -26.339  1.00  0.00     0.010 C 
HETATM   31  C3  UNL     1       0.095  51.384 -27.542  1.00  0.00     0.010 C 
ENDBRANCH  27  29
ENDBRANCH  25  27
ENDBRANCH  22  24
BRANCH  22  32
HETATM   32  O2  UNL     1      -4.105  51.968 -23.132  1.00  0.00    -0.387 OA
HETATM   33  H17 UNL     1      -4.164  51.843 -24.093  1.00  0.00     0.210 HD
ENDBRANCH  22  32
ENDBRANCH   1  22
BRANCH  21  34
HETATM   34  C30 UNL     1      -0.902  49.706 -20.902  1.00  0.00     0.018 C 
BRANCH  34  35
HETATM   35  C31 UNL     1      -0.827  48.411 -20.074  1.00  0.00     0.039 C 
BRANCH  35  36
HETATM   36  C32 UNL     1      -1.967  47.413 -20.134  1.00  0.00    -0.056 A 
HETATM   37  C33 UNL     1      -2.568  46.990 -21.327  1.00  0.00     0.007 A 
HETATM   38  C34 UNL     1      -3.639  46.088 -21.307  1.00  0.00     0.003 A 
HETATM   39  C35 UNL     1      -4.133  45.605 -20.097  1.00  0.00     0.036 A 
HETATM   40  C36 UNL     1      -3.562  46.042 -18.911  1.00  0.00     0.066 A 
HETATM   41  C37 UNL     1      -2.503  46.944 -18.921  1.00  0.00     0.043 A 
BRANCH  40  42
HETATM   42  O7  UNL     1      -4.012  45.605 -17.700  1.00  0.00    -0.361 OA
HETATM   43  H51 UNL     1      -4.757  45.001 -17.849  1.00  0.00     0.217 HD
ENDBRANCH  40  42
ENDBRANCH  35  36
ENDBRANCH  34  35
ENDBRANCH  21  34
BRANCH   4  44
HETATM   44  O3  UNL     1      -2.631  52.320 -18.548  1.00  0.00    -0.384 OA
HETATM   45  H23 UNL     1      -3.057  52.229 -17.678  1.00  0.00     0.211 HD
ENDBRANCH   4  44
BRANCH  16  46
HETATM   46  O5  UNL     1      -0.605  52.391 -13.081  1.00  0.00    -0.393 OA
HETATM   47  H36 UNL     1       0.110  52.334 -12.409  1.00  0.00     0.210 HD
ENDBRANCH  16  46
BRANCH  17  48
HETATM   48  O6  UNL     1       1.543  51.103 -12.490  1.00  0.00    -0.393 OA
HETATM   49  H38 UNL     1       2.146  50.404 -12.171  1.00  0.00     0.210 HD
ENDBRANCH  17  48
TORSDOF 12
ENDMDL
MODEL 3
REMARK minimizedAffinity -10.0848007
REMARK CNNscore 0.745469809
REMARK CNNaffinity 7.85741997
REMARK  12 active torsions:
REMARK  status: ('A' for Active; 'I' for Inactive)
REMARK    1  A    between atoms: C2_2  and  C4_4 
REMARK    2  A    between atoms: C4_4  and  C6_6 
REMARK    3  A    between atoms: C7_8  and  C8_9 
REMARK    4  A    between atoms: C8_9  and  O2_11 
REMARK    5  A    between atoms: C8_9  and  C10_12 
REMARK    6  A    between atoms: C13_15  and  O3_16 
REMARK    7  A    between atoms: C24_28  and  O5_29 
REMARK    8  A    between atoms: C25_30  and  O6_31 
REMARK    9  A    between atoms: C29_35  and  C30_36 
REMARK   10  A    between atoms: C30_36  and  C31_37 
REMARK   11  A    between atoms: C31_37  and  C32_38 
REMARK   12  A    between atoms: C36_42  and  O7_43 
ROOT
HETATM    1  C10 UNL     1      -2.943  48.962 -19.557  1.00  0.00     0.034 C 
HETATM    2  C11 UNL     1      -1.591  48.647 -20.279  1.00  0.00     0.012 C 
HETATM    3  C12 UNL     1      -0.453  49.087 -19.339  1.00  0.00     0.044 C 
HETATM    4  C13 UNL     1      -1.165  49.342 -18.013  1.00  0.00     0.090 C 
HETATM    5  C14 UNL     1      -0.519  50.077 -16.869  1.00  0.00    -0.037 C 
HETATM    6  C15 UNL     1       0.653  50.714 -16.986  1.00  0.00     0.057 C 
HETATM    7  C16 UNL     1       1.163  51.590 -15.919  1.00  0.00     0.155 C 
HETATM    8  O4  UNL     1       2.232  52.172 -16.099  1.00  0.00    -0.293 OA
HETATM    9  C17 UNL     1       0.329  51.795 -14.663  1.00  0.00     0.075 C 
HETATM   10  C18 UNL     1       1.240  52.025 -13.430  1.00  0.00     0.029 C 
HETATM   11  C19 UNL     1       0.409  52.207 -12.132  1.00  0.00     0.008 C 
HETATM   12  C20 UNL     1      -1.086  52.333 -12.384  1.00  0.00     0.001 C 
HETATM   13  C21 UNL     1      -1.660  51.217 -13.270  1.00  0.00     0.011 C 
HETATM   14  C22 UNL     1      -0.648  50.643 -14.323  1.00  0.00    -0.019 C 
HETATM   15  C23 UNL     1       0.137  49.461 -13.606  1.00  0.00     0.045 C 
HETATM   16  C24 UNL     1       1.662  49.509 -13.737  1.00  0.00     0.148 C 
HETATM   17  C25 UNL     1       2.262  50.866 -13.304  1.00  0.00     0.151 C 
HETATM   18  C26 UNL     1      -1.378  50.068 -15.605  1.00  0.00     0.027 C 
HETATM   19  C27 UNL     1      -2.777  50.640 -15.941  1.00  0.00     0.011 C 
HETATM   20  C28 UNL     1      -3.438  50.086 -17.226  1.00  0.00     0.014 C 
HETATM   21  C29 UNL     1      -2.509  50.030 -18.460  1.00  0.00     0.002 C 
ENDROOT
BRANCH   1  22
HETATM   22  C8  UNL     1      -4.115  49.225 -20.559  1.00  0.00     0.087 C 
HETATM   23  C9  UNL     1      -4.896  47.938 -20.872  1.00  0.00     0.049 C 
BRANCH  22  24
HETATM   24  C7  UNL     1      -3.560  49.755 -21.879  1.00  0.00     0.185 A 
HETATM   25  C6  UNL     1      -4.246  49.563 -23.229  1.00  0.00     0.158 A 
HETATM   26  O1  UNL     1      -4.318  50.799 -22.504  1.00  0.00    -0.372 OA
BRANCH  25  27
HETATM   27  C4  UNL     1      -3.464  49.647 -24.523  1.00  0.00     0.017 C 
HETATM   28  C5  UNL     1      -3.739  51.003 -25.190  1.00  0.00     0.013 C 
BRANCH  27  29
HETATM   29  C2  UNL     1      -3.820  48.465 -25.471  1.00  0.00    -0.016 C 
HETATM   30  C1  UNL     1      -3.328  48.708 -26.905  1.00  0.00     0.010 C 
HETATM   31  C3  UNL     1      -5.328  48.187 -25.508  1.00  0.00     0.010 C 
ENDBRANCH  27  29
ENDBRANCH  25  27
ENDBRANCH  22  24
BRANCH  22  32
HETATM   32  O2  UNL     1      -5.034  50.167 -20.001  1.00  0.00    -0.387 OA
HETATM   33  H17 UNL     1      -5.787  50.245 -20.608  1.00  0.00     0.210 HD
ENDBRANCH  22  32
ENDBRANCH   1  22
BRANCH  21  34
HETATM   34  C30 UNL     1      -2.369  51.442 -19.162  1.00  0.00     0.018 C 
BRANCH  34  35
HETATM   35  C31 UNL     1      -1.059  52.248 -19.199  1.00  0.00     0.039 C 
BRANCH  35  36
HETATM   36  C32 UNL     1      -0.422  52.588 -20.532  1.00  0.00    -0.056 A 
HETATM   37  C33 UNL     1      -0.732  51.933 -21.731  1.00  0.00     0.007 A 
HETATM   38  C34 UNL     1      -0.082  52.277 -22.923  1.00  0.00     0.003 A 
HETATM   39  C35 UNL     1       0.896  53.270 -22.933  1.00  0.00     0.036 A 
HETATM   40  C36 UNL     1       1.230  53.902 -21.744  1.00  0.00     0.066 A 
HETATM   41  C37 UNL     1       0.594  53.561 -20.554  1.00  0.00     0.043 A 
BRANCH  40  42
HETATM   42  O7  UNL     1       2.183  54.876 -21.697  1.00  0.00    -0.361 OA
HETATM   43  H51 UNL     1       2.547  54.992 -22.590  1.00  0.00     0.217 HD
ENDBRANCH  40  42
ENDBRANCH  35  36
ENDBRANCH  34  35
ENDBRANCH  21  34
BRANCH   4  44
HETATM   44  O3  UNL     1      -1.437  48.024 -17.484  1.00  0.00    -0.384 OA
HETATM   45  H23 UNL     1      -0.579  47.612 -17.281  1.00  0.00     0.211 HD
ENDBRANCH   4  44
BRANCH  16  46
HETATM   46  O5  UNL     1       2.235  48.445 -12.973  1.00  0.00    -0.393 OA
HETATM   47  H36 UNL     1       2.586  48.881 -12.165  1.00  0.00     0.210 HD
ENDBRANCH  16  46
BRANCH  17  48
HETATM   48  O6  UNL     1       2.776  50.752 -11.968  1.00  0.00    -0.393 OA
HETATM   49  H38 UNL     1       3.232  51.592 -11.771  1.00  0.00     0.210 HD
ENDBRANCH  17  48
TORSDOF 12
ENDMDL
MODEL 4
REMARK minimizedAffinity -8.1366148
REMARK CNNscore 0.722229123
REMARK CNNaffinity 6.911654
REMARK  12 active torsions:
REMARK  status: ('A' for Active; 'I' for Inactive)
REMARK    1  A    between atoms: C2_2  and  C4_4 
REMARK    2  A    between atoms: C4_4  and  C6_6 
REMARK    3  A    between atoms: C7_8  and  C8_9 
REMARK    4  A    between atoms: C8_9  and  O2_11 
REMARK    5  A    between atoms: C8_9  and  C10_12 
REMARK    6  A    between atoms: C13_15  and  O3_16 
REMARK    7  A    between atoms: C24_28  and  O5_29 
REMARK    8  A    between atoms: C25_30  and  O6_31 
REMARK    9  A    between atoms: C29_35  and  C30_36 
REMARK   10  A    between atoms: C30_36  and  C31_37 
REMARK   11  A    between atoms: C31_37  and  C32_38 
REMARK   12  A    between atoms: C36_42  and  O7_43 
ROOT
HETATM    1  C10 UNL     1      -8.068  46.327 -25.778  1.00  0.00     0.034 C 
HETATM    2  C11 UNL     1      -8.992  45.078 -25.592  1.00  0.00     0.012 C 
HETATM    3  C12 UNL     1      -9.423  44.611 -26.996  1.00  0.00     0.044 C 
HETATM    4  C13 UNL     1      -8.502  45.393 -27.929  1.00  0.00     0.090 C 
HETATM    5  C14 UNL     1      -8.743  45.499 -29.411  1.00  0.00    -0.037 C 
HETATM    6  C15 UNL     1      -9.870  45.070 -29.995  1.00  0.00     0.057 C 
HETATM    7  C16 UNL     1     -10.166  45.367 -31.406  1.00  0.00     0.155 C 
HETATM    8  O4  UNL     1     -11.232  44.972 -31.876  1.00  0.00    -0.293 OA
HETATM    9  C17 UNL     1      -9.182  46.198 -32.214  1.00  0.00     0.075 C 
HETATM   10  C18 UNL     1      -9.197  45.773 -33.705  1.00  0.00     0.029 C 
HETATM   11  C19 UNL     1      -8.177  46.589 -34.542  1.00  0.00     0.008 C 
HETATM   12  C20 UNL     1      -7.557  47.748 -33.777  1.00  0.00     0.001 C 
HETATM   13  C21 UNL     1      -6.975  47.348 -32.412  1.00  0.00     0.011 C 
HETATM   14  C22 UNL     1      -7.714  46.148 -31.721  1.00  0.00    -0.019 C 
HETATM   15  C23 UNL     1      -7.014  44.819 -32.240  1.00  0.00     0.045 C 
HETATM   16  C24 UNL     1      -7.962  43.731 -32.751  1.00  0.00     0.148 C 
HETATM   17  C25 UNL     1      -8.950  44.247 -33.822  1.00  0.00     0.151 C 
HETATM   18  C26 UNL     1      -7.601  46.204 -30.143  1.00  0.00     0.027 C 
HETATM   19  C27 UNL     1      -7.367  47.590 -29.497  1.00  0.00     0.011 C 
HETATM   20  C28 UNL     1      -7.308  47.610 -27.950  1.00  0.00     0.014 C 
HETATM   21  C29 UNL     1      -8.431  46.811 -27.250  1.00  0.00     0.002 C 
ENDROOT
BRANCH   1  22
HETATM   22  C8  UNL     1      -8.106  47.294 -24.549  1.00  0.00     0.087 C 
HETATM   23  C9  UNL     1      -8.390  48.744 -24.973  1.00  0.00     0.049 C 
BRANCH  22  24
HETATM   24  C7  UNL     1      -6.754  47.282 -23.837  1.00  0.00     0.185 A 
HETATM   25  C6  UNL     1      -5.769  48.448 -23.862  1.00  0.00     0.158 A 
HETATM   26  O1  UNL     1      -6.618  48.189 -22.735  1.00  0.00    -0.372 OA
BRANCH  25  27
HETATM   27  C4  UNL     1      -4.295  48.232 -23.591  1.00  0.00     0.017 C 
HETATM   28  C5  UNL     1      -3.894  49.018 -22.334  1.00  0.00     0.013 C 
BRANCH  27  29
HETATM   29  C2  UNL     1      -3.434  48.647 -24.820  1.00  0.00    -0.016 C 
HETATM   30  C1  UNL     1      -2.995  50.117 -24.746  1.00  0.00     0.010 C 
HETATM   31  C3  UNL     1      -4.169  48.418 -26.146  1.00  0.00     0.010 C 
ENDBRANCH  27  29
ENDBRANCH  25  27
ENDBRANCH  22  24
BRANCH  22  32
HETATM   32  O2  UNL     1      -9.138  46.894 -23.644  1.00  0.00    -0.387 OA
HETATM   33  H17 UNL     1      -9.189  47.558 -22.938  1.00  0.00     0.210 HD
ENDBRANCH  22  32
ENDBRANCH   1  22
BRANCH  21  34
HETATM   34  C30 UNL     1      -9.788  47.624 -27.190  1.00  0.00     0.018 C 
BRANCH  34  35
HETATM   35  C31 UNL     1     -10.853  47.587 -28.301  1.00  0.00     0.039 C 
BRANCH  35  36
HETATM   36  C32 UNL     1     -12.233  47.038 -28.002  1.00  0.00    -0.056 A 
HETATM   37  C33 UNL     1     -13.012  46.341 -28.936  1.00  0.00     0.007 A 
HETATM   38  C34 UNL     1     -14.294  45.887 -28.602  1.00  0.00     0.003 A 
HETATM   39  C35 UNL     1     -14.823  46.134 -27.336  1.00  0.00     0.036 A 
HETATM   40  C36 UNL     1     -14.070  46.849 -26.416  1.00  0.00     0.066 A 
HETATM   41  C37 UNL     1     -12.798  47.310 -26.743  1.00  0.00     0.043 A 
BRANCH  40  42
HETATM   42  O7  UNL     1     -14.542  47.123 -25.167  1.00  0.00    -0.361 OA
HETATM   43  H51 UNL     1     -15.439  46.758 -25.091  1.00  0.00     0.217 HD
ENDBRANCH  40  42
ENDBRANCH  35  36
ENDBRANCH  34  35
ENDBRANCH  21  34
BRANCH   4  44
HETATM   44  O3  UNL     1      -7.222  44.729 -27.821  1.00  0.00    -0.384 OA
HETATM   45  H23 UNL     1      -7.328  43.836 -28.194  1.00  0.00     0.211 HD
ENDBRANCH   4  44
BRANCH  16  46
HETATM   46  O5  UNL     1      -7.196  42.640 -33.266  1.00  0.00    -0.393 OA
HETATM   47  H36 UNL     1      -7.254  42.734 -34.242  1.00  0.00     0.210 HD
ENDBRANCH  16  46
BRANCH  17  48
HETATM   48  O6  UNL     1      -8.468  43.883 -35.126  1.00  0.00    -0.393 OA
HETATM   49  H38 UNL     1      -9.164  44.137 -35.761  1.00  0.00     0.210 HD
ENDBRANCH  17  48
TORSDOF 12
ENDMDL
MODEL 5
REMARK minimizedAffinity -10.0880108
REMARK CNNscore 0.621676207
REMARK CNNaffinity 7.72331858
REMARK  12 active torsions:
REMARK  status: ('A' for Active; 'I' for Inactive)
REMARK    1  A    between atoms: C2_2  and  C4_4 
REMARK    2  A    between atoms: C4_4  and  C6_6 
REMARK    3  A    between atoms: C7_8  and  C8_9 
REMARK    4  A    between atoms: C8_9  and  O2_11 
REMARK    5  A    between atoms: C8_9  and  C10_12 
REMARK    6  A    between atoms: C13_15  and  O3_16 
REMARK    7  A    between atoms: C24_28  and  O5_29 
REMARK    8  A    between atoms: C25_30  and  O6_31 
REMARK    9  A    between atoms: C29_35  and  C30_36 
REMARK   10  A    between atoms: C30_36  and  C31_37 
REMARK   11  A    between atoms: C31_37  and  C32_38 
REMARK   12  A    between atoms: C36_42  and  O7_43 
ROOT
HETATM    1  C10 UNL     1      -3.820  49.927 -24.324  1.00  0.00     0.034 C 
HETATM    2  C11 UNL     1      -2.543  49.084 -23.994  1.00  0.00     0.012 C 
HETATM    3  C12 UNL     1      -2.792  48.379 -22.646  1.00  0.00     0.044 C 
HETATM    4  C13 UNL     1      -4.286  48.585 -22.408  1.00  0.00     0.090 C 
HETATM    5  C14 UNL     1      -4.941  48.334 -21.077  1.00  0.00    -0.037 C 
HETATM    6  C15 UNL     1      -4.243  48.085 -19.961  1.00  0.00     0.057 C 
HETATM    7  C16 UNL     1      -4.893  48.045 -18.640  1.00  0.00     0.155 C 
HETATM    8  O4  UNL     1      -4.193  47.843 -17.649  1.00  0.00    -0.293 OA
HETATM    9  C17 UNL     1      -6.386  48.313 -18.537  1.00  0.00     0.075 C 
HETATM   10  C18 UNL     1      -7.009  47.509 -17.367  1.00  0.00     0.029 C 
HETATM   11  C19 UNL     1      -8.540  47.746 -17.263  1.00  0.00     0.008 C 
HETATM   12  C20 UNL     1      -9.043  48.856 -18.174  1.00  0.00     0.001 C 
HETATM   13  C21 UNL     1      -8.593  48.709 -19.635  1.00  0.00     0.011 C 
HETATM   14  C22 UNL     1      -7.203  48.002 -19.815  1.00  0.00    -0.019 C 
HETATM   15  C23 UNL     1      -7.492  46.442 -19.907  1.00  0.00     0.045 C 
HETATM   16  C24 UNL     1      -6.633  45.558 -18.997  1.00  0.00     0.148 C 
HETATM   17  C25 UNL     1      -6.667  46.005 -17.518  1.00  0.00     0.151 C 
HETATM   18  C26 UNL     1      -6.463  48.463 -21.137  1.00  0.00     0.027 C 
HETATM   19  C27 UNL     1      -6.829  49.855 -21.705  1.00  0.00     0.011 C 
HETATM   20  C28 UNL     1      -6.051  50.290 -22.971  1.00  0.00     0.014 C 
HETATM   21  C29 UNL     1      -4.524  50.060 -22.903  1.00  0.00     0.002 C 
ENDROOT
BRANCH   1  22
HETATM   22  C8  UNL     1      -3.506  51.170 -25.220  1.00  0.00     0.087 C 
HETATM   23  C9  UNL     1      -3.419  50.792 -26.708  1.00  0.00     0.049 C 
BRANCH  22  24
HETATM   24  C7  UNL     1      -2.160  51.771 -24.821  1.00  0.00     0.185 A 
HETATM   25  C6  UNL     1      -1.148  52.329 -25.818  1.00  0.00     0.158 A 
HETATM   26  O1  UNL     1      -2.009  53.178 -25.046  1.00  0.00    -0.372 OA
BRANCH  25  27
HETATM   27  C4  UNL     1       0.319  52.445 -25.461  1.00  0.00     0.017 C 
HETATM   28  C5  UNL     1       0.578  53.826 -24.839  1.00  0.00     0.013 C 
BRANCH  27  29
HETATM   29  C2  UNL     1       1.220  52.205 -26.708  1.00  0.00    -0.016 C 
HETATM   30  C1  UNL     1       0.448  51.538 -27.855  1.00  0.00     0.010 C 
HETATM   31  C3  UNL     1       2.449  51.349 -26.378  1.00  0.00     0.010 C 
ENDBRANCH  27  29
ENDBRANCH  25  27
ENDBRANCH  22  24
BRANCH  22  32
HETATM   32  O2  UNL     1      -4.539  52.148 -25.078  1.00  0.00    -0.387 OA
HETATM   33  H17 UNL     1      -4.358  52.866 -25.706  1.00  0.00     0.210 HD
ENDBRANCH  22  32
ENDBRANCH   1  22
BRANCH  21  34
HETATM   34  C30 UNL     1      -3.788  51.197 -22.084  1.00  0.00     0.018 C 
BRANCH  34  35
HETATM   35  C31 UNL     1      -2.876  50.921 -20.875  1.00  0.00     0.039 C 
BRANCH  35  36
HETATM   36  C32 UNL     1      -1.484  51.519 -20.833  1.00  0.00    -0.056 A 
HETATM   37  C33 UNL     1      -0.573  51.446 -21.896  1.00  0.00     0.007 A 
HETATM   38  C34 UNL     1       0.710  51.993 -21.777  1.00  0.00     0.003 A 
HETATM   39  C35 UNL     1       1.108  52.609 -20.592  1.00  0.00     0.036 A 
HETATM   40  C36 UNL     1       0.223  52.658 -19.525  1.00  0.00     0.066 A 
HETATM   41  C37 UNL     1      -1.051  52.110 -19.632  1.00  0.00     0.043 A 
BRANCH  40  42
HETATM   42  O7  UNL     1       0.565  53.243 -18.342  1.00  0.00    -0.361 OA
HETATM   43  H51 UNL     1       1.480  53.561 -18.410  1.00  0.00     0.217 HD
ENDBRANCH  40  42
ENDBRANCH  35  36
ENDBRANCH  34  35
ENDBRANCH  21  34
BRANCH   4  44
HETATM   44  O3  UNL     1      -4.931  47.652 -23.305  1.00  0.00    -0.384 OA
HETATM   45  H23 UNL     1      -4.706  46.755 -23.001  1.00  0.00     0.211 HD
ENDBRANCH   4  44
BRANCH  16  46
HETATM   46  O5  UNL     1      -7.062  44.200 -19.117  1.00  0.00    -0.393 OA
HETATM   47  H36 UNL     1      -7.579  44.030 -18.299  1.00  0.00     0.210 HD
ENDBRANCH  16  46
BRANCH  17  48
HETATM   48  O6  UNL     1      -7.587  45.173 -16.792  1.00  0.00    -0.393 OA
HETATM   49  H38 UNL     1      -7.504  45.420 -15.852  1.00  0.00     0.210 HD
ENDBRANCH  17  48
TORSDOF 12
ENDMDL
MODEL 6
REMARK minimizedAffinity -8.74881268
REMARK CNNscore 0.54216063
REMARK CNNaffinity 6.98697233
REMARK  12 active torsions:
REMARK  status: ('A' for Active; 'I' for Inactive)
REMARK    1  A    between atoms: C2_2  and  C4_4 
REMARK    2  A    between atoms: C4_4  and  C6_6 
REMARK    3  A    between atoms: C7_8  and  C8_9 
REMARK    4  A    between atoms: C8_9  and  O2_11 
REMARK    5  A    between atoms: C8_9  and  C10_12 
REMARK    6  A    between atoms: C13_15  and  O3_16 
REMARK    7  A    between atoms: C24_28  and  O5_29 
REMARK    8  A    between atoms: C25_30  and  O6_31 
REMARK    9  A    between atoms: C29_35  and  C30_36 
REMARK   10  A    between atoms: C30_36  and  C31_37 
REMARK   11  A    between atoms: C31_37  and  C32_38 
REMARK   12  A    between atoms: C36_42  and  O7_43 
ROOT
HETATM    1  C10 UNL     1      -3.849  50.456 -24.535  1.00  0.00     0.034 C 
HETATM    2  C11 UNL     1      -4.278  49.590 -25.765  1.00  0.00     0.012 C 
HETATM    3  C12 UNL     1      -5.209  48.478 -25.244  1.00  0.00     0.044 C 
HETATM    4  C13 UNL     1      -5.528  48.920 -23.818  1.00  0.00     0.090 C 
HETATM    5  C14 UNL     1      -6.161  48.007 -22.804  1.00  0.00    -0.037 C 
HETATM    6  C15 UNL     1      -6.329  46.695 -23.015  1.00  0.00     0.057 C 
HETATM    7  C16 UNL     1      -6.762  45.792 -21.936  1.00  0.00     0.155 C 
HETATM    8  O4  UNL     1      -6.869  44.592 -22.185  1.00  0.00    -0.293 OA
HETATM    9  C17 UNL     1      -7.002  46.356 -20.544  1.00  0.00     0.075 C 
HETATM   10  C18 UNL     1      -8.121  45.566 -19.816  1.00  0.00     0.029 C 
HETATM   11  C19 UNL     1      -8.402  46.146 -18.405  1.00  0.00     0.008 C 
HETATM   12  C20 UNL     1      -7.393  47.199 -17.971  1.00  0.00     0.001 C 
HETATM   13  C21 UNL     1      -7.179  48.314 -19.006  1.00  0.00     0.011 C 
HETATM   14  C22 UNL     1      -7.373  47.859 -20.495  1.00  0.00    -0.019 C 
HETATM   15  C23 UNL     1      -8.914  48.048 -20.835  1.00  0.00     0.045 C 
HETATM   16  C24 UNL     1      -9.597  46.843 -21.489  1.00  0.00     0.148 C 
HETATM   17  C25 UNL     1      -9.400  45.533 -20.692  1.00  0.00     0.151 C 
HETATM   18  C26 UNL     1      -6.516  48.729 -21.504  1.00  0.00     0.027 C 
HETATM   19  C27 UNL     1      -5.248  49.418 -20.946  1.00  0.00     0.011 C 
HETATM   20  C28 UNL     1      -4.413  50.221 -21.972  1.00  0.00     0.014 C 
HETATM   21  C29 UNL     1      -4.151  49.489 -23.308  1.00  0.00     0.002 C 
ENDROOT
BRANCH   1  22
HETATM   22  C8  UNL     1      -2.457  51.140 -24.735  1.00  0.00     0.087 C 
HETATM   23  C9  UNL     1      -1.548  50.320 -25.667  1.00  0.00     0.049 C 
BRANCH  22  24
HETATM   24  C7  UNL     1      -1.741  51.264 -23.392  1.00  0.00     0.185 A 
HETATM   25  C6  UNL     1      -0.655  52.296 -23.098  1.00  0.00     0.158 A 
HETATM   26  O1  UNL     1      -2.007  52.459 -22.647  1.00  0.00    -0.372 OA
BRANCH  25  27
HETATM   27  C4  UNL     1       0.348  52.080 -21.985  1.00  0.00     0.017 C 
HETATM   28  C5  UNL     1      -0.071  50.853 -21.161  1.00  0.00     0.013 C 
BRANCH  27  29
HETATM   29  C2  UNL     1       0.474  53.349 -21.091  1.00  0.00    -0.016 C 
HETATM   30  C1  UNL     1       1.606  54.274 -21.562  1.00  0.00     0.010 C 
HETATM   31  C3  UNL     1       0.708  52.997 -19.616  1.00  0.00     0.010 C 
ENDBRANCH  27  29
ENDBRANCH  25  27
ENDBRANCH  22  24
BRANCH  22  32
HETATM   32  O2  UNL     1      -2.626  52.433 -25.320  1.00  0.00    -0.387 OA
HETATM   33  H17 UNL     1      -1.745  52.794 -25.507  1.00  0.00     0.210 HD
ENDBRANCH  22  32
ENDBRANCH   1  22
BRANCH  21  34
HETATM   34  C30 UNL     1      -2.967  48.444 -23.190  1.00  0.00     0.018 C 
BRANCH  34  35
HETATM   35  C31 UNL     1      -2.122  48.255 -21.918  1.00  0.00     0.039 C 
BRANCH  35  36
HETATM   36  C32 UNL     1      -2.623  47.350 -20.810  1.00  0.00    -0.056 A 
HETATM   37  C33 UNL     1      -3.317  46.154 -21.036  1.00  0.00     0.007 A 
HETATM   38  C34 UNL     1      -3.780  45.382 -19.964  1.00  0.00     0.003 A 
HETATM   39  C35 UNL     1      -3.568  45.798 -18.650  1.00  0.00     0.036 A 
HETATM   40  C36 UNL     1      -2.908  46.996 -18.419  1.00  0.00     0.066 A 
HETATM   41  C37 UNL     1      -2.452  47.773 -19.479  1.00  0.00     0.043 A 
BRANCH  40  42
HETATM   42  O7  UNL     1      -2.681  47.452 -17.154  1.00  0.00    -0.361 OA
HETATM   43  H51 UNL     1      -3.067  46.820 -16.526  1.00  0.00     0.217 HD
ENDBRANCH  40  42
ENDBRANCH  35  36
ENDBRANCH  34  35
ENDBRANCH  21  34
BRANCH   4  44
HETATM   44  O3  UNL     1      -6.480  49.998 -23.973  1.00  0.00    -0.384 OA
HETATM   45  H23 UNL     1      -7.291  49.614 -24.349  1.00  0.00     0.211 HD
ENDBRANCH   4  44
BRANCH  16  46
HETATM   46  O5  UNL     1     -10.989  47.121 -21.652  1.00  0.00    -0.393 OA
HETATM   47  H36 UNL     1     -11.430  46.609 -20.938  1.00  0.00     0.210 HD
ENDBRANCH  16  46
BRANCH  17  48
HETATM   48  O6  UNL     1     -10.575  45.273 -19.909  1.00  0.00    -0.393 OA
HETATM   49  H38 UNL     1     -10.452  44.394 -19.503  1.00  0.00     0.210 HD
ENDBRANCH  17  48
TORSDOF 12
ENDMDL
MODEL 7
REMARK minimizedAffinity -8.23785114
REMARK CNNscore 0.531972885
REMARK CNNaffinity 6.45554209
REMARK  12 active torsions:
REMARK  status: ('A' for Active; 'I' for Inactive)
REMARK    1  A    between atoms: C2_2  and  C4_4 
REMARK    2  A    between atoms: C4_4  and  C6_6 
REMARK    3  A    between atoms: C7_8  and  C8_9 
REMARK    4  A    between atoms: C8_9  and  O2_11 
REMARK    5  A    between atoms: C8_9  and  C10_12 
REMARK    6  A    between atoms: C13_15  and  O3_16 
REMARK    7  A    between atoms: C24_28  and  O5_29 
REMARK    8  A    between atoms: C25_30  and  O6_31 
REMARK    9  A    between atoms: C29_35  and  C30_36 
REMARK   10  A    between atoms: C30_36  and  C31_37 
REMARK   11  A    between atoms: C31_37  and  C32_38 
REMARK   12  A    between atoms: C36_42  and  O7_43 
ROOT
HETATM    1  C10 UNL     1       0.968  68.677 -37.642  1.00  0.00     0.034 C 
HETATM    2  C11 UNL     1       0.665  67.502 -38.629  1.00  0.00     0.012 C 
HETATM    3  C12 UNL     1       1.700  66.393 -38.359  1.00  0.00     0.044 C 
HETATM    4  C13 UNL     1       2.350  66.825 -37.046  1.00  0.00     0.090 C 
HETATM    5  C14 UNL     1       3.626  66.219 -36.531  1.00  0.00    -0.037 C 
HETATM    6  C15 UNL     1       4.381  65.388 -37.261  1.00  0.00     0.057 C 
HETATM    7  C16 UNL     1       5.720  64.971 -36.814  1.00  0.00     0.155 C 
HETATM    8  O4  UNL     1       6.378  64.231 -37.544  1.00  0.00    -0.293 OA
HETATM    9  C17 UNL     1       6.269  65.513 -35.503  1.00  0.00     0.075 C 
HETATM   10  C18 UNL     1       7.200  64.475 -34.825  1.00  0.00     0.029 C 
HETATM   11  C19 UNL     1       7.747  64.997 -33.470  1.00  0.00     0.008 C 
HETATM   12  C20 UNL     1       7.432  66.463 -33.215  1.00  0.00     0.001 C 
HETATM   13  C21 UNL     1       5.948  66.818 -33.399  1.00  0.00     0.011 C 
HETATM   14  C22 UNL     1       5.202  65.942 -34.466  1.00  0.00    -0.019 C 
HETATM   15  C23 UNL     1       4.645  64.664 -33.702  1.00  0.00     0.045 C 
HETATM   16  C24 UNL     1       4.953  63.317 -34.361  1.00  0.00     0.148 C 
HETATM   17  C25 UNL     1       6.457  63.124 -34.665  1.00  0.00     0.151 C 
HETATM   18  C26 UNL     1       3.986  66.711 -35.129  1.00  0.00     0.027 C 
HETATM   19  C27 UNL     1       4.045  68.257 -35.136  1.00  0.00     0.011 C 
HETATM   20  C28 UNL     1       2.861  68.971 -35.833  1.00  0.00     0.014 C 
HETATM   21  C29 UNL     1       2.472  68.386 -37.210  1.00  0.00     0.002 C 
ENDROOT
BRANCH   1  22
HETATM   22  C8  UNL     1       0.515  70.066 -38.199  1.00  0.00     0.087 C 
HETATM   23  C9  UNL     1       1.716  70.948 -38.577  1.00  0.00     0.049 C 
BRANCH  22  24
HETATM   24  C7  UNL     1      -0.287  70.815 -37.138  1.00  0.00     0.185 A 
HETATM   25  C6  UNL     1      -1.810  70.772 -37.032  1.00  0.00     0.158 A 
HETATM   26  O1  UNL     1      -0.961  70.001 -36.169  1.00  0.00    -0.372 OA
BRANCH  25  27
HETATM   27  C4  UNL     1      -2.576  71.871 -36.327  1.00  0.00     0.017 C 
HETATM   28  C5  UNL     1      -1.998  72.064 -34.917  1.00  0.00     0.013 C 
BRANCH  27  29
HETATM   29  C2  UNL     1      -4.099  71.549 -36.279  1.00  0.00    -0.016 C 
HETATM   30  C1  UNL     1      -4.806  71.912 -37.592  1.00  0.00     0.010 C 
HETATM   31  C3  UNL     1      -4.806  72.269 -35.124  1.00  0.00     0.010 C 
ENDBRANCH  27  29
ENDBRANCH  25  27
ENDBRANCH  22  24
BRANCH  22  32
HETATM   32  O2  UNL     1      -0.279  69.886 -39.374  1.00  0.00    -0.387 OA
HETATM   33  H17 UNL     1      -0.474  70.763 -39.740  1.00  0.00     0.210 HD
ENDBRANCH  22  32
ENDBRANCH   1  22
BRANCH  21  34
HETATM   34  C30 UNL     1       3.432  68.893 -38.362  1.00  0.00     0.018 C 
BRANCH  34  35
HETATM   35  C31 UNL     1       3.614  68.160 -39.703  1.00  0.00     0.039 C 
BRANCH  35  36
HETATM   36  C32 UNL     1       3.369  68.899 -41.003  1.00  0.00    -0.056 A 
HETATM   37  C33 UNL     1       4.310  69.744 -41.607  1.00  0.00     0.007 A 
HETATM   38  C34 UNL     1       4.005  70.421 -42.794  1.00  0.00     0.003 A 
HETATM   39  C35 UNL     1       2.753  70.276 -43.389  1.00  0.00     0.036 A 
HETATM   40  C36 UNL     1       1.806  69.464 -42.781  1.00  0.00     0.066 A 
HETATM   41  C37 UNL     1       2.098  68.794 -41.597  1.00  0.00     0.043 A 
BRANCH  40  42
HETATM   42  O7  UNL     1       0.564  69.292 -43.318  1.00  0.00    -0.361 OA
HETATM   43  H51 UNL     1       0.501  69.830 -44.124  1.00  0.00     0.217 HD
ENDBRANCH  40  42
ENDBRANCH  35  36
ENDBRANCH  34  35
ENDBRANCH  21  34
BRANCH   4  44
HETATM   44  O3  UNL     1       1.369  66.510 -36.032  1.00  0.00    -0.384 OA
HETATM   45  H23 UNL     1       1.277  65.542 -36.009  1.00  0.00     0.211 HD
ENDBRANCH   4  44
BRANCH  16  46
HETATM   46  O5  UNL     1       4.476  62.261 -33.524  1.00  0.00    -0.393 OA
HETATM   47  H36 UNL     1       5.283  61.901 -33.094  1.00  0.00     0.210 HD
ENDBRANCH  16  46
BRANCH  17  48
HETATM   48  O6  UNL     1       7.047  62.309 -33.640  1.00  0.00    -0.393 OA
HETATM   49  H38 UNL     1       7.964  62.129 -33.920  1.00  0.00     0.210 HD
ENDBRANCH  17  48
TORSDOF 12
ENDMDL
MODEL 8
REMARK minimizedAffinity -10.3627253
REMARK CNNscore 0.520982325
REMARK CNNaffinity 7.37131834
REMARK  12 active torsions:
REMARK  status: ('A' for Active; 'I' for Inactive)
REMARK    1  A    between atoms: C2_2  and  C4_4 
REMARK    2  A    between atoms: C4_4  and  C6_6 
REMARK    3  A    between atoms: C7_8  and  C8_9 
REMARK    4  A    between atoms: C8_9  and  O2_11 
REMARK    5  A    between atoms: C8_9  and  C10_12 
REMARK    6  A    between atoms: C13_15  and  O3_16 
REMARK    7  A    between atoms: C24_28  and  O5_29 
REMARK    8  A    between atoms: C25_30  and  O6_31 
REMARK    9  A    between atoms: C29_35  and  C30_36 
REMARK   10  A    between atoms: C30_36  and  C31_37 
REMARK   11  A    between atoms: C31_37  and  C32_38 
REMARK   12  A    between atoms: C36_42  and  O7_43 
ROOT
HETATM    1  C10 UNL     1      -3.302  48.426 -21.167  1.00  0.00     0.034 C 
HETATM    2  C11 UNL     1      -1.866  48.263 -21.768  1.00  0.00     0.012 C 
HETATM    3  C12 UNL     1      -0.858  48.590 -20.649  1.00  0.00     0.044 C 
HETATM    4  C13 UNL     1      -1.721  48.622 -19.390  1.00  0.00     0.090 C 
HETATM    5  C14 UNL     1      -1.237  49.195 -18.086  1.00  0.00    -0.037 C 
HETATM    6  C15 UNL     1      -0.090  49.876 -17.973  1.00  0.00     0.057 C 
HETATM    7  C16 UNL     1       0.260  50.596 -16.738  1.00  0.00     0.155 C 
HETATM    8  O4  UNL     1       1.314  51.229 -16.708  1.00  0.00    -0.293 OA
HETATM    9  C17 UNL     1      -0.713  50.586 -15.570  1.00  0.00     0.075 C 
HETATM   10  C18 UNL     1       0.047  50.654 -14.220  1.00  0.00     0.029 C 
HETATM   11  C19 UNL     1      -0.928  50.614 -13.013  1.00  0.00     0.008 C 
HETATM   12  C20 UNL     1      -2.391  50.733 -13.413  1.00  0.00     0.001 C 
HETATM   13  C21 UNL     1      -2.814  49.747 -14.513  1.00  0.00     0.011 C 
HETATM   14  C22 UNL     1      -1.668  49.367 -15.516  1.00  0.00    -0.019 C 
HETATM   15  C23 UNL     1      -0.912  48.114 -14.894  1.00  0.00     0.045 C 
HETATM   16  C24 UNL     1       0.614  48.226 -14.842  1.00  0.00     0.148 C 
HETATM   17  C25 UNL     1       1.101  49.519 -14.149  1.00  0.00     0.151 C 
HETATM   18  C26 UNL     1      -2.228  48.970 -16.943  1.00  0.00     0.027 C 
HETATM   19  C27 UNL     1      -3.606  49.545 -17.349  1.00  0.00     0.011 C 
HETATM   20  C28 UNL     1      -4.098  49.172 -18.769  1.00  0.00     0.014 C 
HETATM   21  C29 UNL     1      -3.038  49.329 -19.883  1.00  0.00     0.002 C 
ENDROOT
BRANCH   1  22
HETATM   22  C8  UNL     1      -4.368  48.802 -22.247  1.00  0.00     0.087 C 
HETATM   23  C9  UNL     1      -5.256  47.601 -22.613  1.00  0.00     0.049 C 
BRANCH  22  24
HETATM   24  C7  UNL     1      -3.672  49.264 -23.525  1.00  0.00     0.185 A 
HETATM   25  C6  UNL     1      -3.828  48.571 -24.877  1.00  0.00     0.158 A 
HETATM   26  O1  UNL     1      -4.527  49.782 -24.553  1.00  0.00    -0.372 OA
BRANCH  25  27
HETATM   27  C4  UNL     1      -2.784  48.729 -25.961  1.00  0.00     0.017 C 
HETATM   28  C5  UNL     1      -1.992  50.022 -25.714  1.00  0.00     0.013 C 
BRANCH  27  29
HETATM   29  C2  UNL     1      -3.438  48.724 -27.374  1.00  0.00    -0.016 C 
HETATM   30  C1  UNL     1      -3.441  50.122 -28.012  1.00  0.00     0.010 C 
HETATM   31  C3  UNL     1      -4.878  48.194 -27.343  1.00  0.00     0.010 C 
ENDBRANCH  27  29
ENDBRANCH  25  27
ENDBRANCH  22  24
BRANCH  22  32
HETATM   32  O2  UNL     1      -5.220  49.839 -21.753  1.00  0.00    -0.387 OA
HETATM   33  H17 UNL     1      -5.918  49.990 -22.410  1.00  0.00     0.210 HD
ENDBRANCH  22  32
ENDBRANCH   1  22
BRANCH  21  34
HETATM   34  C30 UNL     1      -2.887  50.834 -20.350  1.00  0.00     0.018 C 
BRANCH  34  35
HETATM   35  C31 UNL     1      -2.054  51.268 -21.569  1.00  0.00     0.039 C 
BRANCH  35  36
HETATM   36  C32 UNL     1      -0.832  52.143 -21.371  1.00  0.00    -0.056 A 
HETATM   37  C33 UNL     1      -0.043  52.626 -22.424  1.00  0.00     0.007 A 
HETATM   38  C34 UNL     1       1.092  53.405 -22.168  1.00  0.00     0.003 A 
HETATM   39  C35 UNL     1       1.464  53.701 -20.858  1.00  0.00     0.036 A 
HETATM   40  C36 UNL     1       0.705  53.201 -19.810  1.00  0.00     0.066 A 
HETATM   41  C37 UNL     1      -0.420  52.421 -20.056  1.00  0.00     0.043 A 
BRANCH  40  42
HETATM   42  O7  UNL     1       1.029  53.457 -18.510  1.00  0.00    -0.361 OA
HETATM   43  H51 UNL     1       1.839  53.993 -18.495  1.00  0.00     0.217 HD
ENDBRANCH  40  42
ENDBRANCH  35  36
ENDBRANCH  34  35
ENDBRANCH  21  34
BRANCH   4  44
HETATM   44  O3  UNL     1      -1.988  47.232 -19.094  1.00  0.00    -0.384 OA
HETATM   45  H23 UNL     1      -1.139  46.819 -18.857  1.00  0.00     0.211 HD
ENDBRANCH   4  44
BRANCH  16  46
HETATM   46  O5  UNL     1       1.149  47.077 -14.181  1.00  0.00    -0.393 OA
HETATM   47  H36 UNL     1       1.390  47.396 -13.283  1.00  0.00     0.210 HD
ENDBRANCH  16  46
BRANCH  17  48
HETATM   48  O6  UNL     1       1.471  49.220 -12.794  1.00  0.00    -0.393 OA
HETATM   49  H38 UNL     1       1.864  50.034 -12.426  1.00  0.00     0.210 HD
ENDBRANCH  17  48
TORSDOF 12
ENDMDL
MODEL 9
REMARK minimizedAffinity -9.39665794
REMARK CNNscore 0.511071742
REMARK CNNaffinity 7.14030409
REMARK  12 active torsions:
REMARK  status: ('A' for Active; 'I' for Inactive)
REMARK    1  A    between atoms: C2_2  and  C4_4 
REMARK    2  A    between atoms: C4_4  and  C6_6 
REMARK    3  A    between atoms: C7_8  and  C8_9 
REMARK    4  A    between atoms: C8_9  and  O2_11 
REMARK    5  A    between atoms: C8_9  and  C10_12 
REMARK    6  A    between atoms: C13_15  and  O3_16 
REMARK    7  A    between atoms: C24_28  and  O5_29 
REMARK    8  A    between atoms: C25_30  and  O6_31 
REMARK    9  A    between atoms: C29_35  and  C30_36 
REMARK   10  A    between atoms: C30_36  and  C31_37 
REMARK   11  A    between atoms: C31_37  and  C32_38 
REMARK   12  A    between atoms: C36_42  and  O7_43 
ROOT
HETATM    1  C10 UNL     1      -4.037  50.201 -23.689  1.00  0.00     0.034 C 
HETATM    2  C11 UNL     1      -5.195  51.252 -23.741  1.00  0.00     0.012 C 
HETATM    3  C12 UNL     1      -6.370  50.684 -22.923  1.00  0.00     0.044 C 
HETATM    4  C13 UNL     1      -5.751  49.499 -22.186  1.00  0.00     0.090 C 
HETATM    5  C14 UNL     1      -6.577  48.449 -21.494  1.00  0.00    -0.037 C 
HETATM    6  C15 UNL     1      -7.908  48.373 -21.620  1.00  0.00     0.057 C 
HETATM    7  C16 UNL     1      -8.667  47.224 -21.101  1.00  0.00     0.155 C 
HETATM    8  O4  UNL     1      -9.884  47.198 -21.274  1.00  0.00    -0.293 OA
HETATM    9  C17 UNL     1      -7.920  46.084 -20.425  1.00  0.00     0.075 C 
HETATM   10  C18 UNL     1      -8.792  45.434 -19.320  1.00  0.00     0.029 C 
HETATM   11  C19 UNL     1      -8.036  44.287 -18.598  1.00  0.00     0.008 C 
HETATM   12  C20 UNL     1      -6.719  43.918 -19.262  1.00  0.00     0.001 C 
HETATM   13  C21 UNL     1      -5.800  45.121 -19.525  1.00  0.00     0.011 C 
HETATM   14  C22 UNL     1      -6.560  46.468 -19.792  1.00  0.00    -0.019 C 
HETATM   15  C23 UNL     1      -6.795  47.150 -18.376  1.00  0.00     0.045 C 
HETATM   16  C24 UNL     1      -8.225  47.625 -18.103  1.00  0.00     0.148 C 
HETATM   17  C25 UNL     1      -9.281  46.519 -18.326  1.00  0.00     0.151 C 
HETATM   18  C26 UNL     1      -5.724  47.457 -20.703  1.00  0.00     0.027 C 
HETATM   19  C27 UNL     1      -4.671  46.831 -21.649  1.00  0.00     0.011 C 
HETATM   20  C28 UNL     1      -3.907  47.825 -22.557  1.00  0.00     0.014 C 
HETATM   21  C29 UNL     1      -4.798  48.868 -23.269  1.00  0.00     0.002 C 
ENDROOT
BRANCH   1  22
HETATM   22  C8  UNL     1      -3.104  50.268 -24.943  1.00  0.00     0.087 C 
HETATM   23  C9  UNL     1      -2.876  48.878 -25.559  1.00  0.00     0.049 C 
BRANCH  22  24
HETATM   24  C7  UNL     1      -1.737  50.822 -24.544  1.00  0.00     0.185 A 
HETATM   25  C6  UNL     1      -1.071  52.016 -25.223  1.00  0.00     0.158 A 
HETATM   26  O1  UNL     1      -1.736  52.129 -23.956  1.00  0.00    -0.372 OA
BRANCH  25  27
HETATM   27  C4  UNL     1       0.428  52.217 -25.155  1.00  0.00     0.017 C 
HETATM   28  C5  UNL     1       0.725  53.560 -24.471  1.00  0.00     0.013 C 
BRANCH  27  29
HETATM   29  C2  UNL     1       1.066  52.148 -26.574  1.00  0.00    -0.016 C 
HETATM   30  C1  UNL     1       0.140  51.464 -27.589  1.00  0.00     0.010 C 
HETATM   31  C3  UNL     1       2.415  51.417 -26.567  1.00  0.00     0.010 C 
ENDBRANCH  27  29
ENDBRANCH  25  27
ENDBRANCH  22  24
BRANCH  22  32
HETATM   32  O2  UNL     1      -3.693  51.098 -25.947  1.00  0.00    -0.387 OA
HETATM   33  H17 UNL     1      -3.133  51.053 -26.738  1.00  0.00     0.210 HD
ENDBRANCH  22  32
ENDBRANCH   1  22
BRANCH  21  34
HETATM   34  C30 UNL     1      -5.504  48.267 -24.553  1.00  0.00     0.018 C 
BRANCH  34  35
HETATM   35  C31 UNL     1      -6.795  47.432 -24.503  1.00  0.00     0.039 C 
BRANCH  35  36
HETATM   36  C32 UNL     1      -7.794  47.523 -25.640  1.00  0.00    -0.056 A 
HETATM   37  C33 UNL     1      -7.648  46.847 -26.859  1.00  0.00     0.007 A 
HETATM   38  C34 UNL     1      -8.594  47.001 -27.879  1.00  0.00     0.003 A 
HETATM   39  C35 UNL     1      -9.692  47.840 -27.704  1.00  0.00     0.036 A 
HETATM   40  C36 UNL     1      -9.828  48.535 -26.510  1.00  0.00     0.066 A 
HETATM   41  C37 UNL     1      -8.888  48.394 -25.494  1.00  0.00     0.043 A 
BRANCH  40  42
HETATM   42  O7  UNL     1     -10.881  49.374 -26.290  1.00  0.00    -0.361 OA
HETATM   43  H51 UNL     1     -11.437  49.384 -27.086  1.00  0.00     0.217 HD
ENDBRANCH  40  42
ENDBRANCH  35  36
ENDBRANCH  34  35
ENDBRANCH  21  34
BRANCH   4  44
HETATM   44  O3  UNL     1      -4.969  50.095 -21.127  1.00  0.00    -0.384 OA
HETATM   45  H23 UNL     1      -5.591  50.527 -20.516  1.00  0.00     0.211 HD
ENDBRANCH   4  44
BRANCH  16  46
HETATM   46  O5  UNL     1      -8.308  48.130 -16.769  1.00  0.00    -0.393 OA
HETATM   47  H36 UNL     1      -8.763  47.421 -16.262  1.00  0.00     0.210 HD
ENDBRANCH  16  46
BRANCH  17  48
HETATM   48  O6  UNL     1      -9.650  45.953 -17.058  1.00  0.00    -0.393 OA
HETATM   49  H38 UNL     1     -10.384  45.335 -17.232  1.00  0.00     0.210 HD
ENDBRANCH  17  48
TORSDOF 12
ENDMDL
