MODEL 1
REMARK minimizedAffinity -8.92457581
REMARK  9 active torsions:
REMARK  status: ('A' for Active; 'I' for Inactive)
REMARK    1  A    between atoms: C2_2  and  C3_3 
REMARK    2  A    between atoms: C2_2  and  C9_11 
REMARK    3  A    between atoms: C3_3  and  C4_4 
REMARK    4  A    between atoms: C4_4  and  C5_5 
REMARK    5  A    between atoms: C5_5  and  O1_6 
REMARK    6  A    between atoms: C5_5  and  C6_7 
REMARK    7  A    between atoms: C6_7  and  O2_10 
REMARK    8  A    between atoms: C17_19  and  C18_20 
REMARK    9  A    between atoms: C18_20  and  O3_23 
ROOT
HETATM    1  C9  UNL     1      -3.701  50.704 -25.614  1.00  0.00    -0.002 C 
HETATM    2  C10 UNL     1      -3.804  52.223 -25.261  1.00  0.00     0.006 C 
HETATM    3  C11 UNL     1      -3.681  52.342 -23.724  1.00  0.00     0.011 C 
HETATM    4  C12 UNL     1      -3.884  50.903 -23.214  1.00  0.00    -0.032 C 
HETATM    5  C13 UNL     1      -5.433  50.667 -23.239  1.00  0.00     0.016 C 
HETATM    6  C14 UNL     1      -3.281  50.599 -21.810  1.00  0.00     0.003 C 
HETATM    7  C15 UNL     1      -3.774  51.519 -20.684  1.00  0.00     0.009 C 
HETATM    8  C16 UNL     1      -3.451  51.039 -19.270  1.00  0.00     0.042 C 
HETATM    9  C17 UNL     1      -2.294  50.016 -19.091  1.00  0.00     0.095 C 
HETATM   10  O4  UNL     1      -2.514  49.388 -17.787  1.00  0.00    -0.377 OA
HETATM   11  C21 UNL     1      -3.439  48.314 -17.772  1.00  0.00     0.169 C 
HETATM   12  C22 UNL     1      -2.878  47.120 -18.514  1.00  0.00     0.027 C 
HETATM   13  C23 UNL     1      -2.005  47.508 -19.699  1.00  0.00     0.010 C 
HETATM   14  C24 UNL     1      -2.205  48.941 -20.241  1.00  0.00     0.032 C 
HETATM   15  C25 UNL     1      -3.274  49.079 -21.416  1.00  0.00    -0.033 C 
HETATM   16  C26 UNL     1      -4.663  48.554 -20.993  1.00  0.00     0.016 C 
HETATM   17  C27 UNL     1      -2.812  48.185 -22.631  1.00  0.00     0.011 C 
HETATM   18  C28 UNL     1      -3.306  48.591 -24.038  1.00  0.00     0.011 C 
HETATM   19  C29 UNL     1      -3.086  50.089 -24.317  1.00  0.00    -0.032 C 
HETATM   20  C30 UNL     1      -1.548  50.335 -24.319  1.00  0.00     0.016 C 
ENDROOT
BRANCH   1  21
HETATM   21  C2  UNL     1      -3.151  50.443 -27.051  1.00  0.00    -0.014 C 
HETATM   22  C1  UNL     1      -1.790  51.060 -27.399  1.00  0.00     0.010 C 
BRANCH  21  23
HETATM   23  C3  UNL     1      -3.176  48.940 -27.402  1.00  0.00     0.007 C 
BRANCH  23  24
HETATM   24  C4  UNL     1      -4.550  48.243 -27.410  1.00  0.00     0.035 C 
BRANCH  24  25
HETATM   25  C5  UNL     1      -5.320  48.352 -28.741  1.00  0.00     0.151 C 
BRANCH  25  26
HETATM   26  O1  UNL     1      -4.562  47.703 -29.761  1.00  0.00    -0.393 OA
HETATM   27  H10 UNL     1      -4.920  47.973 -30.624  1.00  0.00     0.210 HD
ENDBRANCH  25  26
BRANCH  25  28
HETATM   28  C6  UNL     1      -6.761  47.756 -28.659  1.00  0.00     0.076 C 
HETATM   29  C7  UNL     1      -6.940  46.607 -29.661  1.00  0.00     0.048 C 
HETATM   30  C8  UNL     1      -7.106  47.250 -27.254  1.00  0.00     0.048 C 
BRANCH  28  31
HETATM   31  O2  UNL     1      -7.724  48.765 -28.995  1.00  0.00    -0.388 OA
HETATM   32  H17 UNL     1      -7.570  49.038 -29.915  1.00  0.00     0.210 HD
ENDBRANCH  28  31
ENDBRANCH  25  28
ENDBRANCH  24  25
ENDBRANCH  23  24
ENDBRANCH  21  23
ENDBRANCH   1  21
BRANCH   9  33
HETATM   33  C18 UNL     1      -0.904  50.772 -18.846  1.00  0.00     0.082 C 
HETATM   34  C19 UNL     1       0.016  50.880 -20.064  1.00  0.00     0.049 C 
HETATM   35  C20 UNL     1      -0.095  50.190 -17.674  1.00  0.00     0.049 C 
BRANCH  33  36
HETATM   36  O3  UNL     1      -1.206  52.131 -18.453  1.00  0.00    -0.388 OA
HETATM   37  H37 UNL     1      -1.945  52.040 -17.817  1.00  0.00     0.210 HD
ENDBRANCH  33  36
ENDBRANCH   9  33
TORSDOF 9
ENDMDL
MODEL 2
REMARK minimizedAffinity -8.90662289
REMARK  9 active torsions:
REMARK  status: ('A' for Active; 'I' for Inactive)
REMARK    1  A    between atoms: C2_2  and  C3_3 
REMARK    2  A    between atoms: C2_2  and  C9_11 
REMARK    3  A    between atoms: C3_3  and  C4_4 
REMARK    4  A    between atoms: C4_4  and  C5_5 
REMARK    5  A    between atoms: C5_5  and  O1_6 
REMARK    6  A    between atoms: C5_5  and  C6_7 
REMARK    7  A    between atoms: C6_7  and  O2_10 
REMARK    8  A    between atoms: C17_19  and  C18_20 
REMARK    9  A    between atoms: C18_20  and  O3_23 
ROOT
HETATM    1  C9  UNL     1      -1.346  51.345 -22.501  1.00  0.00    -0.002 C 
HETATM    2  C10 UNL     1      -2.669  51.963 -23.056  1.00  0.00     0.006 C 
HETATM    3  C11 UNL     1      -3.825  51.037 -22.612  1.00  0.00     0.011 C 
HETATM    4  C12 UNL     1      -3.123  49.747 -22.149  1.00  0.00    -0.032 C 
HETATM    5  C13 UNL     1      -2.779  48.966 -23.464  1.00  0.00     0.016 C 
HETATM    6  C14 UNL     1      -3.932  48.865 -21.153  1.00  0.00     0.003 C 
HETATM    7  C15 UNL     1      -5.319  48.434 -21.653  1.00  0.00     0.009 C 
HETATM    8  C16 UNL     1      -5.980  47.320 -20.841  1.00  0.00     0.042 C 
HETATM    9  C17 UNL     1      -5.486  47.081 -19.388  1.00  0.00     0.095 C 
HETATM   10  O4  UNL     1      -5.910  45.725 -19.038  1.00  0.00    -0.377 OA
HETATM   11  C21 UNL     1      -5.055  44.683 -19.478  1.00  0.00     0.169 C 
HETATM   12  C22 UNL     1      -3.744  44.718 -18.724  1.00  0.00     0.027 C 
HETATM   13  C23 UNL     1      -3.295  46.128 -18.369  1.00  0.00     0.010 C 
HETATM   14  C24 UNL     1      -3.930  47.265 -19.200  1.00  0.00     0.032 C 
HETATM   15  C25 UNL     1      -3.112  47.695 -20.500  1.00  0.00    -0.033 C 
HETATM   16  C26 UNL     1      -2.886  46.504 -21.456  1.00  0.00     0.016 C 
HETATM   17  C27 UNL     1      -1.681  48.189 -20.059  1.00  0.00     0.011 C 
HETATM   18  C28 UNL     1      -0.953  49.181 -20.995  1.00  0.00     0.011 C 
HETATM   19  C29 UNL     1      -1.859  50.355 -21.407  1.00  0.00    -0.032 C 
HETATM   20  C30 UNL     1      -2.191  51.157 -20.113  1.00  0.00     0.016 C 
ENDROOT
BRANCH   1  21
HETATM   21  C2  UNL     1      -0.225  52.404 -22.263  1.00  0.00    -0.014 C 
HETATM   22  C1  UNL     1       0.508  52.355 -20.916  1.00  0.00     0.010 C 
BRANCH  21  23
HETATM   23  C3  UNL     1       0.783  52.435 -23.433  1.00  0.00     0.007 C 
BRANCH  23  24
HETATM   24  C4  UNL     1       0.751  53.668 -24.356  1.00  0.00     0.035 C 
BRANCH  24  25
HETATM   25  C5  UNL     1       0.054  53.440 -25.712  1.00  0.00     0.151 C 
BRANCH  25  26
HETATM   26  O1  UNL     1       0.027  54.676 -26.424  1.00  0.00    -0.393 OA
HETATM   27  H10 UNL     1      -0.609  54.592 -27.155  1.00  0.00     0.210 HD
ENDBRANCH  25  26
BRANCH  25  28
HETATM   28  C6  UNL     1       0.737  52.325 -26.566  1.00  0.00     0.076 C 
HETATM   29  C7  UNL     1       0.242  50.932 -26.151  1.00  0.00     0.048 C 
HETATM   30  C8  UNL     1       0.500  52.512 -28.068  1.00  0.00     0.048 C 
BRANCH  28  31
HETATM   31  O2  UNL     1       2.156  52.352 -26.353  1.00  0.00    -0.388 OA
HETATM   32  H17 UNL     1       2.327  52.152 -25.418  1.00  0.00     0.210 HD
ENDBRANCH  28  31
ENDBRANCH  25  28
ENDBRANCH  24  25
ENDBRANCH  23  24
ENDBRANCH  21  23
ENDBRANCH   1  21
BRANCH   9  33
HETATM   33  C18 UNL     1      -6.337  47.955 -18.350  1.00  0.00     0.082 C 
HETATM   34  C19 UNL     1      -7.060  47.168 -17.256  1.00  0.00     0.049 C 
HETATM   35  C20 UNL     1      -7.353  48.888 -19.034  1.00  0.00     0.049 C 
BRANCH  33  36
HETATM   36  O3  UNL     1      -5.420  48.840 -17.666  1.00  0.00    -0.388 OA
HETATM   37  H37 UNL     1      -4.834  49.176 -18.374  1.00  0.00     0.210 HD
ENDBRANCH  33  36
ENDBRANCH   9  33
TORSDOF 9
ENDMDL
MODEL 3
REMARK minimizedAffinity -8.89710903
REMARK  9 active torsions:
REMARK  status: ('A' for Active; 'I' for Inactive)
REMARK    1  A    between atoms: C2_2  and  C3_3 
REMARK    2  A    between atoms: C2_2  and  C9_11 
REMARK    3  A    between atoms: C3_3  and  C4_4 
REMARK    4  A    between atoms: C4_4  and  C5_5 
REMARK    5  A    between atoms: C5_5  and  O1_6 
REMARK    6  A    between atoms: C5_5  and  C6_7 
REMARK    7  A    between atoms: C6_7  and  O2_10 
REMARK    8  A    between atoms: C17_19  and  C18_20 
REMARK    9  A    between atoms: C18_20  and  O3_23 
ROOT
HETATM    1  C9  UNL     1      -3.676  50.605 -25.384  1.00  0.00    -0.002 C 
HETATM    2  C10 UNL     1      -3.824  52.109 -24.989  1.00  0.00     0.006 C 
HETATM    3  C11 UNL     1      -3.774  52.181 -23.445  1.00  0.00     0.011 C 
HETATM    4  C12 UNL     1      -3.972  50.723 -22.990  1.00  0.00    -0.032 C 
HETATM    5  C13 UNL     1      -5.514  50.461 -23.095  1.00  0.00     0.016 C 
HETATM    6  C14 UNL     1      -3.429  50.385 -21.570  1.00  0.00     0.003 C 
HETATM    7  C15 UNL     1      -3.991  51.260 -20.440  1.00  0.00     0.009 C 
HETATM    8  C16 UNL     1      -3.724  50.739 -19.028  1.00  0.00     0.042 C 
HETATM    9  C17 UNL     1      -2.557  49.733 -18.827  1.00  0.00     0.095 C 
HETATM   10  O4  UNL     1      -2.824  49.059 -17.555  1.00  0.00    -0.377 OA
HETATM   11  C21 UNL     1      -3.728  47.968 -17.617  1.00  0.00     0.169 C 
HETATM   12  C22 UNL     1      -3.111  46.810 -18.369  1.00  0.00     0.027 C 
HETATM   13  C23 UNL     1      -2.192  47.251 -19.499  1.00  0.00     0.010 C 
HETATM   14  C24 UNL     1      -2.394  48.696 -20.005  1.00  0.00     0.032 C 
HETATM   15  C25 UNL     1      -3.411  48.853 -21.224  1.00  0.00    -0.033 C 
HETATM   16  C26 UNL     1      -4.808  48.291 -20.882  1.00  0.00     0.016 C 
HETATM   17  C27 UNL     1      -2.876  48.008 -22.443  1.00  0.00     0.011 C 
HETATM   18  C28 UNL     1      -3.313  48.450 -23.859  1.00  0.00     0.011 C 
HETATM   19  C29 UNL     1      -3.109  49.959 -24.080  1.00  0.00    -0.032 C 
HETATM   20  C30 UNL     1      -1.578  50.233 -24.002  1.00  0.00     0.016 C 
ENDROOT
BRANCH   1  21
HETATM   21  C2  UNL     1      -3.055  50.400 -26.801  1.00  0.00    -0.014 C 
HETATM   22  C1  UNL     1      -3.773  49.426 -27.744  1.00  0.00     0.010 C 
BRANCH  21  23
HETATM   23  C3  UNL     1      -2.792  51.749 -27.505  1.00  0.00     0.007 C 
BRANCH  23  24
HETATM   24  C4  UNL     1      -1.532  52.528 -27.084  1.00  0.00     0.035 C 
BRANCH  24  25
HETATM   25  C5  UNL     1      -0.300  52.294 -27.980  1.00  0.00     0.151 C 
BRANCH  25  26
HETATM   26  O1  UNL     1      -0.123  53.435 -28.819  1.00  0.00    -0.393 OA
HETATM   27  H10 UNL     1       0.491  53.195 -29.534  1.00  0.00     0.210 HD
ENDBRANCH  25  26
BRANCH  25  28
HETATM   28  C6  UNL     1       0.999  52.003 -27.163  1.00  0.00     0.076 C 
HETATM   29  C7  UNL     1       0.837  50.742 -26.301  1.00  0.00     0.048 C 
HETATM   30  C8  UNL     1       2.229  51.838 -28.061  1.00  0.00     0.048 C 
BRANCH  28  31
HETATM   31  O2  UNL     1       1.266  53.094 -26.271  1.00  0.00    -0.388 OA
HETATM   32  H17 UNL     1       0.530  53.159 -25.640  1.00  0.00     0.210 HD
ENDBRANCH  28  31
ENDBRANCH  25  28
ENDBRANCH  24  25
ENDBRANCH  23  24
ENDBRANCH  21  23
ENDBRANCH   1  21
BRANCH   9  33
HETATM   33  C18 UNL     1      -1.194  50.505 -18.495  1.00  0.00     0.082 C 
HETATM   34  C19 UNL     1      -0.275  50.772 -19.688  1.00  0.00     0.049 C 
HETATM   35  C20 UNL     1      -0.370  49.829 -17.385  1.00  0.00     0.049 C 
BRANCH  33  36
HETATM   36  O3  UNL     1      -1.544  51.803 -17.963  1.00  0.00    -0.388 OA
HETATM   37  H37 UNL     1      -2.282  51.620 -17.344  1.00  0.00     0.210 HD
ENDBRANCH  33  36
ENDBRANCH   9  33
TORSDOF 9
ENDMDL
MODEL 4
REMARK minimizedAffinity -8.60791302
REMARK  9 active torsions:
REMARK  status: ('A' for Active; 'I' for Inactive)
REMARK    1  A    between atoms: C2_2  and  C3_3 
REMARK    2  A    between atoms: C2_2  and  C9_11 
REMARK    3  A    between atoms: C3_3  and  C4_4 
REMARK    4  A    between atoms: C4_4  and  C5_5 
REMARK    5  A    between atoms: C5_5  and  O1_6 
REMARK    6  A    between atoms: C5_5  and  C6_7 
REMARK    7  A    between atoms: C6_7  and  O2_10 
REMARK    8  A    between atoms: C17_19  and  C18_20 
REMARK    9  A    between atoms: C18_20  and  O3_23 
ROOT
HETATM    1  C9  UNL     1      -1.274  50.686 -22.197  1.00  0.00    -0.002 C 
HETATM    2  C10 UNL     1      -1.575  50.118 -23.622  1.00  0.00     0.006 C 
HETATM    3  C11 UNL     1      -2.759  49.134 -23.478  1.00  0.00     0.011 C 
HETATM    4  C12 UNL     1      -2.861  48.881 -21.962  1.00  0.00    -0.032 C 
HETATM    5  C13 UNL     1      -1.737  47.838 -21.638  1.00  0.00     0.016 C 
HETATM    6  C14 UNL     1      -4.253  48.399 -21.456  1.00  0.00     0.003 C 
HETATM    7  C15 UNL     1      -4.780  47.125 -22.132  1.00  0.00     0.009 C 
HETATM    8  C16 UNL     1      -5.968  46.468 -21.433  1.00  0.00     0.042 C 
HETATM    9  C17 UNL     1      -6.823  47.337 -20.470  1.00  0.00     0.095 C 
HETATM   10  O4  UNL     1      -7.542  46.394 -19.611  1.00  0.00    -0.377 OA
HETATM   11  C21 UNL     1      -6.816  45.906 -18.494  1.00  0.00     0.169 C 
HETATM   12  C22 UNL     1      -6.587  47.012 -17.487  1.00  0.00     0.027 C 
HETATM   13  C23 UNL     1      -6.392  48.377 -18.129  1.00  0.00     0.010 C 
HETATM   14  C24 UNL     1      -5.984  48.367 -19.619  1.00  0.00     0.032 C 
HETATM   15  C25 UNL     1      -4.413  48.389 -19.894  1.00  0.00    -0.033 C 
HETATM   16  C26 UNL     1      -3.696  47.200 -19.217  1.00  0.00     0.016 C 
HETATM   17  C27 UNL     1      -3.805  49.697 -19.257  1.00  0.00     0.011 C 
HETATM   18  C28 UNL     1      -2.495  50.242 -19.871  1.00  0.00     0.011 C 
HETATM   19  C29 UNL     1      -2.573  50.338 -21.405  1.00  0.00    -0.032 C 
HETATM   20  C30 UNL     1      -3.671  51.390 -21.744  1.00  0.00     0.016 C 
ENDROOT
BRANCH   1  21
HETATM   21  C2  UNL     1      -0.621  52.104 -22.226  1.00  0.00    -0.014 C 
HETATM   22  C1  UNL     1       0.868  52.194 -21.868  1.00  0.00     0.010 C 
BRANCH  21  23
HETATM   23  C3  UNL     1      -0.909  52.832 -23.557  1.00  0.00     0.007 C 
BRANCH  23  24
HETATM   24  C4  UNL     1       0.299  53.153 -24.458  1.00  0.00     0.035 C 
BRANCH  24  25
HETATM   25  C5  UNL     1      -0.020  53.214 -25.965  1.00  0.00     0.151 C 
BRANCH  25  26
HETATM   26  O1  UNL     1       0.190  54.550 -26.422  1.00  0.00    -0.393 OA
HETATM   27  H10 UNL     1      -0.231  54.643 -27.293  1.00  0.00     0.210 HD
ENDBRANCH  25  26
BRANCH  25  28
HETATM   28  C6  UNL     1       0.824  52.204 -26.806  1.00  0.00     0.076 C 
HETATM   29  C7  UNL     1       0.461  50.755 -26.454  1.00  0.00     0.048 C 
HETATM   30  C8  UNL     1       0.649  52.410 -28.314  1.00  0.00     0.048 C 
BRANCH  28  31
HETATM   31  O2  UNL     1       2.218  52.375 -26.513  1.00  0.00    -0.388 OA
HETATM   32  H17 UNL     1       2.360  52.167 -25.574  1.00  0.00     0.210 HD
ENDBRANCH  28  31
ENDBRANCH  25  28
ENDBRANCH  24  25
ENDBRANCH  23  24
ENDBRANCH  21  23
ENDBRANCH   1  21
BRANCH   9  33
HETATM   33  C18 UNL     1      -8.033  48.031 -21.257  1.00  0.00     0.082 C 
HETATM   34  C19 UNL     1      -8.661  47.198 -22.376  1.00  0.00     0.049 C 
HETATM   35  C20 UNL     1      -7.673  49.416 -21.822  1.00  0.00     0.049 C 
BRANCH  33  36
HETATM   36  O3  UNL     1      -9.091  48.280 -20.303  1.00  0.00    -0.388 OA
HETATM   37  H37 UNL     1      -8.628  48.627 -19.513  1.00  0.00     0.210 HD
ENDBRANCH  33  36
ENDBRANCH   9  33
TORSDOF 9
ENDMDL
MODEL 5
REMARK minimizedAffinity -8.50512314
REMARK  9 active torsions:
REMARK  status: ('A' for Active; 'I' for Inactive)
REMARK    1  A    between atoms: C2_2  and  C3_3 
REMARK    2  A    between atoms: C2_2  and  C9_11 
REMARK    3  A    between atoms: C3_3  and  C4_4 
REMARK    4  A    between atoms: C4_4  and  C5_5 
REMARK    5  A    between atoms: C5_5  and  O1_6 
REMARK    6  A    between atoms: C5_5  and  C6_7 
REMARK    7  A    between atoms: C6_7  and  O2_10 
REMARK    8  A    between atoms: C17_19  and  C18_20 
REMARK    9  A    between atoms: C18_20  and  O3_23 
ROOT
HETATM    1  C9  UNL     1      -1.676  51.784 -21.684  1.00  0.00    -0.002 C 
HETATM    2  C10 UNL     1      -1.425  51.543 -20.160  1.00  0.00     0.006 C 
HETATM    3  C11 UNL     1      -2.456  50.490 -19.692  1.00  0.00     0.011 C 
HETATM    4  C12 UNL     1      -3.488  50.433 -20.834  1.00  0.00    -0.032 C 
HETATM    5  C13 UNL     1      -4.413  51.680 -20.619  1.00  0.00     0.016 C 
HETATM    6  C14 UNL     1      -4.313  49.116 -20.925  1.00  0.00     0.003 C 
HETATM    7  C15 UNL     1      -5.078  48.744 -19.647  1.00  0.00     0.009 C 
HETATM    8  C16 UNL     1      -6.132  47.651 -19.821  1.00  0.00     0.042 C 
HETATM    9  C17 UNL     1      -6.011  46.705 -21.047  1.00  0.00     0.095 C 
HETATM   10  O4  UNL     1      -7.338  46.116 -21.232  1.00  0.00    -0.377 OA
HETATM   11  C21 UNL     1      -8.264  46.906 -21.959  1.00  0.00     0.169 C 
HETATM   12  C22 UNL     1      -7.850  47.007 -23.411  1.00  0.00     0.027 C 
HETATM   13  C23 UNL     1      -6.340  47.027 -23.603  1.00  0.00     0.010 C 
HETATM   14  C24 UNL     1      -5.509  47.419 -22.361  1.00  0.00     0.032 C 
HETATM   15  C25 UNL     1      -5.173  48.972 -22.232  1.00  0.00    -0.033 C 
HETATM   16  C26 UNL     1      -6.453  49.837 -22.215  1.00  0.00     0.016 C 
HETATM   17  C27 UNL     1      -4.350  49.421 -23.499  1.00  0.00     0.011 C 
HETATM   18  C28 UNL     1      -3.423  50.649 -23.345  1.00  0.00     0.011 C 
HETATM   19  C29 UNL     1      -2.532  50.545 -22.094  1.00  0.00    -0.032 C 
HETATM   20  C30 UNL     1      -1.588  49.323 -22.302  1.00  0.00     0.016 C 
ENDROOT
BRANCH   1  21
HETATM   21  C2  UNL     1      -0.400  52.257 -22.449  1.00  0.00    -0.014 C 
HETATM   22  C1  UNL     1       0.956  51.954 -21.799  1.00  0.00     0.010 C 
BRANCH  21  23
HETATM   23  C3  UNL     1      -0.417  51.791 -23.921  1.00  0.00     0.007 C 
BRANCH  23  24
HETATM   24  C4  UNL     1       0.488  52.551 -24.909  1.00  0.00     0.035 C 
BRANCH  24  25
HETATM   25  C5  UNL     1      -0.255  53.211 -26.087  1.00  0.00     0.151 C 
BRANCH  25  26
HETATM   26  O1  UNL     1       0.232  54.543 -26.246  1.00  0.00    -0.393 OA
HETATM   27  H10 UNL     1      -0.388  55.028 -26.816  1.00  0.00     0.210 HD
ENDBRANCH  25  26
BRANCH  25  28
HETATM   28  C6  UNL     1      -0.113  52.409 -27.420  1.00  0.00     0.076 C 
HETATM   29  C7  UNL     1       1.296  51.817 -27.561  1.00  0.00     0.048 C 
HETATM   30  C8  UNL     1      -1.143  51.280 -27.535  1.00  0.00     0.048 C 
BRANCH  28  31
HETATM   31  O2  UNL     1      -0.318  53.286 -28.538  1.00  0.00    -0.388 OA
HETATM   32  H17 UNL     1       0.380  53.962 -28.525  1.00  0.00     0.210 HD
ENDBRANCH  28  31
ENDBRANCH  25  28
ENDBRANCH  24  25
ENDBRANCH  23  24
ENDBRANCH  21  23
ENDBRANCH   1  21
BRANCH   9  33
HETATM   33  C18 UNL     1      -5.141  45.412 -20.679  1.00  0.00     0.082 C 
HETATM   34  C19 UNL     1      -5.355  44.844 -19.276  1.00  0.00     0.049 C 
HETATM   35  C20 UNL     1      -3.631  45.615 -20.899  1.00  0.00     0.049 C 
BRANCH  33  36
HETATM   36  O3  UNL     1      -5.512  44.358 -21.597  1.00  0.00    -0.388 OA
HETATM   37  H37 UNL     1      -5.565  44.802 -22.468  1.00  0.00     0.210 HD
ENDBRANCH  33  36
ENDBRANCH   9  33
TORSDOF 9
ENDMDL
MODEL 6
REMARK minimizedAffinity -8.47922802
REMARK  9 active torsions:
REMARK  status: ('A' for Active; 'I' for Inactive)
REMARK    1  A    between atoms: C2_2  and  C3_3 
REMARK    2  A    between atoms: C2_2  and  C9_11 
REMARK    3  A    between atoms: C3_3  and  C4_4 
REMARK    4  A    between atoms: C4_4  and  C5_5 
REMARK    5  A    between atoms: C5_5  and  O1_6 
REMARK    6  A    between atoms: C5_5  and  C6_7 
REMARK    7  A    between atoms: C6_7  and  O2_10 
REMARK    8  A    between atoms: C17_19  and  C18_20 
REMARK    9  A    between atoms: C18_20  and  O3_23 
ROOT
HETATM    1  C9  UNL     1      -0.775  51.597 -22.292  1.00  0.00    -0.002 C 
HETATM    2  C10 UNL     1      -0.544  50.756 -23.588  1.00  0.00     0.006 C 
HETATM    3  C11 UNL     1      -1.710  49.744 -23.687  1.00  0.00     0.011 C 
HETATM    4  C12 UNL     1      -2.358  49.773 -22.290  1.00  0.00    -0.032 C 
HETATM    5  C13 UNL     1      -1.438  48.881 -21.387  1.00  0.00     0.016 C 
HETATM    6  C14 UNL     1      -3.843  49.308 -22.231  1.00  0.00     0.003 C 
HETATM    7  C15 UNL     1      -4.101  47.900 -22.787  1.00  0.00     0.009 C 
HETATM    8  C16 UNL     1      -5.469  47.312 -22.444  1.00  0.00     0.042 C 
HETATM    9  C17 UNL     1      -6.606  48.290 -22.041  1.00  0.00     0.095 C 
HETATM   10  O4  UNL     1      -7.597  47.481 -21.328  1.00  0.00    -0.377 OA
HETATM   11  C21 UNL     1      -7.330  47.257 -19.954  1.00  0.00     0.169 C 
HETATM   12  C22 UNL     1      -7.472  48.543 -19.169  1.00  0.00     0.027 C 
HETATM   13  C23 UNL     1      -7.043  49.774 -19.955  1.00  0.00     0.010 C 
HETATM   14  C24 UNL     1      -6.123  49.511 -21.167  1.00  0.00     0.032 C 
HETATM   15  C25 UNL     1      -4.559  49.580 -20.860  1.00  0.00    -0.033 C 
HETATM   16  C26 UNL     1      -4.148  48.585 -19.752  1.00  0.00     0.016 C 
HETATM   17  C27 UNL     1      -4.211  51.019 -20.318  1.00  0.00     0.011 C 
HETATM   18  C28 UNL     1      -2.762  51.520 -20.517  1.00  0.00     0.011 C 
HETATM   19  C29 UNL     1      -2.277  51.323 -21.965  1.00  0.00    -0.032 C 
HETATM   20  C30 UNL     1      -3.167  52.223 -22.873  1.00  0.00     0.016 C 
ENDROOT
BRANCH   1  21
HETATM   21  C2  UNL     1      -0.143  53.023 -22.364  1.00  0.00    -0.014 C 
HETATM   22  C1  UNL     1       0.778  53.437 -21.209  1.00  0.00     0.010 C 
BRANCH  21  23
HETATM   23  C3  UNL     1       0.543  53.270 -23.725  1.00  0.00     0.007 C 
BRANCH  23  24
HETATM   24  C4  UNL     1      -0.339  53.806 -24.869  1.00  0.00     0.035 C 
BRANCH  24  25
HETATM   25  C5  UNL     1       0.216  53.552 -26.284  1.00  0.00     0.151 C 
BRANCH  25  26
HETATM   26  O1  UNL     1       1.390  52.747 -26.176  1.00  0.00    -0.393 OA
HETATM   27  H10 UNL     1       1.865  52.787 -27.023  1.00  0.00     0.210 HD
ENDBRANCH  25  26
BRANCH  25  28
HETATM   28  C6  UNL     1      -0.826  52.883 -27.235  1.00  0.00     0.076 C 
HETATM   29  C7  UNL     1      -0.185  51.749 -28.046  1.00  0.00     0.048 C 
HETATM   30  C8  UNL     1      -2.039  52.332 -26.478  1.00  0.00     0.048 C 
BRANCH  28  31
HETATM   31  O2  UNL     1      -1.316  53.851 -28.174  1.00  0.00    -0.388 OA
HETATM   32  H17 UNL     1      -0.570  54.150 -28.720  1.00  0.00     0.210 HD
ENDBRANCH  28  31
ENDBRANCH  25  28
ENDBRANCH  24  25
ENDBRANCH  23  24
ENDBRANCH  21  23
ENDBRANCH   1  21
BRANCH   9  33
HETATM   33  C18 UNL     1      -7.441  48.748 -23.329  1.00  0.00     0.082 C 
HETATM   34  C19 UNL     1      -8.824  48.114 -23.483  1.00  0.00     0.049 C 
HETATM   35  C20 UNL     1      -6.670  48.566 -24.648  1.00  0.00     0.049 C 
BRANCH  33  36
HETATM   36  O3  UNL     1      -7.666  50.173 -23.221  1.00  0.00    -0.388 OA
HETATM   37  H37 UNL     1      -6.805  50.532 -22.921  1.00  0.00     0.210 HD
ENDBRANCH  33  36
ENDBRANCH   9  33
TORSDOF 9
ENDMDL
MODEL 7
REMARK minimizedAffinity -8.4491415
REMARK  9 active torsions:
REMARK  status: ('A' for Active; 'I' for Inactive)
REMARK    1  A    between atoms: C2_2  and  C3_3 
REMARK    2  A    between atoms: C2_2  and  C9_11 
REMARK    3  A    between atoms: C3_3  and  C4_4 
REMARK    4  A    between atoms: C4_4  and  C5_5 
REMARK    5  A    between atoms: C5_5  and  O1_6 
REMARK    6  A    between atoms: C5_5  and  C6_7 
REMARK    7  A    between atoms: C6_7  and  O2_10 
REMARK    8  A    between atoms: C17_19  and  C18_20 
REMARK    9  A    between atoms: C18_20  and  O3_23 
ROOT
HETATM    1  C9  UNL     1      -2.234  51.578 -23.277  1.00  0.00    -0.002 C 
HETATM    2  C10 UNL     1      -3.210  52.750 -22.936  1.00  0.00     0.006 C 
HETATM    3  C11 UNL     1      -4.540  52.112 -22.471  1.00  0.00     0.011 C 
HETATM    4  C12 UNL     1      -4.427  50.638 -22.904  1.00  0.00    -0.032 C 
HETATM    5  C13 UNL     1      -4.762  50.627 -24.435  1.00  0.00     0.016 C 
HETATM    6  C14 UNL     1      -5.322  49.638 -22.115  1.00  0.00     0.003 C 
HETATM    7  C15 UNL     1      -6.822  49.967 -22.127  1.00  0.00     0.009 C 
HETATM    8  C16 UNL     1      -7.734  48.840 -21.642  1.00  0.00     0.042 C 
HETATM    9  C17 UNL     1      -7.113  47.726 -20.755  1.00  0.00     0.095 C 
HETATM   10  O4  UNL     1      -8.028  46.587 -20.844  1.00  0.00    -0.377 OA
HETATM   11  C21 UNL     1      -7.858  45.751 -21.976  1.00  0.00     0.169 C 
HETATM   12  C22 UNL     1      -6.551  44.994 -21.885  1.00  0.00     0.027 C 
HETATM   13  C23 UNL     1      -5.443  45.790 -21.210  1.00  0.00     0.010 C 
HETATM   14  C24 UNL     1      -5.645  47.320 -21.168  1.00  0.00     0.032 C 
HETATM   15  C25 UNL     1      -5.013  48.123 -22.392  1.00  0.00    -0.033 C 
HETATM   16  C26 UNL     1      -5.563  47.629 -23.748  1.00  0.00     0.016 C 
HETATM   17  C27 UNL     1      -3.458  47.863 -22.421  1.00  0.00     0.011 C 
HETATM   18  C28 UNL     1      -2.570  48.941 -23.083  1.00  0.00     0.011 C 
HETATM   19  C29 UNL     1      -2.902  50.355 -22.573  1.00  0.00    -0.032 C 
HETATM   20  C30 UNL     1      -2.551  50.389 -21.055  1.00  0.00     0.016 C 
ENDROOT
BRANCH   1  21
HETATM   21  C2  UNL     1      -0.730  51.965 -23.116  1.00  0.00    -0.014 C 
HETATM   22  C1  UNL     1      -0.030  51.522 -21.824  1.00  0.00     0.010 C 
BRANCH  21  23
HETATM   23  C3  UNL     1       0.096  51.554 -24.354  1.00  0.00     0.007 C 
BRANCH  23  24
HETATM   24  C4  UNL     1       0.731  52.688 -25.182  1.00  0.00     0.035 C 
BRANCH  24  25
HETATM   25  C5  UNL     1      -0.188  53.287 -26.265  1.00  0.00     0.151 C 
BRANCH  25  26
HETATM   26  O1  UNL     1       0.204  54.639 -26.499  1.00  0.00    -0.393 OA
HETATM   27  H10 UNL     1      -0.508  55.082 -26.991  1.00  0.00     0.210 HD
ENDBRANCH  25  26
BRANCH  25  28
HETATM   28  C6  UNL     1      -0.173  52.470 -27.596  1.00  0.00     0.076 C 
HETATM   29  C7  UNL     1       1.209  51.848 -27.845  1.00  0.00     0.048 C 
HETATM   30  C8  UNL     1      -1.229  51.360 -27.612  1.00  0.00     0.048 C 
BRANCH  28  31
HETATM   31  O2  UNL     1      -0.453  53.339 -28.702  1.00  0.00    -0.388 OA
HETATM   32  H17 UNL     1       0.256  54.001 -28.755  1.00  0.00     0.210 HD
ENDBRANCH  28  31
ENDBRANCH  25  28
ENDBRANCH  24  25
ENDBRANCH  23  24
ENDBRANCH  21  23
ENDBRANCH   1  21
BRANCH   9  33
HETATM   33  C18 UNL     1      -7.232  48.106 -19.204  1.00  0.00     0.082 C 
HETATM   34  C19 UNL     1      -5.948  48.612 -18.544  1.00  0.00     0.049 C 
HETATM   35  C20 UNL     1      -7.808  46.968 -18.343  1.00  0.00     0.049 C 
BRANCH  33  36
HETATM   36  O3  UNL     1      -8.190  49.183 -19.089  1.00  0.00    -0.388 OA
HETATM   37  H37 UNL     1      -8.920  48.923 -19.688  1.00  0.00     0.210 HD
ENDBRANCH  33  36
ENDBRANCH   9  33
TORSDOF 9
ENDMDL
MODEL 8
REMARK minimizedAffinity -8.31760979
REMARK  9 active torsions:
REMARK  status: ('A' for Active; 'I' for Inactive)
REMARK    1  A    between atoms: C2_2  and  C3_3 
REMARK    2  A    between atoms: C2_2  and  C9_11 
REMARK    3  A    between atoms: C3_3  and  C4_4 
REMARK    4  A    between atoms: C4_4  and  C5_5 
REMARK    5  A    between atoms: C5_5  and  O1_6 
REMARK    6  A    between atoms: C5_5  and  C6_7 
REMARK    7  A    between atoms: C6_7  and  O2_10 
REMARK    8  A    between atoms: C17_19  and  C18_20 
REMARK    9  A    between atoms: C18_20  and  O3_23 
ROOT
HETATM    1  C9  UNL     1      -1.359  51.888 -21.201  1.00  0.00    -0.002 C 
HETATM    2  C10 UNL     1      -1.544  52.436 -19.749  1.00  0.00     0.006 C 
HETATM    3  C11 UNL     1      -2.435  51.425 -18.992  1.00  0.00     0.011 C 
HETATM    4  C12 UNL     1      -3.034  50.541 -20.102  1.00  0.00    -0.032 C 
HETATM    5  C13 UNL     1      -4.212  51.378 -20.711  1.00  0.00     0.016 C 
HETATM    6  C14 UNL     1      -3.510  49.129 -19.649  1.00  0.00     0.003 C 
HETATM    7  C15 UNL     1      -4.539  49.130 -18.509  1.00  0.00     0.009 C 
HETATM    8  C16 UNL     1      -5.247  47.796 -18.278  1.00  0.00     0.042 C 
HETATM    9  C17 UNL     1      -4.568  46.504 -18.812  1.00  0.00     0.095 C 
HETATM   10  O4  UNL     1      -5.629  45.498 -18.893  1.00  0.00    -0.377 OA
HETATM   11  C21 UNL     1      -6.426  45.540 -20.064  1.00  0.00     0.169 C 
HETATM   12  C22 UNL     1      -5.616  45.121 -21.272  1.00  0.00     0.027 C 
HETATM   13  C23 UNL     1      -4.156  45.544 -21.190  1.00  0.00     0.010 C 
HETATM   14  C24 UNL     1      -3.842  46.688 -20.201  1.00  0.00     0.032 C 
HETATM   15  C25 UNL     1      -3.881  48.155 -20.824  1.00  0.00    -0.033 C 
HETATM   16  C26 UNL     1      -5.251  48.470 -21.465  1.00  0.00     0.016 C 
HETATM   17  C27 UNL     1      -2.816  48.242 -21.984  1.00  0.00     0.011 C 
HETATM   18  C28 UNL     1      -2.247  49.640 -22.321  1.00  0.00     0.011 C 
HETATM   19  C29 UNL     1      -1.781  50.392 -21.062  1.00  0.00    -0.032 C 
HETATM   20  C30 UNL     1      -0.594  49.584 -20.458  1.00  0.00     0.016 C 
ENDROOT
BRANCH   1  21
HETATM   21  C2  UNL     1      -0.032  52.363 -21.873  1.00  0.00    -0.014 C 
HETATM   22  C1  UNL     1       1.280  51.957 -21.190  1.00  0.00     0.010 C 
BRANCH  21  23
HETATM   23  C3  UNL     1       0.000  52.009 -23.376  1.00  0.00     0.007 C 
BRANCH  23  24
HETATM   24  C4  UNL     1       0.709  53.002 -24.317  1.00  0.00     0.035 C 
BRANCH  24  25
HETATM   25  C5  UNL     1       0.049  53.161 -25.700  1.00  0.00     0.151 C 
BRANCH  25  26
HETATM   26  O1  UNL     1       0.142  54.530 -26.096  1.00  0.00    -0.393 OA
HETATM   27  H10 UNL     1      -0.470  54.675 -26.837  1.00  0.00     0.210 HD
ENDBRANCH  25  26
BRANCH  25  28
HETATM   28  C6  UNL     1       0.679  52.230 -26.784  1.00  0.00     0.076 C 
HETATM   29  C7  UNL     1       0.202  50.781 -26.610  1.00  0.00     0.048 C 
HETATM   30  C8  UNL     1       0.359  52.692 -28.209  1.00  0.00     0.048 C 
BRANCH  28  31
HETATM   31  O2  UNL     1       2.107  52.225 -26.650  1.00  0.00    -0.388 OA
HETATM   32  H17 UNL     1       2.330  51.856 -25.779  1.00  0.00     0.210 HD
ENDBRANCH  28  31
ENDBRANCH  25  28
ENDBRANCH  24  25
ENDBRANCH  23  24
ENDBRANCH  21  23
ENDBRANCH   1  21
BRANCH   9  33
HETATM   33  C18 UNL     1      -3.612  45.866 -17.698  1.00  0.00     0.082 C 
HETATM   34  C19 UNL     1      -3.381  44.357 -17.806  1.00  0.00     0.049 C 
HETATM   35  C20 UNL     1      -4.055  46.190 -16.260  1.00  0.00     0.049 C 
BRANCH  33  36
HETATM   36  O3  UNL     1      -2.309  46.479 -17.834  1.00  0.00    -0.388 OA
HETATM   37  H37 UNL     1      -2.502  47.430 -17.968  1.00  0.00     0.210 HD
ENDBRANCH  33  36
ENDBRANCH   9  33
TORSDOF 9
ENDMDL
MODEL 9
REMARK minimizedAffinity -8.20341015
REMARK  9 active torsions:
REMARK  status: ('A' for Active; 'I' for Inactive)
REMARK    1  A    between atoms: C2_2  and  C3_3 
REMARK    2  A    between atoms: C2_2  and  C9_11 
REMARK    3  A    between atoms: C3_3  and  C4_4 
REMARK    4  A    between atoms: C4_4  and  C5_5 
REMARK    5  A    between atoms: C5_5  and  O1_6 
REMARK    6  A    between atoms: C5_5  and  C6_7 
REMARK    7  A    between atoms: C6_7  and  O2_10 
REMARK    8  A    between atoms: C17_19  and  C18_20 
REMARK    9  A    between atoms: C18_20  and  O3_23 
ROOT
HETATM    1  C9  UNL     1      -4.793  48.556 -23.085  1.00  0.00    -0.002 C 
HETATM    2  C10 UNL     1      -5.239  48.302 -24.561  1.00  0.00     0.006 C 
HETATM    3  C11 UNL     1      -4.392  49.235 -25.458  1.00  0.00     0.011 C 
HETATM    4  C12 UNL     1      -3.767  50.243 -24.476  1.00  0.00    -0.032 C 
HETATM    5  C13 UNL     1      -4.898  51.285 -24.173  1.00  0.00     0.016 C 
HETATM    6  C14 UNL     1      -2.464  50.939 -24.970  1.00  0.00     0.003 C 
HETATM    7  C15 UNL     1      -2.597  51.681 -26.308  1.00  0.00     0.009 C 
HETATM    8  C16 UNL     1      -1.442  52.625 -26.640  1.00  0.00     0.042 C 
HETATM    9  C17 UNL     1      -0.083  52.400 -25.922  1.00  0.00     0.095 C 
HETATM   10  O4  UNL     1       0.647  53.663 -26.040  1.00  0.00    -0.377 OA
HETATM   11  C21 UNL     1       0.324  54.650 -25.075  1.00  0.00     0.169 C 
HETATM   12  C22 UNL     1       0.807  54.230 -23.704  1.00  0.00     0.027 C 
HETATM   13  C23 UNL     1       0.733  52.727 -23.478  1.00  0.00     0.010 C 
HETATM   14  C24 UNL     1      -0.220  51.952 -24.415  1.00  0.00     0.032 C 
HETATM   15  C25 UNL     1      -1.707  51.765 -23.870  1.00  0.00    -0.033 C 
HETATM   16  C26 UNL     1      -2.378  53.122 -23.559  1.00  0.00     0.016 C 
HETATM   17  C27 UNL     1      -1.653  50.973 -22.508  1.00  0.00     0.011 C 
HETATM   18  C28 UNL     1      -2.910  50.168 -22.106  1.00  0.00     0.011 C 
HETATM   19  C29 UNL     1      -3.424  49.286 -23.258  1.00  0.00    -0.032 C 
HETATM   20  C30 UNL     1      -2.319  48.229 -23.556  1.00  0.00     0.016 C 
ENDROOT
BRANCH   1  21
HETATM   21  C2  UNL     1      -5.013  47.322 -22.156  1.00  0.00    -0.014 C 
HETATM   22  C1  UNL     1      -4.393  47.384 -20.754  1.00  0.00     0.010 C 
BRANCH  21  23
HETATM   23  C3  UNL     1      -6.505  46.931 -22.077  1.00  0.00     0.007 C 
BRANCH  23  24
HETATM   24  C4  UNL     1      -7.095  46.688 -20.675  1.00  0.00     0.035 C 
BRANCH  24  25
HETATM   25  C5  UNL     1      -8.223  47.659 -20.273  1.00  0.00     0.151 C 
BRANCH  25  26
HETATM   26  O1  UNL     1      -9.354  46.897 -19.854  1.00  0.00    -0.393 OA
HETATM   27  H10 UNL     1     -10.127  47.486 -19.832  1.00  0.00     0.210 HD
ENDBRANCH  25  26
BRANCH  25  28
HETATM   28  C6  UNL     1      -7.791  48.664 -19.158  1.00  0.00     0.076 C 
HETATM   29  C7  UNL     1      -9.010  49.189 -18.387  1.00  0.00     0.048 C 
HETATM   30  C8  UNL     1      -6.801  48.045 -18.166  1.00  0.00     0.048 C 
BRANCH  28  31
HETATM   31  O2  UNL     1      -7.144  49.799 -19.752  1.00  0.00    -0.388 OA
HETATM   32  H17 UNL     1      -7.787  50.252 -20.323  1.00  0.00     0.210 HD
ENDBRANCH  28  31
ENDBRANCH  25  28
ENDBRANCH  24  25
ENDBRANCH  23  24
ENDBRANCH  21  23
ENDBRANCH   1  21
BRANCH   9  33
HETATM   33  C18 UNL     1       0.851  51.416 -26.773  1.00  0.00     0.082 C 
HETATM   34  C19 UNL     1       2.347  51.489 -26.466  1.00  0.00     0.049 C 
HETATM   35  C20 UNL     1       0.656  51.560 -28.293  1.00  0.00     0.049 C 
BRANCH  33  36
HETATM   36  O3  UNL     1       0.447  50.060 -26.473  1.00  0.00    -0.388 OA
HETATM   37  H37 UNL     1      -0.532  50.091 -26.478  1.00  0.00     0.210 HD
ENDBRANCH  33  36
ENDBRANCH   9  33
TORSDOF 9
ENDMDL
