MODEL 1
REMARK minimizedAffinity -8.96603966
REMARK CNNscore 0.522753894
REMARK CNNaffinity 6.88298655
REMARK  4 active torsions:
REMARK  status: ('A' for Active; 'I' for Inactive)
REMARK    1  A    between atoms: C4_4  and  C5_5 
REMARK    2  A    between atoms: C5_5  and  C6_6 
REMARK    3  A    between atoms: C6_6  and  C7_7 
REMARK    4  A    between atoms: C7_7  and  C9_9 
ROOT
HETATM    1  C9  UNL     1       0.663   7.188  10.480  1.00  0.00    -0.002 C 
HETATM    2  C10 UNL     1       1.165   5.745  10.742  1.00  0.00     0.010 C 
HETATM    3  C11 UNL     1       0.586   5.310  12.114  1.00  0.00    -0.013 C 
HETATM    4  C12 UNL     1      -0.137   3.974  11.960  1.00  0.00     0.010 C 
HETATM    5  C13 UNL     1      -0.306   6.491  12.534  1.00  0.00     0.003 C 
HETATM    6  C14 UNL     1      -0.672   6.729  14.019  1.00  0.00    -0.000 C 
HETATM    7  C15 UNL     1      -1.224   5.528  14.776  1.00  0.00     0.006 C 
HETATM    8  C16 UNL     1      -2.644   5.110  14.414  1.00  0.00     0.006 C 
HETATM    9  C17 UNL     1      -3.549   6.157  13.731  1.00  0.00     0.003 C 
HETATM   10  C18 UNL     1      -5.079   5.927  14.011  1.00  0.00    -0.043 C 
HETATM   11  C19 UNL     1      -5.439   6.084  15.505  1.00  0.00     0.015 C 
HETATM   12  C20 UNL     1      -5.500   4.509  13.569  1.00  0.00     0.015 C 
HETATM   13  C21 UNL     1      -5.908   6.936  13.175  1.00  0.00     0.009 C 
HETATM   14  C22 UNL     1      -5.493   8.383  13.410  1.00  0.00     0.002 C 
HETATM   15  C23 UNL     1      -4.012   8.586  13.125  1.00  0.00     0.011 C 
HETATM   16  C24 UNL     1      -3.143   7.627  13.928  1.00  0.00    -0.027 A 
HETATM   17  C25 UNL     1      -2.577   8.124  15.242  1.00  0.00     0.021 A 
HETATM   18  C26 UNL     1      -1.640   7.925  14.064  1.00  0.00    -0.028 A 
HETATM   19  C27 UNL     1      -1.030   9.180  13.447  1.00  0.00     0.011 C 
HETATM   20  C28 UNL     1      -0.557   8.934  12.006  1.00  0.00     0.011 C 
HETATM   21  C29 UNL     1       0.418   7.740  11.911  1.00  0.00    -0.036 C 
HETATM   22  C30 UNL     1       1.742   8.105  12.622  1.00  0.00     0.016 C 
ENDROOT
BRANCH   1  23
HETATM   23  C7  UNL     1       1.493   7.934   9.394  1.00  0.00    -0.014 C 
HETATM   24  C8  UNL     1       0.867   8.035   8.000  1.00  0.00     0.010 C 
BRANCH  23  25
HETATM   25  C6  UNL     1       2.938   7.390   9.309  1.00  0.00     0.008 C 
BRANCH  25  26
HETATM   26  C5  UNL     1       3.066   5.856   9.337  1.00  0.00     0.028 C 
BRANCH  26  27
HETATM   27  C4  UNL     1       3.132   5.251   7.961  1.00  0.00    -0.025 C 
HETATM   28  C2  UNL     1       3.772   4.129   7.575  1.00  0.00    -0.091 C 
HETATM   29  C1  UNL     1       4.604   3.248   8.463  1.00  0.00     0.042 C 
HETATM   30  C3  UNL     1       3.696   3.663   6.145  1.00  0.00     0.042 C 
ENDBRANCH  26  27
ENDBRANCH  25  26
ENDBRANCH  23  25
ENDBRANCH   1  23
TORSDOF 4
ENDMDL
MODEL 2
REMARK minimizedAffinity -7.07654476
REMARK CNNscore 0.50180155
REMARK CNNaffinity 4.99306822
REMARK  4 active torsions:
REMARK  status: ('A' for Active; 'I' for Inactive)
REMARK    1  A    between atoms: C4_4  and  C5_5 
REMARK    2  A    between atoms: C5_5  and  C6_6 
REMARK    3  A    between atoms: C6_6  and  C7_7 
REMARK    4  A    between atoms: C7_7  and  C9_9 
ROOT
HETATM    1  C9  UNL     1      -7.571 -11.301  10.746  1.00  0.00    -0.002 C 
HETATM    2  C10 UNL     1      -8.914 -10.792  10.164  1.00  0.00     0.010 C 
HETATM    3  C11 UNL     1      -8.573  -9.984   8.885  1.00  0.00    -0.013 C 
HETATM    4  C12 UNL     1      -9.402 -10.511   7.715  1.00  0.00     0.010 C 
HETATM    5  C13 UNL     1      -7.051 -10.149   8.734  1.00  0.00     0.003 C 
HETATM    6  C14 UNL     1      -6.213  -9.132   7.923  1.00  0.00    -0.000 C 
HETATM    7  C15 UNL     1      -6.716  -8.812   6.522  1.00  0.00     0.006 C 
HETATM    8  C16 UNL     1      -6.530  -9.910   5.482  1.00  0.00     0.006 C 
HETATM    9  C17 UNL     1      -5.465 -10.992   5.762  1.00  0.00     0.003 C 
HETATM   10  C18 UNL     1      -4.867 -11.623   4.452  1.00  0.00    -0.043 C 
HETATM   11  C19 UNL     1      -4.096 -10.595   3.596  1.00  0.00     0.015 C 
HETATM   12  C20 UNL     1      -5.994 -12.217   3.578  1.00  0.00     0.015 C 
HETATM   13  C21 UNL     1      -3.918 -12.788   4.834  1.00  0.00     0.009 C 
HETATM   14  C22 UNL     1      -2.831 -12.369   5.816  1.00  0.00     0.002 C 
HETATM   15  C23 UNL     1      -3.430 -11.768   7.080  1.00  0.00     0.011 C 
HETATM   16  C24 UNL     1      -4.366 -10.609   6.768  1.00  0.00    -0.027 A 
HETATM   17  C25 UNL     1      -3.793  -9.208   6.821  1.00  0.00     0.021 A 
HETATM   18  C26 UNL     1      -4.762  -9.650   7.903  1.00  0.00    -0.028 A 
HETATM   19  C27 UNL     1      -4.196  -9.822   9.309  1.00  0.00     0.011 C 
HETATM   20  C28 UNL     1      -5.076 -10.742  10.170  1.00  0.00     0.011 C 
HETATM   21  C29 UNL     1      -6.543 -10.262  10.218  1.00  0.00    -0.036 C 
HETATM   22  C30 UNL     1      -6.618  -8.929  11.000  1.00  0.00     0.016 C 
ENDROOT
BRANCH   1  23
HETATM   23  C7  UNL     1      -7.677 -11.732  12.238  1.00  0.00    -0.014 C 
HETATM   24  C8  UNL     1      -7.857 -10.611  13.266  1.00  0.00     0.010 C 
BRANCH  23  25
HETATM   25  C6  UNL     1      -6.514 -12.667  12.644  1.00  0.00     0.008 C 
BRANCH  25  26
HETATM   26  C5  UNL     1      -6.931 -13.958  13.370  1.00  0.00     0.028 C 
BRANCH  26  27
HETATM   27  C4  UNL     1      -5.874 -14.465  14.313  1.00  0.00    -0.025 C 
HETATM   28  C2  UNL     1      -4.955 -15.426  14.094  1.00  0.00    -0.091 C 
HETATM   29  C1  UNL     1      -4.819 -16.235  12.835  1.00  0.00     0.042 C 
HETATM   30  C3  UNL     1      -3.950 -15.778  15.161  1.00  0.00     0.042 C 
ENDBRANCH  26  27
ENDBRANCH  25  26
ENDBRANCH  23  25
ENDBRANCH   1  23
TORSDOF 4
ENDMDL
MODEL 3
REMARK minimizedAffinity -6.65086746
REMARK CNNscore 0.451381624
REMARK CNNaffinity 6.17092848
REMARK  4 active torsions:
REMARK  status: ('A' for Active; 'I' for Inactive)
REMARK    1  A    between atoms: C4_4  and  C5_5 
REMARK    2  A    between atoms: C5_5  and  C6_6 
REMARK    3  A    between atoms: C6_6  and  C7_7 
REMARK    4  A    between atoms: C7_7  and  C9_9 
ROOT
HETATM    1  C9  UNL     1     -13.458   8.695  24.539  1.00  0.00    -0.002 C 
HETATM    2  C10 UNL     1     -14.570   9.090  25.544  1.00  0.00     0.010 C 
HETATM    3  C11 UNL     1     -15.490   7.852  25.706  1.00  0.00    -0.013 C 
HETATM    4  C12 UNL     1     -15.638   7.519  27.189  1.00  0.00     0.010 C 
HETATM    5  C13 UNL     1     -14.807   6.766  24.858  1.00  0.00     0.003 C 
HETATM    6  C14 UNL     1     -15.603   5.554  24.316  1.00  0.00    -0.000 C 
HETATM    7  C15 UNL     1     -16.442   4.792  25.334  1.00  0.00     0.006 C 
HETATM    8  C16 UNL     1     -15.665   3.935  26.326  1.00  0.00     0.006 C 
HETATM    9  C17 UNL     1     -14.228   3.518  25.944  1.00  0.00     0.003 C 
HETATM   10  C18 UNL     1     -13.781   2.166  26.609  1.00  0.00    -0.043 C 
HETATM   11  C19 UNL     1     -14.624   0.963  26.134  1.00  0.00     0.015 C 
HETATM   12  C20 UNL     1     -13.906   2.255  28.146  1.00  0.00     0.015 C 
HETATM   13  C21 UNL     1     -12.287   1.906  26.282  1.00  0.00     0.009 C 
HETATM   14  C22 UNL     1     -11.994   1.934  24.788  1.00  0.00     0.002 C 
HETATM   15  C23 UNL     1     -12.427   3.254  24.165  1.00  0.00     0.011 C 
HETATM   16  C24 UNL     1     -13.892   3.560  24.444  1.00  0.00    -0.027 A 
HETATM   17  C25 UNL     1     -14.906   3.160  23.393  1.00  0.00     0.021 A 
HETATM   18  C26 UNL     1     -14.600   4.632  23.599  1.00  0.00    -0.028 A 
HETATM   19  C27 UNL     1     -13.868   5.350  22.469  1.00  0.00     0.011 C 
HETATM   20  C28 UNL     1     -13.160   6.621  22.965  1.00  0.00     0.011 C 
HETATM   21  C29 UNL     1     -14.130   7.577  23.693  1.00  0.00    -0.036 C 
HETATM   22  C30 UNL     1     -15.140   8.155  22.674  1.00  0.00     0.016 C 
ENDROOT
BRANCH   1  23
HETATM   23  C7  UNL     1     -12.728   9.925  23.923  1.00  0.00    -0.014 C 
HETATM   24  C8  UNL     1     -13.615  11.049  23.379  1.00  0.00     0.010 C 
BRANCH  23  25
HETATM   25  C6  UNL     1     -11.678   9.496  22.871  1.00  0.00     0.008 C 
BRANCH  25  26
HETATM   26  C5  UNL     1     -10.974  10.650  22.137  1.00  0.00     0.028 C 
BRANCH  26  27
HETATM   27  C4  UNL     1     -10.076  11.453  23.038  1.00  0.00    -0.025 C 
HETATM   28  C2  UNL     1      -9.198  12.416  22.695  1.00  0.00    -0.091 C 
HETATM   29  C1  UNL     1      -8.905  12.873  21.294  1.00  0.00     0.042 C 
HETATM   30  C3  UNL     1      -8.402  13.135  23.753  1.00  0.00     0.042 C 
ENDBRANCH  26  27
ENDBRANCH  25  26
ENDBRANCH  23  25
ENDBRANCH   1  23
TORSDOF 4
ENDMDL
MODEL 4
REMARK minimizedAffinity -6.42886639
REMARK CNNscore 0.44944191
REMARK CNNaffinity 6.38133764
REMARK  4 active torsions:
REMARK  status: ('A' for Active; 'I' for Inactive)
REMARK    1  A    between atoms: C4_4  and  C5_5 
REMARK    2  A    between atoms: C5_5  and  C6_6 
REMARK    3  A    between atoms: C6_6  and  C7_7 
REMARK    4  A    between atoms: C7_7  and  C9_9 
ROOT
HETATM    1  C9  UNL     1     -12.380 -11.590  25.864  1.00  0.00    -0.002 C 
HETATM    2  C10 UNL     1     -13.579 -11.636  24.883  1.00  0.00     0.010 C 
HETATM    3  C11 UNL     1     -14.776 -10.960  25.603  1.00  0.00    -0.013 C 
HETATM    4  C12 UNL     1     -15.356  -9.867  24.707  1.00  0.00     0.010 C 
HETATM    5  C13 UNL     1     -14.181 -10.468  26.933  1.00  0.00     0.003 C 
HETATM    6  C14 UNL     1     -15.083 -10.198  28.162  1.00  0.00    -0.000 C 
HETATM    7  C15 UNL     1     -16.299  -9.314  27.921  1.00  0.00     0.006 C 
HETATM    8  C16 UNL     1     -16.012  -7.832  27.711  1.00  0.00     0.006 C 
HETATM    9  C17 UNL     1     -14.666  -7.281  28.227  1.00  0.00     0.003 C 
HETATM   10  C18 UNL     1     -14.725  -5.755  28.599  1.00  0.00    -0.043 C 
HETATM   11  C19 UNL     1     -15.685  -5.467  29.773  1.00  0.00     0.015 C 
HETATM   12  C20 UNL     1     -15.198  -4.924  27.386  1.00  0.00     0.015 C 
HETATM   13  C21 UNL     1     -13.301  -5.264  28.968  1.00  0.00     0.009 C 
HETATM   14  C22 UNL     1     -12.654  -6.097  30.067  1.00  0.00     0.002 C 
HETATM   15  C23 UNL     1     -12.598  -7.569  29.684  1.00  0.00     0.011 C 
HETATM   16  C24 UNL     1     -13.973  -8.113  29.320  1.00  0.00    -0.027 A 
HETATM   17  C25 UNL     1     -14.764  -8.809  30.407  1.00  0.00     0.021 A 
HETATM   18  C26 UNL     1     -14.180  -9.636  29.276  1.00  0.00    -0.028 A 
HETATM   19  C27 UNL     1     -13.047 -10.593  29.633  1.00  0.00     0.011 C 
HETATM   20  C28 UNL     1     -12.204 -10.962  28.403  1.00  0.00     0.011 C 
HETATM   21  C29 UNL     1     -13.068 -11.531  27.257  1.00  0.00    -0.036 C 
HETATM   22  C30 UNL     1     -13.634 -12.908  27.679  1.00  0.00     0.016 C 
ENDROOT
BRANCH   1  23
HETATM   23  C7  UNL     1     -11.254 -12.601  25.498  1.00  0.00    -0.014 C 
HETATM   24  C8  UNL     1     -11.692 -13.900  24.815  1.00  0.00     0.010 C 
BRANCH  23  25
HETATM   25  C6  UNL     1     -10.341 -12.899  26.710  1.00  0.00     0.008 C 
BRANCH  25  26
HETATM   26  C5  UNL     1      -8.849 -13.081  26.380  1.00  0.00     0.028 C 
BRANCH  26  27
HETATM   27  C4  UNL     1      -8.350 -12.088  25.367  1.00  0.00    -0.025 C 
HETATM   28  C2  UNL     1      -7.982 -12.315  24.090  1.00  0.00    -0.091 C 
HETATM   29  C1  UNL     1      -7.962 -13.655  23.411  1.00  0.00     0.042 C 
HETATM   30  C3  UNL     1      -7.533 -11.176  23.212  1.00  0.00     0.042 C 
ENDBRANCH  26  27
ENDBRANCH  25  26
ENDBRANCH  23  25
ENDBRANCH   1  23
TORSDOF 4
ENDMDL
MODEL 5
REMARK minimizedAffinity -7.76629496
REMARK CNNscore 0.405868977
REMARK CNNaffinity 6.40495062
REMARK  4 active torsions:
REMARK  status: ('A' for Active; 'I' for Inactive)
REMARK    1  A    between atoms: C4_4  and  C5_5 
REMARK    2  A    between atoms: C5_5  and  C6_6 
REMARK    3  A    between atoms: C6_6  and  C7_7 
REMARK    4  A    between atoms: C7_7  and  C9_9 
ROOT
HETATM    1  C9  UNL     1      -0.011  10.759  18.245  1.00  0.00    -0.002 C 
HETATM    2  C10 UNL     1      -1.219  11.408  18.967  1.00  0.00     0.010 C 
HETATM    3  C11 UNL     1      -2.415  11.356  17.979  1.00  0.00    -0.013 C 
HETATM    4  C12 UNL     1      -3.614  10.706  18.667  1.00  0.00     0.010 C 
HETATM    5  C13 UNL     1      -1.863  10.588  16.766  1.00  0.00     0.003 C 
HETATM    6  C14 UNL     1      -2.508  10.732  15.367  1.00  0.00    -0.000 C 
HETATM    7  C15 UNL     1      -4.018  10.544  15.300  1.00  0.00     0.006 C 
HETATM    8  C16 UNL     1      -4.517   9.114  15.466  1.00  0.00     0.006 C 
HETATM    9  C17 UNL     1      -3.517   7.969  15.197  1.00  0.00     0.003 C 
HETATM   10  C18 UNL     1      -4.213   6.641  14.722  1.00  0.00    -0.043 C 
HETATM   11  C19 UNL     1      -4.929   6.800  13.363  1.00  0.00     0.015 C 
HETATM   12  C20 UNL     1      -5.262   6.183  15.759  1.00  0.00     0.015 C 
HETATM   13  C21 UNL     1      -3.150   5.518  14.615  1.00  0.00     0.009 C 
HETATM   14  C22 UNL     1      -1.974   5.898  13.724  1.00  0.00     0.002 C 
HETATM   15  C23 UNL     1      -1.309   7.181  14.206  1.00  0.00     0.011 C 
HETATM   16  C24 UNL     1      -2.305   8.327  14.321  1.00  0.00    -0.027 A 
HETATM   17  C25 UNL     1      -2.427   9.272  13.145  1.00  0.00     0.021 A 
HETATM   18  C26 UNL     1      -1.770   9.765  14.422  1.00  0.00    -0.028 A 
HETATM   19  C27 UNL     1      -0.273  10.052  14.362  1.00  0.00     0.011 C 
HETATM   20  C28 UNL     1       0.369  10.024  15.758  1.00  0.00     0.011 C 
HETATM   21  C29 UNL     1      -0.340  10.980  16.742  1.00  0.00    -0.036 C 
HETATM   22  C30 UNL     1      -0.085  12.442  16.306  1.00  0.00     0.016 C 
ENDROOT
BRANCH   1  23
HETATM   23  C7  UNL     1       1.356  11.126  18.894  1.00  0.00    -0.014 C 
HETATM   24  C8  UNL     1       2.613  10.617  18.182  1.00  0.00     0.010 C 
BRANCH  23  25
HETATM   25  C6  UNL     1       1.389  10.757  20.396  1.00  0.00     0.008 C 
BRANCH  25  26
HETATM   26  C5  UNL     1       2.531   9.816  20.817  1.00  0.00     0.028 C 
BRANCH  26  27
HETATM   27  C4  UNL     1       3.719  10.552  21.373  1.00  0.00    -0.025 C 
HETATM   28  C2  UNL     1       4.133  10.619  22.654  1.00  0.00    -0.091 C 
HETATM   29  C1  UNL     1       3.448   9.979  23.828  1.00  0.00     0.042 C 
HETATM   30  C3  UNL     1       5.376  11.390  23.014  1.00  0.00     0.042 C 
ENDBRANCH  26  27
ENDBRANCH  25  26
ENDBRANCH  23  25
ENDBRANCH   1  23
TORSDOF 4
ENDMDL
MODEL 6
REMARK minimizedAffinity -8.54515553
REMARK CNNscore 0.405152798
REMARK CNNaffinity 6.98447084
REMARK  4 active torsions:
REMARK  status: ('A' for Active; 'I' for Inactive)
REMARK    1  A    between atoms: C4_4  and  C5_5 
REMARK    2  A    between atoms: C5_5  and  C6_6 
REMARK    3  A    between atoms: C6_6  and  C7_7 
REMARK    4  A    between atoms: C7_7  and  C9_9 
ROOT
HETATM    1  C9  UNL     1      -0.595   7.253  11.000  1.00  0.00    -0.002 C 
HETATM    2  C10 UNL     1      -0.261   5.801  10.573  1.00  0.00     0.010 C 
HETATM    3  C11 UNL     1      -0.984   4.861  11.573  1.00  0.00    -0.013 C 
HETATM    4  C12 UNL     1      -1.823   3.845  10.800  1.00  0.00     0.010 C 
HETATM    5  C13 UNL     1      -1.782   5.818  12.474  1.00  0.00     0.003 C 
HETATM    6  C14 UNL     1      -2.235   5.391  13.891  1.00  0.00    -0.000 C 
HETATM    7  C15 UNL     1      -2.960   4.056  13.992  1.00  0.00     0.006 C 
HETATM    8  C16 UNL     1      -4.383   4.030  13.447  1.00  0.00     0.006 C 
HETATM    9  C17 UNL     1      -5.124   5.378  13.310  1.00  0.00     0.003 C 
HETATM   10  C18 UNL     1      -6.686   5.237  13.419  1.00  0.00    -0.043 C 
HETATM   11  C19 UNL     1      -7.141   4.734  14.806  1.00  0.00     0.015 C 
HETATM   12  C20 UNL     1      -7.212   4.243  12.360  1.00  0.00     0.015 C 
HETATM   13  C21 UNL     1      -7.344   6.610  13.130  1.00  0.00     0.009 C 
HETATM   14  C22 UNL     1      -6.806   7.724  14.019  1.00  0.00     0.002 C 
HETATM   15  C23 UNL     1      -5.294   7.850  13.892  1.00  0.00     0.011 C 
HETATM   16  C24 UNL     1      -4.590   6.530  14.176  1.00  0.00    -0.027 A 
HETATM   17  C25 UNL     1      -4.078   6.295  15.582  1.00  0.00     0.021 A 
HETATM   18  C26 UNL     1      -3.079   6.544  14.467  1.00  0.00    -0.028 A 
HETATM   19  C27 UNL     1      -2.301   7.855  14.516  1.00  0.00     0.011 C 
HETATM   20  C28 UNL     1      -1.746   8.242  13.136  1.00  0.00     0.011 C 
HETATM   21  C29 UNL     1      -0.892   7.113  12.519  1.00  0.00    -0.036 C 
HETATM   22  C30 UNL     1       0.404   6.944  13.345  1.00  0.00     0.016 C 
ENDROOT
BRANCH   1  23
HETATM   23  C7  UNL     1       0.386   8.304  10.403  1.00  0.00    -0.014 C 
HETATM   24  C8  UNL     1       0.075   8.811   8.991  1.00  0.00     0.010 C 
BRANCH  23  25
HETATM   25  C6  UNL     1       1.856   7.834  10.506  1.00  0.00     0.008 C 
BRANCH  25  26
HETATM   26  C5  UNL     1       2.686   7.984   9.219  1.00  0.00     0.028 C 
BRANCH  26  27
HETATM   27  C4  UNL     1       2.953   6.667   8.541  1.00  0.00    -0.025 C 
HETATM   28  C2  UNL     1       2.573   6.273   7.310  1.00  0.00    -0.091 C 
HETATM   29  C1  UNL     1       1.749   7.082   6.348  1.00  0.00     0.042 C 
HETATM   30  C3  UNL     1       2.966   4.915   6.789  1.00  0.00     0.042 C 
ENDBRANCH  26  27
ENDBRANCH  25  26
ENDBRANCH  23  25
ENDBRANCH   1  23
TORSDOF 4
ENDMDL
MODEL 7
REMARK minimizedAffinity -6.18799973
REMARK CNNscore 0.326259822
REMARK CNNaffinity 4.9329319
REMARK  4 active torsions:
REMARK  status: ('A' for Active; 'I' for Inactive)
REMARK    1  A    between atoms: C4_4  and  C5_5 
REMARK    2  A    between atoms: C5_5  and  C6_6 
REMARK    3  A    between atoms: C6_6  and  C7_7 
REMARK    4  A    between atoms: C7_7  and  C9_9 
ROOT
HETATM    1  C9  UNL     1      -5.013 -10.949   7.595  1.00  0.00    -0.002 C 
HETATM    2  C10 UNL     1      -4.051 -10.304   8.624  1.00  0.00     0.010 C 
HETATM    3  C11 UNL     1      -4.933  -9.541   9.647  1.00  0.00    -0.013 C 
HETATM    4  C12 UNL     1      -4.567  -9.983  11.063  1.00  0.00     0.010 C 
HETATM    5  C13 UNL     1      -6.373  -9.864   9.213  1.00  0.00     0.003 C 
HETATM    6  C14 UNL     1      -7.553  -8.943   9.606  1.00  0.00    -0.000 C 
HETATM    7  C15 UNL     1      -7.657  -8.577  11.081  1.00  0.00     0.006 C 
HETATM    8  C16 UNL     1      -8.119  -9.692  12.011  1.00  0.00     0.006 C 
HETATM    9  C17 UNL     1      -8.885 -10.878  11.386  1.00  0.00     0.003 C 
HETATM   10  C18 UNL     1      -9.873 -11.573  12.392  1.00  0.00    -0.043 C 
HETATM   11  C19 UNL     1     -11.010 -10.634  12.852  1.00  0.00     0.015 C 
HETATM   12  C20 UNL     1      -9.114 -12.049  13.650  1.00  0.00     0.015 C 
HETATM   13  C21 UNL     1     -10.486 -12.829  11.720  1.00  0.00     0.009 C 
HETATM   14  C22 UNL     1     -11.150 -12.522  10.384  1.00  0.00     0.002 C 
HETATM   15  C23 UNL     1     -10.175 -11.857   9.422  1.00  0.00     0.011 C 
HETATM   16  C24 UNL     1      -9.547 -10.608  10.025  1.00  0.00    -0.027 A 
HETATM   17  C25 UNL     1     -10.190  -9.274   9.706  1.00  0.00     0.021 A 
HETATM   18  C26 UNL     1      -8.842  -9.609   9.091  1.00  0.00    -0.028 A 
HETATM   19  C27 UNL     1      -8.808  -9.834   7.582  1.00  0.00     0.011 C 
HETATM   20  C28 UNL     1      -7.580 -10.655   7.156  1.00  0.00     0.011 C 
HETATM   21  C29 UNL     1      -6.261 -10.024   7.653  1.00  0.00    -0.036 C 
HETATM   22  C30 UNL     1      -6.023  -8.688   6.910  1.00  0.00     0.016 C 
ENDROOT
BRANCH   1  23
HETATM   23  C7  UNL     1      -4.303 -11.361   6.272  1.00  0.00    -0.014 C 
HETATM   24  C8  UNL     1      -4.201 -12.863   5.987  1.00  0.00     0.010 C 
BRANCH  23  25
HETATM   25  C6  UNL     1      -2.922 -10.680   6.131  1.00  0.00     0.008 C 
BRANCH  25  26
HETATM   26  C5  UNL     1      -2.868  -9.499   5.147  1.00  0.00     0.028 C 
BRANCH  26  27
HETATM   27  C4  UNL     1      -2.847  -9.938   3.708  1.00  0.00    -0.025 C 
HETATM   28  C2  UNL     1      -3.885 -10.050   2.857  1.00  0.00    -0.091 C 
HETATM   29  C1  UNL     1      -5.325  -9.782   3.193  1.00  0.00     0.042 C 
HETATM   30  C3  UNL     1      -3.659 -10.482   1.431  1.00  0.00     0.042 C 
ENDBRANCH  26  27
ENDBRANCH  25  26
ENDBRANCH  23  25
ENDBRANCH   1  23
TORSDOF 4
ENDMDL
MODEL 8
REMARK minimizedAffinity -6.55040932
REMARK CNNscore 0.270432621
REMARK CNNaffinity 5.12745857
REMARK  4 active torsions:
REMARK  status: ('A' for Active; 'I' for Inactive)
REMARK    1  A    between atoms: C4_4  and  C5_5 
REMARK    2  A    between atoms: C5_5  and  C6_6 
REMARK    3  A    between atoms: C6_6  and  C7_7 
REMARK    4  A    between atoms: C7_7  and  C9_9 
ROOT
HETATM    1  C9  UNL     1       4.343  10.318  15.826  1.00  0.00    -0.002 C 
HETATM    2  C10 UNL     1       5.259  11.545  15.586  1.00  0.00     0.010 C 
HETATM    3  C11 UNL     1       4.909  12.588  16.680  1.00  0.00    -0.013 C 
HETATM    4  C12 UNL     1       6.185  13.018  17.400  1.00  0.00     0.010 C 
HETATM    5  C13 UNL     1       3.872  11.870  17.561  1.00  0.00     0.003 C 
HETATM    6  C14 UNL     1       2.883  12.669  18.445  1.00  0.00    -0.000 C 
HETATM    7  C15 UNL     1       3.495  13.735  19.343  1.00  0.00     0.006 C 
HETATM    8  C16 UNL     1       4.276  13.220  20.548  1.00  0.00     0.006 C 
HETATM    9  C17 UNL     1       3.986  11.783  21.031  1.00  0.00     0.003 C 
HETATM   10  C18 UNL     1       4.261  11.581  22.565  1.00  0.00    -0.043 C 
HETATM   11  C19 UNL     1       3.332  12.436  23.453  1.00  0.00     0.015 C 
HETATM   12  C20 UNL     1       5.720  11.960  22.904  1.00  0.00     0.015 C 
HETATM   13  C21 UNL     1       4.079  10.083  22.923  1.00  0.00     0.009 C 
HETATM   14  C22 UNL     1       2.718   9.537  22.509  1.00  0.00     0.002 C 
HETATM   15  C23 UNL     1       2.474   9.735  21.019  1.00  0.00     0.011 C 
HETATM   16  C24 UNL     1       2.630  11.193  20.608  1.00  0.00    -0.027 A 
HETATM   17  C25 UNL     1       1.379  12.043  20.546  1.00  0.00     0.021 A 
HETATM   18  C26 UNL     1       2.063  11.645  19.251  1.00  0.00    -0.028 A 
HETATM   19  C27 UNL     1       1.317  10.668  18.348  1.00  0.00     0.011 C 
HETATM   20  C28 UNL     1       2.269   9.944  17.382  1.00  0.00     0.011 C 
HETATM   21  C29 UNL     1       3.114  10.933  16.551  1.00  0.00    -0.036 C 
HETATM   22  C30 UNL     1       2.191  11.696  15.572  1.00  0.00     0.016 C 
ENDROOT
BRANCH   1  23
HETATM   23  C7  UNL     1       4.238   9.384  14.584  1.00  0.00    -0.014 C 
HETATM   24  C8  UNL     1       3.476   8.070  14.775  1.00  0.00     0.010 C 
BRANCH  23  25
HETATM   25  C6  UNL     1       5.623   9.128  13.945  1.00  0.00     0.008 C 
BRANCH  25  26
HETATM   26  C5  UNL     1       6.595   8.293  14.797  1.00  0.00     0.028 C 
BRANCH  26  27
HETATM   27  C4  UNL     1       7.985   8.249  14.221  1.00  0.00    -0.025 C 
HETATM   28  C2  UNL     1       9.147   8.028  14.867  1.00  0.00    -0.091 C 
HETATM   29  C1  UNL     1       9.297   7.808  16.346  1.00  0.00     0.042 C 
HETATM   30  C3  UNL     1      10.447   7.992  14.107  1.00  0.00     0.042 C 
ENDBRANCH  26  27
ENDBRANCH  25  26
ENDBRANCH  23  25
ENDBRANCH   1  23
TORSDOF 4
ENDMDL
MODEL 9
REMARK minimizedAffinity -5.96733189
REMARK CNNscore 0.268903732
REMARK CNNaffinity 6.16461325
REMARK  4 active torsions:
REMARK  status: ('A' for Active; 'I' for Inactive)
REMARK    1  A    between atoms: C4_4  and  C5_5 
REMARK    2  A    between atoms: C5_5  and  C6_6 
REMARK    3  A    between atoms: C6_6  and  C7_7 
REMARK    4  A    between atoms: C7_7  and  C9_9 
ROOT
HETATM    1  C9  UNL     1      -1.944   9.160  14.670  1.00  0.00    -0.002 C 
HETATM    2  C10 UNL     1      -0.965   9.538  15.810  1.00  0.00     0.010 C 
HETATM    3  C11 UNL     1       0.323   8.701  15.593  1.00  0.00    -0.013 C 
HETATM    4  C12 UNL     1       1.536   9.629  15.580  1.00  0.00     0.010 C 
HETATM    5  C13 UNL     1       0.061   7.948  14.278  1.00  0.00     0.003 C 
HETATM    6  C14 UNL     1       0.822   6.644  13.937  1.00  0.00    -0.000 C 
HETATM    7  C15 UNL     1       2.339   6.697  14.068  1.00  0.00     0.006 C 
HETATM    8  C16 UNL     1       3.071   7.494  12.994  1.00  0.00     0.006 C 
HETATM    9  C17 UNL     1       2.336   7.746  11.661  1.00  0.00     0.003 C 
HETATM   10  C18 UNL     1       3.313   7.927  10.442  1.00  0.00    -0.043 C 
HETATM   11  C19 UNL     1       4.135   6.654  10.147  1.00  0.00     0.015 C 
HETATM   12  C20 UNL     1       4.305   9.079  10.716  1.00  0.00     0.015 C 
HETATM   13  C21 UNL     1       2.494   8.313   9.184  1.00  0.00     0.009 C 
HETATM   14  C22 UNL     1       1.375   7.325   8.879  1.00  0.00     0.002 C 
HETATM   15  C23 UNL     1       0.436   7.170  10.067  1.00  0.00     0.011 C 
HETATM   16  C24 UNL     1       1.184   6.780  11.335  1.00  0.00    -0.027 A 
HETATM   17  C25 UNL     1       1.262   5.308  11.680  1.00  0.00     0.021 A 
HETATM   18  C26 UNL     1       0.386   6.217  12.523  1.00  0.00    -0.028 A 
HETATM   19  C27 UNL     1      -1.122   6.007  12.427  1.00  0.00     0.011 C 
HETATM   20  C28 UNL     1      -1.900   7.257  12.868  1.00  0.00     0.011 C 
HETATM   21  C29 UNL     1      -1.495   7.723  14.283  1.00  0.00    -0.036 C 
HETATM   22  C30 UNL     1      -1.964   6.675  15.320  1.00  0.00     0.016 C 
ENDROOT
BRANCH   1  23
HETATM   23  C7  UNL     1      -3.419   9.551  14.978  1.00  0.00    -0.014 C 
HETATM   24  C8  UNL     1      -4.483   9.046  13.998  1.00  0.00     0.010 C 
BRANCH  23  25
HETATM   25  C6  UNL     1      -3.567  11.073  15.212  1.00  0.00     0.008 C 
BRANCH  25  26
HETATM   26  C5  UNL     1      -4.026  11.479  16.624  1.00  0.00     0.028 C 
BRANCH  26  27
HETATM   27  C4  UNL     1      -3.552  12.852  17.018  1.00  0.00    -0.025 C 
HETATM   28  C2  UNL     1      -2.561  13.177  17.871  1.00  0.00    -0.091 C 
HETATM   29  C1  UNL     1      -1.724  12.203  18.652  1.00  0.00     0.042 C 
HETATM   30  C3  UNL     1      -2.211  14.622  18.118  1.00  0.00     0.042 C 
ENDBRANCH  26  27
ENDBRANCH  25  26
ENDBRANCH  23  25
ENDBRANCH   1  23
TORSDOF 4
ENDMDL
