MODEL 1
REMARK minimizedAffinity -8.60713768
REMARK  8 active torsions:
REMARK  status: ('A' for Active; 'I' for Inactive)
REMARK    1  A    between atoms: C2_2  and  O2_4 
REMARK    2  A    between atoms: O2_4  and  C3_5 
REMARK    3  A    between atoms: C12_15  and  C13_16 
REMARK    4  A    between atoms: C13_16  and  O5_18 
REMARK    5  A    between atoms: O5_18  and  C14_19 
REMARK    6  A    between atoms: C14_19  and  C15_20 
REMARK    7  A    between atoms: C15_20  and  N1_21 
REMARK    8  A    between atoms: C25_31  and  O6_32 
ROOT
HETATM    1  C3  UNL     1      -6.824   3.819  12.897  1.00  0.00     0.097 C 
HETATM    2  C4  UNL     1      -7.492   4.367  14.176  1.00  0.00     0.050 C 
HETATM    3  C5  UNL     1      -5.283   4.153  12.916  1.00  0.00     0.038 C 
HETATM    4  C6  UNL     1      -5.007   5.662  12.996  1.00  0.00     0.087 C 
HETATM    5  C7  UNL     1      -3.537   5.943  13.203  1.00  0.00     0.132 C 
HETATM    6  O3  UNL     1      -3.189   6.823  13.991  1.00  0.00    -0.298 OA
HETATM    7  C8  UNL     1      -2.547   5.214  12.301  1.00  0.00     0.068 C 
HETATM    8  C9  UNL     1      -1.076   5.411  12.761  1.00  0.00     0.022 C 
HETATM    9  C10 UNL     1      -0.771   4.896  14.178  1.00  0.00     0.015 C 
HETATM   10  C11 UNL     1      -0.148   4.736  11.756  1.00  0.00    -0.070 C 
HETATM   11  C12 UNL     1       0.871   5.295  11.070  1.00  0.00     0.085 C 
HETATM   12  C18 UNL     1      -0.462   3.268  11.537  1.00  0.00     0.035 C 
HETATM   13  C19 UNL     1      -1.922   3.065  11.128  1.00  0.00     0.010 C 
HETATM   14  C20 UNL     1      -2.915   3.718  12.121  1.00  0.00     0.006 C 
HETATM   15  C21 UNL     1      -4.438   3.501  11.753  1.00  0.00    -0.033 C 
HETATM   16  C22 UNL     1      -4.745   4.096  10.355  1.00  0.00     0.016 C 
HETATM   17  C23 UNL     1      -4.747   1.980  11.704  1.00  0.00     0.012 C 
HETATM   18  C24 UNL     1      -6.235   1.656  11.650  1.00  0.00     0.035 C 
HETATM   19  C25 UNL     1      -6.982   2.267  12.830  1.00  0.00     0.153 C 
ENDROOT
BRANCH  11  20
HETATM   20  C13 UNL     1       1.420   6.672  11.029  1.00  0.00     0.283 C 
HETATM   21  O4  UNL     1       0.683   7.648  11.005  1.00  0.00    -0.260 OA
BRANCH  20  22
HETATM   22  O5  UNL     1       2.767   6.701  11.074  1.00  0.00    -0.316 OA
BRANCH  22  23
HETATM   23  C14 UNL     1       3.447   6.400   9.842  1.00  0.00     0.209 C 
BRANCH  23  24
HETATM   24  C15 UNL     1       2.423   6.255   8.704  1.00  0.00     0.298 C 
BRANCH  24  25
HETATM   25  N1  UNL     1       2.087   7.458   7.926  1.00  0.00     0.082 N 
HETATM   26  C16 UNL     1       1.808   7.151   6.525  1.00  0.00     0.309 C 
HETATM   27  C17 UNL     1       3.096   8.507   8.043  1.00  0.00     0.309 C 
ENDBRANCH  24  25
ENDBRANCH  23  24
ENDBRANCH  22  23
ENDBRANCH  20  22
ENDBRANCH  11  20
BRANCH   1  28
HETATM   28  O2  UNL     1      -7.355   4.494  11.721  1.00  0.00    -0.308 OA
BRANCH  28  29
HETATM   29  C2  UNL     1      -8.380   5.379  11.797  1.00  0.00     0.255 C 
HETATM   30  C1  UNL     1      -8.555   5.846  13.209  1.00  0.00     0.126 C 
HETATM   31  O1  UNL     1      -9.051   5.765  10.852  1.00  0.00    -0.266 OA
ENDBRANCH  28  29
ENDBRANCH   1  28
BRANCH  19  32
HETATM   32  O6  UNL     1      -8.323   1.785  12.773  1.00  0.00    -0.393 OA
HETATM   33  H39 UNL     1      -8.953   2.535  12.746  1.00  0.00     0.210 HD
ENDBRANCH  19  32
TORSDOF 8
ENDMDL
MODEL 2
REMARK minimizedAffinity -8.17913055
REMARK  8 active torsions:
REMARK  status: ('A' for Active; 'I' for Inactive)
REMARK    1  A    between atoms: C2_2  and  O2_4 
REMARK    2  A    between atoms: O2_4  and  C3_5 
REMARK    3  A    between atoms: C12_15  and  C13_16 
REMARK    4  A    between atoms: C13_16  and  O5_18 
REMARK    5  A    between atoms: O5_18  and  C14_19 
REMARK    6  A    between atoms: C14_19  and  C15_20 
REMARK    7  A    between atoms: C15_20  and  N1_21 
REMARK    8  A    between atoms: C25_31  and  O6_32 
ROOT
HETATM    1  C3  UNL     1       2.198   6.097  10.350  1.00  0.00     0.097 C 
HETATM    2  C4  UNL     1       2.619   4.611  10.364  1.00  0.00     0.050 C 
HETATM    3  C5  UNL     1       0.999   6.320  11.348  1.00  0.00     0.038 C 
HETATM    4  C6  UNL     1      -0.230   5.466  10.996  1.00  0.00     0.087 C 
HETATM    5  C7  UNL     1      -1.289   5.556  12.070  1.00  0.00     0.132 C 
HETATM    6  O3  UNL     1      -1.894   4.541  12.417  1.00  0.00    -0.298 OA
HETATM    7  C8  UNL     1      -1.666   6.945  12.572  1.00  0.00     0.068 C 
HETATM    8  C9  UNL     1      -2.588   6.889  13.822  1.00  0.00     0.022 C 
HETATM    9  C10 UNL     1      -1.975   6.182  15.043  1.00  0.00     0.015 C 
HETATM   10  C11 UNL     1      -2.997   8.309  14.200  1.00  0.00    -0.070 C 
HETATM   11  C12 UNL     1      -4.248   8.799  14.334  1.00  0.00     0.085 C 
HETATM   12  C18 UNL     1      -1.818   9.235  14.430  1.00  0.00     0.035 C 
HETATM   13  C19 UNL     1      -0.883   9.258  13.219  1.00  0.00     0.010 C 
HETATM   14  C20 UNL     1      -0.421   7.843  12.796  1.00  0.00     0.006 C 
HETATM   15  C21 UNL     1       0.576   7.825  11.568  1.00  0.00    -0.033 C 
HETATM   16  C22 UNL     1      -0.088   8.471  10.326  1.00  0.00     0.016 C 
HETATM   17  C23 UNL     1       1.842   8.652  11.918  1.00  0.00     0.012 C 
HETATM   18  C24 UNL     1       2.992   8.465  10.934  1.00  0.00     0.035 C 
HETATM   19  C25 UNL     1       3.387   6.999  10.811  1.00  0.00     0.153 C 
ENDROOT
BRANCH  11  20
HETATM   20  C13 UNL     1      -5.589   8.190  14.166  1.00  0.00     0.283 C 
HETATM   21  O4  UNL     1      -6.586   8.705  14.656  1.00  0.00    -0.260 OA
BRANCH  20  22
HETATM   22  O5  UNL     1      -5.571   7.082  13.400  1.00  0.00    -0.316 OA
BRANCH  22  23
HETATM   23  C14 UNL     1      -6.153   5.901  13.981  1.00  0.00     0.209 C 
BRANCH  23  24
HETATM   24  C15 UNL     1      -5.979   4.711  13.024  1.00  0.00     0.298 C 
BRANCH  24  25
HETATM   25  N1  UNL     1      -7.192   4.122  12.435  1.00  0.00     0.082 N 
HETATM   26  C16 UNL     1      -8.329   5.038  12.478  1.00  0.00     0.309 C 
HETATM   27  C17 UNL     1      -7.537   2.830  13.023  1.00  0.00     0.309 C 
ENDBRANCH  24  25
ENDBRANCH  23  24
ENDBRANCH  22  23
ENDBRANCH  20  22
ENDBRANCH  11  20
BRANCH   1  28
HETATM   28  O2  UNL     1       1.686   6.463   9.037  1.00  0.00    -0.308 OA
BRANCH  28  29
HETATM   29  C2  UNL     1       2.383   6.226   7.898  1.00  0.00     0.255 C 
HETATM   30  C1  UNL     1       2.023   7.237   6.853  1.00  0.00     0.126 C 
HETATM   31  O1  UNL     1       3.207   5.336   7.745  1.00  0.00    -0.266 OA
ENDBRANCH  28  29
ENDBRANCH   1  28
BRANCH  19  32
HETATM   32  O6  UNL     1       4.555   6.945   9.996  1.00  0.00    -0.393 OA
HETATM   33  H39 UNL     1       4.406   6.358   9.225  1.00  0.00     0.210 HD
ENDBRANCH  19  32
TORSDOF 8
ENDMDL
MODEL 3
REMARK minimizedAffinity -7.93595552
REMARK  8 active torsions:
REMARK  status: ('A' for Active; 'I' for Inactive)
REMARK    1  A    between atoms: C2_2  and  O2_4 
REMARK    2  A    between atoms: O2_4  and  C3_5 
REMARK    3  A    between atoms: C12_15  and  C13_16 
REMARK    4  A    between atoms: C13_16  and  O5_18 
REMARK    5  A    between atoms: O5_18  and  C14_19 
REMARK    6  A    between atoms: C14_19  and  C15_20 
REMARK    7  A    between atoms: C15_20  and  N1_21 
REMARK    8  A    between atoms: C25_31  and  O6_32 
ROOT
HETATM    1  C3  UNL     1      -1.242   4.962  12.773  1.00  0.00     0.097 C 
HETATM    2  C4  UNL     1      -0.840   3.578  12.220  1.00  0.00     0.050 C 
HETATM    3  C5  UNL     1      -2.773   4.961  13.149  1.00  0.00     0.038 C 
HETATM    4  C6  UNL     1      -3.677   4.639  11.949  1.00  0.00     0.087 C 
HETATM    5  C7  UNL     1      -5.115   4.459  12.374  1.00  0.00     0.132 C 
HETATM    6  O3  UNL     1      -5.787   3.550  11.885  1.00  0.00    -0.298 OA
HETATM    7  C8  UNL     1      -5.715   5.517  13.293  1.00  0.00     0.068 C 
HETATM    8  C9  UNL     1      -7.111   5.102  13.837  1.00  0.00     0.022 C 
HETATM    9  C10 UNL     1      -7.117   3.809  14.670  1.00  0.00     0.015 C 
HETATM   10  C11 UNL     1      -7.682   6.250  14.662  1.00  0.00    -0.070 C 
HETATM   11  C12 UNL     1      -8.865   6.880  14.491  1.00  0.00     0.085 C 
HETATM   12  C18 UNL     1      -6.768   6.700  15.785  1.00  0.00     0.035 C 
HETATM   13  C19 UNL     1      -5.378   7.066  15.259  1.00  0.00     0.010 C 
HETATM   14  C20 UNL     1      -4.739   5.931  14.424  1.00  0.00     0.006 C 
HETATM   15  C21 UNL     1      -3.285   6.257  13.891  1.00  0.00    -0.033 C 
HETATM   16  C22 UNL     1      -3.312   7.517  12.989  1.00  0.00     0.016 C 
HETATM   17  C23 UNL     1      -2.347   6.548  15.092  1.00  0.00     0.012 C 
HETATM   18  C24 UNL     1      -0.868   6.585  14.724  1.00  0.00     0.035 C 
HETATM   19  C25 UNL     1      -0.425   5.284  14.064  1.00  0.00     0.153 C 
ENDROOT
BRANCH  11  20
HETATM   20  C13 UNL     1      -9.959   6.713  13.505  1.00  0.00     0.283 C 
HETATM   21  O4  UNL     1      -9.741   6.283  12.381  1.00  0.00    -0.260 OA
BRANCH  20  22
HETATM   22  O5  UNL     1     -11.169   7.031  14.006  1.00  0.00    -0.316 OA
BRANCH  22  23
HETATM   23  C14 UNL     1     -12.079   7.677  13.097  1.00  0.00     0.209 C 
BRANCH  23  24
HETATM   24  C15 UNL     1     -13.393   6.882  13.024  1.00  0.00     0.298 C 
BRANCH  24  25
HETATM   25  N1  UNL     1     -14.641   7.636  12.822  1.00  0.00     0.082 N 
HETATM   26  C16 UNL     1     -14.410   9.077  12.745  1.00  0.00     0.309 C 
HETATM   27  C17 UNL     1     -15.660   7.321  13.819  1.00  0.00     0.309 C 
ENDBRANCH  24  25
ENDBRANCH  23  24
ENDBRANCH  22  23
ENDBRANCH  20  22
ENDBRANCH  11  20
BRANCH   1  28
HETATM   28  O2  UNL     1      -1.095   5.979  11.741  1.00  0.00    -0.308 OA
BRANCH  28  29
HETATM   29  C2  UNL     1       0.005   6.054  10.952  1.00  0.00     0.255 C 
HETATM   30  C1  UNL     1       0.156   7.441  10.407  1.00  0.00     0.126 C 
HETATM   31  O1  UNL     1       0.782   5.136  10.733  1.00  0.00    -0.266 OA
ENDBRANCH  28  29
ENDBRANCH   1  28
BRANCH  19  32
HETATM   32  O6  UNL     1       0.988   5.357  13.898  1.00  0.00    -0.393 OA
HETATM   33  H39 UNL     1       1.228   5.226  12.957  1.00  0.00     0.210 HD
ENDBRANCH  19  32
TORSDOF 8
ENDMDL
MODEL 4
REMARK minimizedAffinity -7.62957382
REMARK  8 active torsions:
REMARK  status: ('A' for Active; 'I' for Inactive)
REMARK    1  A    between atoms: C2_2  and  O2_4 
REMARK    2  A    between atoms: O2_4  and  C3_5 
REMARK    3  A    between atoms: C12_15  and  C13_16 
REMARK    4  A    between atoms: C13_16  and  O5_18 
REMARK    5  A    between atoms: O5_18  and  C14_19 
REMARK    6  A    between atoms: C14_19  and  C15_20 
REMARK    7  A    between atoms: C15_20  and  N1_21 
REMARK    8  A    between atoms: C25_31  and  O6_32 
ROOT
HETATM    1  C3  UNL     1      -6.866   3.774  12.837  1.00  0.00     0.097 C 
HETATM    2  C4  UNL     1      -7.584   4.266  14.113  1.00  0.00     0.050 C 
HETATM    3  C5  UNL     1      -5.349   4.202  12.882  1.00  0.00     0.038 C 
HETATM    4  C6  UNL     1      -5.167   5.724  12.982  1.00  0.00     0.087 C 
HETATM    5  C7  UNL     1      -3.720   6.092  13.213  1.00  0.00     0.132 C 
HETATM    6  O3  UNL     1      -3.437   6.982  14.016  1.00  0.00    -0.298 OA
HETATM    7  C8  UNL     1      -2.675   5.435  12.318  1.00  0.00     0.068 C 
HETATM    8  C9  UNL     1      -1.225   5.716  12.801  1.00  0.00     0.022 C 
HETATM    9  C10 UNL     1      -0.908   5.205  14.217  1.00  0.00     0.015 C 
HETATM   10  C11 UNL     1      -0.244   5.111  11.802  1.00  0.00    -0.070 C 
HETATM   11  C12 UNL     1       0.748   5.740  11.136  1.00  0.00     0.085 C 
HETATM   12  C18 UNL     1      -0.464   3.629  11.563  1.00  0.00     0.035 C 
HETATM   13  C19 UNL     1      -1.904   3.343  11.131  1.00  0.00     0.010 C 
HETATM   14  C20 UNL     1      -2.948   3.922  12.116  1.00  0.00     0.006 C 
HETATM   15  C21 UNL     1      -4.450   3.616  11.724  1.00  0.00    -0.033 C 
HETATM   16  C22 UNL     1      -4.773   4.207  10.329  1.00  0.00     0.016 C 
HETATM   17  C23 UNL     1      -4.664   2.080  11.654  1.00  0.00     0.012 C 
HETATM   18  C24 UNL     1      -6.129   1.666  11.575  1.00  0.00     0.035 C 
HETATM   19  C25 UNL     1      -6.928   2.216  12.751  1.00  0.00     0.153 C 
ENDROOT
BRANCH  11  20
HETATM   20  C13 UNL     1       1.212   7.147  11.119  1.00  0.00     0.283 C 
HETATM   21  O4  UNL     1       1.365   7.752  10.066  1.00  0.00    -0.260 OA
BRANCH  20  22
HETATM   22  O5  UNL     1       1.385   7.659  12.353  1.00  0.00    -0.316 OA
BRANCH  22  23
HETATM   23  C14 UNL     1       2.389   7.024  13.166  1.00  0.00     0.209 C 
BRANCH  23  24
HETATM   24  C15 UNL     1       2.053   7.219  14.654  1.00  0.00     0.298 C 
BRANCH  24  25
HETATM   25  N1  UNL     1       2.883   8.157  15.427  1.00  0.00     0.082 N 
HETATM   26  C16 UNL     1       2.318   9.505  15.450  1.00  0.00     0.309 C 
HETATM   27  C17 UNL     1       4.274   8.178  14.986  1.00  0.00     0.309 C 
ENDBRANCH  24  25
ENDBRANCH  23  24
ENDBRANCH  22  23
ENDBRANCH  20  22
ENDBRANCH  11  20
BRANCH   1  28
HETATM   28  O2  UNL     1      -7.422   4.429  11.662  1.00  0.00    -0.308 OA
BRANCH  28  29
HETATM   29  C2  UNL     1      -8.396   5.368  11.750  1.00  0.00     0.255 C 
HETATM   30  C1  UNL     1      -8.714   5.649  13.187  1.00  0.00     0.126 C 
HETATM   31  O1  UNL     1      -8.925   5.929  10.802  1.00  0.00    -0.266 OA
ENDBRANCH  28  29
ENDBRANCH   1  28
BRANCH  19  32
HETATM   32  O6  UNL     1      -8.236   1.654  12.670  1.00  0.00    -0.393 OA
HETATM   33  H39 UNL     1      -8.910   2.364  12.642  1.00  0.00     0.210 HD
ENDBRANCH  19  32
TORSDOF 8
ENDMDL
MODEL 5
REMARK minimizedAffinity -7.5661068
REMARK  8 active torsions:
REMARK  status: ('A' for Active; 'I' for Inactive)
REMARK    1  A    between atoms: C2_2  and  O2_4 
REMARK    2  A    between atoms: O2_4  and  C3_5 
REMARK    3  A    between atoms: C12_15  and  C13_16 
REMARK    4  A    between atoms: C13_16  and  O5_18 
REMARK    5  A    between atoms: O5_18  and  C14_19 
REMARK    6  A    between atoms: C14_19  and  C15_20 
REMARK    7  A    between atoms: C15_20  and  N1_21 
REMARK    8  A    between atoms: C25_31  and  O6_32 
ROOT
HETATM    1  C3  UNL     1       1.992   6.467  10.713  1.00  0.00     0.097 C 
HETATM    2  C4  UNL     1       2.677   5.089  10.585  1.00  0.00     0.050 C 
HETATM    3  C5  UNL     1       0.676   6.329  11.570  1.00  0.00     0.038 C 
HETATM    4  C6  UNL     1      -0.330   5.345  10.954  1.00  0.00     0.087 C 
HETATM    5  C7  UNL     1      -1.492   5.090  11.885  1.00  0.00     0.132 C 
HETATM    6  O3  UNL     1      -1.931   3.946  12.014  1.00  0.00    -0.298 OA
HETATM    7  C8  UNL     1      -2.169   6.302  12.514  1.00  0.00     0.068 C 
HETATM    8  C9  UNL     1      -3.189   5.901  13.616  1.00  0.00     0.022 C 
HETATM    9  C10 UNL     1      -2.584   5.130  14.801  1.00  0.00     0.015 C 
HETATM   10  C11 UNL     1      -3.890   7.158  14.122  1.00  0.00    -0.070 C 
HETATM   11  C12 UNL     1      -5.218   7.403  14.159  1.00  0.00     0.085 C 
HETATM   12  C18 UNL     1      -2.933   8.223  14.623  1.00  0.00     0.035 C 
HETATM   13  C19 UNL     1      -1.899   8.588  13.555  1.00  0.00     0.010 C 
HETATM   14  C20 UNL     1      -1.142   7.352  13.012  1.00  0.00     0.006 C 
HETATM   15  C21 UNL     1      -0.038   7.690  11.930  1.00  0.00    -0.033 C 
HETATM   16  C22 UNL     1      -0.679   8.397  10.709  1.00  0.00     0.016 C 
HETATM   17  C23 UNL     1       1.010   8.656  12.546  1.00  0.00     0.012 C 
HETATM   18  C24 UNL     1       2.269   8.818  11.702  1.00  0.00     0.035 C 
HETATM   19  C25 UNL     1       2.939   7.474  11.438  1.00  0.00     0.153 C 
ENDROOT
BRANCH  11  20
HETATM   20  C13 UNL     1      -6.399   6.610  13.741  1.00  0.00     0.283 C 
HETATM   21  O4  UNL     1      -6.296   5.699  12.931  1.00  0.00    -0.260 OA
BRANCH  20  22
HETATM   22  O5  UNL     1      -7.528   6.975  14.379  1.00  0.00    -0.316 OA
BRANCH  22  23
HETATM   23  C14 UNL     1      -8.759   6.489  13.813  1.00  0.00     0.209 C 
BRANCH  23  24
HETATM   24  C15 UNL     1      -9.954   7.139  14.529  1.00  0.00     0.298 C 
BRANCH  24  25
HETATM   25  N1  UNL     1     -11.143   7.461  13.725  1.00  0.00     0.082 N 
HETATM   26  C16 UNL     1     -11.515   8.871  13.826  1.00  0.00     0.309 C 
HETATM   27  C17 UNL     1     -12.280   6.595  14.025  1.00  0.00     0.309 C 
ENDBRANCH  24  25
ENDBRANCH  23  24
ENDBRANCH  22  23
ENDBRANCH  20  22
ENDBRANCH  11  20
BRANCH   1  28
HETATM   28  O2  UNL     1       1.559   6.937   9.405  1.00  0.00    -0.308 OA
BRANCH  28  29
HETATM   29  C2  UNL     1       2.320   6.784   8.293  1.00  0.00     0.255 C 
HETATM   30  C1  UNL     1       2.678   8.122   7.723  1.00  0.00     0.126 C 
HETATM   31  O1  UNL     1       2.687   5.713   7.830  1.00  0.00    -0.266 OA
ENDBRANCH  28  29
ENDBRANCH   1  28
BRANCH  19  32
HETATM   32  O6  UNL     1       4.175   7.744  10.779  1.00  0.00    -0.393 OA
HETATM   33  H39 UNL     1       4.217   7.265   9.925  1.00  0.00     0.210 HD
ENDBRANCH  19  32
TORSDOF 8
ENDMDL
MODEL 6
REMARK minimizedAffinity -7.52591562
REMARK  8 active torsions:
REMARK  status: ('A' for Active; 'I' for Inactive)
REMARK    1  A    between atoms: C2_2  and  O2_4 
REMARK    2  A    between atoms: O2_4  and  C3_5 
REMARK    3  A    between atoms: C12_15  and  C13_16 
REMARK    4  A    between atoms: C13_16  and  O5_18 
REMARK    5  A    between atoms: O5_18  and  C14_19 
REMARK    6  A    between atoms: C14_19  and  C15_20 
REMARK    7  A    between atoms: C15_20  and  N1_21 
REMARK    8  A    between atoms: C25_31  and  O6_32 
ROOT
HETATM    1  C3  UNL     1       1.990   6.057  10.618  1.00  0.00     0.097 C 
HETATM    2  C4  UNL     1       2.403   4.570  10.604  1.00  0.00     0.050 C 
HETATM    3  C5  UNL     1       0.748   6.256  11.570  1.00  0.00     0.038 C 
HETATM    4  C6  UNL     1      -0.467   5.421  11.137  1.00  0.00     0.087 C 
HETATM    5  C7  UNL     1      -1.572   5.483  12.165  1.00  0.00     0.132 C 
HETATM    6  O3  UNL     1      -2.196   4.461  12.452  1.00  0.00    -0.298 OA
HETATM    7  C8  UNL     1      -1.964   6.857  12.695  1.00  0.00     0.068 C 
HETATM    8  C9  UNL     1      -2.941   6.767  13.900  1.00  0.00     0.022 C 
HETATM    9  C10 UNL     1      -2.386   6.018  15.123  1.00  0.00     0.015 C 
HETATM   10  C11 UNL     1      -3.360   8.177  14.305  1.00  0.00    -0.070 C 
HETATM   11  C12 UNL     1      -4.614   8.670  14.400  1.00  0.00     0.085 C 
HETATM   12  C18 UNL     1      -2.187   9.088  14.617  1.00  0.00     0.035 C 
HETATM   13  C19 UNL     1      -1.200   9.144  13.450  1.00  0.00     0.010 C 
HETATM   14  C20 UNL     1      -0.726   7.740  13.002  1.00  0.00     0.006 C 
HETATM   15  C21 UNL     1       0.324   7.755  11.819  1.00  0.00    -0.033 C 
HETATM   16  C22 UNL     1      -0.281   8.444  10.570  1.00  0.00     0.016 C 
HETATM   17  C23 UNL     1       1.577   8.563  12.251  1.00  0.00     0.012 C 
HETATM   18  C24 UNL     1       2.768   8.401  11.313  1.00  0.00     0.035 C 
HETATM   19  C25 UNL     1       3.161   6.936  11.160  1.00  0.00     0.153 C 
ENDROOT
BRANCH  11  20
HETATM   20  C13 UNL     1      -5.949   8.075  14.154  1.00  0.00     0.283 C 
HETATM   21  O4  UNL     1      -6.135   7.295  13.229  1.00  0.00    -0.260 OA
BRANCH  20  22
HETATM   22  O5  UNL     1      -6.866   8.448  15.067  1.00  0.00    -0.316 OA
BRANCH  22  23
HETATM   23  C14 UNL     1      -7.209   7.463  16.058  1.00  0.00     0.209 C 
BRANCH  23  24
HETATM   24  C15 UNL     1      -8.692   7.079  15.919  1.00  0.00     0.298 C 
BRANCH  24  25
HETATM   25  N1  UNL     1      -9.422   7.577  14.742  1.00  0.00     0.082 N 
HETATM   26  C16 UNL     1     -10.693   8.199  15.103  1.00  0.00     0.309 C 
HETATM   27  C17 UNL     1      -9.610   6.552  13.719  1.00  0.00     0.309 C 
ENDBRANCH  24  25
ENDBRANCH  23  24
ENDBRANCH  22  23
ENDBRANCH  20  22
ENDBRANCH  11  20
BRANCH   1  28
HETATM   28  O2  UNL     1       1.538   6.468   9.297  1.00  0.00    -0.308 OA
BRANCH  28  29
HETATM   29  C2  UNL     1       2.364   6.478   8.221  1.00  0.00     0.255 C 
HETATM   30  C1  UNL     1       2.339   7.823   7.562  1.00  0.00     0.126 C 
HETATM   31  O1  UNL     1       3.054   5.539   7.851  1.00  0.00    -0.266 OA
ENDBRANCH  28  29
ENDBRANCH   1  28
BRANCH  19  32
HETATM   32  O6  UNL     1       4.364   6.902  10.396  1.00  0.00    -0.393 OA
HETATM   33  H39 UNL     1       4.246   6.341   9.601  1.00  0.00     0.210 HD
ENDBRANCH  19  32
TORSDOF 8
ENDMDL
MODEL 7
REMARK minimizedAffinity -7.4275732
REMARK  8 active torsions:
REMARK  status: ('A' for Active; 'I' for Inactive)
REMARK    1  A    between atoms: C2_2  and  O2_4 
REMARK    2  A    between atoms: O2_4  and  C3_5 
REMARK    3  A    between atoms: C12_15  and  C13_16 
REMARK    4  A    between atoms: C13_16  and  O5_18 
REMARK    5  A    between atoms: O5_18  and  C14_19 
REMARK    6  A    between atoms: C14_19  and  C15_20 
REMARK    7  A    between atoms: C15_20  and  N1_21 
REMARK    8  A    between atoms: C25_31  and  O6_32 
ROOT
HETATM    1  C3  UNL     1      -1.669   6.306  13.581  1.00  0.00     0.097 C 
HETATM    2  C4  UNL     1      -1.049   4.917  13.317  1.00  0.00     0.050 C 
HETATM    3  C5  UNL     1      -3.208   6.153  13.886  1.00  0.00     0.038 C 
HETATM    4  C6  UNL     1      -3.977   5.493  12.730  1.00  0.00     0.087 C 
HETATM    5  C7  UNL     1      -5.404   5.188  13.121  1.00  0.00     0.132 C 
HETATM    6  O3  UNL     1      -5.914   4.119  12.784  1.00  0.00    -0.298 OA
HETATM    7  C8  UNL     1      -6.201   6.298  13.797  1.00  0.00     0.068 C 
HETATM    8  C9  UNL     1      -7.563   5.793  14.350  1.00  0.00     0.022 C 
HETATM    9  C10 UNL     1      -7.454   4.685  15.412  1.00  0.00     0.015 C 
HETATM   10  C11 UNL     1      -8.337   6.978  14.918  1.00  0.00    -0.070 C 
HETATM   11  C12 UNL     1      -9.579   7.390  14.581  1.00  0.00     0.085 C 
HETATM   12  C18 UNL     1      -7.569   7.750  15.974  1.00  0.00     0.035 C 
HETATM   13  C19 UNL     1      -6.209   8.211  15.447  1.00  0.00     0.010 C 
HETATM   14  C20 UNL     1      -5.368   7.046  14.870  1.00  0.00     0.006 C 
HETATM   15  C21 UNL     1      -3.938   7.475  14.346  1.00  0.00    -0.033 C 
HETATM   16  C22 UNL     1      -4.071   8.534  13.223  1.00  0.00     0.016 C 
HETATM   17  C23 UNL     1      -3.131   8.111  15.510  1.00  0.00     0.012 C 
HETATM   18  C24 UNL     1      -1.649   8.293  15.204  1.00  0.00     0.035 C 
HETATM   19  C25 UNL     1      -0.993   6.971  14.822  1.00  0.00     0.153 C 
ENDROOT
BRANCH  11  20
HETATM   20  C13 UNL     1     -10.571   6.891  13.600  1.00  0.00     0.283 C 
HETATM   21  O4  UNL     1     -10.275   6.729  12.423  1.00  0.00    -0.260 OA
BRANCH  20  22
HETATM   22  O5  UNL     1     -11.764   6.606  14.158  1.00  0.00    -0.316 OA
BRANCH  22  23
HETATM   23  C14 UNL     1     -12.923   7.098  13.459  1.00  0.00     0.209 C 
BRANCH  23  24
HETATM   24  C15 UNL     1     -13.598   8.203  14.286  1.00  0.00     0.298 C 
BRANCH  24  25
HETATM   25  N1  UNL     1     -13.322   9.601  13.919  1.00  0.00     0.082 N 
HETATM   26  C16 UNL     1     -13.044   9.753  12.492  1.00  0.00     0.309 C 
HETATM   27  C17 UNL     1     -12.263  10.199  14.727  1.00  0.00     0.309 C 
ENDBRANCH  24  25
ENDBRANCH  23  24
ENDBRANCH  22  23
ENDBRANCH  20  22
ENDBRANCH  11  20
BRANCH   1  28
HETATM   28  O2  UNL     1      -1.588   7.130  12.383  1.00  0.00    -0.308 OA
BRANCH  28  29
HETATM   29  C2  UNL     1      -0.474   7.177  11.612  1.00  0.00     0.255 C 
HETATM   30  C1  UNL     1       0.096   8.562  11.612  1.00  0.00     0.126 C 
HETATM   31  O1  UNL     1       0.017   6.227  11.020  1.00  0.00    -0.266 OA
ENDBRANCH  28  29
ENDBRANCH   1  28
BRANCH  19  32
HETATM   32  O6  UNL     1       0.407   7.215  14.705  1.00  0.00    -0.393 OA
HETATM   33  H39 UNL     1       0.725   6.951  13.817  1.00  0.00     0.210 HD
ENDBRANCH  19  32
TORSDOF 8
ENDMDL
MODEL 8
REMARK minimizedAffinity -7.35263157
REMARK  8 active torsions:
REMARK  status: ('A' for Active; 'I' for Inactive)
REMARK    1  A    between atoms: C2_2  and  O2_4 
REMARK    2  A    between atoms: O2_4  and  C3_5 
REMARK    3  A    between atoms: C12_15  and  C13_16 
REMARK    4  A    between atoms: C13_16  and  O5_18 
REMARK    5  A    between atoms: O5_18  and  C14_19 
REMARK    6  A    between atoms: C14_19  and  C15_20 
REMARK    7  A    between atoms: C15_20  and  N1_21 
REMARK    8  A    between atoms: C25_31  and  O6_32 
ROOT
HETATM    1  C3  UNL     1      -2.533   6.490  13.075  1.00  0.00     0.097 C 
HETATM    2  C4  UNL     1      -3.413   5.320  12.583  1.00  0.00     0.050 C 
HETATM    3  C5  UNL     1      -1.125   6.429  12.370  1.00  0.00     0.038 C 
HETATM    4  C6  UNL     1      -0.380   5.114  12.649  1.00  0.00     0.087 C 
HETATM    5  C7  UNL     1       0.874   5.004  11.815  1.00  0.00     0.132 C 
HETATM    6  O3  UNL     1       1.167   3.927  11.293  1.00  0.00    -0.298 OA
HETATM    7  C8  UNL     1       1.807   6.209  11.783  1.00  0.00     0.068 C 
HETATM    8  C9  UNL     1       2.930   6.056  10.720  1.00  0.00     0.022 C 
HETATM    9  C10 UNL     1       2.431   5.906   9.273  1.00  0.00     0.015 C 
HETATM   10  C11 UNL     1       3.872   7.252  10.820  1.00  0.00    -0.070 C 
HETATM   11  C12 UNL     1       5.208   7.235  11.016  1.00  0.00     0.085 C 
HETATM   12  C18 UNL     1       3.167   8.588  10.683  1.00  0.00     0.035 C 
HETATM   13  C19 UNL     1       2.030   8.724  11.698  1.00  0.00     0.010 C 
HETATM   14  C20 UNL     1       1.031   7.544  11.635  1.00  0.00     0.006 C 
HETATM   15  C21 UNL     1      -0.181   7.664  12.645  1.00  0.00    -0.033 C 
HETATM   16  C22 UNL     1       0.339   7.735  14.103  1.00  0.00     0.016 C 
HETATM   17  C23 UNL     1      -0.969   8.969  12.354  1.00  0.00     0.012 C 
HETATM   18  C24 UNL     1      -2.316   9.046  13.063  1.00  0.00     0.035 C 
HETATM   19  C25 UNL     1      -3.200   7.855  12.711  1.00  0.00     0.153 C 
ENDROOT
BRANCH  11  20
HETATM   20  C13 UNL     1       6.183   6.135  11.207  1.00  0.00     0.283 C 
HETATM   21  O4  UNL     1       6.300   5.240  10.379  1.00  0.00    -0.260 OA
BRANCH  20  22
HETATM   22  O5  UNL     1       6.919   6.273  12.327  1.00  0.00    -0.316 OA
BRANCH  22  23
HETATM   23  C14 UNL     1       6.421   7.212  13.298  1.00  0.00     0.209 C 
BRANCH  23  24
HETATM   24  C15 UNL     1       7.540   8.187  13.698  1.00  0.00     0.298 C 
BRANCH  24  25
HETATM   25  N1  UNL     1       8.652   7.662  14.506  1.00  0.00     0.082 N 
HETATM   26  C16 UNL     1       8.643   8.188  15.869  1.00  0.00     0.309 C 
HETATM   27  C17 UNL     1       9.954   7.862  13.875  1.00  0.00     0.309 C 
ENDBRANCH  24  25
ENDBRANCH  23  24
ENDBRANCH  22  23
ENDBRANCH  20  22
ENDBRANCH  11  20
BRANCH   1  28
HETATM   28  O2  UNL     1      -2.264   6.354  14.499  1.00  0.00    -0.308 OA
BRANCH  28  29
HETATM   29  C2  UNL     1      -3.184   6.671  15.443  1.00  0.00     0.255 C 
HETATM   30  C1  UNL     1      -2.650   7.737  16.349  1.00  0.00     0.126 C 
HETATM   31  O1  UNL     1      -4.301   6.181  15.533  1.00  0.00    -0.266 OA
ENDBRANCH  28  29
ENDBRANCH   1  28
BRANCH  19  32
HETATM   32  O6  UNL     1      -4.478   8.093  13.295  1.00  0.00    -0.393 OA
HETATM   33  H39 UNL     1      -4.727   7.350  13.884  1.00  0.00     0.210 HD
ENDBRANCH  19  32
TORSDOF 8
ENDMDL
MODEL 9
REMARK minimizedAffinity -7.13722992
REMARK  8 active torsions:
REMARK  status: ('A' for Active; 'I' for Inactive)
REMARK    1  A    between atoms: C2_2  and  O2_4 
REMARK    2  A    between atoms: O2_4  and  C3_5 
REMARK    3  A    between atoms: C12_15  and  C13_16 
REMARK    4  A    between atoms: C13_16  and  O5_18 
REMARK    5  A    between atoms: O5_18  and  C14_19 
REMARK    6  A    between atoms: C14_19  and  C15_20 
REMARK    7  A    between atoms: C15_20  and  N1_21 
REMARK    8  A    between atoms: C25_31  and  O6_32 
ROOT
HETATM    1  C3  UNL     1      -5.889   5.413  13.730  1.00  0.00     0.097 C 
HETATM    2  C4  UNL     1      -6.245   4.008  13.197  1.00  0.00     0.050 C 
HETATM    3  C5  UNL     1      -4.422   5.790  13.297  1.00  0.00     0.038 C 
HETATM    4  C6  UNL     1      -3.375   4.795  13.823  1.00  0.00     0.087 C 
HETATM    5  C7  UNL     1      -2.010   5.072  13.239  1.00  0.00     0.132 C 
HETATM    6  O3  UNL     1      -1.299   4.134  12.877  1.00  0.00    -0.298 OA
HETATM    7  C8  UNL     1      -1.512   6.513  13.265  1.00  0.00     0.068 C 
HETATM    8  C9  UNL     1      -0.210   6.701  12.439  1.00  0.00     0.022 C 
HETATM    9  C10 UNL     1      -0.340   6.357  10.946  1.00  0.00     0.015 C 
HETATM   10  C11 UNL     1       0.273   8.140  12.597  1.00  0.00    -0.070 C 
HETATM   11  C12 UNL     1       1.481   8.561  13.030  1.00  0.00     0.085 C 
HETATM   12  C18 UNL     1      -0.771   9.172  12.216  1.00  0.00     0.035 C 
HETATM   13  C19 UNL     1      -2.071   8.962  12.995  1.00  0.00     0.010 C 
HETATM   14  C20 UNL     1      -2.620   7.520  12.861  1.00  0.00     0.006 C 
HETATM   15  C21 UNL     1      -3.983   7.271  13.623  1.00  0.00    -0.033 C 
HETATM   16  C22 UNL     1      -3.812   7.547  15.139  1.00  0.00     0.016 C 
HETATM   17  C23 UNL     1      -5.065   8.243  13.080  1.00  0.00     0.012 C 
HETATM   18  C24 UNL     1      -6.481   7.900  13.527  1.00  0.00     0.035 C 
HETATM   19  C25 UNL     1      -6.861   6.478  13.131  1.00  0.00     0.153 C 
ENDROOT
BRANCH  11  20
HETATM   20  C13 UNL     1       2.692   7.840  13.490  1.00  0.00     0.283 C 
HETATM   21  O4  UNL     1       2.737   7.317  14.595  1.00  0.00    -0.260 OA
BRANCH  20  22
HETATM   22  O5  UNL     1       3.664   7.797  12.558  1.00  0.00    -0.316 OA
BRANCH  22  23
HETATM   23  C14 UNL     1       3.348   7.084  11.348  1.00  0.00     0.209 C 
BRANCH  23  24
HETATM   24  C15 UNL     1       3.764   7.920  10.127  1.00  0.00     0.298 C 
BRANCH  24  25
HETATM   25  N1  UNL     1       3.447   7.390   8.792  1.00  0.00     0.082 N 
HETATM   26  C16 UNL     1       2.586   8.290   8.029  1.00  0.00     0.309 C 
HETATM   27  C17 UNL     1       2.889   6.041   8.836  1.00  0.00     0.309 C 
ENDBRANCH  24  25
ENDBRANCH  23  24
ENDBRANCH  22  23
ENDBRANCH  20  22
ENDBRANCH  11  20
BRANCH   1  28
HETATM   28  O2  UNL     1      -5.879   5.411  15.186  1.00  0.00    -0.308 OA
BRANCH  28  29
HETATM   29  C2  UNL     1      -7.018   5.336  15.918  1.00  0.00     0.255 C 
HETATM   30  C1  UNL     1      -7.157   6.550  16.784  1.00  0.00     0.126 C 
HETATM   31  O1  UNL     1      -7.833   4.426  15.865  1.00  0.00    -0.266 OA
ENDBRANCH  28  29
ENDBRANCH   1  28
BRANCH  19  32
HETATM   32  O6  UNL     1      -8.240   6.307  13.453  1.00  0.00    -0.393 OA
HETATM   33  H39 UNL     1      -8.356   5.540  14.053  1.00  0.00     0.210 HD
ENDBRANCH  19  32
TORSDOF 8
ENDMDL
