MODEL 1
REMARK minimizedAffinity -7.97718477
REMARK CNNscore 0.394185156
REMARK CNNaffinity 6.5504117
REMARK  14 active torsions:
REMARK  status: ('A' for Active; 'I' for Inactive)
REMARK    1  A    between atoms: O1_2  and  C2_3 
REMARK    2  A    between atoms: C8_9  and  O2_10 
REMARK    3  A    between atoms: O2_10  and  C9_11 
REMARK    4  A    between atoms: C10_13  and  C11_14 
REMARK    5  A    between atoms: C11_14  and  O4_15 
REMARK    6  A    between atoms: C12_16  and  O5_17 
REMARK    7  A    between atoms: C13_18  and  O6_19 
REMARK    8  A    between atoms: C14_20  and  O7_21 
REMARK    9  A    between atoms: C18_25  and  C19_26 
REMARK   10  A    between atoms: C24_32  and  C25_33 
REMARK   11  A    between atoms: C25_33  and  C27_35 
REMARK   12  A    between atoms: C27_35  and  C28_36 
REMARK   13  A    between atoms: C29_37  and  C30_38 
REMARK   14  A    between atoms: C30_38  and  O9_41 
ROOT
HETATM    1  C2  UNL     1      -0.151  13.478  17.671  1.00  0.00     0.149 C 
HETATM    2  C3  UNL     1      -1.412  12.752  17.360  1.00  0.00     0.009 C 
HETATM    3  C4  UNL     1      -1.459  11.587  16.696  1.00  0.00    -0.066 C 
HETATM    4  C5  UNL     1      -0.184  10.902  16.251  1.00  0.00     0.031 C 
HETATM    5  C6  UNL     1      -0.142  10.929  14.703  1.00  0.00     0.013 C 
HETATM    6  C7  UNL     1      -1.498  10.635  14.036  1.00  0.00     0.034 C 
HETATM    7  C8  UNL     1      -2.508   9.985  14.991  1.00  0.00     0.136 C 
HETATM    8  C15 UNL     1      -2.773  10.918  16.233  1.00  0.00     0.002 C 
HETATM    9  C16 UNL     1      -3.324  10.052  17.383  1.00  0.00     0.022 C 
HETATM   10  C17 UNL     1      -3.855  11.973  15.883  1.00  0.00     0.022 C 
HETATM   11  C18 UNL     1       1.164  11.307  17.004  1.00  0.00     0.027 C 
HETATM   12  C20 UNL     1       1.682  10.005  17.727  1.00  0.00     0.018 C 
HETATM   13  C21 UNL     1       2.587  10.102  18.967  1.00  0.00     0.011 C 
HETATM   14  C22 UNL     1       2.631  11.468  19.658  1.00  0.00    -0.032 C 
HETATM   15  C23 UNL     1       3.845  12.243  19.063  1.00  0.00     0.016 C 
HETATM   16  C24 UNL     1       2.774  11.468  21.222  1.00  0.00    -0.002 C 
HETATM   17  C34 UNL     1       2.222  12.873  21.609  1.00  0.00     0.006 C 
HETATM   18  C35 UNL     1       1.414  13.398  20.409  1.00  0.00     0.011 C 
HETATM   19  C36 UNL     1       1.240  12.188  19.473  1.00  0.00    -0.029 C 
HETATM   20  C37 UNL     1       0.003  11.404  20.014  1.00  0.00     0.016 C 
HETATM   21  C38 UNL     1       1.047  12.553  17.972  1.00  0.00     0.043 C 
ENDROOT
BRANCH   7  22
HETATM   22  O2  UNL     1      -3.739   9.718  14.299  1.00  0.00    -0.352 OA
BRANCH  22  23
HETATM   23  C9  UNL     1      -3.815   8.407  13.724  1.00  0.00     0.292 C 
HETATM   24  O3  UNL     1      -5.119   8.197  13.190  1.00  0.00    -0.348 OA
HETATM   25  C10 UNL     1      -6.059   7.529  14.041  1.00  0.00     0.179 C 
HETATM   26  C12 UNL     1      -5.556   6.105  14.320  1.00  0.00     0.180 C 
HETATM   27  C13 UNL     1      -4.042   6.024  14.595  1.00  0.00     0.183 C 
HETATM   28  C14 UNL     1      -3.384   7.385  14.807  1.00  0.00     0.204 C 
BRANCH  25  29
HETATM   29  C11 UNL     1      -6.431   8.313  15.306  1.00  0.00     0.198 C 
BRANCH  29  30
HETATM   30  O4  UNL     1      -6.660   7.425  16.395  1.00  0.00    -0.398 OA
HETATM   31  H16 UNL     1      -7.601   7.163  16.346  1.00  0.00     0.209 HD
ENDBRANCH  29  30
ENDBRANCH  25  29
BRANCH  26  32
HETATM   32  O5  UNL     1      -5.822   5.266  13.171  1.00  0.00    -0.390 OA
HETATM   33  H18 UNL     1      -5.701   5.831  12.382  1.00  0.00     0.210 HD
ENDBRANCH  26  32
BRANCH  27  34
HETATM   34  O6  UNL     1      -3.355   5.354  13.514  1.00  0.00    -0.390 OA
HETATM   35  H20 UNL     1      -4.020   4.724  13.172  1.00  0.00     0.210 HD
ENDBRANCH  27  34
BRANCH  28  36
HETATM   36  O7  UNL     1      -1.956   7.234  14.815  1.00  0.00    -0.388 OA
HETATM   37  H22 UNL     1      -1.775   6.415  14.302  1.00  0.00     0.210 HD
ENDBRANCH  28  36
ENDBRANCH  22  23
ENDBRANCH   7  22
BRANCH  11  38
HETATM   38  C19 UNL     1       2.207  11.717  15.950  1.00  0.00     0.241 C 
HETATM   39  O8  UNL     1       3.344  11.256  15.868  1.00  0.00    -0.306 OA
ENDBRANCH  11  38
BRANCH   1  40
HETATM   40  O1  UNL     1       0.205  14.252  16.510  1.00  0.00    -0.386 OA
HETATM   41  C1  UNL     1      -0.734  15.276  16.197  1.00  0.00     0.202 C 
ENDBRANCH   1  40
BRANCH  16  42
HETATM   42  C25 UNL     1       4.155  11.166  21.889  1.00  0.00    -0.010 C 
HETATM   43  C26 UNL     1       4.091   9.915  22.775  1.00  0.00     0.010 C 
BRANCH  42  44
HETATM   44  C27 UNL     1       4.639  12.394  22.713  1.00  0.00     0.031 C 
BRANCH  44  45
HETATM   45  C28 UNL     1       6.123  12.422  22.973  1.00  0.00    -0.027 C 
HETATM   46  C29 UNL     1       6.910  13.484  22.732  1.00  0.00     0.006 C 
BRANCH  46  47
HETATM   47  C30 UNL     1       8.403  13.605  22.984  1.00  0.00     0.070 C 
HETATM   48  C31 UNL     1       9.153  12.276  23.182  1.00  0.00     0.050 C 
HETATM   49  C32 UNL     1       9.024  14.319  21.776  1.00  0.00     0.050 C 
BRANCH  47  50
HETATM   50  O9  UNL     1       8.610  14.494  24.093  1.00  0.00    -0.382 OA
HETATM   51  C33 UNL     1       8.041  15.789  23.972  1.00  0.00     0.202 C 
ENDBRANCH  47  50
ENDBRANCH  46  47
ENDBRANCH  44  45
ENDBRANCH  42  44
ENDBRANCH  16  42
TORSDOF 14
ENDMDL
MODEL 2
REMARK minimizedAffinity -7.88583612
REMARK CNNscore 0.320806682
REMARK CNNaffinity 7.01702118
REMARK  14 active torsions:
REMARK  status: ('A' for Active; 'I' for Inactive)
REMARK    1  A    between atoms: O1_2  and  C2_3 
REMARK    2  A    between atoms: C8_9  and  O2_10 
REMARK    3  A    between atoms: O2_10  and  C9_11 
REMARK    4  A    between atoms: C10_13  and  C11_14 
REMARK    5  A    between atoms: C11_14  and  O4_15 
REMARK    6  A    between atoms: C12_16  and  O5_17 
REMARK    7  A    between atoms: C13_18  and  O6_19 
REMARK    8  A    between atoms: C14_20  and  O7_21 
REMARK    9  A    between atoms: C18_25  and  C19_26 
REMARK   10  A    between atoms: C24_32  and  C25_33 
REMARK   11  A    between atoms: C25_33  and  C27_35 
REMARK   12  A    between atoms: C27_35  and  C28_36 
REMARK   13  A    between atoms: C29_37  and  C30_38 
REMARK   14  A    between atoms: C30_38  and  O9_41 
ROOT
HETATM    1  C2  UNL     1      -1.826   9.633  13.129  1.00  0.00     0.149 C 
HETATM    2  C3  UNL     1      -0.652   8.995  12.476  1.00  0.00     0.009 C 
HETATM    3  C4  UNL     1       0.209   8.186  13.113  1.00  0.00    -0.066 C 
HETATM    4  C5  UNL     1      -0.004   7.829  14.569  1.00  0.00     0.031 C 
HETATM    5  C6  UNL     1       1.145   8.466  15.390  1.00  0.00     0.013 C 
HETATM    6  C7  UNL     1       2.526   8.357  14.719  1.00  0.00     0.034 C 
HETATM    7  C8  UNL     1       2.569   7.310  13.599  1.00  0.00     0.136 C 
HETATM    8  C15 UNL     1       1.515   7.656  12.480  1.00  0.00     0.002 C 
HETATM    9  C16 UNL     1       1.201   6.369  11.692  1.00  0.00     0.022 C 
HETATM   10  C17 UNL     1       2.118   8.679  11.481  1.00  0.00     0.022 C 
HETATM   11  C18 UNL     1      -1.478   8.005  15.157  1.00  0.00     0.027 C 
HETATM   12  C20 UNL     1      -1.966   6.566  15.579  1.00  0.00     0.018 C 
HETATM   13  C21 UNL     1      -3.467   6.235  15.647  1.00  0.00     0.011 C 
HETATM   14  C22 UNL     1      -4.401   7.218  14.936  1.00  0.00    -0.032 C 
HETATM   15  C23 UNL     1      -4.873   8.254  16.001  1.00  0.00     0.016 C 
HETATM   16  C24 UNL     1      -5.678   6.613  14.249  1.00  0.00    -0.002 C 
HETATM   17  C34 UNL     1      -6.045   7.708  13.202  1.00  0.00     0.006 C 
HETATM   18  C35 UNL     1      -4.805   8.600  13.013  1.00  0.00     0.011 C 
HETATM   19  C36 UNL     1      -3.651   7.846  13.700  1.00  0.00    -0.029 C 
HETATM   20  C37 UNL     1      -3.123   6.822  12.646  1.00  0.00     0.016 C 
HETATM   21  C38 UNL     1      -2.496   8.757  14.209  1.00  0.00     0.043 C 
ENDROOT
BRANCH   7  22
HETATM   22  O2  UNL     1       3.889   7.245  13.034  1.00  0.00    -0.352 OA
BRANCH  22  23
HETATM   23  C9  UNL     1       4.831   8.134  13.646  1.00  0.00     0.292 C 
HETATM   24  O3  UNL     1       5.353   9.024  12.662  1.00  0.00    -0.348 OA
HETATM   25  C10 UNL     1       6.592   8.647  12.050  1.00  0.00     0.179 C 
HETATM   26  C12 UNL     1       7.691   8.620  13.122  1.00  0.00     0.180 C 
HETATM   27  C13 UNL     1       7.242   7.991  14.455  1.00  0.00     0.183 C 
HETATM   28  C14 UNL     1       5.897   7.275  14.374  1.00  0.00     0.204 C 
BRANCH  25  29
HETATM   29  C11 UNL     1       6.514   7.365  11.211  1.00  0.00     0.198 C 
BRANCH  29  30
HETATM   30  O4  UNL     1       5.403   7.416  10.322  1.00  0.00    -0.398 OA
HETATM   31  H16 UNL     1       4.633   7.072  10.820  1.00  0.00     0.209 HD
ENDBRANCH  29  30
ENDBRANCH  25  29
BRANCH  26  32
HETATM   32  O5  UNL     1       8.113   9.972  13.414  1.00  0.00    -0.390 OA
HETATM   33  H18 UNL     1       7.313  10.532  13.348  1.00  0.00     0.210 HD
ENDBRANCH  26  32
BRANCH  27  34
HETATM   34  O6  UNL     1       7.160   8.991  15.497  1.00  0.00    -0.390 OA
HETATM   35  H20 UNL     1       7.845   9.642  15.246  1.00  0.00     0.210 HD
ENDBRANCH  27  34
BRANCH  28  36
HETATM   36  O7  UNL     1       5.450   6.935  15.696  1.00  0.00    -0.388 OA
HETATM   37  H22 UNL     1       5.894   7.575  16.296  1.00  0.00     0.210 HD
ENDBRANCH  28  36
ENDBRANCH  22  23
ENDBRANCH   7  22
BRANCH  11  38
HETATM   38  C19 UNL     1      -1.396   8.874  16.425  1.00  0.00     0.241 C 
HETATM   39  O8  UNL     1      -2.241   9.700  16.767  1.00  0.00    -0.306 OA
ENDBRANCH  11  38
BRANCH   1  40
HETATM   40  O1  UNL     1      -1.365  10.825  13.791  1.00  0.00    -0.386 OA
HETATM   41  C1  UNL     1      -2.413  11.595  14.375  1.00  0.00     0.202 C 
ENDBRANCH   1  40
BRANCH  16  42
HETATM   42  C25 UNL     1      -6.908   6.178  15.111  1.00  0.00    -0.010 C 
HETATM   43  C26 UNL     1      -6.478   5.339  16.321  1.00  0.00     0.010 C 
BRANCH  42  44
HETATM   44  C27 UNL     1      -7.932   5.395  14.239  1.00  0.00     0.031 C 
BRANCH  44  45
HETATM   45  C28 UNL     1      -9.102   6.218  13.766  1.00  0.00    -0.027 C 
HETATM   46  C29 UNL     1      -9.853   6.991  14.569  1.00  0.00     0.006 C 
BRANCH  46  47
HETATM   47  C30 UNL     1     -11.031   7.864  14.174  1.00  0.00     0.070 C 
HETATM   48  C31 UNL     1     -10.814   9.379  14.324  1.00  0.00     0.050 C 
HETATM   49  C32 UNL     1     -11.350   7.579  12.700  1.00  0.00     0.050 C 
BRANCH  47  50
HETATM   50  O9  UNL     1     -12.190   7.426  14.900  1.00  0.00    -0.382 OA
HETATM   51  C33 UNL     1     -13.408   8.090  14.596  1.00  0.00     0.202 C 
ENDBRANCH  47  50
ENDBRANCH  46  47
ENDBRANCH  44  45
ENDBRANCH  42  44
ENDBRANCH  16  42
TORSDOF 14
ENDMDL
MODEL 3
REMARK minimizedAffinity -9.29721642
REMARK CNNscore 0.294540912
REMARK CNNaffinity 6.89026976
REMARK  14 active torsions:
REMARK  status: ('A' for Active; 'I' for Inactive)
REMARK    1  A    between atoms: O1_2  and  C2_3 
REMARK    2  A    between atoms: C8_9  and  O2_10 
REMARK    3  A    between atoms: O2_10  and  C9_11 
REMARK    4  A    between atoms: C10_13  and  C11_14 
REMARK    5  A    between atoms: C11_14  and  O4_15 
REMARK    6  A    between atoms: C12_16  and  O5_17 
REMARK    7  A    between atoms: C13_18  and  O6_19 
REMARK    8  A    between atoms: C14_20  and  O7_21 
REMARK    9  A    between atoms: C18_25  and  C19_26 
REMARK   10  A    between atoms: C24_32  and  C25_33 
REMARK   11  A    between atoms: C25_33  and  C27_35 
REMARK   12  A    between atoms: C27_35  and  C28_36 
REMARK   13  A    between atoms: C29_37  and  C30_38 
REMARK   14  A    between atoms: C30_38  and  O9_41 
ROOT
HETATM    1  C2  UNL     1      -1.495   6.570  14.980  1.00  0.00     0.149 C 
HETATM    2  C3  UNL     1      -2.930   6.178  14.974  1.00  0.00     0.009 C 
HETATM    3  C4  UNL     1      -3.921   6.977  14.549  1.00  0.00    -0.066 C 
HETATM    4  C5  UNL     1      -3.617   8.352  13.991  1.00  0.00     0.031 C 
HETATM    5  C6  UNL     1      -4.193   9.404  14.971  1.00  0.00     0.013 C 
HETATM    6  C7  UNL     1      -5.580   9.043  15.531  1.00  0.00     0.034 C 
HETATM    7  C8  UNL     1      -6.288   7.948  14.721  1.00  0.00     0.136 C 
HETATM    8  C15 UNL     1      -5.421   6.633  14.695  1.00  0.00     0.002 C 
HETATM    9  C16 UNL     1      -5.858   5.786  13.484  1.00  0.00     0.022 C 
HETATM   10  C17 UNL     1      -5.689   5.795  15.972  1.00  0.00     0.022 C 
HETATM   11  C18 UNL     1      -2.134   8.613  13.461  1.00  0.00     0.027 C 
HETATM   12  C20 UNL     1      -2.257   8.909  11.917  1.00  0.00     0.018 C 
HETATM   13  C21 UNL     1      -1.070   8.652  10.971  1.00  0.00     0.011 C 
HETATM   14  C22 UNL     1       0.048   7.766  11.528  1.00  0.00    -0.032 C 
HETATM   15  C23 UNL     1       1.117   8.715  12.150  1.00  0.00     0.016 C 
HETATM   16  C24 UNL     1       0.776   6.818  10.508  1.00  0.00    -0.002 C 
HETATM   17  C34 UNL     1       1.381   5.725  11.441  1.00  0.00     0.006 C 
HETATM   18  C35 UNL     1       0.647   5.813  12.791  1.00  0.00     0.011 C 
HETATM   19  C36 UNL     1      -0.568   6.724  12.537  1.00  0.00    -0.029 C 
HETATM   20  C37 UNL     1      -1.679   5.799  11.948  1.00  0.00     0.016 C 
HETATM   21  C38 UNL     1      -1.088   7.475  13.798  1.00  0.00     0.043 C 
ENDROOT
BRANCH   7  22
HETATM   22  O2  UNL     1      -7.583   7.678  15.283  1.00  0.00    -0.352 OA
BRANCH  22  23
HETATM   23  C9  UNL     1      -8.677   8.006  14.417  1.00  0.00     0.292 C 
HETATM   24  O3  UNL     1      -9.215   9.272  14.789  1.00  0.00    -0.348 OA
HETATM   25  C10 UNL     1     -10.340   9.254  15.676  1.00  0.00     0.179 C 
HETATM   26  C12 UNL     1     -11.518   8.561  14.974  1.00  0.00     0.180 C 
HETATM   27  C13 UNL     1     -11.114   7.303  14.181  1.00  0.00     0.183 C 
HETATM   28  C14 UNL     1      -9.689   6.833  14.461  1.00  0.00     0.204 C 
BRANCH  25  29
HETATM   29  C11 UNL     1     -10.033   8.694  17.071  1.00  0.00     0.198 C 
BRANCH  29  30
HETATM   30  O4  UNL     1     -11.123   8.933  17.956  1.00  0.00    -0.398 OA
HETATM   31  H16 UNL     1     -10.978   9.821  18.340  1.00  0.00     0.209 HD
ENDBRANCH  29  30
ENDBRANCH  25  29
BRANCH  26  32
HETATM   32  O5  UNL     1     -12.125   9.477  14.034  1.00  0.00    -0.390 OA
HETATM   33  H18 UNL     1     -11.397  10.011  13.658  1.00  0.00     0.210 HD
ENDBRANCH  26  32
BRANCH  27  34
HETATM   34  O6  UNL     1     -11.245   7.525  12.758  1.00  0.00    -0.390 OA
HETATM   35  H20 UNL     1     -11.980   8.167  12.692  1.00  0.00     0.210 HD
ENDBRANCH  27  34
BRANCH  28  36
HETATM   36  O7  UNL     1      -9.322   5.817  13.514  1.00  0.00    -0.388 OA
HETATM   37  H22 UNL     1      -9.891   5.972  12.727  1.00  0.00     0.210 HD
ENDBRANCH  28  36
ENDBRANCH  22  23
ENDBRANCH   7  22
BRANCH  11  38
HETATM   38  C19 UNL     1      -1.586   9.876  14.149  1.00  0.00     0.241 C 
HETATM   39  O8  UNL     1      -1.474  10.977  13.612  1.00  0.00    -0.306 OA
ENDBRANCH  11  38
BRANCH   1  40
HETATM   40  O1  UNL     1      -1.253   7.325  16.181  1.00  0.00    -0.386 OA
HETATM   41  C1  UNL     1       0.070   7.848  16.269  1.00  0.00     0.202 C 
ENDBRANCH   1  40
BRANCH  16  42
HETATM   42  C25 UNL     1       1.828   7.394   9.505  1.00  0.00    -0.010 C 
HETATM   43  C26 UNL     1       1.156   7.939   8.238  1.00  0.00     0.010 C 
BRANCH  42  44
HETATM   44  C27 UNL     1       2.881   6.308   9.141  1.00  0.00     0.031 C 
BRANCH  44  45
HETATM   45  C28 UNL     1       4.135   6.354   9.975  1.00  0.00    -0.027 C 
HETATM   46  C29 UNL     1       4.734   7.490  10.371  1.00  0.00     0.006 C 
BRANCH  46  47
HETATM   47  C30 UNL     1       5.982   7.626  11.227  1.00  0.00     0.070 C 
HETATM   48  C31 UNL     1       5.737   7.906  12.719  1.00  0.00     0.050 C 
HETATM   49  C32 UNL     1       6.769   6.313  11.117  1.00  0.00     0.050 C 
BRANCH  47  50
HETATM   50  O9  UNL     1       6.833   8.624  10.640  1.00  0.00    -0.382 OA
HETATM   51  C33 UNL     1       6.450   9.976  10.850  1.00  0.00     0.202 C 
ENDBRANCH  47  50
ENDBRANCH  46  47
ENDBRANCH  44  45
ENDBRANCH  42  44
ENDBRANCH  16  42
TORSDOF 14
ENDMDL
MODEL 4
REMARK minimizedAffinity -7.0583005
REMARK CNNscore 0.24744536
REMARK CNNaffinity 6.09671831
REMARK  14 active torsions:
REMARK  status: ('A' for Active; 'I' for Inactive)
REMARK    1  A    between atoms: O1_2  and  C2_3 
REMARK    2  A    between atoms: C8_9  and  O2_10 
REMARK    3  A    between atoms: O2_10  and  C9_11 
REMARK    4  A    between atoms: C10_13  and  C11_14 
REMARK    5  A    between atoms: C11_14  and  O4_15 
REMARK    6  A    between atoms: C12_16  and  O5_17 
REMARK    7  A    between atoms: C13_18  and  O6_19 
REMARK    8  A    between atoms: C14_20  and  O7_21 
REMARK    9  A    between atoms: C18_25  and  C19_26 
REMARK   10  A    between atoms: C24_32  and  C25_33 
REMARK   11  A    between atoms: C25_33  and  C27_35 
REMARK   12  A    between atoms: C27_35  and  C28_36 
REMARK   13  A    between atoms: C29_37  and  C30_38 
REMARK   14  A    between atoms: C30_38  and  O9_41 
ROOT
HETATM    1  C2  UNL     1       1.190  10.687  20.512  1.00  0.00     0.149 C 
HETATM    2  C3  UNL     1       1.858  11.813  21.219  1.00  0.00     0.009 C 
HETATM    3  C4  UNL     1       2.771  12.616  20.650  1.00  0.00    -0.066 C 
HETATM    4  C5  UNL     1       3.151  12.441  19.195  1.00  0.00     0.031 C 
HETATM    5  C6  UNL     1       4.623  11.965  19.139  1.00  0.00     0.013 C 
HETATM    6  C7  UNL     1       5.549  12.679  20.140  1.00  0.00     0.034 C 
HETATM    7  C8  UNL     1       4.945  13.975  20.698  1.00  0.00     0.136 C 
HETATM    8  C15 UNL     1       3.581  13.677  21.428  1.00  0.00     0.002 C 
HETATM    9  C16 UNL     1       2.765  14.984  21.485  1.00  0.00     0.022 C 
HETATM   10  C17 UNL     1       3.848  13.230  22.889  1.00  0.00     0.022 C 
HETATM   11  C18 UNL     1       2.118  11.662  18.259  1.00  0.00     0.027 C 
HETATM   12  C20 UNL     1       1.641  12.693  17.165  1.00  0.00     0.018 C 
HETATM   13  C21 UNL     1       0.282  12.521  16.463  1.00  0.00     0.011 C 
HETATM   14  C22 UNL     1      -0.702  11.561  17.138  1.00  0.00    -0.032 C 
HETATM   15  C23 UNL     1      -0.505  10.164  16.476  1.00  0.00     0.016 C 
HETATM   16  C24 UNL     1      -2.227  11.930  17.048  1.00  0.00    -0.002 C 
HETATM   17  C34 UNL     1      -2.832  11.141  18.248  1.00  0.00     0.006 C 
HETATM   18  C35 UNL     1      -1.671  10.762  19.185  1.00  0.00     0.011 C 
HETATM   19  C36 UNL     1      -0.466  11.587  18.696  1.00  0.00    -0.029 C 
HETATM   20  C37 UNL     1      -0.606  12.988  19.371  1.00  0.00     0.016 C 
HETATM   21  C38 UNL     1       0.921  10.958  19.016  1.00  0.00     0.043 C 
ENDROOT
BRANCH   7  22
HETATM   22  O2  UNL     1       5.868  14.599  21.605  1.00  0.00    -0.352 OA
BRANCH  22  23
HETATM   23  C9  UNL     1       6.979  15.237  20.962  1.00  0.00     0.292 C 
HETATM   24  O3  UNL     1       8.159  14.467  21.175  1.00  0.00    -0.348 OA
HETATM   25  C10 UNL     1       8.986  14.855  22.278  1.00  0.00     0.179 C 
HETATM   26  C12 UNL     1       9.528  16.270  22.023  1.00  0.00     0.180 C 
HETATM   27  C13 UNL     1       8.481  17.238  21.439  1.00  0.00     0.183 C 
HETATM   28  C14 UNL     1       7.055  16.697  21.478  1.00  0.00     0.204 C 
BRANCH  25  29
HETATM   29  C11 UNL     1       8.325  14.684  23.652  1.00  0.00     0.198 C 
BRANCH  29  30
HETATM   30  O4  UNL     1       9.106  15.309  24.665  1.00  0.00    -0.398 OA
HETATM   31  H16 UNL     1       9.763  14.646  24.958  1.00  0.00     0.209 HD
ENDBRANCH  29  30
ENDBRANCH  25  29
BRANCH  26  32
HETATM   32  O5  UNL     1      10.619  16.205  21.077  1.00  0.00    -0.390 OA
HETATM   33  H18 UNL     1      10.393  15.495  20.442  1.00  0.00     0.210 HD
ENDBRANCH  26  32
BRANCH  27  34
HETATM   34  O6  UNL     1       8.798  17.576  20.069  1.00  0.00    -0.390 OA
HETATM   35  H20 UNL     1       9.775  17.528  20.039  1.00  0.00     0.210 HD
ENDBRANCH  27  34
BRANCH  28  36
HETATM   36  O7  UNL     1       6.194  17.549  20.705  1.00  0.00    -0.388 OA
HETATM   37  H22 UNL     1       6.781  17.995  20.054  1.00  0.00     0.210 HD
ENDBRANCH  28  36
ENDBRANCH  22  23
ENDBRANCH   7  22
BRANCH  11  38
HETATM   38  C19 UNL     1       2.867  10.522  17.548  1.00  0.00     0.241 C 
HETATM   39  O8  UNL     1       2.488   9.354  17.499  1.00  0.00    -0.306 OA
ENDBRANCH  11  38
BRANCH   1  40
HETATM   40  O1  UNL     1       2.069   9.549  20.575  1.00  0.00    -0.386 OA
HETATM   41  C1  UNL     1       2.421   9.173  21.903  1.00  0.00     0.202 C 
ENDBRANCH   1  40
BRANCH  16  42
HETATM   42  C25 UNL     1      -3.019  11.697  15.721  1.00  0.00    -0.010 C 
HETATM   43  C26 UNL     1      -3.183  13.000  14.929  1.00  0.00     0.010 C 
BRANCH  42  44
HETATM   44  C27 UNL     1      -4.408  11.063  16.023  1.00  0.00     0.031 C 
BRANCH  44  45
HETATM   45  C28 UNL     1      -4.530   9.615  15.624  1.00  0.00    -0.027 C 
HETATM   46  C29 UNL     1      -4.265   9.149  14.392  1.00  0.00     0.006 C 
BRANCH  46  47
HETATM   47  C30 UNL     1      -4.340   7.710  13.912  1.00  0.00     0.070 C 
HETATM   48  C31 UNL     1      -3.118   7.207  13.126  1.00  0.00     0.050 C 
HETATM   49  C32 UNL     1      -4.506   6.814  15.148  1.00  0.00     0.050 C 
BRANCH  47  50
HETATM   50  O9  UNL     1      -5.553   7.541  13.161  1.00  0.00    -0.382 OA
HETATM   51  C33 UNL     1      -6.430   6.518  13.609  1.00  0.00     0.202 C 
ENDBRANCH  47  50
ENDBRANCH  46  47
ENDBRANCH  44  45
ENDBRANCH  42  44
ENDBRANCH  16  42
TORSDOF 14
ENDMDL
MODEL 5
REMARK minimizedAffinity -8.82316494
REMARK CNNscore 0.232944176
REMARK CNNaffinity 6.96243525
REMARK  14 active torsions:
REMARK  status: ('A' for Active; 'I' for Inactive)
REMARK    1  A    between atoms: O1_2  and  C2_3 
REMARK    2  A    between atoms: C8_9  and  O2_10 
REMARK    3  A    between atoms: O2_10  and  C9_11 
REMARK    4  A    between atoms: C10_13  and  C11_14 
REMARK    5  A    between atoms: C11_14  and  O4_15 
REMARK    6  A    between atoms: C12_16  and  O5_17 
REMARK    7  A    between atoms: C13_18  and  O6_19 
REMARK    8  A    between atoms: C14_20  and  O7_21 
REMARK    9  A    between atoms: C18_25  and  C19_26 
REMARK   10  A    between atoms: C24_32  and  C25_33 
REMARK   11  A    between atoms: C25_33  and  C27_35 
REMARK   12  A    between atoms: C27_35  and  C28_36 
REMARK   13  A    between atoms: C29_37  and  C30_38 
REMARK   14  A    between atoms: C30_38  and  O9_41 
ROOT
HETATM    1  C2  UNL     1      -2.128   9.762  13.534  1.00  0.00     0.149 C 
HETATM    2  C3  UNL     1      -0.833   9.240  13.019  1.00  0.00     0.009 C 
HETATM    3  C4  UNL     1       0.008   8.484  13.740  1.00  0.00    -0.066 C 
HETATM    4  C5  UNL     1      -0.348   8.068  15.152  1.00  0.00     0.031 C 
HETATM    5  C6  UNL     1       0.636   8.772  16.120  1.00  0.00     0.013 C 
HETATM    6  C7  UNL     1       2.092   8.794  15.622  1.00  0.00     0.034 C 
HETATM    7  C8  UNL     1       2.358   7.788  14.495  1.00  0.00     0.136 C 
HETATM    8  C15 UNL     1       1.421   8.081  13.262  1.00  0.00     0.002 C 
HETATM    9  C16 UNL     1       1.314   6.796  12.417  1.00  0.00     0.022 C 
HETATM   10  C17 UNL     1       2.052   9.178  12.366  1.00  0.00     0.022 C 
HETATM   11  C18 UNL     1      -1.891   8.108  15.558  1.00  0.00     0.027 C 
HETATM   12  C20 UNL     1      -2.305   6.622  15.888  1.00  0.00     0.018 C 
HETATM   13  C21 UNL     1      -3.770   6.169  15.764  1.00  0.00     0.011 C 
HETATM   14  C22 UNL     1      -4.691   7.094  14.964  1.00  0.00    -0.032 C 
HETATM   15  C23 UNL     1      -5.373   8.057  15.983  1.00  0.00     0.016 C 
HETATM   16  C24 UNL     1      -5.820   6.409  14.114  1.00  0.00    -0.002 C 
HETATM   17  C34 UNL     1      -6.148   7.501  13.051  1.00  0.00     0.006 C 
HETATM   18  C35 UNL     1      -4.973   8.495  13.034  1.00  0.00     0.011 C 
HETATM   19  C36 UNL     1      -3.852   7.817  13.842  1.00  0.00    -0.029 C 
HETATM   20  C37 UNL     1      -3.117   6.870  12.841  1.00  0.00     0.016 C 
HETATM   21  C38 UNL     1      -2.847   8.803  14.507  1.00  0.00     0.043 C 
ENDROOT
BRANCH   7  22
HETATM   22  O2  UNL     1       3.737   7.846  14.096  1.00  0.00    -0.352 OA
BRANCH  22  23
HETATM   23  C9  UNL     1       4.656   7.992  15.186  1.00  0.00     0.292 C 
HETATM   24  O3  UNL     1       4.422   9.235  15.843  1.00  0.00    -0.348 OA
HETATM   25  C10 UNL     1       5.234  10.340  15.430  1.00  0.00     0.179 C 
HETATM   26  C12 UNL     1       6.702  10.034  15.764  1.00  0.00     0.180 C 
HETATM   27  C13 UNL     1       7.119   8.584  15.452  1.00  0.00     0.183 C 
HETATM   28  C14 UNL     1       6.091   7.813  14.628  1.00  0.00     0.204 C 
BRANCH  25  29
HETATM   29  C11 UNL     1       5.008  10.779  13.977  1.00  0.00     0.198 C 
BRANCH  29  30
HETATM   30  O4  UNL     1       5.828  10.021  13.093  1.00  0.00    -0.398 OA
HETATM   31  H16 UNL     1       6.687  10.487  13.043  1.00  0.00     0.209 HD
ENDBRANCH  29  30
ENDBRANCH  25  29
BRANCH  26  32
HETATM   32  O5  UNL     1       6.928  10.244  17.177  1.00  0.00    -0.390 OA
HETATM   33  H18 UNL     1       6.109   9.965  17.633  1.00  0.00     0.210 HD
ENDBRANCH  26  32
BRANCH  27  34
HETATM   34  O6  UNL     1       7.368   7.844  16.669  1.00  0.00    -0.390 OA
HETATM   35  H20 UNL     1       7.687   8.527  17.293  1.00  0.00     0.210 HD
ENDBRANCH  27  34
BRANCH  28  36
HETATM   36  O7  UNL     1       6.447   6.422  14.592  1.00  0.00    -0.388 OA
HETATM   37  H22 UNL     1       6.991   6.269  15.397  1.00  0.00     0.210 HD
ENDBRANCH  28  36
ENDBRANCH  22  23
ENDBRANCH   7  22
BRANCH  11  38
HETATM   38  C19 UNL     1      -2.037   8.942  16.843  1.00  0.00     0.241 C 
HETATM   39  O8  UNL     1      -2.552  10.057  16.903  1.00  0.00    -0.306 OA
ENDBRANCH  11  38
BRANCH   1  40
HETATM   40  O1  UNL     1      -1.851  10.967  14.271  1.00  0.00    -0.386 OA
HETATM   41  C1  UNL     1      -3.013  11.745  14.548  1.00  0.00     0.202 C 
ENDBRANCH   1  40
BRANCH  16  42
HETATM   42  C25 UNL     1      -7.104   5.851  14.810  1.00  0.00    -0.010 C 
HETATM   43  C26 UNL     1      -6.768   5.154  16.134  1.00  0.00     0.010 C 
BRANCH  42  44
HETATM   44  C27 UNL     1      -7.858   4.878  13.857  1.00  0.00     0.031 C 
BRANCH  44  45
HETATM   45  C28 UNL     1      -7.003   3.771  13.296  1.00  0.00    -0.027 C 
HETATM   46  C29 UNL     1      -6.389   3.825  12.102  1.00  0.00     0.006 C 
BRANCH  46  47
HETATM   47  C30 UNL     1      -5.496   2.770  11.472  1.00  0.00     0.070 C 
HETATM   48  C31 UNL     1      -6.076   1.345  11.437  1.00  0.00     0.050 C 
HETATM   49  C32 UNL     1      -5.214   3.199  10.026  1.00  0.00     0.050 C 
BRANCH  47  50
HETATM   50  O9  UNL     1      -4.219   2.799  12.129  1.00  0.00    -0.382 OA
HETATM   51  C33 UNL     1      -3.133   3.303  11.365  1.00  0.00     0.202 C 
ENDBRANCH  47  50
ENDBRANCH  46  47
ENDBRANCH  44  45
ENDBRANCH  42  44
ENDBRANCH  16  42
TORSDOF 14
ENDMDL
MODEL 6
REMARK minimizedAffinity -7.28087664
REMARK CNNscore 0.229070619
REMARK CNNaffinity 7.22483301
REMARK  14 active torsions:
REMARK  status: ('A' for Active; 'I' for Inactive)
REMARK    1  A    between atoms: O1_2  and  C2_3 
REMARK    2  A    between atoms: C8_9  and  O2_10 
REMARK    3  A    between atoms: O2_10  and  C9_11 
REMARK    4  A    between atoms: C10_13  and  C11_14 
REMARK    5  A    between atoms: C11_14  and  O4_15 
REMARK    6  A    between atoms: C12_16  and  O5_17 
REMARK    7  A    between atoms: C13_18  and  O6_19 
REMARK    8  A    between atoms: C14_20  and  O7_21 
REMARK    9  A    between atoms: C18_25  and  C19_26 
REMARK   10  A    between atoms: C24_32  and  C25_33 
REMARK   11  A    between atoms: C25_33  and  C27_35 
REMARK   12  A    between atoms: C27_35  and  C28_36 
REMARK   13  A    between atoms: C29_37  and  C30_38 
REMARK   14  A    between atoms: C30_38  and  O9_41 
ROOT
HETATM    1  C2  UNL     1      -9.540 -11.432  -1.815  1.00  0.00     0.149 C 
HETATM    2  C3  UNL     1      -9.139 -11.275  -0.391  1.00  0.00     0.009 C 
HETATM    3  C4  UNL     1      -7.950 -10.794   0.003  1.00  0.00    -0.066 C 
HETATM    4  C5  UNL     1      -6.934 -10.325  -1.017  1.00  0.00     0.031 C 
HETATM    5  C6  UNL     1      -5.724 -11.290  -0.965  1.00  0.00     0.013 C 
HETATM    6  C7  UNL     1      -5.314 -11.702   0.460  1.00  0.00     0.034 C 
HETATM    7  C8  UNL     1      -5.900 -10.784   1.542  1.00  0.00     0.136 C 
HETATM    8  C15 UNL     1      -7.474 -10.784   1.473  1.00  0.00     0.002 C 
HETATM    9  C16 UNL     1      -7.991  -9.503   2.156  1.00  0.00     0.022 C 
HETATM   10  C17 UNL     1      -8.040 -11.994   2.261  1.00  0.00     0.022 C 
HETATM   11  C18 UNL     1      -7.478  -9.947  -2.470  1.00  0.00     0.027 C 
HETATM   12  C20 UNL     1      -7.179  -8.412  -2.674  1.00  0.00     0.018 C 
HETATM   13  C21 UNL     1      -8.021  -7.572  -3.651  1.00  0.00     0.011 C 
HETATM   14  C22 UNL     1      -9.348  -8.193  -4.095  1.00  0.00    -0.032 C 
HETATM   15  C23 UNL     1      -9.075  -8.951  -5.429  1.00  0.00     0.016 C 
HETATM   16  C24 UNL     1     -10.547  -7.206  -4.334  1.00  0.00    -0.002 C 
HETATM   17  C34 UNL     1     -11.784  -8.145  -4.195  1.00  0.00     0.006 C 
HETATM   18  C35 UNL     1     -11.316  -9.423  -3.477  1.00  0.00     0.011 C 
HETATM   19  C36 UNL     1      -9.914  -9.095  -2.933  1.00  0.00    -0.029 C 
HETATM   20  C37 UNL     1     -10.143  -8.367  -1.571  1.00  0.00     0.016 C 
HETATM   21  C38 UNL     1      -8.987 -10.332  -2.745  1.00  0.00     0.043 C 
ENDROOT
BRANCH   7  22
HETATM   22  O2  UNL     1      -5.460 -11.211   2.842  1.00  0.00    -0.352 OA
BRANCH  22  23
HETATM   23  C9  UNL     1      -5.161 -10.136   3.741  1.00  0.00     0.292 C 
HETATM   24  O3  UNL     1      -4.009  -9.435   3.279  1.00  0.00    -0.348 OA
HETATM   25  C10 UNL     1      -2.752  -9.829   3.841  1.00  0.00     0.179 C 
HETATM   26  C12 UNL     1      -2.765  -9.535   5.349  1.00  0.00     0.180 C 
HETATM   27  C13 UNL     1      -4.092  -9.900   6.041  1.00  0.00     0.183 C 
HETATM   28  C14 UNL     1      -5.032 -10.727   5.168  1.00  0.00     0.204 C 
BRANCH  25  29
HETATM   29  C11 UNL     1      -2.329 -11.263   3.494  1.00  0.00     0.198 C 
BRANCH  29  30
HETATM   30  O4  UNL     1      -1.137 -11.257   2.715  1.00  0.00    -0.398 OA
HETATM   31  H16 UNL     1      -1.416 -11.171   1.781  1.00  0.00     0.209 HD
ENDBRANCH  29  30
ENDBRANCH  25  29
BRANCH  26  32
HETATM   32  O5  UNL     1      -2.551  -8.121   5.565  1.00  0.00    -0.390 OA
HETATM   33  H18 UNL     1      -3.002  -7.657   4.831  1.00  0.00     0.210 HD
ENDBRANCH  26  32
BRANCH  27  34
HETATM   34  O6  UNL     1      -4.799  -8.712   6.465  1.00  0.00    -0.390 OA
HETATM   35  H20 UNL     1      -4.083  -8.074   6.657  1.00  0.00     0.210 HD
ENDBRANCH  27  34
BRANCH  28  36
HETATM   36  O7  UNL     1      -6.321 -10.814   5.795  1.00  0.00    -0.388 OA
HETATM   37  H22 UNL     1      -6.383 -10.026   6.380  1.00  0.00     0.210 HD
ENDBRANCH  28  36
ENDBRANCH  22  23
ENDBRANCH   7  22
BRANCH  11  38
HETATM   38  C19 UNL     1      -6.667 -10.735  -3.514  1.00  0.00     0.241 C 
HETATM   39  O8  UNL     1      -6.857 -10.697  -4.728  1.00  0.00    -0.306 OA
ENDBRANCH  11  38
BRANCH   1  40
HETATM   40  O1  UNL     1      -9.002 -12.681  -2.286  1.00  0.00    -0.386 OA
HETATM   41  C1  UNL     1      -9.926 -13.763  -2.213  1.00  0.00     0.202 C 
ENDBRANCH   1  40
BRANCH  16  42
HETATM   42  C25 UNL     1     -10.605  -6.331  -5.628  1.00  0.00    -0.010 C 
HETATM   43  C26 UNL     1      -9.201  -5.931  -6.099  1.00  0.00     0.010 C 
BRANCH  42  44
HETATM   44  C27 UNL     1     -11.482  -5.068  -5.390  1.00  0.00     0.031 C 
BRANCH  44  45
HETATM   45  C28 UNL     1     -10.699  -3.809  -5.124  1.00  0.00    -0.027 C 
HETATM   46  C29 UNL     1     -11.010  -2.606  -5.636  1.00  0.00     0.006 C 
BRANCH  46  47
HETATM   47  C30 UNL     1     -10.291  -1.289  -5.404  1.00  0.00     0.070 C 
HETATM   48  C31 UNL     1     -10.926  -0.362  -4.353  1.00  0.00     0.050 C 
HETATM   49  C32 UNL     1      -8.862  -1.611  -4.945  1.00  0.00     0.050 C 
BRANCH  47  50
HETATM   50  O9  UNL     1     -10.138  -0.622  -6.667  1.00  0.00    -0.382 OA
HETATM   51  C33 UNL     1      -9.029  -1.025  -7.458  1.00  0.00     0.202 C 
ENDBRANCH  47  50
ENDBRANCH  46  47
ENDBRANCH  44  45
ENDBRANCH  42  44
ENDBRANCH  16  42
TORSDOF 14
ENDMDL
MODEL 7
REMARK minimizedAffinity -7.514359
REMARK CNNscore 0.228013664
REMARK CNNaffinity 6.76012611
REMARK  14 active torsions:
REMARK  status: ('A' for Active; 'I' for Inactive)
REMARK    1  A    between atoms: O1_2  and  C2_3 
REMARK    2  A    between atoms: C8_9  and  O2_10 
REMARK    3  A    between atoms: O2_10  and  C9_11 
REMARK    4  A    between atoms: C10_13  and  C11_14 
REMARK    5  A    between atoms: C11_14  and  O4_15 
REMARK    6  A    between atoms: C12_16  and  O5_17 
REMARK    7  A    between atoms: C13_18  and  O6_19 
REMARK    8  A    between atoms: C14_20  and  O7_21 
REMARK    9  A    between atoms: C18_25  and  C19_26 
REMARK   10  A    between atoms: C24_32  and  C25_33 
REMARK   11  A    between atoms: C25_33  and  C27_35 
REMARK   12  A    between atoms: C27_35  and  C28_36 
REMARK   13  A    between atoms: C29_37  and  C30_38 
REMARK   14  A    between atoms: C30_38  and  O9_41 
ROOT
HETATM    1  C2  UNL     1      -0.772   9.081  11.978  1.00  0.00     0.149 C 
HETATM    2  C3  UNL     1      -1.862   8.966  12.983  1.00  0.00     0.009 C 
HETATM    3  C4  UNL     1      -2.268   7.803  13.516  1.00  0.00    -0.066 C 
HETATM    4  C5  UNL     1      -1.583   6.505  13.144  1.00  0.00     0.031 C 
HETATM    5  C6  UNL     1      -2.596   5.640  12.352  1.00  0.00     0.013 C 
HETATM    6  C7  UNL     1      -4.024   5.670  12.924  1.00  0.00     0.034 C 
HETATM    7  C8  UNL     1      -4.084   6.203  14.362  1.00  0.00     0.136 C 
HETATM    8  C15 UNL     1      -3.504   7.666  14.433  1.00  0.00     0.002 C 
HETATM    9  C16 UNL     1      -3.081   7.952  15.887  1.00  0.00     0.022 C 
HETATM   10  C17 UNL     1      -4.606   8.692  14.058  1.00  0.00     0.022 C 
HETATM   11  C18 UNL     1      -0.109   6.604  12.538  1.00  0.00     0.027 C 
HETATM   12  C20 UNL     1       0.843   5.867  13.556  1.00  0.00     0.018 C 
HETATM   13  C21 UNL     1       2.338   6.222  13.631  1.00  0.00     0.011 C 
HETATM   14  C22 UNL     1       2.746   7.541  12.969  1.00  0.00    -0.032 C 
HETATM   15  C23 UNL     1       3.191   7.205  11.513  1.00  0.00     0.016 C 
HETATM   16  C24 UNL     1       3.904   8.351  13.656  1.00  0.00    -0.002 C 
HETATM   17  C34 UNL     1       3.666   9.795  13.119  1.00  0.00     0.006 C 
HETATM   18  C35 UNL     1       2.229   9.853  12.572  1.00  0.00     0.011 C 
HETATM   19  C36 UNL     1       1.550   8.563  13.069  1.00  0.00    -0.029 C 
HETATM   20  C37 UNL     1       1.053   8.873  14.516  1.00  0.00     0.016 C 
HETATM   21  C38 UNL     1       0.374   8.067  12.178  1.00  0.00     0.043 C 
ENDROOT
BRANCH   7  22
HETATM   22  O2  UNL     1      -5.439   6.182  14.840  1.00  0.00    -0.352 OA
BRANCH  22  23
HETATM   23  C9  UNL     1      -6.426   6.155  13.801  1.00  0.00     0.292 C 
HETATM   24  O3  UNL     1      -7.282   7.287  13.928  1.00  0.00    -0.348 OA
HETATM   25  C10 UNL     1      -8.503   7.088  14.652  1.00  0.00     0.179 C 
HETATM   26  C12 UNL     1      -9.371   6.070  13.897  1.00  0.00     0.180 C 
HETATM   27  C13 UNL     1      -8.578   4.874  13.336  1.00  0.00     0.183 C 
HETATM   28  C14 UNL     1      -7.148   4.785  13.862  1.00  0.00     0.204 C 
BRANCH  25  29
HETATM   29  C11 UNL     1      -8.307   6.754  16.137  1.00  0.00     0.198 C 
BRANCH  29  30
HETATM   30  O4  UNL     1      -7.176   7.444  16.659  1.00  0.00    -0.398 OA
HETATM   31  H16 UNL     1      -6.399   6.875  16.484  1.00  0.00     0.209 HD
ENDBRANCH  29  30
ENDBRANCH  25  29
BRANCH  26  32
HETATM   32  O5  UNL     1     -10.007   6.720  12.772  1.00  0.00    -0.390 OA
HETATM   33  H18 UNL     1      -9.364   7.373  12.430  1.00  0.00     0.210 HD
ENDBRANCH  26  32
BRANCH  27  34
HETATM   34  O6  UNL     1      -8.526   4.919  11.892  1.00  0.00    -0.390 OA
HETATM   35  H20 UNL     1      -9.364   5.358  11.644  1.00  0.00     0.210 HD
ENDBRANCH  27  34
BRANCH  28  36
HETATM   36  O7  UNL     1      -6.419   3.799  13.114  1.00  0.00    -0.388 OA
HETATM   37  H22 UNL     1      -6.876   3.737  12.245  1.00  0.00     0.210 HD
ENDBRANCH  28  36
ENDBRANCH  22  23
ENDBRANCH   7  22
BRANCH  11  38
HETATM   38  C19 UNL     1      -0.077   5.833  11.207  1.00  0.00     0.241 C 
HETATM   39  O8  UNL     1       0.460   4.740  11.039  1.00  0.00    -0.306 OA
ENDBRANCH  11  38
BRANCH   1  40
HETATM   40  O1  UNL     1      -1.340   8.812  10.683  1.00  0.00    -0.386 OA
HETATM   41  C1  UNL     1      -0.381   8.804   9.630  1.00  0.00     0.202 C 
ENDBRANCH   1  40
BRANCH  16  42
HETATM   42  C25 UNL     1       5.391   7.893  13.496  1.00  0.00    -0.010 C 
HETATM   43  C26 UNL     1       6.107   7.827  14.850  1.00  0.00     0.010 C 
BRANCH  42  44
HETATM   44  C27 UNL     1       6.148   8.843  12.523  1.00  0.00     0.031 C 
BRANCH  44  45
HETATM   45  C28 UNL     1       7.571   9.135  12.923  1.00  0.00    -0.027 C 
HETATM   46  C29 UNL     1       8.127  10.358  12.891  1.00  0.00     0.006 C 
BRANCH  46  47
HETATM   47  C30 UNL     1       9.540  10.743  13.295  1.00  0.00     0.070 C 
HETATM   48  C31 UNL     1      10.037  12.098  12.764  1.00  0.00     0.050 C 
HETATM   49  C32 UNL     1       9.590  10.791  14.828  1.00  0.00     0.050 C 
BRANCH  47  50
HETATM   50  O9  UNL     1      10.428   9.677  12.924  1.00  0.00    -0.382 OA
HETATM   51  C33 UNL     1      11.119   9.038  13.988  1.00  0.00     0.202 C 
ENDBRANCH  47  50
ENDBRANCH  46  47
ENDBRANCH  44  45
ENDBRANCH  42  44
ENDBRANCH  16  42
TORSDOF 14
ENDMDL
MODEL 8
REMARK minimizedAffinity -7.04867887
REMARK CNNscore 0.220563114
REMARK CNNaffinity 5.98547411
REMARK  14 active torsions:
REMARK  status: ('A' for Active; 'I' for Inactive)
REMARK    1  A    between atoms: O1_2  and  C2_3 
REMARK    2  A    between atoms: C8_9  and  O2_10 
REMARK    3  A    between atoms: O2_10  and  C9_11 
REMARK    4  A    between atoms: C10_13  and  C11_14 
REMARK    5  A    between atoms: C11_14  and  O4_15 
REMARK    6  A    between atoms: C12_16  and  O5_17 
REMARK    7  A    between atoms: C13_18  and  O6_19 
REMARK    8  A    between atoms: C14_20  and  O7_21 
REMARK    9  A    between atoms: C18_25  and  C19_26 
REMARK   10  A    between atoms: C24_32  and  C25_33 
REMARK   11  A    between atoms: C25_33  and  C27_35 
REMARK   12  A    between atoms: C27_35  and  C28_36 
REMARK   13  A    between atoms: C29_37  and  C30_38 
REMARK   14  A    between atoms: C30_38  and  O9_41 
ROOT
HETATM    1  C2  UNL     1      -6.730 -12.760   0.591  1.00  0.00     0.149 C 
HETATM    2  C3  UNL     1      -6.865 -11.948  -0.648  1.00  0.00     0.009 C 
HETATM    3  C4  UNL     1      -7.473 -10.752  -0.695  1.00  0.00    -0.066 C 
HETATM    4  C5  UNL     1      -8.032 -10.122   0.564  1.00  0.00     0.031 C 
HETATM    5  C6  UNL     1      -9.575 -10.080   0.432  1.00  0.00     0.013 C 
HETATM    6  C7  UNL     1     -10.070  -9.676  -0.968  1.00  0.00     0.034 C 
HETATM    7  C8  UNL     1      -8.982  -9.013  -1.823  1.00  0.00     0.136 C 
HETATM    8  C15 UNL     1      -7.756  -9.986  -2.006  1.00  0.00     0.002 C 
HETATM    9  C16 UNL     1      -6.518  -9.145  -2.371  1.00  0.00     0.022 C 
HETATM   10  C17 UNL     1      -8.023 -10.959  -3.185  1.00  0.00     0.022 C 
HETATM   11  C18 UNL     1      -7.454 -10.641   1.959  1.00  0.00     0.027 C 
HETATM   12  C20 UNL     1      -6.743  -9.406   2.635  1.00  0.00     0.018 C 
HETATM   13  C21 UNL     1      -5.618  -9.614   3.664  1.00  0.00     0.011 C 
HETATM   14  C22 UNL     1      -4.993 -11.011   3.698  1.00  0.00    -0.032 C 
HETATM   15  C23 UNL     1      -5.752 -11.827   4.787  1.00  0.00     0.016 C 
HETATM   16  C24 UNL     1      -3.456 -11.092   4.014  1.00  0.00    -0.002 C 
HETATM   17  C34 UNL     1      -3.066 -12.480   3.421  1.00  0.00     0.006 C 
HETATM   18  C35 UNL     1      -4.186 -12.900   2.453  1.00  0.00     0.011 C 
HETATM   19  C36 UNL     1      -5.047 -11.639   2.253  1.00  0.00    -0.029 C 
HETATM   20  C37 UNL     1      -4.338 -10.810   1.136  1.00  0.00     0.016 C 
HETATM   21  C38 UNL     1      -6.530 -11.922   1.871  1.00  0.00     0.043 C 
ENDROOT
BRANCH   7  22
HETATM   22  O2  UNL     1      -9.518  -8.643  -3.104  1.00  0.00    -0.352 OA
BRANCH  22  23
HETATM   23  C9  UNL     1      -9.961  -7.282  -3.181  1.00  0.00     0.292 C 
HETATM   24  O3  UNL     1     -11.346  -7.251  -3.517  1.00  0.00    -0.348 OA
HETATM   25  C10 UNL     1     -11.664  -7.098  -4.905  1.00  0.00     0.179 C 
HETATM   26  C12 UNL     1     -11.152  -5.732  -5.387  1.00  0.00     0.180 C 
HETATM   27  C13 UNL     1      -9.754  -5.369  -4.850  1.00  0.00     0.183 C 
HETATM   28  C14 UNL     1      -9.036  -6.533  -4.174  1.00  0.00     0.204 C 
BRANCH  25  29
HETATM   29  C11 UNL     1     -11.220  -8.272  -5.787  1.00  0.00     0.198 C 
BRANCH  29  30
HETATM   30  O4  UNL     1     -11.567  -9.512  -5.180  1.00  0.00    -0.398 OA
HETATM   31  H16 UNL     1     -10.826  -9.748  -4.585  1.00  0.00     0.209 HD
ENDBRANCH  29  30
ENDBRANCH  25  29
BRANCH  26  32
HETATM   32  O5  UNL     1     -12.057  -4.694  -4.945  1.00  0.00    -0.390 OA
HETATM   33  H18 UNL     1     -12.382  -4.968  -4.064  1.00  0.00     0.210 HD
ENDBRANCH  26  32
BRANCH  27  34
HETATM   34  O6  UNL     1      -9.831  -4.276  -3.907  1.00  0.00    -0.390 OA
HETATM   35  H20 UNL     1     -10.598  -3.756  -4.218  1.00  0.00     0.210 HD
ENDBRANCH  27  34
BRANCH  28  36
HETATM   36  O7  UNL     1      -7.863  -6.051  -3.500  1.00  0.00    -0.388 OA
HETATM   37  H22 UNL     1      -8.039  -5.101  -3.312  1.00  0.00     0.210 HD
ENDBRANCH  28  36
ENDBRANCH  22  23
ENDBRANCH   7  22
BRANCH  11  38
HETATM   38  C19 UNL     1      -8.636 -11.061   2.851  1.00  0.00     0.241 C 
HETATM   39  O8  UNL     1      -9.678 -11.570   2.443  1.00  0.00    -0.306 OA
ENDBRANCH  11  38
BRANCH   1  40
HETATM   40  O1  UNL     1      -7.953 -13.498   0.767  1.00  0.00    -0.386 OA
HETATM   41  C1  UNL     1      -8.281 -14.330  -0.342  1.00  0.00     0.202 C 
ENDBRANCH   1  40
BRANCH  16  42
HETATM   42  C25 UNL     1      -2.939 -10.904   5.477  1.00  0.00    -0.010 C 
HETATM   43  C26 UNL     1      -3.107 -12.186   6.302  1.00  0.00     0.010 C 
BRANCH  42  44
HETATM   44  C27 UNL     1      -3.672  -9.714   6.162  1.00  0.00     0.031 C 
BRANCH  44  45
HETATM   45  C28 UNL     1      -3.942  -9.912   7.631  1.00  0.00    -0.027 C 
HETATM   46  C29 UNL     1      -5.120  -9.651   8.222  1.00  0.00     0.006 C 
BRANCH  46  47
HETATM   47  C30 UNL     1      -5.483  -9.842   9.684  1.00  0.00     0.070 C 
HETATM   48  C31 UNL     1      -4.330  -9.656  10.685  1.00  0.00     0.050 C 
HETATM   49  C32 UNL     1      -6.576  -8.821  10.031  1.00  0.00     0.050 C 
BRANCH  47  50
HETATM   50  O9  UNL     1      -6.107 -11.127   9.837  1.00  0.00    -0.382 OA
HETATM   51  C33 UNL     1      -6.524 -11.468  11.151  1.00  0.00     0.202 C 
ENDBRANCH  47  50
ENDBRANCH  46  47
ENDBRANCH  44  45
ENDBRANCH  42  44
ENDBRANCH  16  42
TORSDOF 14
ENDMDL
MODEL 9
REMARK minimizedAffinity -7.13673687
REMARK CNNscore 0.218980685
REMARK CNNaffinity 6.09508514
REMARK  14 active torsions:
REMARK  status: ('A' for Active; 'I' for Inactive)
REMARK    1  A    between atoms: O1_2  and  C2_3 
REMARK    2  A    between atoms: C8_9  and  O2_10 
REMARK    3  A    between atoms: O2_10  and  C9_11 
REMARK    4  A    between atoms: C10_13  and  C11_14 
REMARK    5  A    between atoms: C11_14  and  O4_15 
REMARK    6  A    between atoms: C12_16  and  O5_17 
REMARK    7  A    between atoms: C13_18  and  O6_19 
REMARK    8  A    between atoms: C14_20  and  O7_21 
REMARK    9  A    between atoms: C18_25  and  C19_26 
REMARK   10  A    between atoms: C24_32  and  C25_33 
REMARK   11  A    between atoms: C25_33  and  C27_35 
REMARK   12  A    between atoms: C27_35  and  C28_36 
REMARK   13  A    between atoms: C29_37  and  C30_38 
REMARK   14  A    between atoms: C30_38  and  O9_41 
ROOT
HETATM    1  C2  UNL     1       0.545  13.587  17.119  1.00  0.00     0.149 C 
HETATM    2  C3  UNL     1      -0.863  13.138  16.947  1.00  0.00     0.009 C 
HETATM    3  C4  UNL     1      -1.288  11.893  17.212  1.00  0.00    -0.066 C 
HETATM    4  C5  UNL     1      -0.334  10.854  17.764  1.00  0.00     0.031 C 
HETATM    5  C6  UNL     1      -0.142   9.760  16.684  1.00  0.00     0.013 C 
HETATM    6  C7  UNL     1      -1.440   9.366  15.958  1.00  0.00     0.034 C 
HETATM    7  C8  UNL     1      -2.706   9.818  16.699  1.00  0.00     0.136 C 
HETATM    8  C15 UNL     1      -2.709  11.384  16.880  1.00  0.00     0.002 C 
HETATM    9  C16 UNL     1      -3.651  11.736  18.048  1.00  0.00     0.022 C 
HETATM   10  C17 UNL     1      -3.272  12.064  15.605  1.00  0.00     0.022 C 
HETATM   11  C18 UNL     1       0.992  11.386  18.477  1.00  0.00     0.027 C 
HETATM   12  C20 UNL     1       0.907  10.922  19.982  1.00  0.00     0.018 C 
HETATM   13  C21 UNL     1       1.663  11.686  21.083  1.00  0.00     0.011 C 
HETATM   14  C22 UNL     1       2.159  13.084  20.707  1.00  0.00    -0.032 C 
HETATM   15  C23 UNL     1       3.626  12.931  20.203  1.00  0.00     0.016 C 
HETATM   16  C24 UNL     1       2.147  14.171  21.842  1.00  0.00    -0.002 C 
HETATM   17  C34 UNL     1       2.137  15.502  21.031  1.00  0.00     0.006 C 
HETATM   18  C35 UNL     1       1.703  15.164  19.594  1.00  0.00     0.011 C 
HETATM   19  C36 UNL     1       1.169  13.721  19.657  1.00  0.00    -0.029 C 
HETATM   20  C37 UNL     1      -0.317  13.835  20.121  1.00  0.00     0.016 C 
HETATM   21  C38 UNL     1       1.268  12.935  18.316  1.00  0.00     0.043 C 
ENDROOT
BRANCH   7  22
HETATM   22  O2  UNL     1      -3.876   9.399  15.980  1.00  0.00    -0.352 OA
BRANCH  22  23
HETATM   23  C9  UNL     1      -3.656   8.289  15.100  1.00  0.00     0.292 C 
HETATM   24  O3  UNL     1      -4.425   8.463  13.913  1.00  0.00    -0.348 OA
HETATM   25  C10 UNL     1      -5.706   7.823  13.880  1.00  0.00     0.179 C 
HETATM   26  C12 UNL     1      -5.507   6.302  13.953  1.00  0.00     0.180 C 
HETATM   27  C13 UNL     1      -4.429   5.866  14.964  1.00  0.00     0.183 C 
HETATM   28  C14 UNL     1      -3.963   6.988  15.886  1.00  0.00     0.204 C 
BRANCH  25  29
HETATM   29  C11 UNL     1      -6.708   8.367  14.908  1.00  0.00     0.198 C 
BRANCH  29  30
HETATM   30  O4  UNL     1      -6.439   9.736  15.191  1.00  0.00    -0.398 OA
HETATM   31  H16 UNL     1      -5.777   9.745  15.912  1.00  0.00     0.209 HD
ENDBRANCH  29  30
ENDBRANCH  25  29
BRANCH  26  32
HETATM   32  O5  UNL     1      -5.096   5.807  12.658  1.00  0.00    -0.390 OA
HETATM   33  H18 UNL     1      -4.524   6.497  12.266  1.00  0.00     0.210 HD
ENDBRANCH  26  32
BRANCH  27  34
HETATM   34  O6  UNL     1      -3.271   5.328  14.285  1.00  0.00    -0.390 OA
HETATM   35  H20 UNL     1      -3.643   4.933  13.472  1.00  0.00     0.210 HD
ENDBRANCH  27  34
BRANCH  28  36
HETATM   36  O7  UNL     1      -2.804   6.561  16.620  1.00  0.00    -0.388 OA
HETATM   37  H22 UNL     1      -2.391   5.855  16.072  1.00  0.00     0.210 HD
ENDBRANCH  28  36
ENDBRANCH  22  23
ENDBRANCH   7  22
BRANCH  11  38
HETATM   38  C19 UNL     1       2.205  10.695  17.830  1.00  0.00     0.241 C 
HETATM   39  O8  UNL     1       2.718   9.652  18.232  1.00  0.00    -0.306 OA
ENDBRANCH  11  38
BRANCH   1  40
HETATM   40  O1  UNL     1       1.273  13.204  15.938  1.00  0.00    -0.386 OA
HETATM   41  C1  UNL     1       0.768  13.791  14.742  1.00  0.00     0.202 C 
ENDBRANCH   1  40
BRANCH  16  42
HETATM   42  C25 UNL     1       3.242  14.160  22.957  1.00  0.00    -0.010 C 
HETATM   43  C26 UNL     1       3.629  15.583  23.378  1.00  0.00     0.010 C 
BRANCH  42  44
HETATM   44  C27 UNL     1       4.496  13.373  22.478  1.00  0.00     0.031 C 
BRANCH  44  45
HETATM   45  C28 UNL     1       5.799  13.878  23.041  1.00  0.00    -0.027 C 
HETATM   46  C29 UNL     1       6.960  13.884  22.363  1.00  0.00     0.006 C 
BRANCH  46  47
HETATM   47  C30 UNL     1       8.308  14.392  22.844  1.00  0.00     0.070 C 
HETATM   48  C31 UNL     1       9.260  14.893  21.745  1.00  0.00     0.050 C 
HETATM   49  C32 UNL     1       8.050  15.557  23.809  1.00  0.00     0.050 C 
BRANCH  47  50
HETATM   50  O9  UNL     1       8.924  13.370  23.645  1.00  0.00    -0.382 OA
HETATM   51  C33 UNL     1       8.911  12.058  23.102  1.00  0.00     0.202 C 
ENDBRANCH  47  50
ENDBRANCH  46  47
ENDBRANCH  44  45
ENDBRANCH  42  44
ENDBRANCH  16  42
TORSDOF 14
ENDMDL
