MODEL 1
REMARK minimizedAffinity -9.22499084
REMARK CNNscore 0.576058924
REMARK CNNaffinity 7.35473061
REMARK  10 active torsions:
REMARK  status: ('A' for Active; 'I' for Inactive)
REMARK    1  A    between atoms: C3_3  and  O1_4 
REMARK    2  A    between atoms: N1_14  and  O2_16 
REMARK    3  A    between atoms: O2_16  and  C13_17 
REMARK    4  A    between atoms: C13_17  and  C14_18 
REMARK       I    between atoms: C14_18  and  N2_20 
REMARK    5  A    between atoms: N2_20  and  C15_21 
REMARK    6  A    between atoms: C15_21  and  C16_22 
REMARK       I    between atoms: C16_22  and  N3_24 
REMARK    7  A    between atoms: N3_24  and  C17_25 
REMARK    8  A    between atoms: C17_25  and  C18_26 
REMARK    9  A    between atoms: C17_25  and  C19_29 
REMARK   10  A    between atoms: C18_26  and  O6_28 
ROOT
HETATM    1  C1  UNL     1      -5.276  50.345 -10.299  1.00  0.00     0.015 C 
HETATM    2  C2  UNL     1      -4.297  50.724 -10.885  1.00  0.00    -0.078 C 
HETATM    3  C3  UNL     1      -3.117  51.208 -11.621  1.00  0.00     0.128 C 
HETATM    4  C4  UNL     1      -2.476  52.417 -10.942  1.00  0.00     0.052 C 
HETATM    5  C5  UNL     1      -1.145  52.537 -11.673  1.00  0.00     0.010 C 
HETATM    6  C6  UNL     1      -0.660  51.088 -11.876  1.00  0.00     0.002 C 
HETATM    7  C7  UNL     1       0.169  50.838 -13.164  1.00  0.00    -0.004 C 
HETATM    8  C8  UNL     1       1.278  51.896 -13.316  1.00  0.00     0.010 C 
HETATM    9  C9  UNL     1       2.115  51.681 -14.568  1.00  0.00     0.035 C 
HETATM   10  C10 UNL     1       1.251  51.622 -15.806  1.00  0.00    -0.069 C 
HETATM   11  C11 UNL     1       1.529  52.410 -16.861  1.00  0.00     0.030 C 
HETATM   12  C12 UNL     1       0.786  52.291 -18.143  1.00  0.00     0.032 C 
HETATM   13  N1  UNL     1       1.042  53.161 -19.076  1.00  0.00    -0.271 N 
ATOM     14  H1  UNL     1       1.705  53.930 -18.972  1.00  0.00     0.194 HD
HETATM   15  C22 UNL     1      -0.172  51.125 -18.287  1.00  0.00     0.060 C 
HETATM   16  C23 UNL     1      -0.873  50.864 -16.961  1.00  0.00     0.020 C 
HETATM   17  C24 UNL     1       0.104  50.608 -15.776  1.00  0.00    -0.016 C 
HETATM   18  C25 UNL     1       0.738  49.203 -15.928  1.00  0.00     0.020 C 
HETATM   19  C26 UNL     1      -0.714  50.763 -14.432  1.00  0.00     0.002 C 
HETATM   20  C27 UNL     1      -1.845  49.718 -14.291  1.00  0.00     0.007 C 
HETATM   21  C28 UNL     1      -2.064  49.174 -12.879  1.00  0.00     0.014 C 
HETATM   22  C29 UNL     1      -1.933  50.188 -11.727  1.00  0.00     0.003 C 
HETATM   23  C30 UNL     1      -1.776  49.366 -10.417  1.00  0.00     0.020 C 
ENDROOT
BRANCH   3  24
HETATM   24  O1  UNL     1      -3.549  51.630 -12.914  1.00  0.00    -0.377 OA
HETATM   25  H2  UNL     1      -4.345  52.179 -12.791  1.00  0.00     0.211 HD
ENDBRANCH   3  24
BRANCH  13  26
HETATM   26  O2  UNL     1       0.301  52.918 -20.243  1.00  0.00    -0.271 OA
BRANCH  26  27
HETATM   27  C13 UNL     1      -0.537  51.785 -20.042  1.00  0.00     0.303 C 
BRANCH  27  28
HETATM   28  C14 UNL     1      -1.684  51.698 -21.049  1.00  0.00     0.244 C 
HETATM   29  O3  UNL     1      -2.757  51.160 -20.778  1.00  0.00    -0.271 OA
HETATM   30  N2  UNL     1      -1.426  52.281 -22.268  1.00  0.00    -0.350 N 
HETATM   31  H16 UNL     1      -0.455  52.527 -22.456  1.00  0.00     0.163 HD
BRANCH  30  32
HETATM   32  C15 UNL     1      -2.327  52.111 -23.387  1.00  0.00     0.225 C 
BRANCH  32  33
HETATM   33  C16 UNL     1      -1.612  52.517 -24.681  1.00  0.00     0.236 C 
HETATM   34  O4  UNL     1      -2.204  52.615 -25.755  1.00  0.00    -0.272 OA
HETATM   35  N3  UNL     1      -0.276  52.818 -24.524  1.00  0.00    -0.345 N 
HETATM   36  H19 UNL     1       0.174  52.515 -23.666  1.00  0.00     0.163 HD
BRANCH  35  37
HETATM   37  C17 UNL     1       0.589  53.114 -25.671  1.00  0.00     0.185 C 
BRANCH  37  38
HETATM   38  C18 UNL     1       0.032  54.356 -26.374  1.00  0.00     0.163 C 
HETATM   39  O5  UNL     1      -0.592  54.375 -27.426  1.00  0.00    -0.648 OA
BRANCH  38  40
HETATM   40  O6  UNL     1       0.316  55.507 -25.733  1.00  0.00    -0.775 OA
HETATM   41  H21 UNL     1      -0.112  56.199 -26.279  1.00  0.00     0.167 HD
ENDBRANCH  38  40
ENDBRANCH  37  38
BRANCH  37  42
HETATM   42  C19 UNL     1       0.698  51.885 -26.601  1.00  0.00     0.010 C 
HETATM   43  C20 UNL     1       1.969  51.076 -26.326  1.00  0.00     0.012 C 
HETATM   44  C21 UNL     1       0.618  52.226 -28.092  1.00  0.00     0.012 C 
ENDBRANCH  37  42
ENDBRANCH  35  37
ENDBRANCH  32  33
ENDBRANCH  30  32
ENDBRANCH  27  28
ENDBRANCH  26  27
ENDBRANCH  13  26
TORSDOF 10
ENDMDL
MODEL 2
REMARK minimizedAffinity -7.32732248
REMARK CNNscore 0.392194122
REMARK CNNaffinity 5.64684057
REMARK  10 active torsions:
REMARK  status: ('A' for Active; 'I' for Inactive)
REMARK    1  A    between atoms: C3_3  and  O1_4 
REMARK    2  A    between atoms: N1_14  and  O2_16 
REMARK    3  A    between atoms: O2_16  and  C13_17 
REMARK    4  A    between atoms: C13_17  and  C14_18 
REMARK       I    between atoms: C14_18  and  N2_20 
REMARK    5  A    between atoms: N2_20  and  C15_21 
REMARK    6  A    between atoms: C15_21  and  C16_22 
REMARK       I    between atoms: C16_22  and  N3_24 
REMARK    7  A    between atoms: N3_24  and  C17_25 
REMARK    8  A    between atoms: C17_25  and  C18_26 
REMARK    9  A    between atoms: C17_25  and  C19_29 
REMARK   10  A    between atoms: C18_26  and  O6_28 
ROOT
HETATM    1  C1  UNL     1      -4.984  48.489 -17.875  1.00  0.00     0.015 C 
HETATM    2  C2  UNL     1      -5.229  48.587 -19.048  1.00  0.00    -0.078 C 
HETATM    3  C3  UNL     1      -5.553  48.727 -20.477  1.00  0.00     0.128 C 
HETATM    4  C4  UNL     1      -4.835  49.915 -21.114  1.00  0.00     0.052 C 
HETATM    5  C5  UNL     1      -5.060  49.677 -22.601  1.00  0.00     0.010 C 
HETATM    6  C6  UNL     1      -4.914  48.155 -22.797  1.00  0.00     0.002 C 
HETATM    7  C7  UNL     1      -5.792  47.541 -23.921  1.00  0.00    -0.004 C 
HETATM    8  C8  UNL     1      -5.665  48.355 -25.222  1.00  0.00     0.010 C 
HETATM    9  C9  UNL     1      -6.509  47.781 -26.348  1.00  0.00     0.035 C 
HETATM   10  C10 UNL     1      -7.957  47.643 -25.937  1.00  0.00    -0.069 C 
HETATM   11  C11 UNL     1      -8.929  48.169 -26.704  1.00  0.00     0.030 C 
HETATM   12  C12 UNL     1     -10.368  47.944 -26.406  1.00  0.00     0.032 C 
HETATM   13  N1  UNL     1     -11.244  48.576 -27.132  1.00  0.00    -0.271 N 
ATOM     14  H1  UNL     1     -11.003  49.229 -27.876  1.00  0.00     0.194 HD
HETATM   15  C22 UNL     1     -10.706  46.948 -25.315  1.00  0.00     0.060 C 
HETATM   16  C23 UNL     1      -9.690  47.051 -24.186  1.00  0.00     0.020 C 
HETATM   17  C24 UNL     1      -8.216  46.856 -24.650  1.00  0.00    -0.016 C 
HETATM   18  C25 UNL     1      -7.975  45.361 -24.977  1.00  0.00     0.020 C 
HETATM   19  C26 UNL     1      -7.271  47.386 -23.498  1.00  0.00     0.002 C 
HETATM   20  C27 UNL     1      -7.419  46.587 -22.183  1.00  0.00     0.007 C 
HETATM   21  C28 UNL     1      -6.121  46.352 -21.409  1.00  0.00     0.014 C 
HETATM   22  C29 UNL     1      -5.120  47.521 -21.380  1.00  0.00     0.003 C 
HETATM   23  C30 UNL     1      -3.753  46.936 -20.925  1.00  0.00     0.020 C 
ENDROOT
BRANCH   3  24
HETATM   24  O1  UNL     1      -6.954  48.972 -20.587  1.00  0.00    -0.377 OA
HETATM   25  H2  UNL     1      -7.182  49.660 -19.933  1.00  0.00     0.211 HD
ENDBRANCH   3  24
BRANCH  13  26
HETATM   26  O2  UNL     1     -12.562  48.252 -26.771  1.00  0.00    -0.271 OA
BRANCH  26  27
HETATM   27  C13 UNL     1     -13.231  47.680 -27.890  1.00  0.00     0.303 C 
BRANCH  27  28
HETATM   28  C14 UNL     1     -13.991  46.399 -27.547  1.00  0.00     0.244 C 
HETATM   29  O3  UNL     1     -14.577  45.734 -28.401  1.00  0.00    -0.271 OA
HETATM   30  N2  UNL     1     -13.951  46.043 -26.220  1.00  0.00    -0.350 N 
HETATM   31  H16 UNL     1     -13.607  46.749 -25.571  1.00  0.00     0.163 HD
BRANCH  30  32
HETATM   32  C15 UNL     1     -14.779  44.974 -25.703  1.00  0.00     0.225 C 
BRANCH  32  33
HETATM   33  C16 UNL     1     -16.109  45.554 -25.209  1.00  0.00     0.236 C 
HETATM   34  O4  UNL     1     -16.313  46.766 -25.144  1.00  0.00    -0.272 OA
HETATM   35  N3  UNL     1     -17.065  44.610 -24.906  1.00  0.00    -0.345 N 
HETATM   36  H19 UNL     1     -16.754  43.651 -24.788  1.00  0.00     0.163 HD
BRANCH  35  37
HETATM   37  C17 UNL     1     -18.355  44.979 -24.312  1.00  0.00     0.185 C 
BRANCH  37  38
HETATM   38  C18 UNL     1     -19.054  45.950 -25.268  1.00  0.00     0.163 C 
HETATM   39  O5  UNL     1     -19.431  45.702 -26.406  1.00  0.00    -0.648 OA
BRANCH  38  40
HETATM   40  O6  UNL     1     -19.211  47.186 -24.756  1.00  0.00    -0.775 OA
HETATM   41  H21 UNL     1     -19.680  47.681 -25.460  1.00  0.00     0.167 HD
ENDBRANCH  38  40
ENDBRANCH  37  38
BRANCH  37  42
HETATM   42  C19 UNL     1     -18.154  45.558 -22.894  1.00  0.00     0.010 C 
HETATM   43  C20 UNL     1     -16.929  44.952 -22.202  1.00  0.00     0.012 C 
HETATM   44  C21 UNL     1     -19.379  45.418 -21.986  1.00  0.00     0.012 C 
ENDBRANCH  37  42
ENDBRANCH  35  37
ENDBRANCH  32  33
ENDBRANCH  30  32
ENDBRANCH  27  28
ENDBRANCH  26  27
ENDBRANCH  13  26
TORSDOF 10
ENDMDL
MODEL 3
REMARK minimizedAffinity -7.54166889
REMARK CNNscore 0.360947073
REMARK CNNaffinity 6.30764198
REMARK  10 active torsions:
REMARK  status: ('A' for Active; 'I' for Inactive)
REMARK    1  A    between atoms: C3_3  and  O1_4 
REMARK    2  A    between atoms: N1_14  and  O2_16 
REMARK    3  A    between atoms: O2_16  and  C13_17 
REMARK    4  A    between atoms: C13_17  and  C14_18 
REMARK       I    between atoms: C14_18  and  N2_20 
REMARK    5  A    between atoms: N2_20  and  C15_21 
REMARK    6  A    between atoms: C15_21  and  C16_22 
REMARK       I    between atoms: C16_22  and  N3_24 
REMARK    7  A    between atoms: N3_24  and  C17_25 
REMARK    8  A    between atoms: C17_25  and  C18_26 
REMARK    9  A    between atoms: C17_25  and  C19_29 
REMARK   10  A    between atoms: C18_26  and  O6_28 
ROOT
HETATM    1  C1  UNL     1      -1.519  50.688 -26.934  1.00  0.00     0.015 C 
HETATM    2  C2  UNL     1      -1.928  50.781 -25.808  1.00  0.00    -0.078 C 
HETATM    3  C3  UNL     1      -2.405  50.917 -24.422  1.00  0.00     0.128 C 
HETATM    4  C4  UNL     1      -3.436  52.035 -24.278  1.00  0.00     0.052 C 
HETATM    5  C5  UNL     1      -4.000  51.786 -22.885  1.00  0.00     0.010 C 
HETATM    6  C6  UNL     1      -4.113  50.254 -22.760  1.00  0.00     0.002 C 
HETATM    7  C7  UNL     1      -3.905  49.686 -21.331  1.00  0.00    -0.004 C 
HETATM    8  C8  UNL     1      -4.751  50.462 -20.304  1.00  0.00     0.010 C 
HETATM    9  C9  UNL     1      -4.575  49.930 -18.890  1.00  0.00     0.035 C 
HETATM   10  C10 UNL     1      -3.119  49.909 -18.485  1.00  0.00    -0.069 C 
HETATM   11  C11 UNL     1      -2.730  50.492 -17.336  1.00  0.00     0.030 C 
HETATM   12  C12 UNL     1      -1.333  50.381 -16.838  1.00  0.00     0.032 C 
HETATM   13  N1  UNL     1      -1.012  51.062 -15.777  1.00  0.00    -0.271 N 
ATOM     14  H1  UNL     1      -1.654  51.682 -15.281  1.00  0.00     0.194 HD
HETATM   15  C22 UNL     1      -0.405  49.435 -17.572  1.00  0.00     0.060 C 
HETATM   16  C23 UNL     1      -0.690  49.484 -19.067  1.00  0.00     0.020 C 
HETATM   17  C24 UNL     1      -2.171  49.169 -19.432  1.00  0.00    -0.016 C 
HETATM   18  C25 UNL     1      -2.435  47.654 -19.245  1.00  0.00     0.020 C 
HETATM   19  C26 UNL     1      -2.415  49.650 -20.919  1.00  0.00     0.002 C 
HETATM   20  C27 UNL     1      -1.546  48.890 -21.947  1.00  0.00     0.007 C 
HETATM   21  C28 UNL     1      -2.230  48.574 -23.278  1.00  0.00     0.014 C 
HETATM   22  C29 UNL     1      -3.154  49.665 -23.849  1.00  0.00     0.003 C 
HETATM   23  C30 UNL     1      -4.037  48.988 -24.936  1.00  0.00     0.020 C 
ENDROOT
BRANCH   3  24
HETATM   24  O1  UNL     1      -1.289  51.264 -23.605  1.00  0.00    -0.377 OA
HETATM   25  H2  UNL     1      -0.806  51.980 -24.060  1.00  0.00     0.211 HD
ENDBRANCH   3  24
BRANCH  13  26
HETATM   26  O2  UNL     1       0.321  50.845 -15.393  1.00  0.00    -0.271 OA
BRANCH  26  27
HETATM   27  C13 UNL     1       0.771  51.944 -14.607  1.00  0.00     0.303 C 
BRANCH  27  28
HETATM   28  C14 UNL     1       1.174  51.544 -13.189  1.00  0.00     0.244 C 
HETATM   29  O3  UNL     1       1.598  50.420 -12.917  1.00  0.00    -0.271 OA
HETATM   30  N2  UNL     1       1.044  52.540 -12.249  1.00  0.00    -0.350 N 
HETATM   31  H16 UNL     1       0.512  53.363 -12.532  1.00  0.00     0.163 HD
BRANCH  30  32
HETATM   32  C15 UNL     1       1.194  52.266 -10.837  1.00  0.00     0.225 C 
BRANCH  32  33
HETATM   33  C16 UNL     1       2.129  53.308 -10.213  1.00  0.00     0.236 C 
HETATM   34  O4  UNL     1       1.817  53.958  -9.217  1.00  0.00    -0.272 OA
HETATM   35  N3  UNL     1       3.360  53.407 -10.825  1.00  0.00    -0.345 N 
HETATM   36  H19 UNL     1       3.459  52.997 -11.748  1.00  0.00     0.163 HD
BRANCH  35  37
HETATM   37  C17 UNL     1       4.337  54.430 -10.433  1.00  0.00     0.185 C 
BRANCH  37  38
HETATM   38  C18 UNL     1       5.244  53.828  -9.357  1.00  0.00     0.163 C 
HETATM   39  O5  UNL     1       6.468  53.797  -9.373  1.00  0.00    -0.648 OA
BRANCH  38  40
HETATM   40  O6  UNL     1       4.567  53.270  -8.335  1.00  0.00    -0.775 OA
HETATM   41  H21 UNL     1       5.265  52.949  -7.727  1.00  0.00     0.167 HD
ENDBRANCH  38  40
ENDBRANCH  37  38
BRANCH  37  42
HETATM   42  C19 UNL     1       3.619  55.719  -9.975  1.00  0.00     0.010 C 
HETATM   43  C20 UNL     1       3.415  56.698 -11.135  1.00  0.00     0.012 C 
HETATM   44  C21 UNL     1       4.313  56.436  -8.812  1.00  0.00     0.012 C 
ENDBRANCH  37  42
ENDBRANCH  35  37
ENDBRANCH  32  33
ENDBRANCH  30  32
ENDBRANCH  27  28
ENDBRANCH  26  27
ENDBRANCH  13  26
TORSDOF 10
ENDMDL
MODEL 4
REMARK minimizedAffinity -7.18239212
REMARK CNNscore 0.309141815
REMARK CNNaffinity 6.15007591
REMARK  10 active torsions:
REMARK  status: ('A' for Active; 'I' for Inactive)
REMARK    1  A    between atoms: C3_3  and  O1_4 
REMARK    2  A    between atoms: N1_14  and  O2_16 
REMARK    3  A    between atoms: O2_16  and  C13_17 
REMARK    4  A    between atoms: C13_17  and  C14_18 
REMARK       I    between atoms: C14_18  and  N2_20 
REMARK    5  A    between atoms: N2_20  and  C15_21 
REMARK    6  A    between atoms: C15_21  and  C16_22 
REMARK       I    between atoms: C16_22  and  N3_24 
REMARK    7  A    between atoms: N3_24  and  C17_25 
REMARK    8  A    between atoms: C17_25  and  C18_26 
REMARK    9  A    between atoms: C17_25  and  C19_29 
REMARK   10  A    between atoms: C18_26  and  O6_28 
ROOT
HETATM    1  C1  UNL     1      -4.451  34.665 -30.567  1.00  0.00     0.015 C 
HETATM    2  C2  UNL     1      -4.201  35.780 -30.938  1.00  0.00    -0.078 C 
HETATM    3  C3  UNL     1      -3.895  37.157 -31.361  1.00  0.00     0.128 C 
HETATM    4  C4  UNL     1      -2.394  37.439 -31.350  1.00  0.00     0.052 C 
HETATM    5  C5  UNL     1      -2.302  38.761 -32.100  1.00  0.00     0.010 C 
HETATM    6  C6  UNL     1      -3.324  38.649 -33.249  1.00  0.00     0.002 C 
HETATM    7  C7  UNL     1      -4.001  39.981 -33.670  1.00  0.00    -0.004 C 
HETATM    8  C8  UNL     1      -2.951  41.089 -33.872  1.00  0.00     0.010 C 
HETATM    9  C9  UNL     1      -3.578  42.410 -34.290  1.00  0.00     0.035 C 
HETATM   10  C10 UNL     1      -4.644  42.849 -33.312  1.00  0.00    -0.069 C 
HETATM   11  C11 UNL     1      -4.603  44.083 -32.778  1.00  0.00     0.030 C 
HETATM   12  C12 UNL     1      -5.700  44.598 -31.917  1.00  0.00     0.032 C 
HETATM   13  N1  UNL     1      -5.534  45.759 -31.353  1.00  0.00    -0.271 N 
ATOM     14  H1  UNL     1      -4.691  46.325 -31.450  1.00  0.00     0.194 HD
HETATM   15  C22 UNL     1      -6.955  43.756 -31.809  1.00  0.00     0.060 C 
HETATM   16  C23 UNL     1      -6.588  42.278 -31.791  1.00  0.00     0.020 C 
HETATM   17  C24 UNL     1      -5.747  41.828 -33.021  1.00  0.00    -0.016 C 
HETATM   18  C25 UNL     1      -6.657  41.775 -34.274  1.00  0.00     0.020 C 
HETATM   19  C26 UNL     1      -5.102  40.424 -32.679  1.00  0.00     0.002 C 
HETATM   20  C27 UNL     1      -6.156  39.318 -32.449  1.00  0.00     0.007 C 
HETATM   21  C28 UNL     1      -5.786  37.936 -32.988  1.00  0.00     0.014 C 
HETATM   22  C29 UNL     1      -4.314  37.511 -32.829  1.00  0.00     0.003 C 
HETATM   23  C30 UNL     1      -4.083  36.310 -33.789  1.00  0.00     0.020 C 
ENDROOT
BRANCH   3  24
HETATM   24  O1  UNL     1      -4.499  38.048 -30.426  1.00  0.00    -0.377 OA
HETATM   25  H2  UNL     1      -4.287  37.721 -29.532  1.00  0.00     0.211 HD
ENDBRANCH   3  24
BRANCH  13  26
HETATM   26  O2  UNL     1      -6.653  46.143 -30.596  1.00  0.00    -0.271 OA
BRANCH  26  27
HETATM   27  C13 UNL     1      -6.563  47.532 -30.293  1.00  0.00     0.303 C 
BRANCH  27  28
HETATM   28  C14 UNL     1      -6.468  47.816 -28.795  1.00  0.00     0.244 C 
HETATM   29  O3  UNL     1      -7.465  47.977 -28.091  1.00  0.00    -0.271 OA
HETATM   30  N2  UNL     1      -5.187  47.860 -28.297  1.00  0.00    -0.350 N 
HETATM   31  H16 UNL     1      -4.435  47.904 -28.984  1.00  0.00     0.163 HD
BRANCH  30  32
HETATM   32  C15 UNL     1      -4.920  48.312 -26.949  1.00  0.00     0.225 C 
BRANCH  32  33
HETATM   33  C16 UNL     1      -3.800  49.359 -26.976  1.00  0.00     0.236 C 
HETATM   34  O4  UNL     1      -3.239  49.694 -28.018  1.00  0.00    -0.272 OA
HETATM   35  N3  UNL     1      -3.522  49.927 -25.752  1.00  0.00    -0.345 N 
HETATM   36  H19 UNL     1      -3.874  49.454 -24.925  1.00  0.00     0.163 HD
BRANCH  35  37
HETATM   37  C17 UNL     1      -2.406  50.862 -25.569  1.00  0.00     0.185 C 
BRANCH  37  38
HETATM   38  C18 UNL     1      -2.955  52.128 -24.905  1.00  0.00     0.163 C 
HETATM   39  O5  UNL     1      -2.297  53.075 -24.494  1.00  0.00    -0.648 OA
BRANCH  38  40
HETATM   40  O6  UNL     1      -4.294  52.122 -24.766  1.00  0.00    -0.775 OA
HETATM   41  H21 UNL     1      -4.498  52.987 -24.351  1.00  0.00     0.167 HD
ENDBRANCH  38  40
ENDBRANCH  37  38
BRANCH  37  42
HETATM   42  C19 UNL     1      -1.701  51.136 -26.917  1.00  0.00     0.010 C 
HETATM   43  C20 UNL     1      -0.196  50.862 -26.837  1.00  0.00     0.012 C 
HETATM   44  C21 UNL     1      -1.939  52.546 -27.466  1.00  0.00     0.012 C 
ENDBRANCH  37  42
ENDBRANCH  35  37
ENDBRANCH  32  33
ENDBRANCH  30  32
ENDBRANCH  27  28
ENDBRANCH  26  27
ENDBRANCH  13  26
TORSDOF 10
ENDMDL
MODEL 5
REMARK minimizedAffinity -9.36355305
REMARK CNNscore 0.277624041
REMARK CNNaffinity 6.40488815
REMARK  10 active torsions:
REMARK  status: ('A' for Active; 'I' for Inactive)
REMARK    1  A    between atoms: C3_3  and  O1_4 
REMARK    2  A    between atoms: N1_14  and  O2_16 
REMARK    3  A    between atoms: O2_16  and  C13_17 
REMARK    4  A    between atoms: C13_17  and  C14_18 
REMARK       I    between atoms: C14_18  and  N2_20 
REMARK    5  A    between atoms: N2_20  and  C15_21 
REMARK    6  A    between atoms: C15_21  and  C16_22 
REMARK       I    between atoms: C16_22  and  N3_24 
REMARK    7  A    between atoms: N3_24  and  C17_25 
REMARK    8  A    between atoms: C17_25  and  C18_26 
REMARK    9  A    between atoms: C17_25  and  C19_29 
REMARK   10  A    between atoms: C18_26  and  O6_28 
ROOT
HETATM    1  C1  UNL     1      -8.291  48.806 -24.759  1.00  0.00     0.015 C 
HETATM    2  C2  UNL     1      -7.601  48.999 -23.795  1.00  0.00    -0.078 C 
HETATM    3  C3  UNL     1      -6.751  49.266 -22.622  1.00  0.00     0.128 C 
HETATM    4  C4  UNL     1      -7.567  49.739 -21.420  1.00  0.00     0.052 C 
HETATM    5  C5  UNL     1      -6.559  49.646 -20.282  1.00  0.00     0.010 C 
HETATM    6  C6  UNL     1      -5.764  48.353 -20.547  1.00  0.00     0.002 C 
HETATM    7  C7  UNL     1      -4.282  48.377 -20.087  1.00  0.00    -0.004 C 
HETATM    8  C8  UNL     1      -4.164  48.899 -18.643  1.00  0.00     0.010 C 
HETATM    9  C9  UNL     1      -2.724  48.934 -18.156  1.00  0.00     0.035 C 
HETATM   10  C10 UNL     1      -1.844  49.730 -19.091  1.00  0.00    -0.069 C 
HETATM   11  C11 UNL     1      -1.071  50.720 -18.610  1.00  0.00     0.030 C 
HETATM   12  C12 UNL     1      -0.096  51.439 -19.473  1.00  0.00     0.032 C 
HETATM   13  N1  UNL     1       0.536  52.454 -18.958  1.00  0.00    -0.271 N 
ATOM     14  H1  UNL     1       0.386  52.797 -18.009  1.00  0.00     0.194 HD
HETATM   15  C22 UNL     1       0.132  50.896 -20.869  1.00  0.00     0.060 C 
HETATM   16  C23 UNL     1      -1.180  50.385 -21.447  1.00  0.00     0.020 C 
HETATM   17  C24 UNL     1      -1.877  49.309 -20.563  1.00  0.00    -0.016 C 
HETATM   18  C25 UNL     1      -1.098  47.975 -20.670  1.00  0.00     0.020 C 
HETATM   19  C26 UNL     1      -3.376  49.179 -21.050  1.00  0.00     0.002 C 
HETATM   20  C27 UNL     1      -3.493  48.680 -22.508  1.00  0.00     0.007 C 
HETATM   21  C28 UNL     1      -4.651  47.719 -22.782  1.00  0.00     0.014 C 
HETATM   22  C29 UNL     1      -5.978  48.023 -22.062  1.00  0.00     0.003 C 
HETATM   23  C30 UNL     1      -6.844  46.734 -22.145  1.00  0.00     0.020 C 
ENDROOT
BRANCH   3  24
HETATM   24  O1  UNL     1      -5.852  50.319 -22.963  1.00  0.00    -0.377 OA
HETATM   25  H2  UNL     1      -6.374  51.020 -23.396  1.00  0.00     0.211 HD
ENDBRANCH   3  24
BRANCH  13  26
HETATM   26  O2  UNL     1       1.448  53.022 -19.862  1.00  0.00    -0.271 OA
BRANCH  26  27
HETATM   27  C13 UNL     1       1.001  52.788 -21.194  1.00  0.00     0.303 C 
BRANCH  27  28
HETATM   28  C14 UNL     1       1.256  53.967 -22.131  1.00  0.00     0.244 C 
HETATM   29  O3  UNL     1       1.886  54.964 -21.777  1.00  0.00    -0.271 OA
HETATM   30  N2  UNL     1       0.745  53.817 -23.399  1.00  0.00    -0.350 N 
HETATM   31  H16 UNL     1       0.085  53.052 -23.534  1.00  0.00     0.163 HD
BRANCH  30  32
HETATM   32  C15 UNL     1       0.729  54.917 -24.338  1.00  0.00     0.225 C 
BRANCH  32  33
HETATM   33  C16 UNL     1       0.120  54.446 -25.663  1.00  0.00     0.236 C 
HETATM   34  O4  UNL     1       0.195  55.114 -26.694  1.00  0.00    -0.272 OA
HETATM   35  N3  UNL     1      -0.458  53.196 -25.613  1.00  0.00    -0.345 N 
HETATM   36  H19 UNL     1      -0.661  52.811 -24.696  1.00  0.00     0.163 HD
BRANCH  35  37
HETATM   37  C17 UNL     1      -1.188  52.636 -26.755  1.00  0.00     0.185 C 
BRANCH  37  38
HETATM   38  C18 UNL     1      -2.575  52.210 -26.265  1.00  0.00     0.163 C 
HETATM   39  O5  UNL     1      -3.384  52.914 -25.676  1.00  0.00    -0.648 OA
BRANCH  38  40
HETATM   40  O6  UNL     1      -2.857  50.916 -26.513  1.00  0.00    -0.775 OA
HETATM   41  H21 UNL     1      -3.766  50.796 -26.167  1.00  0.00     0.167 HD
ENDBRANCH  38  40
ENDBRANCH  37  38
BRANCH  37  42
HETATM   42  C19 UNL     1      -0.387  51.481 -27.398  1.00  0.00     0.010 C 
HETATM   43  C20 UNL     1       0.431  50.710 -26.358  1.00  0.00     0.012 C 
HETATM   44  C21 UNL     1       0.525  51.922 -28.547  1.00  0.00     0.012 C 
ENDBRANCH  37  42
ENDBRANCH  35  37
ENDBRANCH  32  33
ENDBRANCH  30  32
ENDBRANCH  27  28
ENDBRANCH  26  27
ENDBRANCH  13  26
TORSDOF 10
ENDMDL
MODEL 6
REMARK minimizedAffinity -7.92896223
REMARK CNNscore 0.27521503
REMARK CNNaffinity 6.63699865
REMARK  10 active torsions:
REMARK  status: ('A' for Active; 'I' for Inactive)
REMARK    1  A    between atoms: C3_3  and  O1_4 
REMARK    2  A    between atoms: N1_14  and  O2_16 
REMARK    3  A    between atoms: O2_16  and  C13_17 
REMARK    4  A    between atoms: C13_17  and  C14_18 
REMARK       I    between atoms: C14_18  and  N2_20 
REMARK    5  A    between atoms: N2_20  and  C15_21 
REMARK    6  A    between atoms: C15_21  and  C16_22 
REMARK       I    between atoms: C16_22  and  N3_24 
REMARK    7  A    between atoms: N3_24  and  C17_25 
REMARK    8  A    between atoms: C17_25  and  C18_26 
REMARK    9  A    between atoms: C17_25  and  C19_29 
REMARK   10  A    between atoms: C18_26  and  O6_28 
ROOT
HETATM    1  C1  UNL     1      -0.668  53.773 -27.525  1.00  0.00     0.015 C 
HETATM    2  C2  UNL     1      -1.225  53.147 -26.662  1.00  0.00    -0.078 C 
HETATM    3  C3  UNL     1      -1.913  52.410 -25.590  1.00  0.00     0.128 C 
HETATM    4  C4  UNL     1      -3.404  52.242 -25.877  1.00  0.00     0.052 C 
HETATM    5  C5  UNL     1      -3.826  51.215 -24.834  1.00  0.00     0.010 C 
HETATM    6  C6  UNL     1      -2.666  50.202 -24.768  1.00  0.00     0.002 C 
HETATM    7  C7  UNL     1      -2.428  49.553 -23.378  1.00  0.00    -0.004 C 
HETATM    8  C8  UNL     1      -3.749  49.031 -22.783  1.00  0.00     0.010 C 
HETATM    9  C9  UNL     1      -3.555  48.385 -21.421  1.00  0.00     0.035 C 
HETATM   10  C10 UNL     1      -2.862  49.322 -20.459  1.00  0.00    -0.069 C 
HETATM   11  C11 UNL     1      -3.401  49.568 -19.250  1.00  0.00     0.030 C 
HETATM   12  C12 UNL     1      -2.689  50.378 -18.227  1.00  0.00     0.032 C 
HETATM   13  N1  UNL     1      -3.324  50.659 -17.126  1.00  0.00    -0.271 N 
ATOM     14  H1  UNL     1      -4.284  50.374 -16.934  1.00  0.00     0.194 HD
HETATM   15  C22 UNL     1      -1.254  50.765 -18.521  1.00  0.00     0.060 C 
HETATM   16  C23 UNL     1      -1.094  51.078 -20.002  1.00  0.00     0.020 C 
HETATM   17  C24 UNL     1      -1.535  49.915 -20.938  1.00  0.00    -0.016 C 
HETATM   18  C25 UNL     1      -0.483  48.779 -20.877  1.00  0.00     0.020 C 
HETATM   19  C26 UNL     1      -1.707  50.505 -22.396  1.00  0.00     0.002 C 
HETATM   20  C27 UNL     1      -0.386  51.054 -22.982  1.00  0.00     0.007 C 
HETATM   21  C28 UNL     1      -0.178  50.804 -24.477  1.00  0.00     0.014 C 
HETATM   22  C29 UNL     1      -1.423  50.937 -25.373  1.00  0.00     0.003 C 
HETATM   23  C30 UNL     1      -1.083  50.250 -26.725  1.00  0.00     0.020 C 
ENDROOT
BRANCH   3  24
HETATM   24  O1  UNL     1      -1.798  53.171 -24.389  1.00  0.00    -0.377 OA
HETATM   25  H2  UNL     1      -2.019  54.096 -24.608  1.00  0.00     0.211 HD
ENDBRANCH   3  24
BRANCH  13  26
HETATM   26  O2  UNL     1      -2.531  51.398 -16.233  1.00  0.00    -0.271 OA
BRANCH  26  27
HETATM   27  C13 UNL     1      -3.045  51.251 -14.914  1.00  0.00     0.303 C 
BRANCH  27  28
HETATM   28  C14 UNL     1      -2.026  50.676 -13.931  1.00  0.00     0.244 C 
HETATM   29  O3  UNL     1      -1.600  51.320 -12.973  1.00  0.00    -0.271 OA
HETATM   30  N2  UNL     1      -1.640  49.382 -14.193  1.00  0.00    -0.350 N 
HETATM   31  H16 UNL     1      -1.901  49.007 -15.104  1.00  0.00     0.163 HD
BRANCH  30  32
HETATM   32  C15 UNL     1      -0.543  48.766 -13.479  1.00  0.00     0.225 C 
BRANCH  32  33
HETATM   33  C16 UNL     1       0.753  48.959 -14.274  1.00  0.00     0.236 C 
HETATM   34  O4  UNL     1       1.160  48.123 -15.080  1.00  0.00    -0.272 OA
HETATM   35  N3  UNL     1       1.383  50.165 -14.054  1.00  0.00    -0.345 N 
HETATM   36  H19 UNL     1       1.103  50.696 -13.236  1.00  0.00     0.163 HD
BRANCH  35  37
HETATM   37  C17 UNL     1       2.692  50.472 -14.641  1.00  0.00     0.185 C 
BRANCH  37  38
HETATM   38  C18 UNL     1       3.762  50.184 -13.584  1.00  0.00     0.163 C 
HETATM   39  O5  UNL     1       4.829  49.613 -13.769  1.00  0.00    -0.648 OA
BRANCH  38  40
HETATM   40  O6  UNL     1       3.421  50.600 -12.349  1.00  0.00    -0.775 OA
HETATM   41  H21 UNL     1       4.195  50.369 -11.794  1.00  0.00     0.167 HD
ENDBRANCH  38  40
ENDBRANCH  37  38
BRANCH  37  42
HETATM   42  C19 UNL     1       2.726  51.926 -15.163  1.00  0.00     0.010 C 
HETATM   43  C20 UNL     1       1.554  52.218 -16.106  1.00  0.00     0.012 C 
HETATM   44  C21 UNL     1       4.043  52.311 -15.844  1.00  0.00     0.012 C 
ENDBRANCH  37  42
ENDBRANCH  35  37
ENDBRANCH  32  33
ENDBRANCH  30  32
ENDBRANCH  27  28
ENDBRANCH  26  27
ENDBRANCH  13  26
TORSDOF 10
ENDMDL
MODEL 7
REMARK minimizedAffinity -7.94439983
REMARK CNNscore 0.272231221
REMARK CNNaffinity 6.5728569
REMARK  10 active torsions:
REMARK  status: ('A' for Active; 'I' for Inactive)
REMARK    1  A    between atoms: C3_3  and  O1_4 
REMARK    2  A    between atoms: N1_14  and  O2_16 
REMARK    3  A    between atoms: O2_16  and  C13_17 
REMARK    4  A    between atoms: C13_17  and  C14_18 
REMARK       I    between atoms: C14_18  and  N2_20 
REMARK    5  A    between atoms: N2_20  and  C15_21 
REMARK    6  A    between atoms: C15_21  and  C16_22 
REMARK       I    between atoms: C16_22  and  N3_24 
REMARK    7  A    between atoms: N3_24  and  C17_25 
REMARK    8  A    between atoms: C17_25  and  C18_26 
REMARK    9  A    between atoms: C17_25  and  C19_29 
REMARK   10  A    between atoms: C18_26  and  O6_28 
ROOT
HETATM    1  C1  UNL     1      -6.602  46.303 -17.652  1.00  0.00     0.015 C 
HETATM    2  C2  UNL     1      -6.371  47.128 -18.495  1.00  0.00    -0.078 C 
HETATM    3  C3  UNL     1      -6.108  48.123 -19.548  1.00  0.00     0.128 C 
HETATM    4  C4  UNL     1      -7.103  49.282 -19.502  1.00  0.00     0.052 C 
HETATM    5  C5  UNL     1      -6.464  50.301 -20.437  1.00  0.00     0.010 C 
HETATM    6  C6  UNL     1      -4.951  50.226 -20.149  1.00  0.00     0.002 C 
HETATM    7  C7  UNL     1      -4.027  50.511 -21.362  1.00  0.00    -0.004 C 
HETATM    8  C8  UNL     1      -4.462  51.794 -22.093  1.00  0.00     0.010 C 
HETATM    9  C9  UNL     1      -3.576  52.108 -23.289  1.00  0.00     0.035 C 
HETATM   10  C10 UNL     1      -3.506  50.940 -24.245  1.00  0.00    -0.069 C 
HETATM   11  C11 UNL     1      -3.772  51.121 -25.552  1.00  0.00     0.030 C 
HETATM   12  C12 UNL     1      -3.588  50.030 -26.545  1.00  0.00     0.032 C 
HETATM   13  N1  UNL     1      -3.970  50.253 -27.769  1.00  0.00    -0.271 N 
ATOM     14  H1  UNL     1      -4.405  51.121 -28.081  1.00  0.00     0.194 HD
HETATM   15  C22 UNL     1      -2.913  48.760 -26.067  1.00  0.00     0.060 C 
HETATM   16  C23 UNL     1      -3.352  48.443 -24.644  1.00  0.00     0.020 C 
HETATM   17  C24 UNL     1      -3.089  49.599 -23.636  1.00  0.00    -0.016 C 
HETATM   18  C25 UNL     1      -1.570  49.688 -23.343  1.00  0.00     0.020 C 
HETATM   19  C26 UNL     1      -3.942  49.312 -22.336  1.00  0.00     0.002 C 
HETATM   20  C27 UNL     1      -3.524  48.009 -21.617  1.00  0.00     0.007 C 
HETATM   21  C28 UNL     1      -3.552  48.064 -20.089  1.00  0.00     0.014 C 
HETATM   22  C29 UNL     1      -4.718  48.842 -19.453  1.00  0.00     0.003 C 
HETATM   23  C30 UNL     1      -4.325  49.120 -17.975  1.00  0.00     0.020 C 
ENDROOT
BRANCH   3  24
HETATM   24  O1  UNL     1      -6.267  47.479 -20.810  1.00  0.00    -0.377 OA
HETATM   25  H2  UNL     1      -7.097  46.968 -20.775  1.00  0.00     0.211 HD
ENDBRANCH   3  24
BRANCH  13  26
HETATM   26  O2  UNL     1      -3.711  49.160 -28.611  1.00  0.00    -0.271 OA
BRANCH  26  27
HETATM   27  C13 UNL     1      -4.889  48.369 -28.732  1.00  0.00     0.303 C 
BRANCH  27  28
HETATM   28  C14 UNL     1      -5.494  48.402 -30.134  1.00  0.00     0.244 C 
HETATM   29  O3  UNL     1      -4.807  48.299 -31.150  1.00  0.00    -0.271 OA
HETATM   30  N2  UNL     1      -6.862  48.537 -30.169  1.00  0.00    -0.350 N 
HETATM   31  H16 UNL     1      -7.314  48.803 -29.294  1.00  0.00     0.163 HD
BRANCH  30  32
HETATM   32  C15 UNL     1      -7.562  48.783 -31.410  1.00  0.00     0.225 C 
BRANCH  32  33
HETATM   33  C16 UNL     1      -8.687  47.754 -31.573  1.00  0.00     0.236 C 
HETATM   34  O4  UNL     1      -8.924  47.205 -32.648  1.00  0.00    -0.272 OA
HETATM   35  N3  UNL     1      -9.361  47.457 -30.409  1.00  0.00    -0.345 N 
HETATM   36  H19 UNL     1      -9.247  48.095 -29.627  1.00  0.00     0.163 HD
BRANCH  35  37
HETATM   37  C17 UNL     1     -10.538  46.582 -30.399  1.00  0.00     0.185 C 
BRANCH  37  38
HETATM   38  C18 UNL     1     -11.622  47.260 -29.555  1.00  0.00     0.163 C 
HETATM   39  O5  UNL     1     -11.443  47.935 -28.551  1.00  0.00    -0.648 OA
BRANCH  38  40
HETATM   40  O6  UNL     1     -12.872  47.026 -30.001  1.00  0.00    -0.775 OA
HETATM   41  H21 UNL     1     -13.446  47.529 -29.385  1.00  0.00     0.167 HD
ENDBRANCH  38  40
ENDBRANCH  37  38
BRANCH  37  42
HETATM   42  C19 UNL     1     -10.163  45.172 -29.890  1.00  0.00     0.010 C 
HETATM   43  C20 UNL     1     -11.405  44.317 -29.620  1.00  0.00     0.012 C 
HETATM   44  C21 UNL     1      -9.262  45.178 -28.652  1.00  0.00     0.012 C 
ENDBRANCH  37  42
ENDBRANCH  35  37
ENDBRANCH  32  33
ENDBRANCH  30  32
ENDBRANCH  27  28
ENDBRANCH  26  27
ENDBRANCH  13  26
TORSDOF 10
ENDMDL
MODEL 8
REMARK minimizedAffinity -7.8596487
REMARK CNNscore 0.268995166
REMARK CNNaffinity 6.23868179
REMARK  10 active torsions:
REMARK  status: ('A' for Active; 'I' for Inactive)
REMARK    1  A    between atoms: C3_3  and  O1_4 
REMARK    2  A    between atoms: N1_14  and  O2_16 
REMARK    3  A    between atoms: O2_16  and  C13_17 
REMARK    4  A    between atoms: C13_17  and  C14_18 
REMARK       I    between atoms: C14_18  and  N2_20 
REMARK    5  A    between atoms: N2_20  and  C15_21 
REMARK    6  A    between atoms: C15_21  and  C16_22 
REMARK       I    between atoms: C16_22  and  N3_24 
REMARK    7  A    between atoms: N3_24  and  C17_25 
REMARK    8  A    between atoms: C17_25  and  C18_26 
REMARK    9  A    between atoms: C17_25  and  C19_29 
REMARK   10  A    between atoms: C18_26  and  O6_28 
ROOT
HETATM    1  C1  UNL     1       0.311  54.397 -26.933  1.00  0.00     0.015 C 
HETATM    2  C2  UNL     1      -0.499  53.563 -26.628  1.00  0.00    -0.078 C 
HETATM    3  C3  UNL     1      -1.511  52.565 -26.245  1.00  0.00     0.128 C 
HETATM    4  C4  UNL     1      -2.436  52.212 -27.409  1.00  0.00     0.052 C 
HETATM    5  C5  UNL     1      -3.163  50.979 -26.890  1.00  0.00     0.010 C 
HETATM    6  C6  UNL     1      -2.094  50.163 -26.135  1.00  0.00     0.002 C 
HETATM    7  C7  UNL     1      -2.613  49.347 -24.922  1.00  0.00    -0.004 C 
HETATM    8  C8  UNL     1      -3.866  48.536 -25.302  1.00  0.00     0.010 C 
HETATM    9  C9  UNL     1      -4.402  47.719 -24.137  1.00  0.00     0.035 C 
HETATM   10  C10 UNL     1      -4.667  48.588 -22.930  1.00  0.00    -0.069 C 
HETATM   11  C11 UNL     1      -5.867  48.550 -22.322  1.00  0.00     0.030 C 
HETATM   12  C12 UNL     1      -6.126  49.289 -21.057  1.00  0.00     0.032 C 
HETATM   13  N1  UNL     1      -7.342  49.287 -20.592  1.00  0.00    -0.271 N 
ATOM     14  H1  UNL     1      -8.128  48.828 -21.053  1.00  0.00     0.194 HD
HETATM   15  C22 UNL     1      -4.940  49.939 -20.375  1.00  0.00     0.060 C 
HETATM   16  C23 UNL     1      -3.987  50.505 -21.418  1.00  0.00     0.020 C 
HETATM   17  C24 UNL     1      -3.496  49.451 -22.454  1.00  0.00    -0.016 C 
HETATM   18  C25 UNL     1      -2.479  48.500 -21.775  1.00  0.00     0.020 C 
HETATM   19  C26 UNL     1      -2.872  50.232 -23.680  1.00  0.00     0.002 C 
HETATM   20  C27 UNL     1      -1.631  51.068 -23.293  1.00  0.00     0.007 C 
HETATM   21  C28 UNL     1      -0.508  51.095 -24.331  1.00  0.00     0.014 C 
HETATM   22  C29 UNL     1      -0.942  51.172 -25.807  1.00  0.00     0.003 C 
HETATM   23  C30 UNL     1       0.292  50.771 -26.663  1.00  0.00     0.020 C 
ENDROOT
BRANCH   3  24
HETATM   24  O1  UNL     1      -2.322  53.134 -25.219  1.00  0.00    -0.377 OA
HETATM   25  H2  UNL     1      -2.564  54.035 -25.503  1.00  0.00     0.211 HD
ENDBRANCH   3  24
BRANCH  13  26
HETATM   26  O2  UNL     1      -7.445  49.990 -19.381  1.00  0.00    -0.271 OA
BRANCH  26  27
HETATM   27  C13 UNL     1      -8.012  49.140 -18.389  1.00  0.00     0.303 C 
BRANCH  27  28
HETATM   28  C14 UNL     1      -8.948  48.080 -18.968  1.00  0.00     0.244 C 
HETATM   29  O3  UNL     1      -8.572  46.934 -19.213  1.00  0.00    -0.271 OA
HETATM   30  N2  UNL     1     -10.240  48.502 -19.175  1.00  0.00    -0.350 N 
HETATM   31  H16 UNL     1     -10.402  49.507 -19.121  1.00  0.00     0.163 HD
BRANCH  30  32
HETATM   32  C15 UNL     1     -11.191  47.686 -19.897  1.00  0.00     0.225 C 
BRANCH  32  33
HETATM   33  C16 UNL     1     -12.545  47.727 -19.179  1.00  0.00     0.236 C 
HETATM   34  O4  UNL     1     -12.639  47.705 -17.952  1.00  0.00    -0.272 OA
HETATM   35  N3  UNL     1     -13.631  47.851 -20.017  1.00  0.00    -0.345 N 
HETATM   36  H19 UNL     1     -13.487  47.653 -21.002  1.00  0.00     0.163 HD
BRANCH  35  37
HETATM   37  C17 UNL     1     -15.008  47.791 -19.513  1.00  0.00     0.185 C 
BRANCH  37  38
HETATM   38  C18 UNL     1     -14.946  47.693 -17.986  1.00  0.00     0.163 C 
HETATM   39  O5  UNL     1     -14.844  46.666 -17.328  1.00  0.00    -0.648 OA
BRANCH  38  40
HETATM   40  O6  UNL     1     -15.047  48.886 -17.368  1.00  0.00    -0.775 OA
HETATM   41  H21 UNL     1     -14.974  48.671 -16.414  1.00  0.00     0.167 HD
ENDBRANCH  38  40
ENDBRANCH  37  38
BRANCH  37  42
HETATM   42  C19 UNL     1     -15.776  46.621 -20.168  1.00  0.00     0.010 C 
HETATM   43  C20 UNL     1     -15.844  46.769 -21.691  1.00  0.00     0.012 C 
HETATM   44  C21 UNL     1     -17.186  46.413 -19.608  1.00  0.00     0.012 C 
ENDBRANCH  37  42
ENDBRANCH  35  37
ENDBRANCH  32  33
ENDBRANCH  30  32
ENDBRANCH  27  28
ENDBRANCH  26  27
ENDBRANCH  13  26
TORSDOF 10
ENDMDL
MODEL 9
REMARK minimizedAffinity -7.59318304
REMARK CNNscore 0.24499087
REMARK CNNaffinity 6.27410555
REMARK  10 active torsions:
REMARK  status: ('A' for Active; 'I' for Inactive)
REMARK    1  A    between atoms: C3_3  and  O1_4 
REMARK    2  A    between atoms: N1_14  and  O2_16 
REMARK    3  A    between atoms: O2_16  and  C13_17 
REMARK    4  A    between atoms: C13_17  and  C14_18 
REMARK       I    between atoms: C14_18  and  N2_20 
REMARK    5  A    between atoms: N2_20  and  C15_21 
REMARK    6  A    between atoms: C15_21  and  C16_22 
REMARK       I    between atoms: C16_22  and  N3_24 
REMARK    7  A    between atoms: N3_24  and  C17_25 
REMARK    8  A    between atoms: C17_25  and  C18_26 
REMARK    9  A    between atoms: C17_25  and  C19_29 
REMARK   10  A    between atoms: C18_26  and  O6_28 
ROOT
HETATM    1  C1  UNL     1      -0.432  54.200 -27.620  1.00  0.00     0.015 C 
HETATM    2  C2  UNL     1      -0.958  53.474 -26.820  1.00  0.00    -0.078 C 
HETATM    3  C3  UNL     1      -1.617  52.610 -25.826  1.00  0.00     0.128 C 
HETATM    4  C4  UNL     1      -3.014  52.183 -26.274  1.00  0.00     0.052 C 
HETATM    5  C5  UNL     1      -3.357  51.083 -25.278  1.00  0.00     0.010 C 
HETATM    6  C6  UNL     1      -2.048  50.292 -25.078  1.00  0.00     0.002 C 
HETATM    7  C7  UNL     1      -1.851  49.677 -23.667  1.00  0.00    -0.004 C 
HETATM    8  C8  UNL     1      -3.115  48.920 -23.218  1.00  0.00     0.010 C 
HETATM    9  C9  UNL     1      -2.958  48.299 -21.839  1.00  0.00     0.035 C 
HETATM   10  C10 UNL     1      -2.553  49.331 -20.812  1.00  0.00    -0.069 C 
HETATM   11  C11 UNL     1      -3.256  49.460 -19.672  1.00  0.00     0.030 C 
HETATM   12  C12 UNL     1      -2.816  50.370 -18.581  1.00  0.00     0.032 C 
HETATM   13  N1  UNL     1      -3.607  50.518 -17.558  1.00  0.00    -0.271 N 
ATOM     14  H1  UNL     1      -4.516  50.064 -17.471  1.00  0.00     0.194 HD
HETATM   15  C22 UNL     1      -1.450  51.011 -18.717  1.00  0.00     0.060 C 
HETATM   16  C23 UNL     1      -1.187  51.368 -20.174  1.00  0.00     0.020 C 
HETATM   17  C24 UNL     1      -1.309  50.158 -21.146  1.00  0.00    -0.016 C 
HETATM   18  C25 UNL     1      -0.084  49.227 -20.963  1.00  0.00     0.020 C 
HETATM   19  C26 UNL     1      -1.424  50.729 -22.617  1.00  0.00     0.002 C 
HETATM   20  C27 UNL     1      -0.166  51.512 -23.058  1.00  0.00     0.007 C 
HETATM   21  C28 UNL     1       0.245  51.324 -24.519  1.00  0.00     0.014 C 
HETATM   22  C29 UNL     1      -0.898  51.246 -25.548  1.00  0.00     0.003 C 
HETATM   23  C30 UNL     1      -0.295  50.649 -26.850  1.00  0.00     0.020 C 
ENDROOT
BRANCH   3  24
HETATM   24  O1  UNL     1      -1.771  53.363 -24.624  1.00  0.00    -0.377 OA
HETATM   25  H2  UNL     1      -2.129  54.237 -24.871  1.00  0.00     0.211 HD
ENDBRANCH   3  24
BRANCH  13  26
HETATM   26  O2  UNL     1      -3.062  51.374 -16.588  1.00  0.00    -0.271 OA
BRANCH  26  27
HETATM   27  C13 UNL     1      -3.058  50.715 -15.326  1.00  0.00     0.303 C 
BRANCH  27  28
HETATM   28  C14 UNL     1      -2.243  51.453 -14.264  1.00  0.00     0.244 C 
HETATM   29  O3  UNL     1      -1.017  51.545 -14.322  1.00  0.00    -0.271 OA
HETATM   30  N2  UNL     1      -2.988  52.016 -13.254  1.00  0.00    -0.350 N 
HETATM   31  H16 UNL     1      -3.963  51.725 -13.194  1.00  0.00     0.163 HD
BRANCH  30  32
HETATM   32  C15 UNL     1      -2.359  52.573 -12.077  1.00  0.00     0.225 C 
BRANCH  32  33
HETATM   33  C16 UNL     1      -3.071  52.052 -10.824  1.00  0.00     0.236 C 
HETATM   34  O4  UNL     1      -3.158  52.718  -9.793  1.00  0.00    -0.272 OA
HETATM   35  N3  UNL     1      -3.651  50.810 -10.973  1.00  0.00    -0.345 N 
HETATM   36  H19 UNL     1      -3.359  50.250 -11.767  1.00  0.00     0.163 HD
BRANCH  35  37
HETATM   37  C17 UNL     1      -4.274  50.108  -9.845  1.00  0.00     0.185 C 
BRANCH  37  38
HETATM   38  C18 UNL     1      -3.200  49.246  -9.176  1.00  0.00     0.163 C 
HETATM   39  O5  UNL     1      -2.361  48.560  -9.746  1.00  0.00    -0.648 OA
BRANCH  38  40
HETATM   40  O6  UNL     1      -3.259  49.265  -7.830  1.00  0.00    -0.775 OA
HETATM   41  H21 UNL     1      -2.514  48.694  -7.547  1.00  0.00     0.167 HD
ENDBRANCH  38  40
ENDBRANCH  37  38
BRANCH  37  42
HETATM   42  C19 UNL     1      -5.500  49.296 -10.321  1.00  0.00     0.010 C 
HETATM   43  C20 UNL     1      -6.012  48.351  -9.231  1.00  0.00     0.012 C 
HETATM   44  C21 UNL     1      -5.260  48.510 -11.613  1.00  0.00     0.012 C 
ENDBRANCH  37  42
ENDBRANCH  35  37
ENDBRANCH  32  33
ENDBRANCH  30  32
ENDBRANCH  27  28
ENDBRANCH  26  27
ENDBRANCH  13  26
TORSDOF 10
ENDMDL
