MODEL 1
REMARK minimizedAffinity -8.76435375
REMARK CNNscore 0.515652239
REMARK CNNaffinity 7.26307631
REMARK  12 active torsions:
REMARK  status: ('A' for Active; 'I' for Inactive)
REMARK    1  A    between atoms: C2_2  and  C4_4 
REMARK    2  A    between atoms: C13_13  and  C14_14 
REMARK    3  A    between atoms: C14_14  and  C16_16 
REMARK    4  A    between atoms: C16_16  and  C17_17 
REMARK    5  A    between atoms: C17_17  and  C18_18 
REMARK    6  A    between atoms: C19_19  and  C21_21 
REMARK    7  A    between atoms: C21_21  and  O2_23 
REMARK    8  A    between atoms: C27_29  and  C28_30 
REMARK    9  A    between atoms: C28_30  and  C29_31 
REMARK   10  A    between atoms: C29_31  and  C30_32 
REMARK   11  A    between atoms: C30_32  and  O4_34 
REMARK   12  A    between atoms: O4_34  and  C31_35 
ROOT
HETATM    1  C4  UNL     1       0.013  51.137 -25.651  1.00  0.00     0.022 C 
HETATM    2  C5  UNL     1      -0.966  50.478 -26.635  1.00  0.00     0.010 C 
HETATM    3  C6  UNL     1      -1.890  49.535 -25.884  1.00  0.00     0.007 C 
HETATM    4  C7  UNL     1      -2.868  50.305 -24.977  1.00  0.00     0.004 C 
HETATM    5  C8  UNL     1      -2.150  51.326 -24.046  1.00  0.00    -0.027 A 
HETATM    6  C9  UNL     1      -2.674  51.494 -22.591  1.00  0.00     0.011 C 
HETATM    7  C10 UNL     1      -3.903  50.697 -22.123  1.00  0.00     0.011 C 
HETATM    8  C11 UNL     1      -4.765  50.187 -23.271  1.00  0.00    -0.032 C 
HETATM    9  C12 UNL     1      -5.431  51.408 -23.952  1.00  0.00     0.016 C 
HETATM   10  C13 UNL     1      -5.833  49.121 -22.871  1.00  0.00    -0.002 C 
HETATM   11  C22 UNL     1      -6.041  48.309 -24.172  1.00  0.00     0.006 C 
HETATM   12  C23 UNL     1      -4.850  48.626 -25.092  1.00  0.00     0.011 C 
HETATM   13  C24 UNL     1      -3.821  49.356 -24.208  1.00  0.00    -0.032 C 
HETATM   14  C25 UNL     1      -2.978  48.262 -23.473  1.00  0.00     0.016 C 
HETATM   15  C26 UNL     1      -1.865  52.674 -24.695  1.00  0.00     0.022 A 
HETATM   16  C27 UNL     1      -0.686  51.774 -24.425  1.00  0.00    -0.024 A 
ENDROOT
BRANCH  10  17
HETATM   17  C14 UNL     1      -7.127  49.529 -22.104  1.00  0.00    -0.014 C 
HETATM   18  C15 UNL     1      -6.745  49.833 -20.642  1.00  0.00     0.010 C 
BRANCH  17  19
HETATM   19  C16 UNL     1      -8.300  48.514 -22.137  1.00  0.00     0.008 C 
BRANCH  19  20
HETATM   20  C17 UNL     1      -8.214  47.503 -23.290  1.00  0.00     0.028 C 
BRANCH  20  21
HETATM   21  C18 UNL     1      -9.561  47.284 -23.929  1.00  0.00    -0.013 C 
HETATM   22  C19 UNL     1     -10.015  47.738 -25.116  1.00  0.00     0.008 C 
HETATM   23  C20 UNL     1     -11.362  47.339 -25.648  1.00  0.00     0.055 C 
BRANCH  22  24
HETATM   24  C21 UNL     1      -9.257  48.632 -26.021  1.00  0.00     0.171 C 
HETATM   25  O1  UNL     1      -8.492  48.268 -26.895  1.00  0.00    -0.646 OA
BRANCH  24  26
HETATM   26  O2  UNL     1      -9.564  49.930 -25.869  1.00  0.00    -0.773 OA
HETATM   27  H32 UNL     1      -9.021  50.376 -26.548  1.00  0.00     0.167 HD
ENDBRANCH  24  26
ENDBRANCH  22  24
ENDBRANCH  20  21
ENDBRANCH  19  20
ENDBRANCH  17  19
ENDBRANCH  10  17
BRANCH  16  28
HETATM   28  C28 UNL     1       0.304  52.023 -23.271  1.00  0.00     0.020 C 
BRANCH  28  29
HETATM   29  C29 UNL     1       0.803  53.447 -23.075  1.00  0.00     0.112 C 
BRANCH  29  30
HETATM   30  C30 UNL     1       1.122  53.726 -21.628  1.00  0.00     0.258 C 
HETATM   31  O3  UNL     1       1.979  54.514 -21.255  1.00  0.00    -0.265 OA
BRANCH  30  32
HETATM   32  O4  UNL     1       0.345  52.963 -20.811  1.00  0.00    -0.322 OA
BRANCH  32  33
HETATM   33  C31 UNL     1       0.124  53.489 -19.493  1.00  0.00     0.174 C 
HETATM   34  C32 UNL     1       0.792  52.612 -18.450  1.00  0.00     0.034 C 
ENDBRANCH  32  33
ENDBRANCH  30  32
ENDBRANCH  29  30
ENDBRANCH  28  29
ENDBRANCH  16  28
BRANCH   1  35
HETATM   35  C2  UNL     1       0.978  52.058 -26.398  1.00  0.00    -0.088 C 
HETATM   36  C1  UNL     1       2.292  51.780 -26.465  1.00  0.00     0.014 C 
HETATM   37  C3  UNL     1       0.428  53.286 -27.071  1.00  0.00     0.043 C 
ENDBRANCH   1  35
TORSDOF 12
ENDMDL
MODEL 2
REMARK minimizedAffinity -9.13538551
REMARK CNNscore 0.451379865
REMARK CNNaffinity 7.27408266
REMARK  12 active torsions:
REMARK  status: ('A' for Active; 'I' for Inactive)
REMARK    1  A    between atoms: C2_2  and  C4_4 
REMARK    2  A    between atoms: C13_13  and  C14_14 
REMARK    3  A    between atoms: C14_14  and  C16_16 
REMARK    4  A    between atoms: C16_16  and  C17_17 
REMARK    5  A    between atoms: C17_17  and  C18_18 
REMARK    6  A    between atoms: C19_19  and  C21_21 
REMARK    7  A    between atoms: C21_21  and  O2_23 
REMARK    8  A    between atoms: C27_29  and  C28_30 
REMARK    9  A    between atoms: C28_30  and  C29_31 
REMARK   10  A    between atoms: C29_31  and  C30_32 
REMARK   11  A    between atoms: C30_32  and  O4_34 
REMARK   12  A    between atoms: O4_34  and  C31_35 
ROOT
HETATM    1  C4  UNL     1      -0.892  51.383 -18.616  1.00  0.00     0.022 C 
HETATM    2  C5  UNL     1      -2.273  50.901 -18.145  1.00  0.00     0.010 C 
HETATM    3  C6  UNL     1      -3.311  51.199 -19.213  1.00  0.00     0.007 C 
HETATM    4  C7  UNL     1      -3.108  50.318 -20.460  1.00  0.00     0.004 C 
HETATM    5  C8  UNL     1      -1.648  50.362 -20.998  1.00  0.00    -0.027 A 
HETATM    6  C9  UNL     1      -1.428  50.365 -22.539  1.00  0.00     0.011 C 
HETATM    7  C10 UNL     1      -2.638  50.276 -23.484  1.00  0.00     0.011 C 
HETATM    8  C11 UNL     1      -3.886  49.714 -22.816  1.00  0.00    -0.032 C 
HETATM    9  C12 UNL     1      -3.632  48.220 -22.500  1.00  0.00     0.016 C 
HETATM   10  C13 UNL     1      -5.207  49.895 -23.628  1.00  0.00    -0.002 C 
HETATM   11  C22 UNL     1      -6.305  49.917 -22.538  1.00  0.00     0.006 C 
HETATM   12  C23 UNL     1      -5.597  50.173 -21.196  1.00  0.00     0.011 C 
HETATM   13  C24 UNL     1      -4.163  50.607 -21.557  1.00  0.00    -0.032 C 
HETATM   14  C25 UNL     1      -4.199  52.144 -21.846  1.00  0.00     0.016 C 
HETATM   15  C26 UNL     1      -0.691  49.403 -20.302  1.00  0.00     0.022 A 
HETATM   16  C27 UNL     1      -0.514  50.874 -20.029  1.00  0.00    -0.024 A 
ENDROOT
BRANCH  10  17
HETATM   17  C14 UNL     1      -5.505  49.017 -24.883  1.00  0.00    -0.014 C 
HETATM   18  C15 UNL     1      -6.693  48.093 -24.552  1.00  0.00     0.010 C 
BRANCH  17  19
HETATM   19  C16 UNL     1      -4.325  48.175 -25.434  1.00  0.00     0.008 C 
BRANCH  19  20
HETATM   20  C17 UNL     1      -3.825  48.635 -26.812  1.00  0.00     0.028 C 
BRANCH  20  21
HETATM   21  C18 UNL     1      -2.406  49.136 -26.740  1.00  0.00    -0.013 C 
HETATM   22  C19 UNL     1      -1.936  50.378 -26.977  1.00  0.00     0.008 C 
HETATM   23  C20 UNL     1      -0.492  50.729 -26.761  1.00  0.00     0.055 C 
BRANCH  22  24
HETATM   24  C21 UNL     1      -2.764  51.516 -27.439  1.00  0.00     0.171 C 
HETATM   25  O1  UNL     1      -2.868  52.588 -26.871  1.00  0.00    -0.646 OA
BRANCH  24  26
HETATM   26  O2  UNL     1      -3.338  51.309 -28.634  1.00  0.00    -0.773 OA
HETATM   27  H32 UNL     1      -3.807  52.147 -28.812  1.00  0.00     0.167 HD
ENDBRANCH  24  26
ENDBRANCH  22  24
ENDBRANCH  20  21
ENDBRANCH  19  20
ENDBRANCH  17  19
ENDBRANCH  10  17
BRANCH  16  28
HETATM   28  C28 UNL     1       0.630  51.703 -20.645  1.00  0.00     0.020 C 
BRANCH  28  29
HETATM   29  C29 UNL     1       0.516  53.218 -20.560  1.00  0.00     0.112 C 
BRANCH  29  30
HETATM   30  C30 UNL     1       1.268  53.891 -21.680  1.00  0.00     0.258 C 
HETATM   31  O3  UNL     1       2.027  54.838 -21.523  1.00  0.00    -0.265 OA
BRANCH  30  32
HETATM   32  O4  UNL     1       0.964  53.317 -22.875  1.00  0.00    -0.322 OA
BRANCH  32  33
HETATM   33  C31 UNL     1       0.917  54.207 -24.000  1.00  0.00     0.174 C 
HETATM   34  C32 UNL     1      -0.069  53.704 -25.038  1.00  0.00     0.034 C 
ENDBRANCH  32  33
ENDBRANCH  30  32
ENDBRANCH  29  30
ENDBRANCH  28  29
ENDBRANCH  16  28
BRANCH   1  35
HETATM   35  C2  UNL     1       0.158  51.128 -17.533  1.00  0.00    -0.088 C 
HETATM   36  C1  UNL     1       0.256  49.932 -16.927  1.00  0.00     0.014 C 
HETATM   37  C3  UNL     1       1.094  52.245 -17.161  1.00  0.00     0.043 C 
ENDBRANCH   1  35
TORSDOF 12
ENDMDL
MODEL 3
REMARK minimizedAffinity -8.53890991
REMARK CNNscore 0.434031069
REMARK CNNaffinity 7.14137077
REMARK  12 active torsions:
REMARK  status: ('A' for Active; 'I' for Inactive)
REMARK    1  A    between atoms: C2_2  and  C4_4 
REMARK    2  A    between atoms: C13_13  and  C14_14 
REMARK    3  A    between atoms: C14_14  and  C16_16 
REMARK    4  A    between atoms: C16_16  and  C17_17 
REMARK    5  A    between atoms: C17_17  and  C18_18 
REMARK    6  A    between atoms: C19_19  and  C21_21 
REMARK    7  A    between atoms: C21_21  and  O2_23 
REMARK    8  A    between atoms: C27_29  and  C28_30 
REMARK    9  A    between atoms: C28_30  and  C29_31 
REMARK   10  A    between atoms: C29_31  and  C30_32 
REMARK   11  A    between atoms: C30_32  and  O4_34 
REMARK   12  A    between atoms: O4_34  and  C31_35 
ROOT
HETATM    1  C4  UNL     1      -0.077  51.119 -26.044  1.00  0.00     0.022 C 
HETATM    2  C5  UNL     1      -1.182  50.394 -26.829  1.00  0.00     0.010 C 
HETATM    3  C6  UNL     1      -1.960  49.483 -25.895  1.00  0.00     0.007 C 
HETATM    4  C7  UNL     1      -2.802  50.290 -24.889  1.00  0.00     0.004 C 
HETATM    5  C8  UNL     1      -1.971  51.370 -24.136  1.00  0.00    -0.027 A 
HETATM    6  C9  UNL     1      -2.268  51.612 -22.628  1.00  0.00     0.011 C 
HETATM    7  C10 UNL     1      -3.393  50.827 -21.934  1.00  0.00     0.011 C 
HETATM    8  C11 UNL     1      -4.411  50.244 -22.907  1.00  0.00    -0.032 C 
HETATM    9  C12 UNL     1      -5.199  51.418 -23.540  1.00  0.00     0.016 C 
HETATM   10  C13 UNL     1      -5.382  49.189 -22.291  1.00  0.00    -0.002 C 
HETATM   11  C22 UNL     1      -5.772  48.304 -23.499  1.00  0.00     0.006 C 
HETATM   12  C23 UNL     1      -4.743  48.584 -24.608  1.00  0.00     0.011 C 
HETATM   13  C24 UNL     1      -3.606  49.374 -23.933  1.00  0.00    -0.032 C 
HETATM   14  C25 UNL     1      -2.638  48.333 -23.281  1.00  0.00     0.016 C 
HETATM   15  C26 UNL     1      -1.816  52.684 -24.891  1.00  0.00     0.022 A 
HETATM   16  C27 UNL     1      -0.592  51.814 -24.760  1.00  0.00    -0.024 A 
ENDROOT
BRANCH  10  17
HETATM   17  C14 UNL     1      -6.552  49.623 -21.355  1.00  0.00    -0.014 C 
HETATM   18  C15 UNL     1      -6.067  49.513 -19.896  1.00  0.00     0.010 C 
BRANCH  17  19
HETATM   19  C16 UNL     1      -7.891  48.857 -21.519  1.00  0.00     0.008 C 
BRANCH  19  20
HETATM   20  C17 UNL     1      -8.064  47.691 -20.535  1.00  0.00     0.028 C 
BRANCH  20  21
HETATM   21  C18 UNL     1      -9.505  47.531 -20.123  1.00  0.00    -0.013 C 
HETATM   22  C19 UNL     1     -10.119  47.984 -19.010  1.00  0.00     0.008 C 
HETATM   23  C20 UNL     1     -11.597  47.818 -18.804  1.00  0.00     0.055 C 
BRANCH  22  24
HETATM   24  C21 UNL     1      -9.440  48.697 -17.905  1.00  0.00     0.171 C 
HETATM   25  O1  UNL     1      -8.916  49.794 -17.990  1.00  0.00    -0.646 OA
BRANCH  24  26
HETATM   26  O2  UNL     1      -9.533  48.067 -16.725  1.00  0.00    -0.773 OA
HETATM   27  H32 UNL     1      -9.078  48.670 -16.104  1.00  0.00     0.167 HD
ENDBRANCH  24  26
ENDBRANCH  22  24
ENDBRANCH  20  21
ENDBRANCH  19  20
ENDBRANCH  17  19
ENDBRANCH  10  17
BRANCH  16  28
HETATM   28  C28 UNL     1       0.559  52.138 -23.788  1.00  0.00     0.020 C 
BRANCH  28  29
HETATM   29  C29 UNL     1       0.730  53.591 -23.369  1.00  0.00     0.112 C 
BRANCH  29  30
HETATM   30  C30 UNL     1       1.359  53.701 -22.004  1.00  0.00     0.258 C 
HETATM   31  O3  UNL     1       1.838  54.732 -21.552  1.00  0.00    -0.265 OA
BRANCH  30  32
HETATM   32  O4  UNL     1       1.339  52.498 -21.368  1.00  0.00    -0.322 OA
BRANCH  32  33
HETATM   33  C31 UNL     1       0.313  52.334 -20.378  1.00  0.00     0.174 C 
HETATM   34  C32 UNL     1       0.172  53.593 -19.542  1.00  0.00     0.034 C 
ENDBRANCH  32  33
ENDBRANCH  30  32
ENDBRANCH  29  30
ENDBRANCH  28  29
ENDBRANCH  16  28
BRANCH   1  35
HETATM   35  C2  UNL     1       0.743  52.008 -26.979  1.00  0.00    -0.088 C 
HETATM   36  C1  UNL     1       0.159  52.976 -27.707  1.00  0.00     0.014 C 
HETATM   37  C3  UNL     1       2.229  51.788 -27.065  1.00  0.00     0.043 C 
ENDBRANCH   1  35
TORSDOF 12
ENDMDL
MODEL 4
REMARK minimizedAffinity -6.83489704
REMARK CNNscore 0.393713117
REMARK CNNaffinity 5.78227663
REMARK  12 active torsions:
REMARK  status: ('A' for Active; 'I' for Inactive)
REMARK    1  A    between atoms: C2_2  and  C4_4 
REMARK    2  A    between atoms: C13_13  and  C14_14 
REMARK    3  A    between atoms: C14_14  and  C16_16 
REMARK    4  A    between atoms: C16_16  and  C17_17 
REMARK    5  A    between atoms: C17_17  and  C18_18 
REMARK    6  A    between atoms: C19_19  and  C21_21 
REMARK    7  A    between atoms: C21_21  and  O2_23 
REMARK    8  A    between atoms: C27_29  and  C28_30 
REMARK    9  A    between atoms: C28_30  and  C29_31 
REMARK   10  A    between atoms: C29_31  and  C30_32 
REMARK   11  A    between atoms: C30_32  and  O4_34 
REMARK   12  A    between atoms: O4_34  and  C31_35 
ROOT
HETATM    1  C4  UNL     1      -9.303  47.131 -30.716  1.00  0.00     0.022 C 
HETATM    2  C5  UNL     1     -10.757  47.326 -31.172  1.00  0.00     0.010 C 
HETATM    3  C6  UNL     1     -11.628  46.224 -30.594  1.00  0.00     0.007 C 
HETATM    4  C7  UNL     1     -11.783  46.368 -29.068  1.00  0.00     0.004 C 
HETATM    5  C8  UNL     1     -10.417  46.515 -28.335  1.00  0.00    -0.027 A 
HETATM    6  C9  UNL     1     -10.235  45.804 -26.964  1.00  0.00     0.011 C 
HETATM    7  C10 UNL     1     -11.405  45.023 -26.345  1.00  0.00     0.011 C 
HETATM    8  C11 UNL     1     -12.763  45.424 -26.908  1.00  0.00    -0.032 C 
HETATM    9  C12 UNL     1     -13.073  46.866 -26.437  1.00  0.00     0.016 C 
HETATM   10  C13 UNL     1     -13.936  44.457 -26.552  1.00  0.00    -0.002 C 
HETATM   11  C22 UNL     1     -14.932  44.647 -27.720  1.00  0.00     0.006 C 
HETATM   12  C23 UNL     1     -14.160  45.338 -28.858  1.00  0.00     0.011 C 
HETATM   13  C24 UNL     1     -12.673  45.253 -28.464  1.00  0.00    -0.032 C 
HETATM   14  C25 UNL     1     -12.144  43.859 -28.935  1.00  0.00     0.016 C 
HETATM   15  C26 UNL     1      -9.872  47.938 -28.302  1.00  0.00     0.022 A 
HETATM   16  C27 UNL     1      -9.160  46.946 -29.186  1.00  0.00    -0.024 A 
ENDROOT
BRANCH  10  17
HETATM   17  C14 UNL     1     -14.555  44.438 -25.121  1.00  0.00    -0.014 C 
HETATM   18  C15 UNL     1     -14.417  43.011 -24.555  1.00  0.00     0.010 C 
BRANCH  17  19
HETATM   19  C16 UNL     1     -16.028  44.908 -24.998  1.00  0.00     0.008 C 
BRANCH  19  20
HETATM   20  C17 UNL     1     -16.179  46.361 -24.522  1.00  0.00     0.028 C 
BRANCH  20  21
HETATM   21  C18 UNL     1     -16.880  46.432 -23.190  1.00  0.00    -0.013 C 
HETATM   22  C19 UNL     1     -18.203  46.401 -22.931  1.00  0.00     0.008 C 
HETATM   23  C20 UNL     1     -18.730  46.383 -21.524  1.00  0.00     0.055 C 
BRANCH  22  24
HETATM   24  C21 UNL     1     -19.262  46.357 -23.965  1.00  0.00     0.171 C 
HETATM   25  O1  UNL     1     -20.154  45.530 -24.026  1.00  0.00    -0.646 OA
BRANCH  24  26
HETATM   26  O2  UNL     1     -19.228  47.399 -24.810  1.00  0.00    -0.773 OA
HETATM   27  H32 UNL     1     -19.997  47.246 -25.394  1.00  0.00     0.167 HD
ENDBRANCH  24  26
ENDBRANCH  22  24
ENDBRANCH  20  21
ENDBRANCH  19  20
ENDBRANCH  17  19
ENDBRANCH  10  17
BRANCH  16  28
HETATM   28  C28 UNL     1      -7.801  46.323 -28.812  1.00  0.00     0.020 C 
BRANCH  28  29
HETATM   29  C29 UNL     1      -6.990  47.019 -27.729  1.00  0.00     0.112 C 
BRANCH  29  30
HETATM   30  C30 UNL     1      -5.759  47.678 -28.298  1.00  0.00     0.258 C 
HETATM   31  O3  UNL     1      -5.450  47.644 -29.481  1.00  0.00    -0.265 OA
BRANCH  30  32
HETATM   32  O4  UNL     1      -5.040  48.282 -27.313  1.00  0.00    -0.322 OA
BRANCH  32  33
HETATM   33  C31 UNL     1      -3.652  48.505 -27.603  1.00  0.00     0.174 C 
HETATM   34  C32 UNL     1      -2.846  48.595 -26.320  1.00  0.00     0.034 C 
ENDBRANCH  32  33
ENDBRANCH  30  32
ENDBRANCH  29  30
ENDBRANCH  28  29
ENDBRANCH  16  28
BRANCH   1  35
HETATM   35  C2  UNL     1      -8.405  48.209 -31.325  1.00  0.00    -0.088 C 
HETATM   36  C1  UNL     1      -8.483  49.488 -30.921  1.00  0.00     0.014 C 
HETATM   37  C3  UNL     1      -7.417  47.808 -32.387  1.00  0.00     0.043 C 
ENDBRANCH   1  35
TORSDOF 12
ENDMDL
MODEL 5
REMARK minimizedAffinity -8.53020191
REMARK CNNscore 0.313047171
REMARK CNNaffinity 6.9944911
REMARK  12 active torsions:
REMARK  status: ('A' for Active; 'I' for Inactive)
REMARK    1  A    between atoms: C2_2  and  C4_4 
REMARK    2  A    between atoms: C13_13  and  C14_14 
REMARK    3  A    between atoms: C14_14  and  C16_16 
REMARK    4  A    between atoms: C16_16  and  C17_17 
REMARK    5  A    between atoms: C17_17  and  C18_18 
REMARK    6  A    between atoms: C19_19  and  C21_21 
REMARK    7  A    between atoms: C21_21  and  O2_23 
REMARK    8  A    between atoms: C27_29  and  C28_30 
REMARK    9  A    between atoms: C28_30  and  C29_31 
REMARK   10  A    between atoms: C29_31  and  C30_32 
REMARK   11  A    between atoms: C30_32  and  O4_34 
REMARK   12  A    between atoms: O4_34  and  C31_35 
ROOT
HETATM    1  C4  UNL     1      -3.114  48.815 -23.933  1.00  0.00     0.022 C 
HETATM    2  C5  UNL     1      -3.603  48.013 -22.717  1.00  0.00     0.010 C 
HETATM    3  C6  UNL     1      -2.511  47.964 -21.662  1.00  0.00     0.007 C 
HETATM    4  C7  UNL     1      -2.281  49.346 -21.022  1.00  0.00     0.004 C 
HETATM    5  C8  UNL     1      -2.061  50.469 -22.077  1.00  0.00    -0.027 A 
HETATM    6  C9  UNL     1      -1.007  51.572 -21.772  1.00  0.00     0.011 C 
HETATM    7  C10 UNL     1      -0.251  51.559 -20.434  1.00  0.00     0.011 C 
HETATM    8  C11 UNL     1      -0.952  50.747 -19.352  1.00  0.00    -0.032 C 
HETATM    9  C12 UNL     1      -2.255  51.488 -18.962  1.00  0.00     0.016 C 
HETATM   10  C13 UNL     1      -0.086  50.442 -18.090  1.00  0.00    -0.002 C 
HETATM   11  C22 UNL     1      -0.693  49.130 -17.540  1.00  0.00     0.006 C 
HETATM   12  C23 UNL     1      -1.545  48.524 -18.669  1.00  0.00     0.011 C 
HETATM   13  C24 UNL     1      -1.173  49.310 -19.940  1.00  0.00    -0.032 C 
HETATM   14  C25 UNL     1       0.112  48.649 -20.539  1.00  0.00     0.016 C 
HETATM   15  C26 UNL     1      -3.346  51.066 -22.637  1.00  0.00     0.022 A 
HETATM   16  C27 UNL     1      -2.529  50.199 -23.559  1.00  0.00    -0.024 A 
ENDROOT
BRANCH  10  17
HETATM   17  C14 UNL     1       0.217  51.551 -17.036  1.00  0.00    -0.014 C 
HETATM   18  C15 UNL     1       1.209  52.551 -17.661  1.00  0.00     0.010 C 
BRANCH  17  19
HETATM   19  C16 UNL     1       0.755  51.071 -15.662  1.00  0.00     0.008 C 
BRANCH  19  20
HETATM   20  C17 UNL     1       2.161  51.591 -15.330  1.00  0.00     0.028 C 
BRANCH  20  21
HETATM   21  C18 UNL     1       2.398  51.619 -13.842  1.00  0.00    -0.013 C 
HETATM   22  C19 UNL     1       3.075  50.736 -13.079  1.00  0.00     0.008 C 
HETATM   23  C20 UNL     1       3.298  50.972 -11.612  1.00  0.00     0.055 C 
BRANCH  22  24
HETATM   24  C21 UNL     1       3.682  49.482 -13.580  1.00  0.00     0.171 C 
HETATM   25  O1  UNL     1       3.091  48.431 -13.751  1.00  0.00    -0.646 OA
BRANCH  24  26
HETATM   26  O2  UNL     1       4.966  49.619 -13.944  1.00  0.00    -0.773 OA
HETATM   27  H32 UNL     1       5.206  48.733 -14.281  1.00  0.00     0.167 HD
ENDBRANCH  24  26
ENDBRANCH  22  24
ENDBRANCH  20  21
ENDBRANCH  19  20
ENDBRANCH  17  19
ENDBRANCH  10  17
BRANCH  16  28
HETATM   28  C28 UNL     1      -1.663  50.777 -24.696  1.00  0.00     0.020 C 
BRANCH  28  29
HETATM   29  C29 UNL     1      -0.361  51.460 -24.302  1.00  0.00     0.112 C 
BRANCH  29  30
HETATM   30  C30 UNL     1      -0.196  52.781 -25.009  1.00  0.00     0.258 C 
HETATM   31  O3  UNL     1      -1.095  53.599 -25.150  1.00  0.00    -0.265 OA
BRANCH  30  32
HETATM   32  O4  UNL     1       1.073  52.917 -25.482  1.00  0.00    -0.322 OA
BRANCH  32  33
HETATM   33  C31 UNL     1       1.607  51.773 -26.166  1.00  0.00     0.174 C 
HETATM   34  C32 UNL     1       1.333  51.866 -27.655  1.00  0.00     0.034 C 
ENDBRANCH  32  33
ENDBRANCH  30  32
ENDBRANCH  29  30
ENDBRANCH  28  29
ENDBRANCH  16  28
BRANCH   1  35
HETATM   35  C2  UNL     1      -4.187  48.838 -25.022  1.00  0.00    -0.088 C 
HETATM   36  C1  UNL     1      -5.473  49.096 -24.726  1.00  0.00     0.014 C 
HETATM   37  C3  UNL     1      -3.775  48.574 -26.445  1.00  0.00     0.043 C 
ENDBRANCH   1  35
TORSDOF 12
ENDMDL
MODEL 6
REMARK minimizedAffinity -6.57742643
REMARK CNNscore 0.282985687
REMARK CNNaffinity 5.66469812
REMARK  12 active torsions:
REMARK  status: ('A' for Active; 'I' for Inactive)
REMARK    1  A    between atoms: C2_2  and  C4_4 
REMARK    2  A    between atoms: C13_13  and  C14_14 
REMARK    3  A    between atoms: C14_14  and  C16_16 
REMARK    4  A    between atoms: C16_16  and  C17_17 
REMARK    5  A    between atoms: C17_17  and  C18_18 
REMARK    6  A    between atoms: C19_19  and  C21_21 
REMARK    7  A    between atoms: C21_21  and  O2_23 
REMARK    8  A    between atoms: C27_29  and  C28_30 
REMARK    9  A    between atoms: C28_30  and  C29_31 
REMARK   10  A    between atoms: C29_31  and  C30_32 
REMARK   11  A    between atoms: C30_32  and  O4_34 
REMARK   12  A    between atoms: O4_34  and  C31_35 
ROOT
HETATM    1  C4  UNL     1      -7.294  47.059 -29.759  1.00  0.00     0.022 C 
HETATM    2  C5  UNL     1      -8.133  48.322 -29.512  1.00  0.00     0.010 C 
HETATM    3  C6  UNL     1      -9.602  47.949 -29.410  1.00  0.00     0.007 C 
HETATM    4  C7  UNL     1      -9.895  47.153 -28.125  1.00  0.00     0.004 C 
HETATM    5  C8  UNL     1      -8.942  45.935 -27.940  1.00  0.00    -0.027 A 
HETATM    6  C9  UNL     1      -9.533  44.616 -27.367  1.00  0.00     0.011 C 
HETATM    7  C10 UNL     1     -11.014  44.555 -26.954  1.00  0.00     0.011 C 
HETATM    8  C11 UNL     1     -11.626  45.928 -26.703  1.00  0.00    -0.032 C 
HETATM    9  C12 UNL     1     -10.975  46.520 -25.429  1.00  0.00     0.016 C 
HETATM   10  C13 UNL     1     -13.183  45.944 -26.593  1.00  0.00    -0.002 C 
HETATM   11  C22 UNL     1     -13.565  47.376 -27.038  1.00  0.00     0.006 C 
HETATM   12  C23 UNL     1     -12.339  47.960 -27.762  1.00  0.00     0.011 C 
HETATM   13  C24 UNL     1     -11.392  46.770 -28.005  1.00  0.00    -0.032 C 
HETATM   14  C25 UNL     1     -11.852  46.068 -29.324  1.00  0.00     0.016 C 
HETATM   15  C26 UNL     1      -7.607  46.275 -27.291  1.00  0.00     0.022 A 
HETATM   16  C27 UNL     1      -7.592  45.918 -28.755  1.00  0.00    -0.024 A 
ENDROOT
BRANCH  10  17
HETATM   17  C14 UNL     1     -13.904  45.409 -25.317  1.00  0.00    -0.014 C 
HETATM   18  C15 UNL     1     -14.949  44.365 -25.758  1.00  0.00     0.010 C 
BRANCH  17  19
HETATM   19  C16 UNL     1     -14.576  46.469 -24.406  1.00  0.00     0.008 C 
BRANCH  19  20
HETATM   20  C17 UNL     1     -16.087  46.621 -24.639  1.00  0.00     0.028 C 
BRANCH  20  21
HETATM   21  C18 UNL     1     -16.850  46.564 -23.342  1.00  0.00    -0.013 C 
HETATM   22  C19 UNL     1     -18.168  46.353 -23.147  1.00  0.00     0.008 C 
HETATM   23  C20 UNL     1     -18.750  46.229 -21.768  1.00  0.00     0.055 C 
BRANCH  22  24
HETATM   24  C21 UNL     1     -19.165  46.196 -24.231  1.00  0.00     0.171 C 
HETATM   25  O1  UNL     1     -19.772  45.173 -24.488  1.00  0.00    -0.646 OA
BRANCH  24  26
HETATM   26  O2  UNL     1     -19.438  47.342 -24.874  1.00  0.00    -0.773 OA
HETATM   27  H32 UNL     1     -20.126  47.085 -25.520  1.00  0.00     0.167 HD
ENDBRANCH  24  26
ENDBRANCH  22  24
ENDBRANCH  20  21
ENDBRANCH  19  20
ENDBRANCH  17  19
ENDBRANCH  10  17
BRANCH  16  28
HETATM   28  C28 UNL     1      -7.091  44.557 -29.275  1.00  0.00     0.020 C 
BRANCH  28  29
HETATM   29  C29 UNL     1      -8.011  43.787 -30.212  1.00  0.00     0.112 C 
BRANCH  29  30
HETATM   30  C30 UNL     1      -7.264  43.267 -31.414  1.00  0.00     0.258 C 
HETATM   31  O3  UNL     1      -7.796  42.701 -32.358  1.00  0.00    -0.265 OA
BRANCH  30  32
HETATM   32  O4  UNL     1      -5.928  43.493 -31.282  1.00  0.00    -0.322 OA
BRANCH  32  33
HETATM   33  C31 UNL     1      -5.217  43.748 -32.503  1.00  0.00     0.174 C 
HETATM   34  C32 UNL     1      -4.077  42.761 -32.673  1.00  0.00     0.034 C 
ENDBRANCH  32  33
ENDBRANCH  30  32
ENDBRANCH  29  30
ENDBRANCH  28  29
ENDBRANCH  16  28
BRANCH   1  35
HETATM   35  C2  UNL     1      -5.816  47.422 -29.907  1.00  0.00    -0.088 C 
HETATM   36  C1  UNL     1      -5.154  48.055 -28.922  1.00  0.00     0.014 C 
HETATM   37  C3  UNL     1      -5.105  47.047 -31.179  1.00  0.00     0.043 C 
ENDBRANCH   1  35
TORSDOF 12
ENDMDL
MODEL 7
REMARK minimizedAffinity -6.93848801
REMARK CNNscore 0.270558536
REMARK CNNaffinity 6.58035803
REMARK  12 active torsions:
REMARK  status: ('A' for Active; 'I' for Inactive)
REMARK    1  A    between atoms: C2_2  and  C4_4 
REMARK    2  A    between atoms: C13_13  and  C14_14 
REMARK    3  A    between atoms: C14_14  and  C16_16 
REMARK    4  A    between atoms: C16_16  and  C17_17 
REMARK    5  A    between atoms: C17_17  and  C18_18 
REMARK    6  A    between atoms: C19_19  and  C21_21 
REMARK    7  A    between atoms: C21_21  and  O2_23 
REMARK    8  A    between atoms: C27_29  and  C28_30 
REMARK    9  A    between atoms: C28_30  and  C29_31 
REMARK   10  A    between atoms: C29_31  and  C30_32 
REMARK   11  A    between atoms: C30_32  and  O4_34 
REMARK   12  A    between atoms: O4_34  and  C31_35 
ROOT
HETATM    1  C4  UNL     1      -1.328  50.592 -24.081  1.00  0.00     0.022 C 
HETATM    2  C5  UNL     1      -2.438  49.928 -24.910  1.00  0.00     0.010 C 
HETATM    3  C6  UNL     1      -3.119  48.849 -24.086  1.00  0.00     0.007 C 
HETATM    4  C7  UNL     1      -3.942  49.454 -22.933  1.00  0.00     0.004 C 
HETATM    5  C8  UNL     1      -3.124  50.457 -22.069  1.00  0.00    -0.027 A 
HETATM    6  C9  UNL     1      -3.349  50.461 -20.530  1.00  0.00     0.011 C 
HETATM    7  C10 UNL     1      -4.395  49.522 -19.907  1.00  0.00     0.011 C 
HETATM    8  C11 UNL     1      -5.435  49.030 -20.905  1.00  0.00    -0.032 C 
HETATM    9  C12 UNL     1      -6.313  50.237 -21.320  1.00  0.00     0.016 C 
HETATM   10  C13 UNL     1      -6.319  47.844 -20.407  1.00  0.00    -0.002 C 
HETATM   11  C22 UNL     1      -6.731  47.123 -21.712  1.00  0.00     0.006 C 
HETATM   12  C23 UNL     1      -5.780  47.619 -22.816  1.00  0.00     0.011 C 
HETATM   13  C24 UNL     1      -4.646  48.364 -22.086  1.00  0.00    -0.032 C 
HETATM   14  C25 UNL     1      -3.595  47.295 -21.642  1.00  0.00     0.016 C 
HETATM   15  C26 UNL     1      -3.074  51.874 -22.628  1.00  0.00     0.022 A 
HETATM   16  C27 UNL     1      -1.805  51.064 -22.685  1.00  0.00    -0.024 A 
ENDROOT
BRANCH  10  17
HETATM   17  C14 UNL     1      -7.455  48.071 -19.363  1.00  0.00    -0.014 C 
HETATM   18  C15 UNL     1      -7.219  47.113 -18.178  1.00  0.00     0.010 C 
BRANCH  17  19
HETATM   19  C16 UNL     1      -8.910  47.917 -19.878  1.00  0.00     0.008 C 
BRANCH  19  20
HETATM   20  C17 UNL     1      -9.959  47.831 -18.760  1.00  0.00     0.028 C 
BRANCH  20  21
HETATM   21  C18 UNL     1     -10.787  46.578 -18.881  1.00  0.00    -0.013 C 
HETATM   22  C19 UNL     1     -12.079  46.385 -18.544  1.00  0.00     0.008 C 
HETATM   23  C20 UNL     1     -12.780  45.087 -18.826  1.00  0.00     0.055 C 
BRANCH  22  24
HETATM   24  C21 UNL     1     -12.942  47.401 -17.901  1.00  0.00     0.171 C 
HETATM   25  O1  UNL     1     -13.028  47.597 -16.702  1.00  0.00    -0.646 OA
BRANCH  24  26
HETATM   26  O2  UNL     1     -13.576  48.195 -18.777  1.00  0.00    -0.773 OA
HETATM   27  H32 UNL     1     -14.064  48.823 -18.208  1.00  0.00     0.167 HD
ENDBRANCH  24  26
ENDBRANCH  22  24
ENDBRANCH  20  21
ENDBRANCH  19  20
ENDBRANCH  17  19
ENDBRANCH  10  17
BRANCH  16  28
HETATM   28  C28 UNL     1      -0.619  51.307 -21.731  1.00  0.00     0.020 C 
BRANCH  28  29
HETATM   29  C29 UNL     1      -0.340  52.745 -21.318  1.00  0.00     0.112 C 
BRANCH  29  30
HETATM   30  C30 UNL     1       0.377  52.809 -19.993  1.00  0.00     0.258 C 
HETATM   31  O3  UNL     1       1.549  53.134 -19.865  1.00  0.00    -0.265 OA
BRANCH  30  32
HETATM   32  O4  UNL     1      -0.450  52.432 -18.981  1.00  0.00    -0.322 OA
BRANCH  32  33
HETATM   33  C31 UNL     1      -0.056  51.255 -18.260  1.00  0.00     0.174 C 
HETATM   34  C32 UNL     1       0.534  51.628 -16.912  1.00  0.00     0.034 C 
ENDBRANCH  32  33
ENDBRANCH  30  32
ENDBRANCH  29  30
ENDBRANCH  28  29
ENDBRANCH  16  28
BRANCH   1  35
HETATM   35  C2  UNL     1      -0.605  51.653 -24.912  1.00  0.00    -0.088 C 
HETATM   36  C1  UNL     1       0.728  51.809 -24.831  1.00  0.00     0.014 C 
HETATM   37  C3  UNL     1      -1.415  52.520 -25.836  1.00  0.00     0.043 C 
ENDBRANCH   1  35
TORSDOF 12
ENDMDL
MODEL 8
REMARK minimizedAffinity -7.99526739
REMARK CNNscore 0.218473166
REMARK CNNaffinity 6.76000023
REMARK  12 active torsions:
REMARK  status: ('A' for Active; 'I' for Inactive)
REMARK    1  A    between atoms: C2_2  and  C4_4 
REMARK    2  A    between atoms: C13_13  and  C14_14 
REMARK    3  A    between atoms: C14_14  and  C16_16 
REMARK    4  A    between atoms: C16_16  and  C17_17 
REMARK    5  A    between atoms: C17_17  and  C18_18 
REMARK    6  A    between atoms: C19_19  and  C21_21 
REMARK    7  A    between atoms: C21_21  and  O2_23 
REMARK    8  A    between atoms: C27_29  and  C28_30 
REMARK    9  A    between atoms: C28_30  and  C29_31 
REMARK   10  A    between atoms: C29_31  and  C30_32 
REMARK   11  A    between atoms: C30_32  and  O4_34 
REMARK   12  A    between atoms: O4_34  and  C31_35 
ROOT
HETATM    1  C4  UNL     1       0.017  51.087 -25.790  1.00  0.00     0.022 C 
HETATM    2  C5  UNL     1      -1.035  50.368 -26.649  1.00  0.00     0.010 C 
HETATM    3  C6  UNL     1      -1.883  49.464 -25.772  1.00  0.00     0.007 C 
HETATM    4  C7  UNL     1      -2.789  50.279 -24.830  1.00  0.00     0.004 C 
HETATM    5  C8  UNL     1      -2.006  51.354 -24.021  1.00  0.00    -0.027 A 
HETATM    6  C9  UNL     1      -2.407  51.602 -22.539  1.00  0.00     0.011 C 
HETATM    7  C10 UNL     1      -3.584  50.826 -21.925  1.00  0.00     0.011 C 
HETATM    8  C11 UNL     1      -4.534  50.248 -22.966  1.00  0.00    -0.032 C 
HETATM    9  C12 UNL     1      -5.268  51.425 -23.655  1.00  0.00     0.016 C 
HETATM   10  C13 UNL     1      -5.555  49.200 -22.419  1.00  0.00    -0.002 C 
HETATM   11  C22 UNL     1      -5.863  48.315 -23.650  1.00  0.00     0.006 C 
HETATM   12  C23 UNL     1      -4.757  48.586 -24.685  1.00  0.00     0.011 C 
HETATM   13  C24 UNL     1      -3.665  49.370 -23.931  1.00  0.00    -0.032 C 
HETATM   14  C25 UNL     1      -2.752  48.323 -23.211  1.00  0.00     0.016 C 
HETATM   15  C26 UNL     1      -1.789  52.666 -24.765  1.00  0.00     0.022 A 
HETATM   16  C27 UNL     1      -0.583  51.789 -24.547  1.00  0.00    -0.024 A 
ENDROOT
BRANCH  10  17
HETATM   17  C14 UNL     1      -6.784  49.644 -21.569  1.00  0.00    -0.014 C 
HETATM   18  C15 UNL     1      -6.344  49.733 -20.095  1.00  0.00     0.010 C 
BRANCH  17  19
HETATM   19  C16 UNL     1      -8.057  48.764 -21.682  1.00  0.00     0.008 C 
BRANCH  19  20
HETATM   20  C17 UNL     1      -8.106  47.609 -20.671  1.00  0.00     0.028 C 
BRANCH  20  21
HETATM   21  C18 UNL     1      -7.613  46.324 -21.283  1.00  0.00    -0.013 C 
HETATM   22  C19 UNL     1      -6.520  45.602 -20.962  1.00  0.00     0.008 C 
HETATM   23  C20 UNL     1      -6.229  44.280 -21.615  1.00  0.00     0.055 C 
BRANCH  22  24
HETATM   24  C21 UNL     1      -5.520  45.996 -19.944  1.00  0.00     0.171 C 
HETATM   25  O1  UNL     1      -5.568  45.713 -18.760  1.00  0.00    -0.646 OA
BRANCH  24  26
HETATM   26  O2  UNL     1      -4.455  46.630 -20.459  1.00  0.00    -0.773 OA
HETATM   27  H32 UNL     1      -3.882  46.786 -19.682  1.00  0.00     0.167 HD
ENDBRANCH  24  26
ENDBRANCH  22  24
ENDBRANCH  20  21
ENDBRANCH  19  20
ENDBRANCH  17  19
ENDBRANCH  10  17
BRANCH  16  28
HETATM   28  C28 UNL     1       0.498  52.106 -23.495  1.00  0.00     0.020 C 
BRANCH  28  29
HETATM   29  C29 UNL     1       0.824  53.573 -23.252  1.00  0.00     0.112 C 
BRANCH  29  30
HETATM   30  C30 UNL     1       1.368  53.794 -21.864  1.00  0.00     0.258 C 
HETATM   31  O3  UNL     1       1.848  54.850 -21.477  1.00  0.00    -0.265 OA
BRANCH  30  32
HETATM   32  O4  UNL     1       1.273  52.655 -21.125  1.00  0.00    -0.322 OA
BRANCH  32  33
HETATM   33  C31 UNL     1       0.965  52.839 -19.735  1.00  0.00     0.174 C 
HETATM   34  C32 UNL     1      -0.508  52.580 -19.477  1.00  0.00     0.034 C 
ENDBRANCH  32  33
ENDBRANCH  30  32
ENDBRANCH  29  30
ENDBRANCH  28  29
ENDBRANCH  16  28
BRANCH   1  35
HETATM   35  C2  UNL     1       0.907  51.969 -26.666  1.00  0.00    -0.088 C 
HETATM   36  C1  UNL     1       0.403  53.024 -27.329  1.00  0.00     0.014 C 
HETATM   37  C3  UNL     1       2.372  51.641 -26.765  1.00  0.00     0.043 C 
ENDBRANCH   1  35
TORSDOF 12
ENDMDL
MODEL 9
REMARK minimizedAffinity -7.30221319
REMARK CNNscore 0.209840044
REMARK CNNaffinity 6.262362
REMARK  12 active torsions:
REMARK  status: ('A' for Active; 'I' for Inactive)
REMARK    1  A    between atoms: C2_2  and  C4_4 
REMARK    2  A    between atoms: C13_13  and  C14_14 
REMARK    3  A    between atoms: C14_14  and  C16_16 
REMARK    4  A    between atoms: C16_16  and  C17_17 
REMARK    5  A    between atoms: C17_17  and  C18_18 
REMARK    6  A    between atoms: C19_19  and  C21_21 
REMARK    7  A    between atoms: C21_21  and  O2_23 
REMARK    8  A    between atoms: C27_29  and  C28_30 
REMARK    9  A    between atoms: C28_30  and  C29_31 
REMARK   10  A    between atoms: C29_31  and  C30_32 
REMARK   11  A    between atoms: C30_32  and  O4_34 
REMARK   12  A    between atoms: O4_34  and  C31_35 
ROOT
HETATM    1  C4  UNL     1      -0.113  51.867 -20.651  1.00  0.00     0.022 C 
HETATM    2  C5  UNL     1      -0.870  52.021 -21.979  1.00  0.00     0.010 C 
HETATM    3  C6  UNL     1      -1.481  50.689 -22.378  1.00  0.00     0.007 C 
HETATM    4  C7  UNL     1      -2.632  50.290 -21.435  1.00  0.00     0.004 C 
HETATM    5  C8  UNL     1      -2.229  50.351 -19.932  1.00  0.00    -0.027 A 
HETATM    6  C9  UNL     1      -2.768  49.248 -18.977  1.00  0.00     0.011 C 
HETATM    7  C10 UNL     1      -3.715  48.164 -19.518  1.00  0.00     0.011 C 
HETATM    8  C11 UNL     1      -4.404  48.558 -20.818  1.00  0.00    -0.032 C 
HETATM    9  C12 UNL     1      -5.396  49.706 -20.509  1.00  0.00     0.016 C 
HETATM   10  C13 UNL     1      -5.120  47.389 -21.566  1.00  0.00    -0.002 C 
HETATM   11  C22 UNL     1      -5.097  47.836 -23.047  1.00  0.00     0.006 C 
HETATM   12  C23 UNL     1      -4.053  48.960 -23.158  1.00  0.00     0.011 C 
HETATM   13  C24 UNL     1      -3.269  48.935 -21.833  1.00  0.00    -0.032 C 
HETATM   14  C25 UNL     1      -2.143  47.858 -21.976  1.00  0.00     0.016 C 
HETATM   15  C26 UNL     1      -2.344  51.735 -19.307  1.00  0.00     0.022 A 
HETATM   16  C27 UNL     1      -0.956  51.196 -19.539  1.00  0.00    -0.024 A 
ENDROOT
BRANCH  10  17
HETATM   17  C14 UNL     1      -6.472  46.812 -21.045  1.00  0.00    -0.014 C 
HETATM   18  C15 UNL     1      -6.219  45.380 -20.533  1.00  0.00     0.010 C 
BRANCH  17  19
HETATM   19  C16 UNL     1      -7.654  46.806 -22.050  1.00  0.00     0.008 C 
BRANCH  19  20
HETATM   20  C17 UNL     1      -8.969  47.342 -21.465  1.00  0.00     0.028 C 
BRANCH  20  21
HETATM   21  C18 UNL     1      -8.716  48.262 -20.299  1.00  0.00    -0.013 C 
HETATM   22  C19 UNL     1      -9.380  48.343 -19.129  1.00  0.00     0.008 C 
HETATM   23  C20 UNL     1      -8.928  49.258 -18.027  1.00  0.00     0.055 C 
BRANCH  22  24
HETATM   24  C21 UNL     1     -10.582  47.548 -18.786  1.00  0.00     0.171 C 
HETATM   25  O1  UNL     1     -11.712  47.772 -19.181  1.00  0.00    -0.646 OA
BRANCH  24  26
HETATM   26  O2  UNL     1     -10.309  46.454 -18.058  1.00  0.00    -0.773 OA
HETATM   27  H32 UNL     1     -11.181  46.026 -17.950  1.00  0.00     0.167 HD
ENDBRANCH  24  26
ENDBRANCH  22  24
ENDBRANCH  20  21
ENDBRANCH  19  20
ENDBRANCH  17  19
ENDBRANCH  10  17
BRANCH  16  28
HETATM   28  C28 UNL     1      -0.070  50.660 -18.398  1.00  0.00     0.020 C 
BRANCH  28  29
HETATM   29  C29 UNL     1      -0.479  51.009 -16.974  1.00  0.00     0.112 C 
BRANCH  29  30
HETATM   30  C30 UNL     1       0.673  51.592 -16.196  1.00  0.00     0.258 C 
HETATM   31  O3  UNL     1       0.607  51.925 -15.021  1.00  0.00    -0.265 OA
BRANCH  30  32
HETATM   32  O4  UNL     1       1.773  51.715 -16.989  1.00  0.00    -0.322 OA
BRANCH  32  33
HETATM   33  C31 UNL     1       2.647  52.810 -16.674  1.00  0.00     0.174 C 
HETATM   34  C32 UNL     1       4.016  52.299 -16.266  1.00  0.00     0.034 C 
ENDBRANCH  32  33
ENDBRANCH  30  32
ENDBRANCH  29  30
ENDBRANCH  28  29
ENDBRANCH  16  28
BRANCH   1  35
HETATM   35  C2  UNL     1       0.544  53.190 -20.257  1.00  0.00    -0.088 C 
HETATM   36  C1  UNL     1       0.092  53.908 -19.214  1.00  0.00     0.014 C 
HETATM   37  C3  UNL     1       1.723  53.676 -21.057  1.00  0.00     0.043 C 
ENDBRANCH   1  35
TORSDOF 12
ENDMDL
