MODEL 1
REMARK minimizedAffinity -9.43418789
REMARK  5 active torsions:
REMARK  status: ('A' for Active; 'I' for Inactive)
REMARK    1  A    between atoms: C2_2  and  C25_28 
REMARK    2  A    between atoms: C3_3  and  C4_4 
REMARK    3  A    between atoms: C4_4  and  C6_6 
REMARK    4  A    between atoms: C20_20  and  O1_21 
REMARK    5  A    between atoms: C25_28  and  C27_30 
ROOT
HETATM    1  C6  UNL     1      -0.043  51.390 -20.832  1.00  0.00     0.001 C 
HETATM    2  C7  UNL     1      -0.415  52.246 -19.577  1.00  0.00     0.006 C 
HETATM    3  C8  UNL     1      -1.785  51.755 -19.080  1.00  0.00     0.009 C 
HETATM    4  C9  UNL     1      -2.028  50.511 -19.919  1.00  0.00     0.036 C 
HETATM    5  C10 UNL     1      -1.434  50.857 -21.316  1.00  0.00    -0.033 C 
HETATM    6  C11 UNL     1      -2.178  51.973 -22.094  1.00  0.00     0.016 C 
HETATM    7  C12 UNL     1      -1.428  49.598 -22.216  1.00  0.00     0.010 C 
HETATM    8  C13 UNL     1      -2.018  48.320 -21.607  1.00  0.00     0.010 C 
HETATM    9  C14 UNL     1      -3.225  48.463 -20.657  1.00  0.00     0.039 C 
HETATM   10  C15 UNL     1      -3.404  49.861 -19.962  1.00  0.00     0.123 C 
HETATM   11  C16 UNL     1      -4.542  50.734 -20.455  1.00  0.00     0.014 C 
HETATM   12  C17 UNL     1      -5.731  50.113 -20.502  1.00  0.00     0.014 C 
HETATM   13  C18 UNL     1      -5.635  48.655 -20.138  1.00  0.00     0.124 C 
HETATM   14  C19 UNL     1      -6.974  47.927 -20.097  1.00  0.00     0.078 C 
HETATM   15  C20 UNL     1      -6.819  46.484 -19.593  1.00  0.00     0.121 C 
HETATM   16  C21 UNL     1      -5.415  45.893 -19.763  1.00  0.00     0.033 C 
HETATM   17  C22 UNL     1      -4.727  46.394 -21.031  1.00  0.00     0.015 C 
HETATM   18  C23 UNL     1      -4.623  47.946 -21.124  1.00  0.00     0.001 C 
HETATM   19  C24 UNL     1      -4.881  48.310 -22.612  1.00  0.00     0.019 C 
HETATM   20  O2  UNL     1      -5.084  48.612 -18.773  1.00  0.00    -0.223 OA
HETATM   21  O3  UNL     1      -3.875  49.513 -18.635  1.00  0.00    -0.224 OA
ENDROOT
BRANCH   1  22
HETATM   22  C4  UNL     1       0.862  52.180 -21.817  1.00  0.00     0.009 C 
HETATM   23  C5  UNL     1       0.971  53.681 -21.534  1.00  0.00     0.014 C 
BRANCH  22  24
HETATM   24  C3  UNL     1       0.523  51.934 -23.278  1.00  0.00    -0.019 C 
HETATM   25  C2  UNL     1       0.527  52.769 -24.340  1.00  0.00    -0.083 C 
HETATM   26  C1  UNL     1       0.918  54.222 -24.303  1.00  0.00     0.043 C 
BRANCH  25  27
HETATM   27  C25 UNL     1       0.095  52.282 -25.731  1.00  0.00     0.013 C 
HETATM   28  C26 UNL     1      -0.596  50.913 -25.604  1.00  0.00     0.015 C 
BRANCH  27  29
HETATM   29  C27 UNL     1       1.252  52.278 -26.777  1.00  0.00    -0.015 C 
HETATM   30  C28 UNL     1       2.379  51.314 -26.385  1.00  0.00     0.010 C 
HETATM   31  C29 UNL     1       0.746  51.902 -28.177  1.00  0.00     0.010 C 
ENDBRANCH  27  29
ENDBRANCH  25  27
ENDBRANCH  22  24
ENDBRANCH   1  22
BRANCH  15  32
HETATM   32  O1  UNL     1      -7.748  45.659 -20.301  1.00  0.00    -0.395 OA
HETATM   33  H28 UNL     1      -8.642  45.937 -20.036  1.00  0.00     0.210 HD
ENDBRANCH  15  32
TORSDOF 5
ENDMDL
MODEL 2
REMARK minimizedAffinity -9.43006039
REMARK  5 active torsions:
REMARK  status: ('A' for Active; 'I' for Inactive)
REMARK    1  A    between atoms: C2_2  and  C25_28 
REMARK    2  A    between atoms: C3_3  and  C4_4 
REMARK    3  A    between atoms: C4_4  and  C6_6 
REMARK    4  A    between atoms: C20_20  and  O1_21 
REMARK    5  A    between atoms: C25_28  and  C27_30 
ROOT
HETATM    1  C6  UNL     1      -0.173  50.988 -19.555  1.00  0.00     0.001 C 
HETATM    2  C7  UNL     1      -0.531  49.660 -18.810  1.00  0.00     0.006 C 
HETATM    3  C8  UNL     1      -1.473  48.862 -19.727  1.00  0.00     0.009 C 
HETATM    4  C9  UNL     1      -1.431  49.648 -21.028  1.00  0.00     0.036 C 
HETATM    5  C10 UNL     1      -1.344  51.138 -20.583  1.00  0.00    -0.033 C 
HETATM    6  C11 UNL     1      -2.603  51.689 -19.863  1.00  0.00     0.016 C 
HETATM    7  C12 UNL     1      -1.087  52.044 -21.812  1.00  0.00     0.010 C 
HETATM    8  C13 UNL     1      -1.012  51.343 -23.173  1.00  0.00     0.010 C 
HETATM    9  C14 UNL     1      -1.934  50.129 -23.413  1.00  0.00     0.039 C 
HETATM   10  C15 UNL     1      -2.445  49.378 -22.131  1.00  0.00     0.123 C 
HETATM   11  C16 UNL     1      -3.903  49.563 -21.761  1.00  0.00     0.014 C 
HETATM   12  C17 UNL     1      -4.760  49.340 -22.769  1.00  0.00     0.014 C 
HETATM   13  C18 UNL     1      -4.057  49.045 -24.068  1.00  0.00     0.124 C 
HETATM   14  C19 UNL     1      -4.989  48.703 -25.226  1.00  0.00     0.078 C 
HETATM   15  C20 UNL     1      -4.206  48.286 -26.479  1.00  0.00     0.121 C 
HETATM   16  C21 UNL     1      -2.763  48.801 -26.535  1.00  0.00     0.033 C 
HETATM   17  C22 UNL     1      -2.619  50.183 -25.904  1.00  0.00     0.015 C 
HETATM   18  C23 UNL     1      -3.113  50.261 -24.428  1.00  0.00     0.001 C 
HETATM   19  C24 UNL     1      -3.822  51.635 -24.280  1.00  0.00     0.019 C 
HETATM   20  O2  UNL     1      -3.230  47.852 -23.820  1.00  0.00    -0.223 OA
HETATM   21  O3  UNL     1      -2.436  47.985 -22.537  1.00  0.00    -0.224 OA
ENDROOT
BRANCH   1  22
HETATM   22  C4  UNL     1       0.127  52.141 -18.558  1.00  0.00     0.009 C 
HETATM   23  C5  UNL     1       1.052  53.236 -19.094  1.00  0.00     0.014 C 
BRANCH  22  24
HETATM   24  C3  UNL     1       0.605  51.654 -17.199  1.00  0.00    -0.019 C 
HETATM   25  C2  UNL     1       1.652  52.042 -16.439  1.00  0.00    -0.083 C 
HETATM   26  C1  UNL     1       2.627  53.133 -16.792  1.00  0.00     0.043 C 
BRANCH  25  27
HETATM   27  C25 UNL     1       1.955  51.354 -15.099  1.00  0.00     0.013 C 
HETATM   28  C26 UNL     1       0.944  51.826 -14.041  1.00  0.00     0.015 C 
BRANCH  27  29
HETATM   29  C27 UNL     1       3.435  51.520 -14.634  1.00  0.00    -0.015 C 
HETATM   30  C28 UNL     1       3.907  50.334 -13.784  1.00  0.00     0.010 C 
HETATM   31  C29 UNL     1       4.387  51.681 -15.828  1.00  0.00     0.010 C 
ENDBRANCH  27  29
ENDBRANCH  25  27
ENDBRANCH  22  24
ENDBRANCH   1  22
BRANCH  15  32
HETATM   32  O1  UNL     1      -4.906  48.771 -27.628  1.00  0.00    -0.395 OA
HETATM   33  H28 UNL     1      -5.753  48.294 -27.674  1.00  0.00     0.210 HD
ENDBRANCH  15  32
TORSDOF 5
ENDMDL
MODEL 3
REMARK minimizedAffinity -9.29010296
REMARK  5 active torsions:
REMARK  status: ('A' for Active; 'I' for Inactive)
REMARK    1  A    between atoms: C2_2  and  C25_28 
REMARK    2  A    between atoms: C3_3  and  C4_4 
REMARK    3  A    between atoms: C4_4  and  C6_6 
REMARK    4  A    between atoms: C20_20  and  O1_21 
REMARK    5  A    between atoms: C25_28  and  C27_30 
ROOT
HETATM    1  C6  UNL     1      -1.896  52.053 -22.903  1.00  0.00     0.001 C 
HETATM    2  C7  UNL     1      -2.657  52.490 -24.198  1.00  0.00     0.006 C 
HETATM    3  C8  UNL     1      -4.035  51.809 -24.168  1.00  0.00     0.009 C 
HETATM    4  C9  UNL     1      -4.090  51.206 -22.773  1.00  0.00     0.036 C 
HETATM    5  C10 UNL     1      -2.633  50.734 -22.493  1.00  0.00    -0.033 C 
HETATM    6  C11 UNL     1      -2.135  49.561 -23.378  1.00  0.00     0.016 C 
HETATM    7  C12 UNL     1      -2.496  50.283 -21.018  1.00  0.00     0.010 C 
HETATM    8  C13 UNL     1      -3.768  50.345 -20.165  1.00  0.00     0.010 C 
HETATM    9  C14 UNL     1      -5.113  50.018 -20.847  1.00  0.00     0.039 C 
HETATM   10  C15 UNL     1      -5.164  50.192 -22.408  1.00  0.00     0.123 C 
HETATM   11  C16 UNL     1      -5.199  48.925 -23.240  1.00  0.00     0.014 C 
HETATM   12  C17 UNL     1      -6.143  48.047 -22.867  1.00  0.00     0.014 C 
HETATM   13  C18 UNL     1      -6.891  48.493 -21.639  1.00  0.00     0.124 C 
HETATM   14  C19 UNL     1      -8.030  47.567 -21.224  1.00  0.00     0.078 C 
HETATM   15  C20 UNL     1      -8.830  48.146 -20.048  1.00  0.00     0.121 C 
HETATM   16  C21 UNL     1      -8.069  49.165 -19.193  1.00  0.00     0.033 C 
HETATM   17  C22 UNL     1      -6.583  48.831 -19.084  1.00  0.00     0.015 C 
HETATM   18  C23 UNL     1      -5.860  48.702 -20.459  1.00  0.00     0.001 C 
HETATM   19  C24 UNL     1      -4.864  47.519 -20.315  1.00  0.00     0.019 C 
HETATM   20  O2  UNL     1      -7.499  49.789 -21.981  1.00  0.00    -0.223 OA
HETATM   21  O3  UNL     1      -6.497  50.714 -22.640  1.00  0.00    -0.224 OA
ENDROOT
BRANCH   1  22
HETATM   22  C4  UNL     1      -0.357  52.038 -23.121  1.00  0.00     0.009 C 
HETATM   23  C5  UNL     1       0.428  53.026 -22.255  1.00  0.00     0.014 C 
BRANCH  22  24
HETATM   24  C3  UNL     1       0.047  52.166 -24.581  1.00  0.00    -0.019 C 
HETATM   25  C2  UNL     1       0.318  53.256 -25.330  1.00  0.00    -0.083 C 
HETATM   26  C1  UNL     1       0.298  54.679 -24.837  1.00  0.00     0.043 C 
BRANCH  25  27
HETATM   27  C25 UNL     1       0.668  53.126 -26.820  1.00  0.00     0.013 C 
HETATM   28  C26 UNL     1      -0.516  53.616 -27.670  1.00  0.00     0.015 C 
BRANCH  27  29
HETATM   29  C27 UNL     1       1.149  51.698 -27.225  1.00  0.00    -0.015 C 
HETATM   30  C28 UNL     1       2.532  51.371 -26.647  1.00  0.00     0.010 C 
HETATM   31  C29 UNL     1       0.156  50.618 -26.771  1.00  0.00     0.010 C 
ENDBRANCH  27  29
ENDBRANCH  25  27
ENDBRANCH  22  24
ENDBRANCH   1  22
BRANCH  15  32
HETATM   32  O1  UNL     1      -9.240  47.063 -19.208  1.00  0.00    -0.395 OA
HETATM   33  H28 UNL     1      -9.870  46.524 -19.716  1.00  0.00     0.210 HD
ENDBRANCH  15  32
TORSDOF 5
ENDMDL
MODEL 4
REMARK minimizedAffinity -9.17695618
REMARK  5 active torsions:
REMARK  status: ('A' for Active; 'I' for Inactive)
REMARK    1  A    between atoms: C2_2  and  C25_28 
REMARK    2  A    between atoms: C3_3  and  C4_4 
REMARK    3  A    between atoms: C4_4  and  C6_6 
REMARK    4  A    between atoms: C20_20  and  O1_21 
REMARK    5  A    between atoms: C25_28  and  C27_30 
ROOT
HETATM    1  C6  UNL     1      -2.858  51.013 -23.657  1.00  0.00     0.001 C 
HETATM    2  C7  UNL     1      -4.124  51.893 -23.392  1.00  0.00     0.006 C 
HETATM    3  C8  UNL     1      -4.355  51.913 -21.872  1.00  0.00     0.009 C 
HETATM    4  C9  UNL     1      -3.103  51.246 -21.326  1.00  0.00     0.036 C 
HETATM    5  C10 UNL     1      -2.766  50.135 -22.364  1.00  0.00    -0.033 C 
HETATM    6  C11 UNL     1      -3.791  48.974 -22.448  1.00  0.00     0.016 C 
HETATM    7  C12 UNL     1      -1.389  49.506 -22.040  1.00  0.00     0.010 C 
HETATM    8  C13 UNL     1      -0.671  50.041 -20.795  1.00  0.00     0.010 C 
HETATM    9  C14 UNL     1      -1.532  50.439 -19.578  1.00  0.00     0.039 C 
HETATM   10  C15 UNL     1      -3.034  50.794 -19.874  1.00  0.00     0.123 C 
HETATM   11  C16 UNL     1      -4.078  49.786 -19.436  1.00  0.00     0.014 C 
HETATM   12  C17 UNL     1      -3.964  49.395 -18.158  1.00  0.00     0.014 C 
HETATM   13  C18 UNL     1      -2.758  49.989 -17.479  1.00  0.00     0.124 C 
HETATM   14  C19 UNL     1      -2.632  49.640 -16.000  1.00  0.00     0.078 C 
HETATM   15  C20 UNL     1      -1.458  50.380 -15.342  1.00  0.00     0.121 C 
HETATM   16  C21 UNL     1      -0.363  50.837 -16.312  1.00  0.00     0.033 C 
HETATM   17  C22 UNL     1      -0.166  49.856 -17.464  1.00  0.00     0.015 C 
HETATM   18  C23 UNL     1      -1.462  49.571 -18.282  1.00  0.00     0.001 C 
HETATM   19  C24 UNL     1      -1.432  48.057 -18.628  1.00  0.00     0.019 C 
HETATM   20  O2  UNL     1      -2.923  51.449 -17.560  1.00  0.00    -0.223 OA
HETATM   21  O3  UNL     1      -3.302  51.887 -18.959  1.00  0.00    -0.224 OA
ENDROOT
BRANCH   1  22
HETATM   22  C4  UNL     1      -2.918  50.327 -25.050  1.00  0.00     0.009 C 
HETATM   23  C5  UNL     1      -3.484  48.905 -25.047  1.00  0.00     0.014 C 
BRANCH  22  24
HETATM   24  C3  UNL     1      -1.600  50.378 -25.805  1.00  0.00    -0.019 C 
HETATM   25  C2  UNL     1      -0.471  51.080 -25.566  1.00  0.00    -0.083 C 
HETATM   26  C1  UNL     1      -0.256  52.015 -24.406  1.00  0.00     0.043 C 
BRANCH  25  27
HETATM   27  C25 UNL     1       0.733  50.991 -26.516  1.00  0.00     0.013 C 
HETATM   28  C26 UNL     1       1.978  51.566 -25.821  1.00  0.00     0.015 C 
BRANCH  27  29
HETATM   29  C27 UNL     1       0.474  51.632 -27.914  1.00  0.00    -0.015 C 
HETATM   30  C28 UNL     1      -0.246  52.982 -27.803  1.00  0.00     0.010 C 
HETATM   31  C29 UNL     1       1.781  51.833 -28.695  1.00  0.00     0.010 C 
ENDBRANCH  27  29
ENDBRANCH  25  27
ENDBRANCH  22  24
ENDBRANCH   1  22
BRANCH  15  32
HETATM   32  O1  UNL     1      -0.870  49.513 -14.368  1.00  0.00    -0.395 OA
HETATM   33  H28 UNL     1      -1.527  49.380 -13.663  1.00  0.00     0.210 HD
ENDBRANCH  15  32
TORSDOF 5
ENDMDL
MODEL 5
REMARK minimizedAffinity -8.97869682
REMARK  5 active torsions:
REMARK  status: ('A' for Active; 'I' for Inactive)
REMARK    1  A    between atoms: C2_2  and  C25_28 
REMARK    2  A    between atoms: C3_3  and  C4_4 
REMARK    3  A    between atoms: C4_4  and  C6_6 
REMARK    4  A    between atoms: C20_20  and  O1_21 
REMARK    5  A    between atoms: C25_28  and  C27_30 
ROOT
HETATM    1  C6  UNL     1      -0.328  50.984 -22.493  1.00  0.00     0.001 C 
HETATM    2  C7  UNL     1      -0.225  51.480 -21.013  1.00  0.00     0.006 C 
HETATM    3  C8  UNL     1      -1.526  51.067 -20.303  1.00  0.00     0.009 C 
HETATM    4  C9  UNL     1      -2.204  50.170 -21.325  1.00  0.00     0.036 C 
HETATM    5  C10 UNL     1      -1.871  50.820 -22.700  1.00  0.00    -0.033 C 
HETATM    6  C11 UNL     1      -2.515  52.209 -22.949  1.00  0.00     0.016 C 
HETATM    7  C12 UNL     1      -2.329  49.891 -23.851  1.00  0.00     0.010 C 
HETATM    8  C13 UNL     1      -3.028  48.589 -23.440  1.00  0.00     0.010 C 
HETATM    9  C14 UNL     1      -3.940  48.620 -22.195  1.00  0.00     0.039 C 
HETATM   10  C15 UNL     1      -3.662  49.764 -21.156  1.00  0.00     0.123 C 
HETATM   11  C16 UNL     1      -4.669  50.896 -21.093  1.00  0.00     0.014 C 
HETATM   12  C17 UNL     1      -5.943  50.493 -20.970  1.00  0.00     0.014 C 
HETATM   13  C18 UNL     1      -6.080  48.995 -21.016  1.00  0.00     0.124 C 
HETATM   14  C19 UNL     1      -7.501  48.485 -20.797  1.00  0.00     0.078 C 
HETATM   15  C20 UNL     1      -7.548  46.952 -20.726  1.00  0.00     0.121 C 
HETATM   16  C21 UNL     1      -6.373  46.241 -21.408  1.00  0.00     0.033 C 
HETATM   17  C22 UNL     1      -5.890  46.987 -22.650  1.00  0.00     0.015 C 
HETATM   18  C23 UNL     1      -5.483  48.467 -22.381  1.00  0.00     0.001 C 
HETATM   19  C24 UNL     1      -5.978  49.282 -23.607  1.00  0.00     0.019 C 
HETATM   20  O2  UNL     1      -5.266  48.477 -19.904  1.00  0.00    -0.223 OA
HETATM   21  O3  UNL     1      -3.893  49.116 -19.879  1.00  0.00    -0.224 OA
ENDROOT
BRANCH   1  22
HETATM   22  C4  UNL     1       0.486  51.889 -23.458  1.00  0.00     0.009 C 
HETATM   23  C5  UNL     1       0.580  53.359 -23.042  1.00  0.00     0.014 C 
BRANCH  22  24
HETATM   24  C3  UNL     1       0.048  51.771 -24.909  1.00  0.00    -0.019 C 
HETATM   25  C2  UNL     1       0.770  51.628 -26.042  1.00  0.00    -0.083 C 
HETATM   26  C1  UNL     1       2.270  51.526 -26.111  1.00  0.00     0.043 C 
BRANCH  25  27
HETATM   27  C25 UNL     1       0.084  51.573 -27.416  1.00  0.00     0.013 C 
HETATM   28  C26 UNL     1       1.152  51.463 -28.517  1.00  0.00     0.015 C 
BRANCH  27  29
HETATM   29  C27 UNL     1      -0.916  52.744 -27.661  1.00  0.00    -0.015 C 
HETATM   30  C28 UNL     1      -2.214  52.570 -26.863  1.00  0.00     0.010 C 
HETATM   31  C29 UNL     1      -0.294  54.101 -27.303  1.00  0.00     0.010 C 
ENDBRANCH  27  29
ENDBRANCH  25  27
ENDBRANCH  22  24
ENDBRANCH   1  22
BRANCH  15  32
HETATM   32  O1  UNL     1      -8.763  46.511 -21.338  1.00  0.00    -0.395 OA
HETATM   33  H28 UNL     1      -9.498  46.824 -20.783  1.00  0.00     0.210 HD
ENDBRANCH  15  32
TORSDOF 5
ENDMDL
MODEL 6
REMARK minimizedAffinity -8.93817329
REMARK  5 active torsions:
REMARK  status: ('A' for Active; 'I' for Inactive)
REMARK    1  A    between atoms: C2_2  and  C25_28 
REMARK    2  A    between atoms: C3_3  and  C4_4 
REMARK    3  A    between atoms: C4_4  and  C6_6 
REMARK    4  A    between atoms: C20_20  and  O1_21 
REMARK    5  A    between atoms: C25_28  and  C27_30 
ROOT
HETATM    1  C6  UNL     1      -0.318  51.267 -23.807  1.00  0.00     0.001 C 
HETATM    2  C7  UNL     1       0.257  52.693 -23.521  1.00  0.00     0.006 C 
HETATM    3  C8  UNL     1       0.188  52.916 -22.001  1.00  0.00     0.009 C 
HETATM    4  C9  UNL     1      -0.203  51.545 -21.471  1.00  0.00     0.036 C 
HETATM    5  C10 UNL     1      -1.187  50.979 -22.537  1.00  0.00    -0.033 C 
HETATM    6  C11 UNL     1      -2.542  51.726 -22.650  1.00  0.00     0.016 C 
HETATM    7  C12 UNL     1      -1.507  49.496 -22.228  1.00  0.00     0.010 C 
HETATM    8  C13 UNL     1      -0.860  48.906 -20.969  1.00  0.00     0.010 C 
HETATM    9  C14 UNL     1      -0.690  49.828 -19.743  1.00  0.00     0.039 C 
HETATM   10  C15 UNL     1      -0.665  51.372 -20.031  1.00  0.00     0.123 C 
HETATM   11  C16 UNL     1      -1.887  52.169 -19.620  1.00  0.00     0.014 C 
HETATM   12  C17 UNL     1      -2.276  51.966 -18.351  1.00  0.00     0.014 C 
HETATM   13  C18 UNL     1      -1.450  50.915 -17.657  1.00  0.00     0.124 C 
HETATM   14  C19 UNL     1      -1.799  50.709 -16.187  1.00  0.00     0.078 C 
HETATM   15  C20 UNL     1      -0.837  49.722 -15.509  1.00  0.00     0.121 C 
HETATM   16  C21 UNL     1      -0.128  48.758 -16.467  1.00  0.00     0.033 C 
HETATM   17  C22 UNL     1      -1.013  48.357 -17.644  1.00  0.00     0.015 C 
HETATM   18  C23 UNL     1      -1.554  49.563 -18.469  1.00  0.00     0.001 C 
HETATM   19  C24 UNL     1      -3.016  49.205 -18.854  1.00  0.00     0.019 C 
HETATM   20  O2  UNL     1      -0.059  51.396 -17.701  1.00  0.00    -0.223 OA
HETATM   21  O3  UNL     1       0.320  51.869 -19.089  1.00  0.00    -0.224 OA
ENDROOT
BRANCH   1  22
HETATM   22  C4  UNL     1      -0.966  51.183 -25.217  1.00  0.00     0.009 C 
HETATM   23  C5  UNL     1      -1.565  52.493 -25.733  1.00  0.00     0.014 C 
BRANCH  22  24
HETATM   24  C3  UNL     1      -1.966  50.046 -25.354  1.00  0.00    -0.019 C 
HETATM   25  C2  UNL     1      -2.808  49.726 -26.360  1.00  0.00    -0.083 C 
HETATM   26  C1  UNL     1      -2.928  50.468 -27.664  1.00  0.00     0.043 C 
BRANCH  25  27
HETATM   27  C25 UNL     1      -3.768  48.532 -26.240  1.00  0.00     0.013 C 
HETATM   28  C26 UNL     1      -4.358  48.208 -27.623  1.00  0.00     0.015 C 
BRANCH  27  29
HETATM   29  C27 UNL     1      -4.864  48.721 -25.147  1.00  0.00    -0.015 C 
HETATM   30  C28 UNL     1      -6.159  47.978 -25.497  1.00  0.00     0.010 C 
HETATM   31  C29 UNL     1      -4.377  48.243 -23.771  1.00  0.00     0.010 C 
ENDBRANCH  27  29
ENDBRANCH  25  27
ENDBRANCH  22  24
ENDBRANCH   1  22
BRANCH  15  32
HETATM   32  O1  UNL     1      -1.579  48.954 -14.558  1.00  0.00    -0.395 OA
HETATM   33  H28 UNL     1      -1.870  49.563 -13.857  1.00  0.00     0.210 HD
ENDBRANCH  15  32
TORSDOF 5
ENDMDL
MODEL 7
REMARK minimizedAffinity -8.90097618
REMARK  5 active torsions:
REMARK  status: ('A' for Active; 'I' for Inactive)
REMARK    1  A    between atoms: C2_2  and  C25_28 
REMARK    2  A    between atoms: C3_3  and  C4_4 
REMARK    3  A    between atoms: C4_4  and  C6_6 
REMARK    4  A    between atoms: C20_20  and  O1_21 
REMARK    5  A    between atoms: C25_28  and  C27_30 
ROOT
HETATM    1  C6  UNL     1      -2.697  48.663 -20.714  1.00  0.00     0.001 C 
HETATM    2  C7  UNL     1      -3.795  47.791 -21.409  1.00  0.00     0.006 C 
HETATM    3  C8  UNL     1      -3.872  48.240 -22.877  1.00  0.00     0.009 C 
HETATM    4  C9  UNL     1      -2.680  49.173 -23.014  1.00  0.00     0.036 C 
HETATM    5  C10 UNL     1      -2.606  49.917 -21.648  1.00  0.00    -0.033 C 
HETATM    6  C11 UNL     1      -3.788  50.877 -21.351  1.00  0.00     0.016 C 
HETATM    7  C12 UNL     1      -1.306  50.756 -21.570  1.00  0.00     0.010 C 
HETATM    8  C13 UNL     1      -0.403  50.730 -22.809  1.00  0.00     0.010 C 
HETATM    9  C14 UNL     1      -1.078  50.660 -24.195  1.00  0.00     0.039 C 
HETATM   10  C15 UNL     1      -2.535  50.075 -24.231  1.00  0.00     0.123 C 
HETATM   11  C16 UNL     1      -3.664  51.058 -24.475  1.00  0.00     0.014 C 
HETATM   12  C17 UNL     1      -3.484  51.850 -25.543  1.00  0.00     0.014 C 
HETATM   13  C18 UNL     1      -2.146  51.636 -26.200  1.00  0.00     0.124 C 
HETATM   14  C19 UNL     1      -1.927  52.456 -27.467  1.00  0.00     0.078 C 
HETATM   15  C20 UNL     1      -0.603  52.094 -28.155  1.00  0.00     0.121 C 
HETATM   16  C21 UNL     1       0.447  51.462 -27.233  1.00  0.00     0.033 C 
HETATM   17  C22 UNL     1       0.391  52.033 -25.818  1.00  0.00     0.015 C 
HETATM   18  C23 UNL     1      -1.005  51.903 -25.138  1.00  0.00     0.001 C 
HETATM   19  C24 UNL     1      -1.223  53.218 -24.341  1.00  0.00     0.019 C 
HETATM   20  O2  UNL     1      -2.109  50.219 -26.597  1.00  0.00    -0.223 OA
HETATM   21  O3  UNL     1      -2.557  49.315 -25.467  1.00  0.00    -0.224 OA
ENDROOT
BRANCH   1  22
HETATM   22  C4  UNL     1      -2.988  48.852 -19.200  1.00  0.00     0.009 C 
HETATM   23  C5  UNL     1      -4.055  49.899 -18.872  1.00  0.00     0.014 C 
BRANCH  22  24
HETATM   24  C3  UNL     1      -1.736  49.084 -18.369  1.00  0.00    -0.019 C 
HETATM   25  C2  UNL     1      -1.129  50.228 -17.987  1.00  0.00    -0.083 C 
HETATM   26  C1  UNL     1      -1.610  51.618 -18.306  1.00  0.00     0.043 C 
BRANCH  25  27
HETATM   27  C25 UNL     1       0.173  50.199 -17.172  1.00  0.00     0.013 C 
HETATM   28  C26 UNL     1       0.209  48.926 -16.309  1.00  0.00     0.015 C 
BRANCH  27  29
HETATM   29  C27 UNL     1       0.417  51.496 -16.340  1.00  0.00    -0.015 C 
HETATM   30  C28 UNL     1       0.308  51.242 -14.832  1.00  0.00     0.010 C 
HETATM   31  C29 UNL     1       1.794  52.107 -16.639  1.00  0.00     0.010 C 
ENDBRANCH  27  29
ENDBRANCH  25  27
ENDBRANCH  22  24
ENDBRANCH   1  22
BRANCH  15  32
HETATM   32  O1  UNL     1      -0.051  53.284 -28.723  1.00  0.00    -0.395 OA
HETATM   33  H28 UNL     1      -0.650  53.570 -29.435  1.00  0.00     0.210 HD
ENDBRANCH  15  32
TORSDOF 5
ENDMDL
MODEL 8
REMARK minimizedAffinity -8.76254845
REMARK  5 active torsions:
REMARK  status: ('A' for Active; 'I' for Inactive)
REMARK    1  A    between atoms: C2_2  and  C25_28 
REMARK    2  A    between atoms: C3_3  and  C4_4 
REMARK    3  A    between atoms: C4_4  and  C6_6 
REMARK    4  A    between atoms: C20_20  and  O1_21 
REMARK    5  A    between atoms: C25_28  and  C27_30 
ROOT
HETATM    1  C6  UNL     1      -1.157  49.827 -21.990  1.00  0.00     0.001 C 
HETATM    2  C7  UNL     1      -0.737  48.741 -20.945  1.00  0.00     0.006 C 
HETATM    3  C8  UNL     1      -1.965  47.851 -20.693  1.00  0.00     0.009 C 
HETATM    4  C9  UNL     1      -2.948  48.316 -21.756  1.00  0.00     0.036 C 
HETATM    5  C10 UNL     1      -2.717  49.852 -21.859  1.00  0.00    -0.033 C 
HETATM    6  C11 UNL     1      -3.122  50.669 -20.605  1.00  0.00     0.016 C 
HETATM    7  C12 UNL     1      -3.512  50.429 -23.057  1.00  0.00     0.010 C 
HETATM    8  C13 UNL     1      -4.368  49.434 -23.850  1.00  0.00     0.010 C 
HETATM    9  C14 UNL     1      -5.054  48.291 -23.073  1.00  0.00     0.039 C 
HETATM   10  C15 UNL     1      -4.411  47.901 -21.694  1.00  0.00     0.123 C 
HETATM   11  C16 UNL     1      -5.169  48.304 -20.443  1.00  0.00     0.014 C 
HETATM   12  C17 UNL     1      -6.461  47.942 -20.442  1.00  0.00     0.014 C 
HETATM   13  C18 UNL     1      -6.880  47.295 -21.736  1.00  0.00     0.124 C 
HETATM   14  C19 UNL     1      -8.319  46.791 -21.751  1.00  0.00     0.078 C 
HETATM   15  C20 UNL     1      -8.638  46.029 -23.046  1.00  0.00     0.121 C 
HETATM   16  C21 UNL     1      -7.735  46.377 -24.235  1.00  0.00     0.033 C 
HETATM   17  C22 UNL     1      -7.320  47.846 -24.233  1.00  0.00     0.015 C 
HETATM   18  C23 UNL     1      -6.609  48.302 -22.923  1.00  0.00     0.001 C 
HETATM   19  C24 UNL     1      -7.128  49.735 -22.625  1.00  0.00     0.019 C 
HETATM   20  O2  UNL     1      -6.014  46.116 -21.900  1.00  0.00    -0.223 OA
HETATM   21  O3  UNL     1      -4.559  46.459 -21.655  1.00  0.00    -0.224 OA
ENDROOT
BRANCH   1  22
HETATM   22  C4  UNL     1      -0.348  51.141 -21.808  1.00  0.00     0.009 C 
HETATM   23  C5  UNL     1      -1.108  52.278 -21.120  1.00  0.00     0.014 C 
BRANCH  22  24
HETATM   24  C3  UNL     1       0.303  51.631 -23.091  1.00  0.00    -0.019 C 
HETATM   25  C2  UNL     1      -0.216  52.290 -24.150  1.00  0.00    -0.083 C 
HETATM   26  C1  UNL     1      -1.649  52.731 -24.284  1.00  0.00     0.043 C 
BRANCH  25  27
HETATM   27  C25 UNL     1       0.654  52.643 -25.366  1.00  0.00     0.013 C 
HETATM   28  C26 UNL     1      -0.027  53.760 -26.176  1.00  0.00     0.015 C 
BRANCH  27  29
HETATM   29  C27 UNL     1       1.031  51.409 -26.242  1.00  0.00    -0.015 C 
HETATM   30  C28 UNL     1       0.298  51.414 -27.589  1.00  0.00     0.010 C 
HETATM   31  C29 UNL     1       2.543  51.344 -26.503  1.00  0.00     0.010 C 
ENDBRANCH  27  29
ENDBRANCH  25  27
ENDBRANCH  22  24
ENDBRANCH   1  22
BRANCH  15  32
HETATM   32  O1  UNL     1      -9.994  46.306 -23.408  1.00  0.00    -0.395 OA
HETATM   33  H28 UNL     1     -10.563  45.914 -22.723  1.00  0.00     0.210 HD
ENDBRANCH  15  32
TORSDOF 5
ENDMDL
MODEL 9
REMARK minimizedAffinity -8.75585461
REMARK  5 active torsions:
REMARK  status: ('A' for Active; 'I' for Inactive)
REMARK    1  A    between atoms: C2_2  and  C25_28 
REMARK    2  A    between atoms: C3_3  and  C4_4 
REMARK    3  A    between atoms: C4_4  and  C6_6 
REMARK    4  A    between atoms: C20_20  and  O1_21 
REMARK    5  A    between atoms: C25_28  and  C27_30 
ROOT
HETATM    1  C6  UNL     1      -4.457  48.403 -21.445  1.00  0.00     0.001 C 
HETATM    2  C7  UNL     1      -5.481  47.800 -22.461  1.00  0.00     0.006 C 
HETATM    3  C8  UNL     1      -5.116  48.343 -23.853  1.00  0.00     0.009 C 
HETATM    4  C9  UNL     1      -3.785  49.037 -23.611  1.00  0.00     0.036 C 
HETATM    5  C10 UNL     1      -3.924  49.670 -22.195  1.00  0.00    -0.033 C 
HETATM    6  C11 UNL     1      -4.960  50.818 -22.082  1.00  0.00     0.016 C 
HETATM    7  C12 UNL     1      -2.560  50.237 -21.731  1.00  0.00     0.010 C 
HETATM    8  C13 UNL     1      -1.396  50.113 -22.723  1.00  0.00     0.010 C 
HETATM    9  C14 UNL     1      -1.710  50.256 -24.227  1.00  0.00     0.039 C 
HETATM   10  C15 UNL     1      -3.191  49.966 -24.661  1.00  0.00     0.123 C 
HETATM   11  C16 UNL     1      -4.040  51.159 -25.056  1.00  0.00     0.014 C 
HETATM   12  C17 UNL     1      -3.468  51.965 -25.963  1.00  0.00     0.014 C 
HETATM   13  C18 UNL     1      -2.066  51.538 -26.311  1.00  0.00     0.124 C 
HETATM   14  C19 UNL     1      -1.404  52.375 -27.401  1.00  0.00     0.078 C 
HETATM   15  C20 UNL     1      -0.033  51.808 -27.797  1.00  0.00     0.121 C 
HETATM   16  C21 UNL     1       0.632  50.933 -26.728  1.00  0.00     0.033 C 
HETATM   17  C22 UNL     1       0.327  51.418 -25.313  1.00  0.00     0.015 C 
HETATM   18  C23 UNL     1      -1.195  51.517 -24.992  1.00  0.00     0.001 C 
HETATM   19  C24 UNL     1      -1.374  52.799 -24.134  1.00  0.00     0.019 C 
HETATM   20  O2  UNL     1      -2.176  50.167 -26.835  1.00  0.00    -0.223 OA
HETATM   21  O3  UNL     1      -3.037  49.300 -25.941  1.00  0.00    -0.224 OA
ENDROOT
BRANCH   1  22
HETATM   22  C4  UNL     1      -5.076  48.553 -20.027  1.00  0.00     0.009 C 
HETATM   23  C5  UNL     1      -6.424  49.277 -19.984  1.00  0.00     0.014 C 
BRANCH  22  24
HETATM   24  C3  UNL     1      -4.116  49.146 -19.009  1.00  0.00    -0.019 C 
HETATM   25  C2  UNL     1      -2.929  48.696 -18.546  1.00  0.00    -0.083 C 
HETATM   26  C1  UNL     1      -2.246  47.430 -18.989  1.00  0.00     0.043 C 
BRANCH  25  27
HETATM   27  C25 UNL     1      -2.156  49.469 -17.467  1.00  0.00     0.013 C 
HETATM   28  C26 UNL     1      -2.709  50.901 -17.367  1.00  0.00     0.015 C 
BRANCH  27  29
HETATM   29  C27 UNL     1      -0.609  49.434 -17.663  1.00  0.00    -0.015 C 
HETATM   30  C28 UNL     1      -0.080  50.725 -18.298  1.00  0.00     0.010 C 
HETATM   31  C29 UNL     1       0.123  49.201 -16.334  1.00  0.00     0.010 C 
ENDBRANCH  27  29
ENDBRANCH  25  27
ENDBRANCH  22  24
ENDBRANCH   1  22
BRANCH  15  32
HETATM   32  O1  UNL     1       0.837  52.903 -28.094  1.00  0.00    -0.395 OA
HETATM   33  H28 UNL     1       0.491  53.340 -28.892  1.00  0.00     0.210 HD
ENDBRANCH  15  32
TORSDOF 5
ENDMDL
