MODEL 1
REMARK minimizedAffinity -10.6974659
REMARK CNNscore 0.258464158
REMARK CNNaffinity 6.96029615
REMARK  11 active torsions:
REMARK  status: ('A' for Active; 'I' for Inactive)
REMARK    1  A    between atoms: C2_2  and  C4_4 
REMARK    2  A    between atoms: C4_4  and  C6_6 
REMARK    3  A    between atoms: C7_7  and  C8_8 
REMARK    4  A    between atoms: C8_8  and  C10_10 
REMARK    5  A    between atoms: C24_24  and  O1_25 
REMARK    6  A    between atoms: O1_25  and  C25_26 
REMARK    7  A    between atoms: C26_28  and  C27_29 
REMARK    8  A    between atoms: C27_29  and  O3_30 
REMARK    9  A    between atoms: C28_31  and  O4_32 
REMARK   10  A    between atoms: C29_33  and  O5_34 
REMARK   11  A    between atoms: C30_35  and  O6_36 
ROOT
HETATM    1  C10 UNL     1      -5.729   6.588  13.650  1.00  0.00     0.002 C 
HETATM    2  C11 UNL     1      -5.872   8.043  14.162  1.00  0.00     0.006 C 
HETATM    3  C12 UNL     1      -4.532   8.739  13.857  1.00  0.00     0.009 C 
HETATM    4  C13 UNL     1      -3.700   7.680  13.125  1.00  0.00     0.041 C 
HETATM    5  C14 UNL     1      -4.191   6.329  13.703  1.00  0.00    -0.029 C 
HETATM    6  C15 UNL     1      -3.672   6.054  15.131  1.00  0.00     0.016 C 
HETATM    7  C16 UNL     1      -3.697   5.209  12.757  1.00  0.00     0.037 C 
HETATM    8  C17 UNL     1      -2.232   5.355  12.415  1.00  0.00    -0.019 C 
HETATM    9  C18 UNL     1      -1.537   6.508  12.552  1.00  0.00    -0.030 C 
HETATM   10  C19 UNL     1      -2.179   7.831  13.021  1.00  0.00     0.142 C 
HETATM   11  C20 UNL     1      -1.442   8.359  14.238  1.00  0.00     0.018 C 
HETATM   12  C21 UNL     1      -0.121   8.547  14.043  1.00  0.00     0.014 C 
HETATM   13  C22 UNL     1       0.325   8.180  12.640  1.00  0.00     0.127 C 
HETATM   14  C23 UNL     1       1.795   8.524  12.387  1.00  0.00     0.078 C 
HETATM   15  C24 UNL     1       2.339   7.961  11.061  1.00  0.00     0.128 C 
HETATM   16  C31 UNL     1       1.270   7.360  10.148  1.00  0.00     0.033 C 
HETATM   17  C32 UNL     1       0.358   6.338  10.833  1.00  0.00     0.020 C 
HETATM   18  C33 UNL     1      -0.018   6.673  12.303  1.00  0.00     0.021 C 
HETATM   19  C34 UNL     1       0.732   5.701  13.255  1.00  0.00     0.024 C 
HETATM   20  O7  UNL     1      -0.465   9.050  11.780  1.00  0.00    -0.223 OA
HETATM   21  O8  UNL     1      -1.922   8.778  11.936  1.00  0.00    -0.219 OA
ENDROOT
BRANCH  15  22
HETATM   22  O1  UNL     1       3.315   6.971  11.399  1.00  0.00    -0.353 OA
BRANCH  22  23
HETATM   23  C25 UNL     1       4.439   7.472  12.130  1.00  0.00     0.292 C 
HETATM   24  O2  UNL     1       4.467   8.897  12.075  1.00  0.00    -0.348 OA
HETATM   25  C26 UNL     1       5.450   9.472  12.959  1.00  0.00     0.179 C 
HETATM   26  C28 UNL     1       6.736   8.609  13.068  1.00  0.00     0.180 C 
HETATM   27  C29 UNL     1       6.959   7.798  11.780  1.00  0.00     0.183 C 
HETATM   28  C30 UNL     1       5.730   6.902  11.484  1.00  0.00     0.204 C 
BRANCH  25  29
HETATM   29  C27 UNL     1       5.735  10.903  12.464  1.00  0.00     0.198 C 
BRANCH  29  30
HETATM   30  O3  UNL     1       5.694  11.018  11.047  1.00  0.00    -0.398 OA
HETATM   31  H39 UNL     1       4.821  10.734  10.729  1.00  0.00     0.209 HD
ENDBRANCH  29  30
ENDBRANCH  25  29
BRANCH  26  32
HETATM   32  O4  UNL     1       6.611   7.666  14.153  1.00  0.00    -0.390 OA
HETATM   33  H41 UNL     1       6.421   8.171  14.965  1.00  0.00     0.210 HD
ENDBRANCH  26  32
BRANCH  27  34
HETATM   34  O5  UNL     1       7.270   8.695  10.708  1.00  0.00    -0.390 OA
HETATM   35  H43 UNL     1       6.555   8.654  10.047  1.00  0.00     0.210 HD
ENDBRANCH  27  34
BRANCH  28  36
HETATM   36  O6  UNL     1       5.973   5.560  11.945  1.00  0.00    -0.388 OA
HETATM   37  H45 UNL     1       6.235   5.602  12.884  1.00  0.00     0.210 HD
ENDBRANCH  28  36
ENDBRANCH  22  23
ENDBRANCH  15  22
BRANCH   1  38
HETATM   38  C8  UNL     1      -6.707   5.546  14.248  1.00  0.00     0.008 C 
HETATM   39  C9  UNL     1      -7.072   4.495  13.187  1.00  0.00     0.014 C 
BRANCH  38  40
HETATM   40  C7  UNL     1      -7.995   6.083  14.823  1.00  0.00    -0.026 C 
HETATM   41  C6  UNL     1      -9.003   6.562  14.068  1.00  0.00    -0.026 C 
BRANCH  41  42
HETATM   42  C4  UNL     1     -10.283   7.148  14.623  1.00  0.00     0.007 C 
HETATM   43  C5  UNL     1     -10.025   8.603  15.029  1.00  0.00     0.014 C 
BRANCH  42  44
HETATM   44  C2  UNL     1     -11.470   6.970  13.631  1.00  0.00    -0.015 C 
HETATM   45  C1  UNL     1     -12.722   6.452  14.350  1.00  0.00     0.010 C 
HETATM   46  C3  UNL     1     -11.822   8.233  12.837  1.00  0.00     0.010 C 
ENDBRANCH  42  44
ENDBRANCH  41  42
ENDBRANCH  38  40
ENDBRANCH   1  38
TORSDOF 11
ENDMDL
MODEL 2
REMARK minimizedAffinity -7.70081425
REMARK CNNscore 0.257847369
REMARK CNNaffinity 6.08981514
REMARK  11 active torsions:
REMARK  status: ('A' for Active; 'I' for Inactive)
REMARK    1  A    between atoms: C2_2  and  C4_4 
REMARK    2  A    between atoms: C4_4  and  C6_6 
REMARK    3  A    between atoms: C7_7  and  C8_8 
REMARK    4  A    between atoms: C8_8  and  C10_10 
REMARK    5  A    between atoms: C24_24  and  O1_25 
REMARK    6  A    between atoms: O1_25  and  C25_26 
REMARK    7  A    between atoms: C26_28  and  C27_29 
REMARK    8  A    between atoms: C27_29  and  O3_30 
REMARK    9  A    between atoms: C28_31  and  O4_32 
REMARK   10  A    between atoms: C29_33  and  O5_34 
REMARK   11  A    between atoms: C30_35  and  O6_36 
ROOT
HETATM    1  C10 UNL     1      -5.562 -10.457   6.259  1.00  0.00     0.002 C 
HETATM    2  C11 UNL     1      -4.151 -10.349   6.887  1.00  0.00     0.006 C 
HETATM    3  C12 UNL     1      -4.344 -10.502   8.408  1.00  0.00     0.009 C 
HETATM    4  C13 UNL     1      -5.845 -10.758   8.586  1.00  0.00     0.041 C 
HETATM    5  C14 UNL     1      -6.513 -10.001   7.410  1.00  0.00    -0.029 C 
HETATM    6  C15 UNL     1      -6.535  -8.470   7.606  1.00  0.00     0.016 C 
HETATM    7  C16 UNL     1      -7.965 -10.520   7.285  1.00  0.00     0.037 C 
HETATM    8  C17 UNL     1      -8.677 -10.550   8.618  1.00  0.00    -0.019 C 
HETATM    9  C18 UNL     1      -8.042 -10.537   9.813  1.00  0.00    -0.030 C 
HETATM   10  C19 UNL     1      -6.506 -10.551   9.953  1.00  0.00     0.142 C 
HETATM   11  C20 UNL     1      -6.053  -9.360  10.778  1.00  0.00     0.018 C 
HETATM   12  C21 UNL     1      -6.613  -9.293  12.002  1.00  0.00     0.014 C 
HETATM   13  C22 UNL     1      -7.578 -10.433  12.271  1.00  0.00     0.127 C 
HETATM   14  C23 UNL     1      -8.105 -10.425  13.709  1.00  0.00     0.078 C 
HETATM   15  C24 UNL     1      -9.251 -11.423  13.950  1.00  0.00     0.128 C 
HETATM   16  C31 UNL     1      -9.503 -12.384  12.786  1.00  0.00     0.033 C 
HETATM   17  C32 UNL     1      -9.663 -11.698  11.426  1.00  0.00     0.020 C 
HETATM   18  C33 UNL     1      -8.736 -10.472  11.195  1.00  0.00     0.021 C 
HETATM   19  C34 UNL     1      -9.589  -9.175  11.242  1.00  0.00     0.024 C 
HETATM   20  O7  UNL     1      -6.759 -11.630  12.130  1.00  0.00    -0.223 OA
HETATM   21  O8  UNL     1      -6.212 -11.743  10.748  1.00  0.00    -0.219 OA
ENDROOT
BRANCH  15  22
HETATM   22  O1  UNL     1     -10.426 -10.652  14.217  1.00  0.00    -0.353 OA
BRANCH  22  23
HETATM   23  C25 UNL     1     -10.410  -9.964  15.473  1.00  0.00     0.292 C 
HETATM   24  O2  UNL     1     -10.656 -10.880  16.538  1.00  0.00    -0.348 OA
HETATM   25  C26 UNL     1     -10.450 -10.293  17.838  1.00  0.00     0.179 C 
HETATM   26  C28 UNL     1     -10.874  -8.800  17.897  1.00  0.00     0.180 C 
HETATM   27  C29 UNL     1     -11.988  -8.510  16.877  1.00  0.00     0.183 C 
HETATM   28  C30 UNL     1     -11.526  -8.885  15.447  1.00  0.00     0.204 C 
BRANCH  25  29
HETATM   29  C27 UNL     1     -11.202 -11.164  18.863  1.00  0.00     0.198 C 
BRANCH  29  30
HETATM   30  O3  UNL     1     -11.671 -12.388  18.311  1.00  0.00    -0.398 OA
HETATM   31  H39 UNL     1     -10.918 -12.887  17.953  1.00  0.00     0.209 HD
ENDBRANCH  29  30
ENDBRANCH  25  29
BRANCH  26  32
HETATM   32  O4  UNL     1      -9.755  -7.953  17.563  1.00  0.00    -0.390 OA
HETATM   33  H41 UNL     1      -9.027  -8.166  18.175  1.00  0.00     0.210 HD
ENDBRANCH  26  32
BRANCH  27  34
HETATM   34  O5  UNL     1     -13.182  -9.193  17.278  1.00  0.00    -0.390 OA
HETATM   35  H43 UNL     1     -13.396  -9.869  16.609  1.00  0.00     0.210 HD
ENDBRANCH  27  34
BRANCH  28  36
HETATM   36  O6  UNL     1     -11.073  -7.710  14.748  1.00  0.00    -0.388 OA
HETATM   37  H45 UNL     1     -10.397  -7.269  15.297  1.00  0.00     0.210 HD
ENDBRANCH  28  36
ENDBRANCH  22  23
ENDBRANCH  15  22
BRANCH   1  38
HETATM   38  C8  UNL     1      -5.733  -9.864   4.839  1.00  0.00     0.008 C 
HETATM   39  C9  UNL     1      -7.196  -9.999   4.383  1.00  0.00     0.014 C 
BRANCH  38  40
HETATM   40  C7  UNL     1      -4.861 -10.448   3.755  1.00  0.00    -0.026 C 
HETATM   41  C6  UNL     1      -3.976  -9.723   3.042  1.00  0.00    -0.026 C 
BRANCH  41  42
HETATM   42  C4  UNL     1      -3.125 -10.276   1.919  1.00  0.00     0.007 C 
HETATM   43  C5  UNL     1      -1.795 -10.764   2.502  1.00  0.00     0.014 C 
BRANCH  42  44
HETATM   44  C2  UNL     1      -3.892 -11.358   1.102  1.00  0.00    -0.015 C 
HETATM   45  C1  UNL     1      -4.734 -10.720  -0.010  1.00  0.00     0.010 C 
HETATM   46  C3  UNL     1      -2.995 -12.448   0.504  1.00  0.00     0.010 C 
ENDBRANCH  42  44
ENDBRANCH  41  42
ENDBRANCH  38  40
ENDBRANCH   1  38
TORSDOF 11
ENDMDL
MODEL 3
REMARK minimizedAffinity -8.52047253
REMARK CNNscore 0.236717016
REMARK CNNaffinity 6.58676338
REMARK  11 active torsions:
REMARK  status: ('A' for Active; 'I' for Inactive)
REMARK    1  A    between atoms: C2_2  and  C4_4 
REMARK    2  A    between atoms: C4_4  and  C6_6 
REMARK    3  A    between atoms: C7_7  and  C8_8 
REMARK    4  A    between atoms: C8_8  and  C10_10 
REMARK    5  A    between atoms: C24_24  and  O1_25 
REMARK    6  A    between atoms: O1_25  and  C25_26 
REMARK    7  A    between atoms: C26_28  and  C27_29 
REMARK    8  A    between atoms: C27_29  and  O3_30 
REMARK    9  A    between atoms: C28_31  and  O4_32 
REMARK   10  A    between atoms: C29_33  and  O5_34 
REMARK   11  A    between atoms: C30_35  and  O6_36 
ROOT
HETATM    1  C10 UNL     1      -5.915   6.708  15.032  1.00  0.00     0.002 C 
HETATM    2  C11 UNL     1      -6.277   6.492  13.542  1.00  0.00     0.006 C 
HETATM    3  C12 UNL     1      -4.960   6.631  12.755  1.00  0.00     0.009 C 
HETATM    4  C13 UNL     1      -3.888   6.855  13.827  1.00  0.00     0.041 C 
HETATM    5  C14 UNL     1      -4.627   7.589  14.973  1.00  0.00    -0.029 C 
HETATM    6  C15 UNL     1      -4.922   9.071  14.657  1.00  0.00     0.016 C 
HETATM    7  C16 UNL     1      -3.736   7.504  16.234  1.00  0.00     0.037 C 
HETATM    8  C17 UNL     1      -2.301   7.884  15.945  1.00  0.00    -0.019 C 
HETATM    9  C18 UNL     1      -1.757   7.889  14.706  1.00  0.00    -0.030 C 
HETATM   10  C19 UNL     1      -2.527   7.448  13.444  1.00  0.00     0.142 C 
HETATM   11  C20 UNL     1      -2.513   8.563  12.416  1.00  0.00     0.018 C 
HETATM   12  C21 UNL     1      -1.278   8.974  12.065  1.00  0.00     0.014 C 
HETATM   13  C22 UNL     1      -0.179   8.219  12.791  1.00  0.00     0.127 C 
HETATM   14  C23 UNL     1       1.217   8.597  12.288  1.00  0.00     0.078 C 
HETATM   15  C24 UNL     1       2.357   8.025  13.152  1.00  0.00     0.128 C 
HETATM   16  C31 UNL     1       1.900   7.017  14.207  1.00  0.00     0.033 C 
HETATM   17  C32 UNL     1       0.749   7.507  15.091  1.00  0.00     0.020 C 
HETATM   18  C33 UNL     1      -0.325   8.361  14.360  1.00  0.00     0.021 C 
HETATM   19  C34 UNL     1      -0.186   9.842  14.804  1.00  0.00     0.024 C 
HETATM   20  O7  UNL     1      -0.400   6.829  12.417  1.00  0.00    -0.223 OA
HETATM   21  O8  UNL     1      -1.734   6.355  12.883  1.00  0.00    -0.219 OA
ENDROOT
BRANCH  15  22
HETATM   22  O1  UNL     1       3.004   9.137  13.777  1.00  0.00    -0.353 OA
BRANCH  22  23
HETATM   23  C25 UNL     1       4.425   9.167  13.609  1.00  0.00     0.292 C 
HETATM   24  O2  UNL     1       4.796   8.462  12.425  1.00  0.00    -0.348 OA
HETATM   25  C26 UNL     1       6.187   8.629  12.088  1.00  0.00     0.179 C 
HETATM   26  C28 UNL     1       7.103   8.712  13.340  1.00  0.00     0.180 C 
HETATM   27  C29 UNL     1       6.485   7.940  14.518  1.00  0.00     0.183 C 
HETATM   28  C30 UNL     1       5.072   8.486  14.843  1.00  0.00     0.204 C 
BRANCH  25  29
HETATM   29  C27 UNL     1       6.576   7.473  11.144  1.00  0.00     0.198 C 
BRANCH  29  30
HETATM   30  O3  UNL     1       7.758   6.797  11.555  1.00  0.00    -0.398 OA
HETATM   31  H39 UNL     1       7.633   6.451  12.454  1.00  0.00     0.209 HD
ENDBRANCH  29  30
ENDBRANCH  25  29
BRANCH  26  32
HETATM   32  O4  UNL     1       7.250  10.085  13.757  1.00  0.00    -0.390 OA
HETATM   33  H41 UNL     1       7.595  10.590  12.998  1.00  0.00     0.210 HD
ENDBRANCH  26  32
BRANCH  27  34
HETATM   34  O5  UNL     1       6.489   6.539  14.217  1.00  0.00    -0.390 OA
HETATM   35  H43 UNL     1       5.567   6.231  14.146  1.00  0.00     0.210 HD
ENDBRANCH  27  34
BRANCH  28  36
HETATM   36  O6  UNL     1       5.140   9.407  15.948  1.00  0.00    -0.388 OA
HETATM   37  H45 UNL     1       5.806  10.088  15.738  1.00  0.00     0.210 HD
ENDBRANCH  28  36
ENDBRANCH  22  23
ENDBRANCH  15  22
BRANCH   1  38
HETATM   38  C8  UNL     1      -7.078   7.105  15.975  1.00  0.00     0.008 C 
HETATM   39  C9  UNL     1      -8.041   5.920  16.155  1.00  0.00     0.014 C 
BRANCH  38  40
HETATM   40  C7  UNL     1      -7.898   8.304  15.566  1.00  0.00    -0.026 C 
HETATM   41  C6  UNL     1      -9.198   8.231  15.219  1.00  0.00    -0.026 C 
BRANCH  41  42
HETATM   42  C4  UNL     1     -10.027   9.411  14.760  1.00  0.00     0.007 C 
HETATM   43  C5  UNL     1     -11.489   8.970  14.639  1.00  0.00     0.014 C 
BRANCH  42  44
HETATM   44  C2  UNL     1      -9.815  10.650  15.680  1.00  0.00    -0.015 C 
HETATM   45  C1  UNL     1     -10.103  11.956  14.928  1.00  0.00     0.010 C 
HETATM   46  C3  UNL     1     -10.631  10.617  16.978  1.00  0.00     0.010 C 
ENDBRANCH  42  44
ENDBRANCH  41  42
ENDBRANCH  38  40
ENDBRANCH   1  38
TORSDOF 11
ENDMDL
MODEL 4
REMARK minimizedAffinity -10.8002243
REMARK CNNscore 0.225585446
REMARK CNNaffinity 6.89852381
REMARK  11 active torsions:
REMARK  status: ('A' for Active; 'I' for Inactive)
REMARK    1  A    between atoms: C2_2  and  C4_4 
REMARK    2  A    between atoms: C4_4  and  C6_6 
REMARK    3  A    between atoms: C7_7  and  C8_8 
REMARK    4  A    between atoms: C8_8  and  C10_10 
REMARK    5  A    between atoms: C24_24  and  O1_25 
REMARK    6  A    between atoms: O1_25  and  C25_26 
REMARK    7  A    between atoms: C26_28  and  C27_29 
REMARK    8  A    between atoms: C27_29  and  O3_30 
REMARK    9  A    between atoms: C28_31  and  O4_32 
REMARK   10  A    between atoms: C29_33  and  O5_34 
REMARK   11  A    between atoms: C30_35  and  O6_36 
ROOT
HETATM    1  C10 UNL     1      -6.136   6.989  14.237  1.00  0.00     0.002 C 
HETATM    2  C11 UNL     1      -6.125   8.484  14.640  1.00  0.00     0.006 C 
HETATM    3  C12 UNL     1      -4.758   9.039  14.197  1.00  0.00     0.009 C 
HETATM    4  C13 UNL     1      -4.068   7.861  13.498  1.00  0.00     0.041 C 
HETATM    5  C14 UNL     1      -4.624   6.603  14.211  1.00  0.00    -0.029 C 
HETATM    6  C15 UNL     1      -4.030   6.390  15.620  1.00  0.00     0.016 C 
HETATM    7  C16 UNL     1      -4.290   5.379  13.327  1.00  0.00     0.037 C 
HETATM    8  C17 UNL     1      -2.845   5.373  12.881  1.00  0.00    -0.019 C 
HETATM    9  C18 UNL     1      -2.052   6.469  12.882  1.00  0.00    -0.030 C 
HETATM   10  C19 UNL     1      -2.550   7.873  13.285  1.00  0.00     0.142 C 
HETATM   11  C20 UNL     1      -1.690   8.423  14.407  1.00  0.00     0.018 C 
HETATM   12  C21 UNL     1      -0.375   8.482  14.114  1.00  0.00     0.014 C 
HETATM   13  C22 UNL     1      -0.060   7.977  12.718  1.00  0.00     0.127 C 
HETATM   14  C23 UNL     1       1.412   8.174  12.345  1.00  0.00     0.078 C 
HETATM   15  C24 UNL     1       1.814   7.471  11.036  1.00  0.00     0.128 C 
HETATM   16  C31 UNL     1       0.638   6.899  10.243  1.00  0.00     0.033 C 
HETATM   17  C32 UNL     1      -0.303   6.011  11.064  1.00  0.00     0.020 C 
HETATM   18  C33 UNL     1      -0.546   6.484  12.524  1.00  0.00     0.021 C 
HETATM   19  C34 UNL     1       0.188   5.524  13.499  1.00  0.00     0.024 C 
HETATM   20  O7  UNL     1      -0.836   8.847  11.845  1.00  0.00    -0.223 OA
HETATM   21  O8  UNL     1      -2.295   8.713  12.115  1.00  0.00    -0.219 OA
ENDROOT
BRANCH  15  22
HETATM   22  O1  UNL     1       2.728   6.428  11.387  1.00  0.00    -0.353 OA
BRANCH  22  23
HETATM   23  C25 UNL     1       4.108   6.806  11.330  1.00  0.00     0.292 C 
HETATM   24  O2  UNL     1       4.618   7.008  12.647  1.00  0.00    -0.348 OA
HETATM   25  C26 UNL     1       6.048   7.187  12.671  1.00  0.00     0.179 C 
HETATM   26  C28 UNL     1       6.577   7.965  11.435  1.00  0.00     0.180 C 
HETATM   27  C29 UNL     1       5.498   8.915  10.888  1.00  0.00     0.183 C 
HETATM   28  C30 UNL     1       4.215   8.127  10.523  1.00  0.00     0.204 C 
BRANCH  25  29
HETATM   29  C27 UNL     1       6.405   7.875  14.003  1.00  0.00     0.198 C 
BRANCH  29  30
HETATM   30  O3  UNL     1       5.884   7.191  15.136  1.00  0.00    -0.398 OA
HETATM   31  H39 UNL     1       6.221   6.280  15.144  1.00  0.00     0.209 HD
ENDBRANCH  29  30
ENDBRANCH  25  29
BRANCH  26  32
HETATM   32  O4  UNL     1       6.915   7.046  10.377  1.00  0.00    -0.390 OA
HETATM   33  H41 UNL     1       7.563   6.409  10.732  1.00  0.00     0.210 HD
ENDBRANCH  26  32
BRANCH  27  34
HETATM   34  O5  UNL     1       5.263   9.959  11.842  1.00  0.00    -0.390 OA
HETATM   35  H43 UNL     1       4.350   9.878  12.176  1.00  0.00     0.210 HD
ENDBRANCH  27  34
BRANCH  28  36
HETATM   36  O6  UNL     1       4.186   7.857   9.109  1.00  0.00    -0.388 OA
HETATM   37  H45 UNL     1       5.022   7.418   8.864  1.00  0.00     0.210 HD
ENDBRANCH  28  36
ENDBRANCH  22  23
ENDBRANCH  15  22
BRANCH   1  38
HETATM   38  C8  UNL     1      -7.150   6.081  14.976  1.00  0.00     0.008 C 
HETATM   39  C9  UNL     1      -6.678   5.826  16.417  1.00  0.00     0.014 C 
BRANCH  38  40
HETATM   40  C7  UNL     1      -7.440   4.741  14.346  1.00  0.00    -0.026 C 
HETATM   41  C6  UNL     1      -6.618   4.143  13.461  1.00  0.00    -0.026 C 
BRANCH  41  42
HETATM   42  C4  UNL     1      -6.910   2.823  12.780  1.00  0.00     0.007 C 
HETATM   43  C5  UNL     1      -8.313   2.883  12.167  1.00  0.00     0.014 C 
BRANCH  42  44
HETATM   44  C2  UNL     1      -5.792   2.445  11.764  1.00  0.00    -0.015 C 
HETATM   45  C1  UNL     1      -5.971   1.012  11.248  1.00  0.00     0.010 C 
HETATM   46  C3  UNL     1      -5.671   3.406  10.575  1.00  0.00     0.010 C 
ENDBRANCH  42  44
ENDBRANCH  41  42
ENDBRANCH  38  40
ENDBRANCH   1  38
TORSDOF 11
ENDMDL
MODEL 5
REMARK minimizedAffinity -9.52227497
REMARK CNNscore 0.205560148
REMARK CNNaffinity 6.23352289
REMARK  11 active torsions:
REMARK  status: ('A' for Active; 'I' for Inactive)
REMARK    1  A    between atoms: C2_2  and  C4_4 
REMARK    2  A    between atoms: C4_4  and  C6_6 
REMARK    3  A    between atoms: C7_7  and  C8_8 
REMARK    4  A    between atoms: C8_8  and  C10_10 
REMARK    5  A    between atoms: C24_24  and  O1_25 
REMARK    6  A    between atoms: O1_25  and  C25_26 
REMARK    7  A    between atoms: C26_28  and  C27_29 
REMARK    8  A    between atoms: C27_29  and  O3_30 
REMARK    9  A    between atoms: C28_31  and  O4_32 
REMARK   10  A    between atoms: C29_33  and  O5_34 
REMARK   11  A    between atoms: C30_35  and  O6_36 
ROOT
HETATM    1  C10 UNL     1       1.133   7.072  11.021  1.00  0.00     0.002 C 
HETATM    2  C11 UNL     1       1.473   5.622  11.445  1.00  0.00     0.006 C 
HETATM    3  C12 UNL     1       0.239   5.094  12.200  1.00  0.00     0.009 C 
HETATM    4  C13 UNL     1      -0.783   6.234  12.122  1.00  0.00     0.041 C 
HETATM    5  C14 UNL     1       0.074   7.524  12.074  1.00  0.00    -0.029 C 
HETATM    6  C15 UNL     1       0.696   7.892  13.438  1.00  0.00     0.016 C 
HETATM    7  C16 UNL     1      -0.844   8.678  11.605  1.00  0.00     0.037 C 
HETATM    8  C17 UNL     1      -2.153   8.710  12.362  1.00  0.00    -0.019 C 
HETATM    9  C18 UNL     1      -2.652   7.658  13.049  1.00  0.00    -0.030 C 
HETATM   10  C19 UNL     1      -1.970   6.274  13.091  1.00  0.00     0.142 C 
HETATM   11  C20 UNL     1      -1.712   5.869  14.530  1.00  0.00     0.018 C 
HETATM   12  C21 UNL     1      -2.818   5.846  15.301  1.00  0.00     0.014 C 
HETATM   13  C22 UNL     1      -4.073   6.237  14.543  1.00  0.00     0.127 C 
HETATM   14  C23 UNL     1      -5.340   6.075  15.388  1.00  0.00     0.078 C 
HETATM   15  C24 UNL     1      -6.597   6.675  14.732  1.00  0.00     0.128 C 
HETATM   16  C31 UNL     1      -6.399   7.117  13.282  1.00  0.00     0.033 C 
HETATM   17  C32 UNL     1      -5.190   8.030  13.061  1.00  0.00     0.020 C 
HETATM   18  C33 UNL     1      -3.937   7.681  13.912  1.00  0.00     0.021 C 
HETATM   19  C34 UNL     1      -3.755   8.759  15.015  1.00  0.00     0.024 C 
HETATM   20  O7  UNL     1      -4.156   5.255  13.469  1.00  0.00    -0.223 OA
HETATM   21  O8  UNL     1      -2.971   5.345  12.570  1.00  0.00    -0.219 OA
ENDROOT
BRANCH  15  22
HETATM   22  O1  UNL     1      -6.997   7.787  15.539  1.00  0.00    -0.353 OA
BRANCH  22  23
HETATM   23  C25 UNL     1      -8.304   8.293  15.245  1.00  0.00     0.292 C 
HETATM   24  O2  UNL     1      -8.302   9.718  15.294  1.00  0.00    -0.348 OA
HETATM   25  C26 UNL     1      -9.530  10.296  14.807  1.00  0.00     0.179 C 
HETATM   26  C28 UNL     1     -10.777   9.443  15.164  1.00  0.00     0.180 C 
HETATM   27  C29 UNL     1     -10.537   8.641  16.455  1.00  0.00     0.183 C 
HETATM   28  C30 UNL     1      -9.288   7.738  16.308  1.00  0.00     0.204 C 
BRANCH  25  29
HETATM   29  C27 UNL     1      -9.615  11.733  15.358  1.00  0.00     0.198 C 
BRANCH  29  30
HETATM   30  O3  UNL     1      -9.619  12.719  14.334  1.00  0.00    -0.398 OA
HETATM   31  H39 UNL     1     -10.367  12.558  13.736  1.00  0.00     0.209 HD
ENDBRANCH  29  30
ENDBRANCH  25  29
BRANCH  26  32
HETATM   32  O4  UNL     1     -11.047   8.492  14.113  1.00  0.00    -0.390 OA
HETATM   33  H41 UNL     1     -11.151   8.990  13.282  1.00  0.00     0.210 HD
ENDBRANCH  26  32
BRANCH  27  34
HETATM   34  O5  UNL     1     -10.447   9.548  17.561  1.00  0.00    -0.390 OA
HETATM   35  H43 UNL     1      -9.545   9.505  17.928  1.00  0.00     0.210 HD
ENDBRANCH  27  34
BRANCH  28  36
HETATM   36  O6  UNL     1      -9.685   6.394  15.973  1.00  0.00    -0.388 OA
HETATM   37  H45 UNL     1     -10.260   6.433  15.186  1.00  0.00     0.210 HD
ENDBRANCH  28  36
ENDBRANCH  22  23
ENDBRANCH  15  22
BRANCH   1  38
HETATM   38  C8  UNL     1       2.332   7.994  10.689  1.00  0.00     0.008 C 
HETATM   39  C9  UNL     1       2.733   7.831   9.214  1.00  0.00     0.014 C 
BRANCH  38  40
HETATM   40  C7  UNL     1       3.576   7.810  11.524  1.00  0.00    -0.026 C 
HETATM   41  C6  UNL     1       4.583   6.982  11.184  1.00  0.00    -0.026 C 
BRANCH  41  42
HETATM   42  C4  UNL     1       5.816   6.745  12.028  1.00  0.00     0.007 C 
HETATM   43  C5  UNL     1       6.970   6.326  11.111  1.00  0.00     0.014 C 
BRANCH  42  44
HETATM   44  C2  UNL     1       6.139   7.976  12.926  1.00  0.00    -0.015 C 
HETATM   45  C1  UNL     1       5.385   7.903  14.260  1.00  0.00     0.010 C 
HETATM   46  C3  UNL     1       7.634   8.187  13.194  1.00  0.00     0.010 C 
ENDBRANCH  42  44
ENDBRANCH  41  42
ENDBRANCH  38  40
ENDBRANCH   1  38
TORSDOF 11
ENDMDL
MODEL 6
REMARK minimizedAffinity -9.47548389
REMARK CNNscore 0.185291395
REMARK CNNaffinity 6.19044638
REMARK  11 active torsions:
REMARK  status: ('A' for Active; 'I' for Inactive)
REMARK    1  A    between atoms: C2_2  and  C4_4 
REMARK    2  A    between atoms: C4_4  and  C6_6 
REMARK    3  A    between atoms: C7_7  and  C8_8 
REMARK    4  A    between atoms: C8_8  and  C10_10 
REMARK    5  A    between atoms: C24_24  and  O1_25 
REMARK    6  A    between atoms: O1_25  and  C25_26 
REMARK    7  A    between atoms: C26_28  and  C27_29 
REMARK    8  A    between atoms: C27_29  and  O3_30 
REMARK    9  A    between atoms: C28_31  and  O4_32 
REMARK   10  A    between atoms: C29_33  and  O5_34 
REMARK   11  A    between atoms: C30_35  and  O6_36 
ROOT
HETATM    1  C10 UNL     1      -4.648   8.622  14.227  1.00  0.00     0.002 C 
HETATM    2  C11 UNL     1      -4.798   9.505  15.489  1.00  0.00     0.006 C 
HETATM    3  C12 UNL     1      -3.381   9.996  15.842  1.00  0.00     0.009 C 
HETATM    4  C13 UNL     1      -2.486   9.431  14.733  1.00  0.00     0.041 C 
HETATM    5  C14 UNL     1      -3.176   8.110  14.309  1.00  0.00    -0.029 C 
HETATM    6  C15 UNL     1      -2.989   6.970  15.333  1.00  0.00     0.016 C 
HETATM    7  C16 UNL     1      -2.570   7.681  12.952  1.00  0.00     0.037 C 
HETATM    8  C17 UNL     1      -1.058   7.733  12.960  1.00  0.00    -0.019 C 
HETATM    9  C18 UNL     1      -0.333   8.445  13.854  1.00  0.00    -0.030 C 
HETATM   10  C19 UNL     1      -0.970   9.339  14.938  1.00  0.00     0.142 C 
HETATM   11  C20 UNL     1      -0.473   8.919  16.309  1.00  0.00     0.018 C 
HETATM   12  C21 UNL     1       0.869   8.945  16.439  1.00  0.00     0.014 C 
HETATM   13  C22 UNL     1       1.575   9.388  15.171  1.00  0.00     0.127 C 
HETATM   14  C23 UNL     1       3.085   9.545  15.369  1.00  0.00     0.078 C 
HETATM   15  C24 UNL     1       3.857   9.770  14.056  1.00  0.00     0.128 C 
HETATM   16  C31 UNL     1       2.966  10.014  12.837  1.00  0.00     0.033 C 
HETATM   17  C32 UNL     1       1.865   8.968  12.642  1.00  0.00     0.020 C 
HETATM   18  C33 UNL     1       1.211   8.448  13.953  1.00  0.00     0.021 C 
HETATM   19  C34 UNL     1       1.679   6.990  14.210  1.00  0.00     0.024 C 
HETATM   20  O7  UNL     1       1.043  10.721  14.919  1.00  0.00    -0.223 OA
HETATM   21  O8  UNL     1      -0.429  10.674  14.690  1.00  0.00    -0.219 OA
ENDROOT
BRANCH  15  22
HETATM   22  O1  UNL     1       4.673   8.613  13.849  1.00  0.00    -0.353 OA
BRANCH  22  23
HETATM   23  C25 UNL     1       5.870   8.584  14.634  1.00  0.00     0.292 C 
HETATM   24  O2  UNL     1       6.510   9.858  14.603  1.00  0.00    -0.348 OA
HETATM   25  C26 UNL     1       7.605   9.956  15.536  1.00  0.00     0.179 C 
HETATM   26  C28 UNL     1       8.389   8.623  15.683  1.00  0.00     0.180 C 
HETATM   27  C29 UNL     1       8.297   7.791  14.393  1.00  0.00     0.183 C 
HETATM   28  C30 UNL     1       6.816   7.512  14.032  1.00  0.00     0.204 C 
BRANCH  25  29
HETATM   29  C27 UNL     1       8.501  11.123  15.076  1.00  0.00     0.198 C 
BRANCH  29  30
HETATM   30  O3  UNL     1       9.797  11.089  15.658  1.00  0.00    -0.398 OA
HETATM   31  H39 UNL     1      10.226  10.246  15.436  1.00  0.00     0.209 HD
ENDBRANCH  29  30
ENDBRANCH  25  29
BRANCH  26  32
HETATM   32  O4  UNL     1       7.823   7.830  16.746  1.00  0.00    -0.390 OA
HETATM   33  H41 UNL     1       7.833   8.369  17.558  1.00  0.00     0.210 HD
ENDBRANCH  26  32
BRANCH  27  34
HETATM   34  O5  UNL     1       9.011   8.463  13.348  1.00  0.00    -0.390 OA
HETATM   35  H43 UNL     1       8.377   8.733  12.658  1.00  0.00     0.210 HD
ENDBRANCH  27  34
BRANCH  28  36
HETATM   36  O6  UNL     1       6.437   6.197  14.482  1.00  0.00    -0.388 OA
HETATM   37  H45 UNL     1       6.651   6.125  15.431  1.00  0.00     0.210 HD
ENDBRANCH  28  36
ENDBRANCH  22  23
ENDBRANCH  15  22
BRANCH   1  38
HETATM   38  C8  UNL     1      -5.796   7.622  13.942  1.00  0.00     0.008 C 
HETATM   39  C9  UNL     1      -6.330   7.041  15.262  1.00  0.00     0.014 C 
BRANCH  38  40
HETATM   40  C7  UNL     1      -5.471   6.464  13.030  1.00  0.00    -0.026 C 
HETATM   41  C6  UNL     1      -5.702   5.177  13.353  1.00  0.00    -0.026 C 
BRANCH  41  42
HETATM   42  C4  UNL     1      -5.341   3.998  12.475  1.00  0.00     0.007 C 
HETATM   43  C5  UNL     1      -3.868   3.645  12.703  1.00  0.00     0.014 C 
BRANCH  42  44
HETATM   44  C2  UNL     1      -6.318   2.804  12.693  1.00  0.00    -0.015 C 
HETATM   45  C1  UNL     1      -7.758   3.294  12.890  1.00  0.00     0.010 C 
HETATM   46  C3  UNL     1      -6.283   1.751  11.580  1.00  0.00     0.010 C 
ENDBRANCH  42  44
ENDBRANCH  41  42
ENDBRANCH  38  40
ENDBRANCH   1  38
TORSDOF 11
ENDMDL
MODEL 7
REMARK minimizedAffinity -8.27078056
REMARK CNNscore 0.162725508
REMARK CNNaffinity 6.78552246
REMARK  11 active torsions:
REMARK  status: ('A' for Active; 'I' for Inactive)
REMARK    1  A    between atoms: C2_2  and  C4_4 
REMARK    2  A    between atoms: C4_4  and  C6_6 
REMARK    3  A    between atoms: C7_7  and  C8_8 
REMARK    4  A    between atoms: C8_8  and  C10_10 
REMARK    5  A    between atoms: C24_24  and  O1_25 
REMARK    6  A    between atoms: O1_25  and  C25_26 
REMARK    7  A    between atoms: C26_28  and  C27_29 
REMARK    8  A    between atoms: C27_29  and  O3_30 
REMARK    9  A    between atoms: C28_31  and  O4_32 
REMARK   10  A    between atoms: C29_33  and  O5_34 
REMARK   11  A    between atoms: C30_35  and  O6_36 
ROOT
HETATM    1  C10 UNL     1      -6.960   6.949  14.497  1.00  0.00     0.002 C 
HETATM    2  C11 UNL     1      -7.245   5.532  13.943  1.00  0.00     0.006 C 
HETATM    3  C12 UNL     1      -8.707   5.546  13.457  1.00  0.00     0.009 C 
HETATM    4  C13 UNL     1      -9.180   6.985  13.689  1.00  0.00     0.041 C 
HETATM    5  C14 UNL     1      -8.370   7.471  14.917  1.00  0.00    -0.029 C 
HETATM    6  C15 UNL     1      -8.866   6.868  16.249  1.00  0.00     0.016 C 
HETATM    7  C16 UNL     1      -8.491   9.011  14.978  1.00  0.00     0.037 C 
HETATM    8  C17 UNL     1      -9.922   9.478  14.830  1.00  0.00    -0.019 C 
HETATM    9  C18 UNL     1     -10.911   8.721  14.300  1.00  0.00    -0.030 C 
HETATM   10  C19 UNL     1     -10.678   7.308  13.727  1.00  0.00     0.142 C 
HETATM   11  C20 UNL     1     -11.591   6.314  14.420  1.00  0.00     0.018 C 
HETATM   12  C21 UNL     1     -12.902   6.620  14.338  1.00  0.00     0.014 C 
HETATM   13  C22 UNL     1     -13.159   7.901  13.566  1.00  0.00     0.127 C 
HETATM   14  C23 UNL     1     -14.653   8.168  13.361  1.00  0.00     0.078 C 
HETATM   15  C24 UNL     1     -14.955   9.564  12.787  1.00  0.00     0.128 C 
HETATM   16  C31 UNL     1     -13.718  10.334  12.325  1.00  0.00     0.033 C 
HETATM   17  C32 UNL     1     -12.598  10.412  13.367  1.00  0.00     0.020 C 
HETATM   18  C33 UNL     1     -12.402   9.127  14.219  1.00  0.00     0.021 C 
HETATM   19  C34 UNL     1     -12.907   9.393  15.664  1.00  0.00     0.024 C 
HETATM   20  O7  UNL     1     -12.594   7.640  12.249  1.00  0.00    -0.223 OA
HETATM   21  O8  UNL     1     -11.128   7.387  12.338  1.00  0.00    -0.219 OA
ENDROOT
BRANCH  15  22
HETATM   22  O1  UNL     1     -15.641  10.295  13.808  1.00  0.00    -0.353 OA
BRANCH  22  23
HETATM   23  C25 UNL     1     -16.898  10.845  13.401  1.00  0.00     0.292 C 
HETATM   24  O2  UNL     1     -17.435  10.094  12.313  1.00  0.00    -0.348 OA
HETATM   25  C26 UNL     1     -18.790  10.466  11.992  1.00  0.00     0.179 C 
HETATM   26  C28 UNL     1     -19.056  11.985  12.179  1.00  0.00     0.180 C 
HETATM   27  C29 UNL     1     -17.763  12.793  11.976  1.00  0.00     0.183 C 
HETATM   28  C30 UNL     1     -16.662  12.312  12.954  1.00  0.00     0.204 C 
BRANCH  25  29
HETATM   29  C27 UNL     1     -19.072   9.987  10.555  1.00  0.00     0.198 C 
BRANCH  29  30
HETATM   30  O3  UNL     1     -17.899   9.918   9.754  1.00  0.00    -0.398 OA
HETATM   31  H39 UNL     1     -17.259   9.319  10.174  1.00  0.00     0.209 HD
ENDBRANCH  29  30
ENDBRANCH  25  29
BRANCH  26  32
HETATM   32  O4  UNL     1     -19.518  12.247  13.520  1.00  0.00    -0.390 OA
HETATM   33  H41 UNL     1     -20.311  11.700  13.673  1.00  0.00     0.210 HD
ENDBRANCH  26  32
BRANCH  27  34
HETATM   34  O5  UNL     1     -17.367  12.709  10.601  1.00  0.00    -0.390 OA
HETATM   35  H43 UNL     1     -16.518  12.233  10.548  1.00  0.00     0.210 HD
ENDBRANCH  27  34
BRANCH  28  36
HETATM   36  O6  UNL     1     -16.602  13.183  14.099  1.00  0.00    -0.388 OA
HETATM   37  H45 UNL     1     -17.497  13.245  14.484  1.00  0.00     0.210 HD
ENDBRANCH  28  36
ENDBRANCH  22  23
ENDBRANCH  15  22
BRANCH   1  38
HETATM   38  C8  UNL     1      -5.767   7.082  15.476  1.00  0.00     0.008 C 
HETATM   39  C9  UNL     1      -5.436   8.566  15.707  1.00  0.00     0.014 C 
BRANCH  38  40
HETATM   40  C7  UNL     1      -4.489   6.384  15.080  1.00  0.00    -0.026 C 
HETATM   41  C6  UNL     1      -4.003   6.381  13.823  1.00  0.00    -0.026 C 
BRANCH  41  42
HETATM   42  C4  UNL     1      -2.750   5.649  13.393  1.00  0.00     0.007 C 
HETATM   43  C5  UNL     1      -1.848   5.455  14.616  1.00  0.00     0.014 C 
BRANCH  42  44
HETATM   44  C2  UNL     1      -3.090   4.327  12.643  1.00  0.00    -0.015 C 
HETATM   45  C1  UNL     1      -4.598   4.204  12.392  1.00  0.00     0.010 C 
HETATM   46  C3  UNL     1      -2.334   4.141  11.322  1.00  0.00     0.010 C 
ENDBRANCH  42  44
ENDBRANCH  41  42
ENDBRANCH  38  40
ENDBRANCH   1  38
TORSDOF 11
ENDMDL
MODEL 8
REMARK minimizedAffinity -7.6850915
REMARK CNNscore 0.162652627
REMARK CNNaffinity 6.46405792
REMARK  11 active torsions:
REMARK  status: ('A' for Active; 'I' for Inactive)
REMARK    1  A    between atoms: C2_2  and  C4_4 
REMARK    2  A    between atoms: C4_4  and  C6_6 
REMARK    3  A    between atoms: C7_7  and  C8_8 
REMARK    4  A    between atoms: C8_8  and  C10_10 
REMARK    5  A    between atoms: C24_24  and  O1_25 
REMARK    6  A    between atoms: O1_25  and  C25_26 
REMARK    7  A    between atoms: C26_28  and  C27_29 
REMARK    8  A    between atoms: C27_29  and  O3_30 
REMARK    9  A    between atoms: C28_31  and  O4_32 
REMARK   10  A    between atoms: C29_33  and  O5_34 
REMARK   11  A    between atoms: C30_35  and  O6_36 
ROOT
HETATM    1  C10 UNL     1      -3.556   9.342  15.047  1.00  0.00     0.002 C 
HETATM    2  C11 UNL     1      -4.529   9.950  16.086  1.00  0.00     0.006 C 
HETATM    3  C12 UNL     1      -3.668  10.808  17.032  1.00  0.00     0.009 C 
HETATM    4  C13 UNL     1      -2.249  10.713  16.460  1.00  0.00     0.041 C 
HETATM    5  C14 UNL     1      -2.188   9.313  15.797  1.00  0.00    -0.029 C 
HETATM    6  C15 UNL     1      -2.082   8.161  16.818  1.00  0.00     0.016 C 
HETATM    7  C16 UNL     1      -0.950   9.289  14.870  1.00  0.00     0.037 C 
HETATM    8  C17 UNL     1       0.290   9.813  15.559  1.00  0.00    -0.019 C 
HETATM    9  C18 UNL     1       0.265  10.587  16.669  1.00  0.00    -0.030 C 
HETATM   10  C19 UNL     1      -1.041  11.076  17.330  1.00  0.00     0.142 C 
HETATM   11  C20 UNL     1      -1.073  10.649  18.786  1.00  0.00     0.018 C 
HETATM   12  C21 UNL     1      -0.018  11.078  19.508  1.00  0.00     0.014 C 
HETATM   13  C22 UNL     1       0.965  11.892  18.688  1.00  0.00     0.127 C 
HETATM   14  C23 UNL     1       2.086  12.488  19.544  1.00  0.00     0.078 C 
HETATM   15  C24 UNL     1       3.219  13.124  18.718  1.00  0.00     0.128 C 
HETATM   16  C31 UNL     1       2.918  13.240  17.223  1.00  0.00     0.033 C 
HETATM   17  C32 UNL     1       2.443  11.938  16.572  1.00  0.00     0.020 C 
HETATM   18  C33 UNL     1       1.510  11.063  17.456  1.00  0.00     0.021 C 
HETATM   19  C34 UNL     1       2.290   9.805  17.928  1.00  0.00     0.024 C 
HETATM   20  O7  UNL     1       0.173  13.010  18.194  1.00  0.00    -0.223 OA
HETATM   21  O8  UNL     1      -0.941  12.534  17.326  1.00  0.00    -0.219 OA
ENDROOT
BRANCH  15  22
HETATM   22  O1  UNL     1       4.386  12.323  18.926  1.00  0.00    -0.353 OA
BRANCH  22  23
HETATM   23  C25 UNL     1       4.696  12.074  20.302  1.00  0.00     0.292 C 
HETATM   24  O2  UNL     1       3.868  11.030  20.812  1.00  0.00    -0.348 OA
HETATM   25  C26 UNL     1       4.269  10.590  22.125  1.00  0.00     0.179 C 
HETATM   26  C28 UNL     1       4.802  11.750  23.010  1.00  0.00     0.180 C 
HETATM   27  C29 UNL     1       4.165  13.087  22.596  1.00  0.00     0.183 C 
HETATM   28  C30 UNL     1       4.438  13.379  21.100  1.00  0.00     0.204 C 
BRANCH  25  29
HETATM   29  C27 UNL     1       3.063   9.867  22.757  1.00  0.00     0.198 C 
BRANCH  29  30
HETATM   30  O3  UNL     1       3.248   9.588  24.140  1.00  0.00    -0.398 OA
HETATM   31  H39 UNL     1       3.412  10.419  24.615  1.00  0.00     0.209 HD
ENDBRANCH  29  30
ENDBRANCH  25  29
BRANCH  26  32
HETATM   32  O4  UNL     1       6.229  11.885  22.844  1.00  0.00    -0.390 OA
HETATM   33  H41 UNL     1       6.636  11.025  23.057  1.00  0.00     0.210 HD
ENDBRANCH  26  32
BRANCH  27  34
HETATM   34  O5  UNL     1       2.769  13.062  22.918  1.00  0.00    -0.390 OA
HETATM   35  H43 UNL     1       2.256  13.104  22.090  1.00  0.00     0.210 HD
ENDBRANCH  27  34
BRANCH  28  36
HETATM   36  O6  UNL     1       5.553  14.280  20.966  1.00  0.00    -0.388 OA
HETATM   37  H45 UNL     1       6.309  13.906  21.457  1.00  0.00     0.210 HD
ENDBRANCH  28  36
ENDBRANCH  22  23
ENDBRANCH  15  22
BRANCH   1  38
HETATM   38  C8  UNL     1      -4.048   8.081  14.294  1.00  0.00     0.008 C 
HETATM   39  C9  UNL     1      -4.539   8.462  12.888  1.00  0.00     0.014 C 
BRANCH  38  40
HETATM   40  C7  UNL     1      -5.143   7.283  14.960  1.00  0.00    -0.026 C 
HETATM   41  C6  UNL     1      -5.654   6.148  14.443  1.00  0.00    -0.026 C 
BRANCH  41  42
HETATM   42  C4  UNL     1      -6.783   5.357  15.068  1.00  0.00     0.007 C 
HETATM   43  C5  UNL     1      -7.437   6.210  16.160  1.00  0.00     0.014 C 
BRANCH  42  44
HETATM   44  C2  UNL     1      -7.780   4.837  13.991  1.00  0.00    -0.015 C 
HETATM   45  C1  UNL     1      -7.920   5.836  12.835  1.00  0.00     0.010 C 
HETATM   46  C3  UNL     1      -7.436   3.452  13.431  1.00  0.00     0.010 C 
ENDBRANCH  42  44
ENDBRANCH  41  42
ENDBRANCH  38  40
ENDBRANCH   1  38
TORSDOF 11
ENDMDL
MODEL 9
REMARK minimizedAffinity -9.8915863
REMARK CNNscore 0.145812467
REMARK CNNaffinity 6.36959982
REMARK  11 active torsions:
REMARK  status: ('A' for Active; 'I' for Inactive)
REMARK    1  A    between atoms: C2_2  and  C4_4 
REMARK    2  A    between atoms: C4_4  and  C6_6 
REMARK    3  A    between atoms: C7_7  and  C8_8 
REMARK    4  A    between atoms: C8_8  and  C10_10 
REMARK    5  A    between atoms: C24_24  and  O1_25 
REMARK    6  A    between atoms: O1_25  and  C25_26 
REMARK    7  A    between atoms: C26_28  and  C27_29 
REMARK    8  A    between atoms: C27_29  and  O3_30 
REMARK    9  A    between atoms: C28_31  and  O4_32 
REMARK   10  A    between atoms: C29_33  and  O5_34 
REMARK   11  A    between atoms: C30_35  and  O6_36 
ROOT
HETATM    1  C10 UNL     1      -5.758   7.805  14.304  1.00  0.00     0.002 C 
HETATM    2  C11 UNL     1      -5.785   8.894  15.404  1.00  0.00     0.006 C 
HETATM    3  C12 UNL     1      -4.343   9.422  15.522  1.00  0.00     0.009 C 
HETATM    4  C13 UNL     1      -3.561   8.665  14.443  1.00  0.00     0.041 C 
HETATM    5  C14 UNL     1      -4.281   7.298  14.325  1.00  0.00    -0.029 C 
HETATM    6  C15 UNL     1      -3.984   6.350  15.506  1.00  0.00     0.016 C 
HETATM    7  C16 UNL     1      -3.813   6.636  13.008  1.00  0.00     0.037 C 
HETATM    8  C17 UNL     1      -2.309   6.672  12.854  1.00  0.00    -0.019 C 
HETATM    9  C18 UNL     1      -1.502   7.519  13.533  1.00  0.00    -0.030 C 
HETATM   10  C19 UNL     1      -2.031   8.593  14.506  1.00  0.00     0.142 C 
HETATM   11  C20 UNL     1      -1.395   8.411  15.872  1.00  0.00     0.018 C 
HETATM   12  C21 UNL     1      -0.047   8.444  15.859  1.00  0.00     0.014 C 
HETATM   13  C22 UNL     1       0.524   8.654  14.469  1.00  0.00     0.127 C 
HETATM   14  C23 UNL     1       2.045   8.826  14.483  1.00  0.00     0.078 C 
HETATM   15  C24 UNL     1       2.679   8.814  13.080  1.00  0.00     0.128 C 
HETATM   16  C31 UNL     1       1.667   8.854  11.934  1.00  0.00     0.033 C 
HETATM   17  C32 UNL     1       0.559   7.801  12.034  1.00  0.00     0.020 C 
HETATM   18  C33 UNL     1       0.045   7.522  13.474  1.00  0.00     0.021 C 
HETATM   19  C34 UNL     1       0.546   6.125  13.931  1.00  0.00     0.024 C 
HETATM   20  O7  UNL     1      -0.040   9.929  14.046  1.00  0.00    -0.223 OA
HETATM   21  O8  UNL     1      -1.527   9.860  13.978  1.00  0.00    -0.219 OA
ENDROOT
BRANCH  15  22
HETATM   22  O1  UNL     1       3.477   7.629  12.995  1.00  0.00    -0.353 OA
BRANCH  22  23
HETATM   23  C25 UNL     1       4.825   7.789  13.448  1.00  0.00     0.292 C 
HETATM   24  O2  UNL     1       5.074   9.154  13.780  1.00  0.00    -0.348 OA
HETATM   25  C26 UNL     1       6.343   9.347  14.436  1.00  0.00     0.179 C 
HETATM   26  C28 UNL     1       7.448   8.396  13.899  1.00  0.00     0.180 C 
HETATM   27  C29 UNL     1       7.171   8.012  12.436  1.00  0.00     0.183 C 
HETATM   28  C30 UNL     1       5.776   7.351  12.303  1.00  0.00     0.204 C 
BRANCH  25  29
HETATM   29  C27 UNL     1       6.718  10.835  14.289  1.00  0.00     0.198 C 
BRANCH  29  30
HETATM   30  O3  UNL     1       5.902  11.692  15.077  1.00  0.00    -0.398 OA
HETATM   31  H39 UNL     1       5.972  11.432  16.011  1.00  0.00     0.209 HD
ENDBRANCH  29  30
ENDBRANCH  25  29
BRANCH  26  32
HETATM   32  O4  UNL     1       7.468   7.175  14.667  1.00  0.00    -0.390 OA
HETATM   33  H41 UNL     1       7.594   7.415  15.603  1.00  0.00     0.210 HD
ENDBRANCH  26  32
BRANCH  27  34
HETATM   34  O5  UNL     1       7.323   9.172  11.608  1.00  0.00    -0.390 OA
HETATM   35  H43 UNL     1       6.458   9.394  11.218  1.00  0.00     0.210 HD
ENDBRANCH  27  34
BRANCH  28  36
HETATM   36  O6  UNL     1       5.908   5.917  12.280  1.00  0.00    -0.388 OA
HETATM   37  H45 UNL     1       6.419   5.644  13.064  1.00  0.00     0.210 HD
ENDBRANCH  28  36
ENDBRANCH  22  23
ENDBRANCH  15  22
BRANCH   1  38
HETATM   38  C8  UNL     1      -6.922   6.783  14.313  1.00  0.00     0.008 C 
HETATM   39  C9  UNL     1      -7.728   6.913  15.617  1.00  0.00     0.014 C 
BRANCH  38  40
HETATM   40  C7  UNL     1      -6.546   5.331  14.151  1.00  0.00    -0.026 C 
HETATM   41  C6  UNL     1      -6.693   4.650  12.997  1.00  0.00    -0.026 C 
BRANCH  41  42
HETATM   42  C4  UNL     1      -6.367   3.182  12.823  1.00  0.00     0.007 C 
HETATM   43  C5  UNL     1      -7.672   2.380  12.855  1.00  0.00     0.014 C 
BRANCH  42  44
HETATM   44  C2  UNL     1      -5.505   2.936  11.551  1.00  0.00    -0.015 C 
HETATM   45  C1  UNL     1      -4.010   3.099  11.853  1.00  0.00     0.010 C 
HETATM   46  C3  UNL     1      -5.746   1.578  10.880  1.00  0.00     0.010 C 
ENDBRANCH  42  44
ENDBRANCH  41  42
ENDBRANCH  38  40
ENDBRANCH   1  38
TORSDOF 11
ENDMDL
