MODEL 1
REMARK minimizedAffinity -7.77999973
REMARK CNNscore 0.456726044
REMARK CNNaffinity 6.15082026
REMARK  2 active torsions:
REMARK  status: ('A' for Active; 'I' for Inactive)
REMARK    1  A    between atoms: C21_27  and  C22_28 
REMARK    2  A    between atoms: C22_28  and  O7_30 
ROOT
HETATM    1  C1  UNL     1       0.878  52.205 -13.953  1.00  0.00     0.043 C 
HETATM    2  C2  UNL     1       1.105  51.681 -12.556  1.00  0.00    -0.076 C 
HETATM    3  C3  UNL     1       1.929  52.370 -11.741  1.00  0.00     0.084 C 
HETATM    4  C4  UNL     1       2.366  52.022 -10.364  1.00  0.00     0.283 C 
HETATM    5  O1  UNL     1       2.128  51.002  -9.747  1.00  0.00    -0.260 OA
HETATM    6  O2  UNL     1       3.108  53.071  -9.929  1.00  0.00    -0.317 OA
HETATM    7  C5  UNL     1       3.606  53.007  -8.584  1.00  0.00     0.195 C 
HETATM    8  C6  UNL     1       4.198  54.417  -8.173  1.00  0.00     0.053 C 
HETATM    9  C7  UNL     1       4.351  54.380  -6.590  1.00  0.00     0.159 C 
HETATM   10  C8  UNL     1       5.671  54.772  -5.984  1.00  0.00     0.011 C 
HETATM   11  C9  UNL     1       6.797  54.943  -6.694  1.00  0.00    -0.054 C 
HETATM   12  C10 UNL     1       8.079  55.362  -6.030  1.00  0.00     0.046 C 
HETATM   13  C11 UNL     1       6.847  54.776  -8.149  1.00  0.00     0.180 A 
HETATM   14  O3  UNL     1       6.224  55.725  -9.017  1.00  0.00    -0.370 OA
HETATM   15  C12 UNL     1       5.564  54.462  -8.891  1.00  0.00     0.170 A 
HETATM   16  O4  UNL     1       3.326  55.074  -5.850  1.00  0.00    -0.372 OA
HETATM   17  C13 UNL     1       2.849  56.338  -6.340  1.00  0.00     0.162 C 
HETATM   18  C14 UNL     1       1.443  56.099  -6.881  1.00  0.00     0.068 C 
HETATM   19  C15 UNL     1       1.726  55.282  -8.159  1.00  0.00     0.147 C 
HETATM   20  O5  UNL     1       0.791  55.525  -9.217  1.00  0.00    -0.312 OA
HETATM   21  C16 UNL     1      -0.422  54.939  -9.026  1.00  0.00     0.283 C 
HETATM   22  O6  UNL     1      -0.905  54.635  -7.949  1.00  0.00    -0.260 OA
HETATM   23  C17 UNL     1      -0.977  54.611 -10.356  1.00  0.00     0.082 C 
HETATM   24  C18 UNL     1      -1.667  53.492 -10.640  1.00  0.00     0.006 C 
HETATM   25  C19 UNL     1      -2.066  52.467  -9.702  1.00  0.00    -0.001 C 
HETATM   26  C20 UNL     1      -2.520  51.230  -9.961  1.00  0.00     0.007 C 
HETATM   27  C21 UNL     1      -2.693  50.431 -11.228  1.00  0.00     0.172 C 
HETATM   28  O8  UNL     1      -1.966  50.998 -12.328  1.00  0.00    -0.379 OA
HETATM   29  C24 UNL     1      -0.955  50.130 -12.849  1.00  0.00     0.173 C 
HETATM   30  C25 UNL     1       0.413  50.376 -12.190  1.00  0.00     0.060 C 
HETATM   31  C26 UNL     1       3.240  55.631  -8.583  1.00  0.00     0.034 C 
HETATM   32  C27 UNL     1       3.324  56.085 -10.048  1.00  0.00     0.022 C 
HETATM   33  C28 UNL     1       3.513  56.750  -7.595  1.00  0.00     0.119 A 
HETATM   34  C29 UNL     1       3.686  58.218  -7.948  1.00  0.00     0.210 A 
HETATM   35  O9  UNL     1       4.776  57.390  -7.514  1.00  0.00    -0.371 OA
ENDROOT
BRANCH  27  36
HETATM   36  C22 UNL     1      -4.188  50.336 -11.632  1.00  0.00     0.146 C 
HETATM   37  C23 UNL     1      -5.107  50.337 -10.415  1.00  0.00     0.042 C 
BRANCH  36  38
HETATM   38  O7  UNL     1      -4.441  49.120 -12.349  1.00  0.00    -0.393 OA
HETATM   39  H27 UNL     1      -3.853  48.454 -11.941  1.00  0.00     0.210 HD
ENDBRANCH  36  38
ENDBRANCH  27  36
TORSDOF 2
ENDMDL
MODEL 2
REMARK minimizedAffinity -7.28812075
REMARK CNNscore 0.301534861
REMARK CNNaffinity 5.54475069
REMARK  2 active torsions:
REMARK  status: ('A' for Active; 'I' for Inactive)
REMARK    1  A    between atoms: C21_27  and  C22_28 
REMARK    2  A    between atoms: C22_28  and  O7_30 
ROOT
HETATM    1  C1  UNL     1       3.983  55.962  -3.080  1.00  0.00     0.043 C 
HETATM    2  C2  UNL     1       4.255  54.846  -4.058  1.00  0.00    -0.076 C 
HETATM    3  C3  UNL     1       3.255  54.453  -4.873  1.00  0.00     0.084 C 
HETATM    4  C4  UNL     1       3.252  53.340  -5.858  1.00  0.00     0.283 C 
HETATM    5  O1  UNL     1       4.127  52.518  -6.050  1.00  0.00    -0.260 OA
HETATM    6  O2  UNL     1       2.058  53.407  -6.498  1.00  0.00    -0.317 OA
HETATM    7  C5  UNL     1       1.827  52.463  -7.555  1.00  0.00     0.195 C 
HETATM    8  C6  UNL     1       0.521  52.872  -8.352  1.00  0.00     0.053 C 
HETATM    9  C7  UNL     1       0.562  52.042  -9.709  1.00  0.00     0.159 C 
HETATM   10  C8  UNL     1      -0.655  51.252 -10.106  1.00  0.00     0.011 C 
HETATM   11  C9  UNL     1      -1.697  51.023  -9.291  1.00  0.00    -0.054 C 
HETATM   12  C10 UNL     1      -2.896  50.248  -9.760  1.00  0.00     0.046 C 
HETATM   13  C11 UNL     1      -1.756  51.540  -7.921  1.00  0.00     0.180 A 
HETATM   14  O3  UNL     1      -1.941  52.935  -7.671  1.00  0.00    -0.370 OA
HETATM   15  C12 UNL     1      -0.628  52.421  -7.425  1.00  0.00     0.170 A 
HETATM   16  O4  UNL     1       0.987  52.776 -10.875  1.00  0.00    -0.372 OA
HETATM   17  C13 UNL     1       0.524  54.125 -11.054  1.00  0.00     0.162 C 
HETATM   18  C14 UNL     1       1.718  55.039 -10.794  1.00  0.00     0.068 C 
HETATM   19  C15 UNL     1       1.899  54.902  -9.268  1.00  0.00     0.147 C 
HETATM   20  O5  UNL     1       2.381  56.095  -8.637  1.00  0.00    -0.312 OA
HETATM   21  C16 UNL     1       3.705  56.331  -8.844  1.00  0.00     0.283 C 
HETATM   22  O6  UNL     1       4.362  55.926  -9.787  1.00  0.00    -0.260 OA
HETATM   23  C17 UNL     1       4.226  57.040  -7.656  1.00  0.00     0.082 C 
HETATM   24  C18 UNL     1       5.437  56.826  -7.111  1.00  0.00     0.006 C 
HETATM   25  C19 UNL     1       6.468  55.952  -7.622  1.00  0.00    -0.001 C 
HETATM   26  C20 UNL     1       7.571  55.509  -6.998  1.00  0.00     0.007 C 
HETATM   27  C21 UNL     1       8.096  55.648  -5.591  1.00  0.00     0.172 C 
HETATM   28  O8  UNL     1       7.084  56.096  -4.679  1.00  0.00    -0.379 OA
HETATM   29  C24 UNL     1       6.797  55.155  -3.640  1.00  0.00     0.173 C 
HETATM   30  C25 UNL     1       5.639  54.215  -4.016  1.00  0.00     0.060 C 
HETATM   31  C26 UNL     1       0.470  54.436  -8.691  1.00  0.00     0.034 C 
HETATM   32  C27 UNL     1      -0.005  55.352  -7.553  1.00  0.00     0.022 C 
HETATM   33  C28 UNL     1      -0.356  54.576  -9.956  1.00  0.00     0.119 A 
HETATM   34  C29 UNL     1      -1.439  55.617 -10.192  1.00  0.00     0.210 A 
HETATM   35  O9  UNL     1      -1.729  54.224 -10.000  1.00  0.00    -0.371 OA
ENDROOT
BRANCH  27  36
HETATM   36  C22 UNL     1       9.281  56.649  -5.531  1.00  0.00     0.146 C 
HETATM   37  C23 UNL     1      10.519  56.026  -4.896  1.00  0.00     0.042 C 
BRANCH  36  38
HETATM   38  O7  UNL     1       8.934  57.795  -4.742  1.00  0.00    -0.393 OA
HETATM   39  H27 UNL     1       8.360  57.452  -4.029  1.00  0.00     0.210 HD
ENDBRANCH  36  38
ENDBRANCH  27  36
TORSDOF 2
ENDMDL
MODEL 3
REMARK minimizedAffinity -6.98834944
REMARK CNNscore 0.261125445
REMARK CNNaffinity 5.14823294
REMARK  2 active torsions:
REMARK  status: ('A' for Active; 'I' for Inactive)
REMARK    1  A    between atoms: C21_27  and  C22_28 
REMARK    2  A    between atoms: C22_28  and  O7_30 
ROOT
HETATM    1  C1  UNL     1     -11.869  42.241 -26.281  1.00  0.00     0.043 C 
HETATM    2  C2  UNL     1     -13.172  42.774 -26.824  1.00  0.00    -0.076 C 
HETATM    3  C3  UNL     1     -14.250  42.773 -26.014  1.00  0.00     0.084 C 
HETATM    4  C4  UNL     1     -15.646  43.171 -26.335  1.00  0.00     0.283 C 
HETATM    5  O1  UNL     1     -16.094  43.491 -27.419  1.00  0.00    -0.260 OA
HETATM    6  O2  UNL     1     -16.338  43.089 -25.171  1.00  0.00    -0.317 OA
HETATM    7  C5  UNL     1     -17.718  43.484 -25.200  1.00  0.00     0.195 C 
HETATM    8  C6  UNL     1     -18.270  43.586 -23.719  1.00  0.00     0.053 C 
HETATM    9  C7  UNL     1     -19.635  44.396 -23.818  1.00  0.00     0.159 C 
HETATM   10  C8  UNL     1     -20.862  43.819 -23.168  1.00  0.00     0.011 C 
HETATM   11  C9  UNL     1     -20.939  42.566 -22.694  1.00  0.00    -0.054 C 
HETATM   12  C10 UNL     1     -22.189  42.060 -22.029  1.00  0.00     0.046 C 
HETATM   13  C11 UNL     1     -19.814  41.629 -22.754  1.00  0.00     0.180 A 
HETATM   14  O3  UNL     1     -18.664  41.811 -21.924  1.00  0.00    -0.370 OA
HETATM   15  C12 UNL     1     -18.491  42.113 -23.312  1.00  0.00     0.170 A 
HETATM   16  O4  UNL     1     -19.565  45.783 -23.431  1.00  0.00    -0.372 OA
HETATM   17  C13 UNL     1     -18.777  46.146 -22.285  1.00  0.00     0.162 C 
HETATM   18  C14 UNL     1     -17.536  46.861 -22.812  1.00  0.00     0.068 C 
HETATM   19  C15 UNL     1     -16.749  45.702 -23.459  1.00  0.00     0.147 C 
HETATM   20  O5  UNL     1     -15.327  45.856 -23.375  1.00  0.00    -0.312 OA
HETATM   21  C16 UNL     1     -14.820  46.776 -24.240  1.00  0.00     0.283 C 
HETATM   22  O6  UNL     1     -15.429  47.719 -24.714  1.00  0.00    -0.260 OA
HETATM   23  C17 UNL     1     -13.454  46.345 -24.604  1.00  0.00     0.082 C 
HETATM   24  C18 UNL     1     -12.921  46.460 -25.833  1.00  0.00     0.006 C 
HETATM   25  C19 UNL     1     -13.532  47.094 -26.980  1.00  0.00    -0.001 C 
HETATM   26  C20 UNL     1     -13.168  47.014 -28.270  1.00  0.00     0.007 C 
HETATM   27  C21 UNL     1     -12.120  46.219 -29.007  1.00  0.00     0.172 C 
HETATM   28  O8  UNL     1     -11.612  45.134 -28.219  1.00  0.00    -0.379 OA
HETATM   29  C24 UNL     1     -11.865  43.847 -28.791  1.00  0.00     0.173 C 
HETATM   30  C25 UNL     1     -13.178  43.233 -28.274  1.00  0.00     0.060 C 
HETATM   31  C26 UNL     1     -17.267  44.358 -22.740  1.00  0.00     0.034 C 
HETATM   32  C27 UNL     1     -16.098  43.528 -22.188  1.00  0.00     0.022 C 
HETATM   33  C28 UNL     1     -18.122  44.982 -21.652  1.00  0.00     0.119 A 
HETATM   34  C29 UNL     1     -17.807  44.968 -20.165  1.00  0.00     0.210 A 
HETATM   35  O9  UNL     1     -18.872  44.196 -20.741  1.00  0.00    -0.371 OA
ENDROOT
BRANCH  27  36
HETATM   36  C22 UNL     1     -10.924  47.117 -29.423  1.00  0.00     0.146 C 
HETATM   37  C23 UNL     1      -9.840  47.154 -28.351  1.00  0.00     0.042 C 
BRANCH  36  38
HETATM   38  O7  UNL     1     -11.356  48.469 -29.632  1.00  0.00    -0.393 OA
HETATM   39  H27 UNL     1     -12.059  48.618 -28.968  1.00  0.00     0.210 HD
ENDBRANCH  36  38
ENDBRANCH  27  36
TORSDOF 2
ENDMDL
MODEL 4
REMARK minimizedAffinity -7.11501932
REMARK CNNscore 0.235884637
REMARK CNNaffinity 5.86675835
REMARK  2 active torsions:
REMARK  status: ('A' for Active; 'I' for Inactive)
REMARK    1  A    between atoms: C21_27  and  C22_28 
REMARK    2  A    between atoms: C22_28  and  O7_30 
ROOT
HETATM    1  C1  UNL     1       1.435  52.196 -15.596  1.00  0.00     0.043 C 
HETATM    2  C2  UNL     1       1.868  51.383 -14.402  1.00  0.00    -0.076 C 
HETATM    3  C3  UNL     1       2.438  52.026 -13.363  1.00  0.00     0.084 C 
HETATM    4  C4  UNL     1       3.010  51.445 -12.120  1.00  0.00     0.283 C 
HETATM    5  O1  UNL     1       3.148  50.268 -11.848  1.00  0.00    -0.260 OA
HETATM    6  O2  UNL     1       3.370  52.498 -11.344  1.00  0.00    -0.317 OA
HETATM    7  C5  UNL     1       3.903  52.201 -10.044  1.00  0.00     0.195 C 
HETATM    8  C6  UNL     1       4.000  53.535  -9.196  1.00  0.00     0.053 C 
HETATM    9  C7  UNL     1       4.206  53.077  -7.686  1.00  0.00     0.159 C 
HETATM   10  C8  UNL     1       5.336  53.680  -6.899  1.00  0.00     0.011 C 
HETATM   11  C9  UNL     1       6.317  54.417  -7.443  1.00  0.00    -0.054 C 
HETATM   12  C10 UNL     1       7.404  55.015  -6.594  1.00  0.00     0.046 C 
HETATM   13  C11 UNL     1       6.374  54.721  -8.876  1.00  0.00     0.180 A 
HETATM   14  O3  UNL     1       5.442  55.626  -9.471  1.00  0.00    -0.370 OA
HETATM   15  C12 UNL     1       5.248  54.240  -9.768  1.00  0.00     0.170 A 
HETATM   16  O4  UNL     1       3.031  53.138  -6.852  1.00  0.00    -0.372 OA
HETATM   17  C13 UNL     1       2.143  54.260  -6.984  1.00  0.00     0.162 C 
HETATM   18  C14 UNL     1       0.882  53.745  -7.672  1.00  0.00     0.068 C 
HETATM   19  C15 UNL     1       1.383  53.491  -9.109  1.00  0.00     0.147 C 
HETATM   20  O5  UNL     1       0.387  53.719 -10.115  1.00  0.00    -0.312 OA
HETATM   21  C16 UNL     1      -0.551  52.737 -10.192  1.00  0.00     0.283 C 
HETATM   22  O6  UNL     1      -0.871  51.983  -9.290  1.00  0.00    -0.260 OA
HETATM   23  C17 UNL     1      -1.006  52.660 -11.597  1.00  0.00     0.082 C 
HETATM   24  C18 UNL     1      -1.289  51.516 -12.245  1.00  0.00     0.006 C 
HETATM   25  C19 UNL     1      -1.291  50.186 -11.681  1.00  0.00    -0.001 C 
HETATM   26  C20 UNL     1      -1.311  49.007 -12.323  1.00  0.00     0.007 C 
HETATM   27  C21 UNL     1      -1.246  48.615 -13.778  1.00  0.00     0.172 C 
HETATM   28  O8  UNL     1      -0.786  49.691 -14.607  1.00  0.00    -0.379 OA
HETATM   29  C24 UNL     1       0.440  49.404 -15.285  1.00  0.00     0.173 C 
HETATM   30  C25 UNL     1       1.667  49.877 -14.485  1.00  0.00     0.060 C 
HETATM   31  C26 UNL     1       2.677  54.429  -9.301  1.00  0.00     0.034 C 
HETATM   32  C27 UNL     1       2.558  55.303 -10.559  1.00  0.00     0.022 C 
HETATM   33  C28 UNL     1       2.590  55.224  -8.011  1.00  0.00     0.119 A 
HETATM   34  C29 UNL     1       2.249  56.702  -7.906  1.00  0.00     0.210 A 
HETATM   35  O9  UNL     1       3.566  56.189  -7.654  1.00  0.00    -0.371 OA
ENDROOT
BRANCH  27  36
HETATM   36  C22 UNL     1      -2.634  48.159 -14.299  1.00  0.00     0.146 C 
HETATM   37  C23 UNL     1      -2.513  47.252 -15.519  1.00  0.00     0.042 C 
BRANCH  36  38
HETATM   38  O7  UNL     1      -3.423  49.290 -14.693  1.00  0.00    -0.393 OA
HETATM   39  H27 UNL     1      -2.785  49.929 -15.068  1.00  0.00     0.210 HD
ENDBRANCH  36  38
ENDBRANCH  27  36
TORSDOF 2
ENDMDL
MODEL 5
REMARK minimizedAffinity -7.70719624
REMARK CNNscore 0.223816141
REMARK CNNaffinity 5.10612488
REMARK  2 active torsions:
REMARK  status: ('A' for Active; 'I' for Inactive)
REMARK    1  A    between atoms: C21_27  and  C22_28 
REMARK    2  A    between atoms: C22_28  and  O7_30 
ROOT
HETATM    1  C1  UNL     1     -10.360  42.958 -26.699  1.00  0.00     0.043 C 
HETATM    2  C2  UNL     1     -11.337  43.758 -27.525  1.00  0.00    -0.076 C 
HETATM    3  C3  UNL     1     -12.652  43.481 -27.405  1.00  0.00     0.084 C 
HETATM    4  C4  UNL     1     -13.790  44.070 -28.156  1.00  0.00     0.283 C 
HETATM    5  O1  UNL     1     -13.739  44.853 -29.085  1.00  0.00    -0.260 OA
HETATM    6  O2  UNL     1     -14.915  43.543 -27.610  1.00  0.00    -0.317 OA
HETATM    7  C5  UNL     1     -16.172  44.004 -28.127  1.00  0.00     0.195 C 
HETATM    8  C6  UNL     1     -17.346  43.497 -27.192  1.00  0.00     0.053 C 
HETATM    9  C7  UNL     1     -18.622  44.360 -27.589  1.00  0.00     0.159 C 
HETATM   10  C8  UNL     1     -19.907  43.644 -27.898  1.00  0.00     0.011 C 
HETATM   11  C9  UNL     1     -20.000  42.316 -28.074  1.00  0.00    -0.054 C 
HETATM   12  C10 UNL     1     -21.323  41.659 -28.354  1.00  0.00     0.046 C 
HETATM   13  C11 UNL     1     -18.843  41.424 -27.967  1.00  0.00     0.180 A 
HETATM   14  O3  UNL     1     -18.240  41.155 -26.700  1.00  0.00    -0.370 OA
HETATM   15  C12 UNL     1     -17.502  42.011 -27.578  1.00  0.00     0.170 A 
HETATM   16  O4  UNL     1     -18.947  45.439 -26.689  1.00  0.00    -0.372 OA
HETATM   17  C13 UNL     1     -18.832  45.223 -25.273  1.00  0.00     0.162 C 
HETATM   18  C14 UNL     1     -17.612  46.010 -24.804  1.00  0.00     0.068 C 
HETATM   19  C15 UNL     1     -16.451  45.191 -25.406  1.00  0.00     0.147 C 
HETATM   20  O5  UNL     1     -15.264  45.199 -24.603  1.00  0.00    -0.312 OA
HETATM   21  C16 UNL     1     -14.566  46.365 -24.663  1.00  0.00     0.283 C 
HETATM   22  O6  UNL     1     -15.028  47.458 -24.939  1.00  0.00    -0.260 OA
HETATM   23  C17 UNL     1     -13.136  46.042 -24.474  1.00  0.00     0.082 C 
HETATM   24  C18 UNL     1     -12.126  46.637 -25.133  1.00  0.00     0.006 C 
HETATM   25  C19 UNL     1     -12.237  47.741 -26.061  1.00  0.00    -0.001 C 
HETATM   26  C20 UNL     1     -11.319  48.198 -26.927  1.00  0.00     0.007 C 
HETATM   27  C21 UNL     1      -9.943  47.728 -27.328  1.00  0.00     0.172 C 
HETATM   28  O8  UNL     1      -9.692  46.378 -26.913  1.00  0.00    -0.379 OA
HETATM   29  C24 UNL     1      -9.458  45.482 -28.003  1.00  0.00     0.173 C 
HETATM   30  C25 UNL     1     -10.752  44.794 -28.473  1.00  0.00     0.060 C 
HETATM   31  C26 UNL     1     -17.028  43.706 -25.637  1.00  0.00     0.034 C 
HETATM   32  C27 UNL     1     -16.128  42.644 -24.989  1.00  0.00     0.022 C 
HETATM   33  C28 UNL     1     -18.368  43.859 -24.941  1.00  0.00     0.119 A 
HETATM   34  C29 UNL     1     -18.767  43.188 -23.636  1.00  0.00     0.210 A 
HETATM   35  O9  UNL     1     -19.322  42.810 -24.905  1.00  0.00    -0.371 OA
ENDROOT
BRANCH  27  36
HETATM   36  C22 UNL     1      -8.841  48.636 -26.720  1.00  0.00     0.146 C 
HETATM   37  C23 UNL     1      -8.251  48.039 -25.447  1.00  0.00     0.042 C 
BRANCH  36  38
HETATM   38  O7  UNL     1      -9.378  49.920 -26.374  1.00  0.00    -0.393 OA
HETATM   39  H27 UNL     1     -10.290  49.742 -26.070  1.00  0.00     0.210 HD
ENDBRANCH  36  38
ENDBRANCH  27  36
TORSDOF 2
ENDMDL
MODEL 6
REMARK minimizedAffinity -6.94659281
REMARK CNNscore 0.18112278
REMARK CNNaffinity 5.73440409
REMARK  2 active torsions:
REMARK  status: ('A' for Active; 'I' for Inactive)
REMARK    1  A    between atoms: C21_27  and  C22_28 
REMARK    2  A    between atoms: C22_28  and  O7_30 
ROOT
HETATM    1  C1  UNL     1      -2.593  51.855 -14.017  1.00  0.00     0.043 C 
HETATM    2  C2  UNL     1      -1.570  51.122 -13.185  1.00  0.00    -0.076 C 
HETATM    3  C3  UNL     1      -0.631  51.845 -12.542  1.00  0.00     0.084 C 
HETATM    4  C4  UNL     1       0.516  51.357 -11.732  1.00  0.00     0.283 C 
HETATM    5  O1  UNL     1       0.871  50.206 -11.570  1.00  0.00    -0.260 OA
HETATM    6  O2  UNL     1       1.109  52.462 -11.216  1.00  0.00    -0.317 OA
HETATM    7  C5  UNL     1       2.224  52.256 -10.335  1.00  0.00     0.195 C 
HETATM    8  C6  UNL     1       2.597  53.622  -9.626  1.00  0.00     0.053 C 
HETATM    9  C7  UNL     1       3.541  53.236  -8.406  1.00  0.00     0.159 C 
HETATM   10  C8  UNL     1       4.852  53.957  -8.253  1.00  0.00     0.011 C 
HETATM   11  C9  UNL     1       5.382  54.752  -9.195  1.00  0.00    -0.054 C 
HETATM   12  C10 UNL     1       6.685  55.467  -8.968  1.00  0.00     0.046 C 
HETATM   13  C11 UNL     1       4.718  55.009 -10.476  1.00  0.00     0.180 A 
HETATM   14  O3  UNL     1       3.539  55.814 -10.542  1.00  0.00    -0.370 OA
HETATM   15  C12 UNL     1       3.350  54.407 -10.722  1.00  0.00     0.170 A 
HETATM   16  O4  UNL     1       2.910  53.230  -7.109  1.00  0.00    -0.372 OA
HETATM   17  C13 UNL     1       1.972  54.270  -6.788  1.00  0.00     0.162 C 
HETATM   18  C14 UNL     1       0.587  53.630  -6.790  1.00  0.00     0.068 C 
HETATM   19  C15 UNL     1       0.357  53.367  -8.293  1.00  0.00     0.147 C 
HETATM   20  O5  UNL     1      -1.014  53.478  -8.694  1.00  0.00    -0.312 OA
HETATM   21  C16 UNL     1      -1.784  52.420  -8.319  1.00  0.00     0.283 C 
HETATM   22  O6  UNL     1      -1.563  51.675  -7.381  1.00  0.00    -0.260 OA
HETATM   23  C17 UNL     1      -2.847  52.257  -9.333  1.00  0.00     0.082 C 
HETATM   24  C18 UNL     1      -3.304  51.072  -9.776  1.00  0.00     0.006 C 
HETATM   25  C19 UNL     1      -2.917  49.767  -9.291  1.00  0.00    -0.001 C 
HETATM   26  C20 UNL     1      -3.138  48.568  -9.854  1.00  0.00     0.007 C 
HETATM   27  C21 UNL     1      -3.744  48.132 -11.165  1.00  0.00     0.172 C 
HETATM   28  O8  UNL     1      -3.836  49.213 -12.104  1.00  0.00    -0.379 OA
HETATM   29  C24 UNL     1      -3.064  49.004 -13.290  1.00  0.00     0.173 C 
HETATM   30  C25 UNL     1      -1.652  49.602 -13.174  1.00  0.00     0.060 C 
HETATM   31  C26 UNL     1       1.312  54.401  -9.075  1.00  0.00     0.034 C 
HETATM   32  C27 UNL     1       0.528  55.218 -10.113  1.00  0.00     0.022 C 
HETATM   33  C28 UNL     1       1.784  55.231  -7.895  1.00  0.00     0.119 A 
HETATM   34  C29 UNL     1       1.406  56.679  -7.626  1.00  0.00     0.210 A 
HETATM   35  O9  UNL     1       2.722  56.284  -8.044  1.00  0.00    -0.371 OA
ENDROOT
BRANCH  27  36
HETATM   36  C22 UNL     1      -5.166  47.546 -10.959  1.00  0.00     0.146 C 
HETATM   37  C23 UNL     1      -6.253  48.571 -11.262  1.00  0.00     0.042 C 
BRANCH  36  38
HETATM   38  O7  UNL     1      -5.348  47.129  -9.598  1.00  0.00    -0.393 OA
HETATM   39  H27 UNL     1      -4.847  47.776  -9.063  1.00  0.00     0.210 HD
ENDBRANCH  36  38
ENDBRANCH  27  36
TORSDOF 2
ENDMDL
MODEL 7
REMARK minimizedAffinity -6.79538155
REMARK CNNscore 0.169780344
REMARK CNNaffinity 5.17650652
REMARK  2 active torsions:
REMARK  status: ('A' for Active; 'I' for Inactive)
REMARK    1  A    between atoms: C21_27  and  C22_28 
REMARK    2  A    between atoms: C22_28  and  O7_30 
ROOT
HETATM    1  C1  UNL     1      -9.117  47.267 -20.532  1.00  0.00     0.043 C 
HETATM    2  C2  UNL     1      -8.516  46.360 -21.577  1.00  0.00    -0.076 C 
HETATM    3  C3  UNL     1      -9.331  45.843 -22.520  1.00  0.00     0.084 C 
HETATM    4  C4  UNL     1      -8.996  44.877 -23.598  1.00  0.00     0.283 C 
HETATM    5  O1  UNL     1      -7.940  44.303 -23.776  1.00  0.00    -0.260 OA
HETATM    6  O2  UNL     1     -10.121  44.742 -24.344  1.00  0.00    -0.317 OA
HETATM    7  C5  UNL     1     -10.042  43.894 -25.501  1.00  0.00     0.195 C 
HETATM    8  C6  UNL     1     -11.344  44.082 -26.383  1.00  0.00     0.053 C 
HETATM    9  C7  UNL     1     -11.006  43.440 -27.799  1.00  0.00     0.159 C 
HETATM   10  C8  UNL     1     -11.968  42.445 -28.386  1.00  0.00     0.011 C 
HETATM   11  C9  UNL     1     -12.984  41.894 -27.703  1.00  0.00    -0.054 C 
HETATM   12  C10 UNL     1     -13.927  40.924 -28.358  1.00  0.00     0.046 C 
HETATM   13  C11 UNL     1     -13.266  42.227 -26.304  1.00  0.00     0.180 A 
HETATM   14  O3  UNL     1     -13.794  43.506 -25.947  1.00  0.00    -0.370 OA
HETATM   15  C12 UNL     1     -12.420  43.281 -25.620  1.00  0.00     0.170 A 
HETATM   16  O4  UNL     1     -10.680  44.379 -28.845  1.00  0.00    -0.372 OA
HETATM   17  C13 UNL     1     -11.434  45.598 -28.945  1.00  0.00     0.162 C 
HETATM   18  C14 UNL     1     -10.513  46.724 -28.485  1.00  0.00     0.068 C 
HETATM   19  C15 UNL     1     -10.420  46.462 -26.967  1.00  0.00     0.147 C 
HETATM   20  O5  UNL     1     -10.283  47.655 -26.185  1.00  0.00    -0.312 OA
HETATM   21  C16 UNL     1      -9.041  48.208 -26.237  1.00  0.00     0.283 C 
HETATM   22  O6  UNL     1      -8.238  48.071 -27.144  1.00  0.00    -0.260 OA
HETATM   23  C17 UNL     1      -8.793  48.879 -24.944  1.00  0.00     0.082 C 
HETATM   24  C18 UNL     1      -7.611  48.887 -24.303  1.00  0.00     0.006 C 
HETATM   25  C19 UNL     1      -6.367  48.333 -24.787  1.00  0.00    -0.001 C 
HETATM   26  C20 UNL     1      -5.240  48.085 -24.100  1.00  0.00     0.007 C 
HETATM   27  C21 UNL     1      -4.871  48.182 -22.641  1.00  0.00     0.172 C 
HETATM   28  O8  UNL     1      -6.026  48.282 -21.796  1.00  0.00    -0.379 OA
HETATM   29  C24 UNL     1      -6.159  47.190 -20.882  1.00  0.00     0.173 C 
HETATM   30  C25 UNL     1      -7.030  46.059 -21.456  1.00  0.00     0.060 C 
HETATM   31  C26 UNL     1     -11.737  45.621 -26.580  1.00  0.00     0.034 C 
HETATM   32  C27 UNL     1     -12.500  46.272 -25.417  1.00  0.00     0.022 C 
HETATM   33  C28 UNL     1     -12.476  45.711 -27.903  1.00  0.00     0.119 A 
HETATM   34  C29 UNL     1     -13.754  46.497 -28.149  1.00  0.00     0.210 A 
HETATM   35  O9  UNL     1     -13.719  45.063 -28.116  1.00  0.00    -0.371 OA
ENDROOT
BRANCH  27  36
HETATM   36  C22 UNL     1      -3.964  49.413 -22.372  1.00  0.00     0.146 C 
HETATM   37  C23 UNL     1      -2.618  49.292 -23.079  1.00  0.00     0.042 C 
BRANCH  36  38
HETATM   38  O7  UNL     1      -3.693  49.543 -20.970  1.00  0.00    -0.393 OA
HETATM   39  H27 UNL     1      -3.631  48.627 -20.634  1.00  0.00     0.210 HD
ENDBRANCH  36  38
ENDBRANCH  27  36
TORSDOF 2
ENDMDL
MODEL 8
REMARK minimizedAffinity -6.81685591
REMARK CNNscore 0.161311433
REMARK CNNaffinity 5.45159864
REMARK  2 active torsions:
REMARK  status: ('A' for Active; 'I' for Inactive)
REMARK    1  A    between atoms: C21_27  and  C22_28 
REMARK    2  A    between atoms: C22_28  and  O7_30 
ROOT
HETATM    1  C1  UNL     1       0.371  51.340 -15.784  1.00  0.00     0.043 C 
HETATM    2  C2  UNL     1       1.202  50.823 -14.635  1.00  0.00    -0.076 C 
HETATM    3  C3  UNL     1       1.548  51.686 -13.658  1.00  0.00     0.084 C 
HETATM    4  C4  UNL     1       2.413  51.440 -12.475  1.00  0.00     0.283 C 
HETATM    5  O1  UNL     1       3.044  50.434 -12.215  1.00  0.00    -0.260 OA
HETATM    6  O2  UNL     1       2.379  52.580 -11.740  1.00  0.00    -0.317 OA
HETATM    7  C5  UNL     1       3.098  52.581 -10.498  1.00  0.00     0.195 C 
HETATM    8  C6  UNL     1       2.715  53.873  -9.666  1.00  0.00     0.053 C 
HETATM    9  C7  UNL     1       3.221  53.602  -8.183  1.00  0.00     0.159 C 
HETATM   10  C8  UNL     1       4.070  54.646  -7.510  1.00  0.00     0.011 C 
HETATM   11  C9  UNL     1       4.612  55.694  -8.149  1.00  0.00    -0.054 C 
HETATM   12  C10 UNL     1       5.429  56.718  -7.411  1.00  0.00     0.046 C 
HETATM   13  C11 UNL     1       4.414  55.934  -9.581  1.00  0.00     0.180 A 
HETATM   14  O3  UNL     1       3.145  56.357 -10.085  1.00  0.00    -0.370 OA
HETATM   15  C12 UNL     1       3.510  55.000 -10.359  1.00  0.00     0.170 A 
HETATM   16  O4  UNL     1       2.202  53.216  -7.239  1.00  0.00    -0.372 OA
HETATM   17  C13 UNL     1       0.925  53.873  -7.286  1.00  0.00     0.162 C 
HETATM   18  C14 UNL     1      -0.070  52.861  -7.847  1.00  0.00     0.068 C 
HETATM   19  C15 UNL     1       0.363  52.772  -9.326  1.00  0.00     0.147 C 
HETATM   20  O5  UNL     1      -0.723  52.533 -10.230  1.00  0.00    -0.312 OA
HETATM   21  C16 UNL     1      -1.181  51.252 -10.214  1.00  0.00     0.283 C 
HETATM   22  O6  UNL     1      -1.083  50.472  -9.283  1.00  0.00    -0.260 OA
HETATM   23  C17 UNL     1      -1.685  50.938 -11.567  1.00  0.00     0.082 C 
HETATM   24  C18 UNL     1      -1.531  49.752 -12.183  1.00  0.00     0.006 C 
HETATM   25  C19 UNL     1      -0.940  48.561 -11.617  1.00  0.00    -0.001 C 
HETATM   26  C20 UNL     1      -0.533  47.449 -12.251  1.00  0.00     0.007 C 
HETATM   27  C21 UNL     1      -0.440  47.058 -13.704  1.00  0.00     0.172 C 
HETATM   28  O8  UNL     1      -0.536  48.192 -14.577  1.00  0.00    -0.379 OA
HETATM   29  C24 UNL     1       0.636  48.400 -15.370  1.00  0.00     0.173 C 
HETATM   30  C25 UNL     1       1.628  49.364 -14.694  1.00  0.00     0.060 C 
HETATM   31  C26 UNL     1       1.138  54.147  -9.645  1.00  0.00     0.034 C 
HETATM   32  C27 UNL     1       0.562  54.844 -10.887  1.00  0.00     0.022 C 
HETATM   33  C28 UNL     1       0.847  54.891  -8.355  1.00  0.00     0.119 A 
HETATM   34  C29 UNL     1      -0.057  56.105  -8.220  1.00  0.00     0.210 A 
HETATM   35  O9  UNL     1       1.371  56.184  -8.097  1.00  0.00    -0.371 OA
ENDROOT
BRANCH  27  36
HETATM   36  C22 UNL     1      -1.561  46.054 -14.088  1.00  0.00     0.146 C 
HETATM   37  C23 UNL     1      -1.622  44.875 -13.122  1.00  0.00     0.042 C 
BRANCH  36  38
HETATM   38  O7  UNL     1      -1.330  45.516 -15.396  1.00  0.00    -0.393 OA
HETATM   39  H27 UNL     1      -0.359  45.439 -15.475  1.00  0.00     0.210 HD
ENDBRANCH  36  38
ENDBRANCH  27  36
TORSDOF 2
ENDMDL
MODEL 9
REMARK minimizedAffinity -7.1780982
REMARK CNNscore 0.158120692
REMARK CNNaffinity 4.81389284
REMARK  2 active torsions:
REMARK  status: ('A' for Active; 'I' for Inactive)
REMARK    1  A    between atoms: C21_27  and  C22_28 
REMARK    2  A    between atoms: C22_28  and  O7_30 
ROOT
HETATM    1  C1  UNL     1     -18.445  46.212 -22.168  1.00  0.00     0.043 C 
HETATM    2  C2  UNL     1     -18.443  45.873 -23.638  1.00  0.00    -0.076 C 
HETATM    3  C3  UNL     1     -17.299  46.042 -24.332  1.00  0.00     0.084 C 
HETATM    4  C4  UNL     1     -17.067  45.852 -25.787  1.00  0.00     0.283 C 
HETATM    5  O1  UNL     1     -17.892  45.591 -26.641  1.00  0.00    -0.260 OA
HETATM    6  O2  UNL     1     -15.739  46.048 -25.985  1.00  0.00    -0.317 OA
HETATM    7  C5  UNL     1     -15.241  45.861 -27.318  1.00  0.00     0.195 C 
HETATM    8  C6  UNL     1     -13.657  45.858 -27.295  1.00  0.00     0.053 C 
HETATM    9  C7  UNL     1     -13.202  45.259 -28.696  1.00  0.00     0.159 C 
HETATM   10  C8  UNL     1     -12.189  46.017 -29.509  1.00  0.00     0.011 C 
HETATM   11  C9  UNL     1     -11.801  47.273 -29.237  1.00  0.00    -0.054 C 
HETATM   12  C10 UNL     1     -10.763  47.965 -30.075  1.00  0.00     0.046 C 
HETATM   13  C11 UNL     1     -12.325  48.032 -28.098  1.00  0.00     0.180 A 
HETATM   14  O3  UNL     1     -11.959  47.690 -26.760  1.00  0.00    -0.370 OA
HETATM   15  C12 UNL     1     -13.293  47.352 -27.151  1.00  0.00     0.170 A 
HETATM   16  O4  UNL     1     -12.778  43.880 -28.675  1.00  0.00    -0.372 OA
HETATM   17  C13 UNL     1     -11.975  43.417 -27.577  1.00  0.00     0.162 C 
HETATM   18  C14 UNL     1     -12.869  42.520 -26.725  1.00  0.00     0.068 C 
HETATM   19  C15 UNL     1     -13.830  43.542 -26.084  1.00  0.00     0.147 C 
HETATM   20  O5  UNL     1     -14.258  43.181 -24.764  1.00  0.00    -0.312 OA
HETATM   21  C16 UNL     1     -15.186  42.187 -24.740  1.00  0.00     0.283 C 
HETATM   22  O6  UNL     1     -15.346  41.340 -25.601  1.00  0.00    -0.260 OA
HETATM   23  C17 UNL     1     -16.048  42.406 -23.559  1.00  0.00     0.082 C 
HETATM   24  C18 UNL     1     -17.377  42.200 -23.536  1.00  0.00     0.006 C 
HETATM   25  C19 UNL     1     -18.181  41.653 -24.605  1.00  0.00    -0.001 C 
HETATM   26  C20 UNL     1     -19.517  41.663 -24.734  1.00  0.00     0.007 C 
HETATM   27  C21 UNL     1     -20.633  42.287 -23.934  1.00  0.00     0.172 C 
HETATM   28  O8  UNL     1     -20.154  43.293 -23.032  1.00  0.00    -0.379 OA
HETATM   29  C24 UNL     1     -20.677  44.597 -23.303  1.00  0.00     0.173 C 
HETATM   30  C25 UNL     1     -19.760  45.405 -24.238  1.00  0.00     0.060 C 
HETATM   31  C26 UNL     1     -13.060  44.956 -26.115  1.00  0.00     0.034 C 
HETATM   32  C27 UNL     1     -13.024  45.609 -24.725  1.00  0.00     0.022 C 
HETATM   33  C28 UNL     1     -11.699  44.477 -26.585  1.00  0.00     0.119 A 
HETATM   34  C29 UNL     1     -10.431  44.459 -25.747  1.00  0.00     0.210 A 
HETATM   35  O9  UNL     1     -10.630  45.375 -26.834  1.00  0.00    -0.371 OA
ENDROOT
BRANCH  27  36
HETATM   36  C22 UNL     1     -21.396  41.217 -23.108  1.00  0.00     0.146 C 
HETATM   37  C23 UNL     1     -21.990  40.130 -23.997  1.00  0.00     0.042 C 
BRANCH  36  38
HETATM   38  O7  UNL     1     -22.484  41.815 -22.390  1.00  0.00    -0.393 OA
HETATM   39  H27 UNL     1     -22.822  42.521 -22.977  1.00  0.00     0.210 HD
ENDBRANCH  36  38
ENDBRANCH  27  36
TORSDOF 2
ENDMDL
