MODEL 1
REMARK minimizedAffinity -7.96594143
REMARK  10 active torsions:
REMARK  status: ('A' for Active; 'I' for Inactive)
REMARK    1  A    between atoms: C5_5  and  C6_6 
REMARK    2  A    between atoms: C6_6  and  C8_8 
REMARK    3  A    between atoms: C8_8  and  O1_9 
REMARK    4  A    between atoms: O1_9  and  C9_10 
REMARK    5  A    between atoms: C14_17  and  O4_18 
REMARK    6  A    between atoms: C17_21  and  O5_22 
REMARK    7  A    between atoms: C20_25  and  O6_27 
REMARK    8  A    between atoms: O6_27  and  C22_28 
REMARK    9  A    between atoms: C22_28  and  C23_30 
REMARK   10  A    between atoms: C23_30  and  C24_31 
ROOT
HETATM    1  C1  UNL     1      -5.608  52.243 -23.377  1.00  0.00     0.015 C 
HETATM    2  C2  UNL     1      -4.545  51.620 -23.915  1.00  0.00    -0.082 C 
HETATM    3  C3  UNL     1      -3.979  52.118 -25.223  1.00  0.00     0.034 C 
HETATM    4  C4  UNL     1      -2.498  51.768 -25.389  1.00  0.00     0.010 C 
HETATM    5  C5  UNL     1      -1.714  51.876 -24.062  1.00  0.00    -0.001 C 
HETATM    6  C11 UNL     1      -2.335  50.919 -22.994  1.00  0.00     0.033 C 
HETATM    7  C12 UNL     1      -2.511  51.487 -21.562  1.00  0.00     0.162 C 
HETATM    8  O3  UNL     1      -3.556  50.700 -20.935  1.00  0.00    -0.373 OA
HETATM    9  C13 UNL     1      -4.242  49.928 -21.944  1.00  0.00     0.163 C 
HETATM   10  C14 UNL     1      -3.967  48.412 -21.708  1.00  0.00     0.178 C 
HETATM   11  C15 UNL     1      -2.552  48.028 -21.306  1.00  0.00    -0.030 C 
HETATM   12  C16 UNL     1      -1.760  47.316 -22.130  1.00  0.00     0.019 C 
HETATM   13  C17 UNL     1      -2.118  48.419 -19.906  1.00  0.00     0.149 C 
HETATM   14  C18 UNL     1      -0.743  49.068 -19.742  1.00  0.00     0.039 C 
HETATM   15  C19 UNL     1      -0.377  50.280 -20.606  1.00  0.00     0.044 C 
HETATM   16  C20 UNL     1      -1.261  51.568 -20.624  1.00  0.00     0.093 C 
HETATM   17  C21 UNL     1      -1.660  51.928 -19.178  1.00  0.00     0.049 C 
HETATM   18  C26 UNL     1      -3.768  50.459 -23.304  1.00  0.00     0.052 C 
ENDROOT
BRANCH   5  19
HETATM   19  C6  UNL     1      -0.178  51.636 -24.253  1.00  0.00     0.010 C 
HETATM   20  C7  UNL     1       0.170  50.734 -25.444  1.00  0.00     0.012 C 
BRANCH  19  21
HETATM   21  C8  UNL     1       0.631  52.953 -24.296  1.00  0.00     0.183 C 
BRANCH  21  22
HETATM   22  O1  UNL     1       1.035  53.324 -25.622  1.00  0.00    -0.321 OA
BRANCH  22  23
HETATM   23  C9  UNL     1       0.317  54.304 -26.231  1.00  0.00     0.254 C 
HETATM   24  C10 UNL     1      -0.245  53.799 -27.522  1.00  0.00     0.126 C 
HETATM   25  O2  UNL     1       0.141  55.438 -25.805  1.00  0.00    -0.266 OA
ENDBRANCH  22  23
ENDBRANCH  21  22
ENDBRANCH  19  21
ENDBRANCH   5  19
BRANCH  16  26
HETATM   26  O6  UNL     1      -0.313  52.591 -21.096  1.00  0.00    -0.308 OA
BRANCH  26  27
HETATM   27  C22 UNL     1       0.463  53.311 -20.241  1.00  0.00     0.259 C 
HETATM   28  O7  UNL     1       0.856  54.452 -20.422  1.00  0.00    -0.265 OA
BRANCH  27  29
HETATM   29  C23 UNL     1       0.762  52.467 -19.020  1.00  0.00     0.111 C 
BRANCH  29  30
HETATM   30  C24 UNL     1       1.759  53.118 -18.064  1.00  0.00     0.005 C 
HETATM   31  C25 UNL     1       1.891  52.364 -16.747  1.00  0.00     0.005 C 
ENDBRANCH  29  30
ENDBRANCH  27  29
ENDBRANCH  26  27
ENDBRANCH  16  26
BRANCH  10  32
HETATM   32  O4  UNL     1      -4.840  47.921 -20.677  1.00  0.00    -0.389 OA
HETATM   33  H21 UNL     1      -4.861  48.600 -19.979  1.00  0.00     0.210 HD
ENDBRANCH  10  32
BRANCH  13  34
HETATM   34  O5  UNL     1      -2.123  47.230 -19.103  1.00  0.00    -0.391 OA
HETATM   35  H25 UNL     1      -2.850  46.669 -19.433  1.00  0.00     0.210 HD
ENDBRANCH  13  34
TORSDOF 10
ENDMDL
MODEL 2
REMARK minimizedAffinity -7.8545928
REMARK  10 active torsions:
REMARK  status: ('A' for Active; 'I' for Inactive)
REMARK    1  A    between atoms: C5_5  and  C6_6 
REMARK    2  A    between atoms: C6_6  and  C8_8 
REMARK    3  A    between atoms: C8_8  and  O1_9 
REMARK    4  A    between atoms: O1_9  and  C9_10 
REMARK    5  A    between atoms: C14_17  and  O4_18 
REMARK    6  A    between atoms: C17_21  and  O5_22 
REMARK    7  A    between atoms: C20_25  and  O6_27 
REMARK    8  A    between atoms: O6_27  and  C22_28 
REMARK    9  A    between atoms: C22_28  and  C23_30 
REMARK   10  A    between atoms: C23_30  and  C24_31 
ROOT
HETATM    1  C1  UNL     1      -0.212  51.462 -19.752  1.00  0.00     0.015 C 
HETATM    2  C2  UNL     1      -0.324  50.480 -20.663  1.00  0.00    -0.082 C 
HETATM    3  C3  UNL     1      -0.442  49.048 -20.197  1.00  0.00     0.034 C 
HETATM    4  C4  UNL     1      -1.159  48.160 -21.217  1.00  0.00     0.010 C 
HETATM    5  C5  UNL     1      -2.324  48.891 -21.920  1.00  0.00    -0.001 C 
HETATM    6  C11 UNL     1      -1.792  50.163 -22.656  1.00  0.00     0.033 C 
HETATM    7  C12 UNL     1      -2.630  51.460 -22.511  1.00  0.00     0.162 C 
HETATM    8  O3  UNL     1      -1.722  52.564 -22.762  1.00  0.00    -0.373 OA
HETATM    9  C13 UNL     1      -0.363  52.080 -22.731  1.00  0.00     0.163 C 
HETATM   10  C14 UNL     1       0.259  52.200 -24.156  1.00  0.00     0.178 C 
HETATM   11  C15 UNL     1      -0.639  51.834 -25.327  1.00  0.00    -0.030 C 
HETATM   12  C16 UNL     1      -0.391  50.749 -26.085  1.00  0.00     0.019 C 
HETATM   13  C17 UNL     1      -1.768  52.797 -25.639  1.00  0.00     0.149 C 
HETATM   14  C18 UNL     1      -3.156  52.207 -25.896  1.00  0.00     0.039 C 
HETATM   15  C19 UNL     1      -3.758  51.231 -24.877  1.00  0.00     0.044 C 
HETATM   16  C20 UNL     1      -3.926  51.620 -23.373  1.00  0.00     0.093 C 
HETATM   17  C21 UNL     1      -4.495  53.051 -23.280  1.00  0.00     0.049 C 
HETATM   18  C26 UNL     1      -0.415  50.650 -22.176  1.00  0.00     0.052 C 
ENDROOT
BRANCH   5  19
HETATM   19  C6  UNL     1      -3.135  47.950 -22.873  1.00  0.00     0.010 C 
HETATM   20  C7  UNL     1      -4.540  47.604 -22.362  1.00  0.00     0.012 C 
BRANCH  19  21
HETATM   21  C8  UNL     1      -3.184  48.472 -24.329  1.00  0.00     0.183 C 
BRANCH  21  22
HETATM   22  O1  UNL     1      -4.395  48.122 -25.013  1.00  0.00    -0.321 OA
BRANCH  22  23
HETATM   23  C9  UNL     1      -4.378  48.199 -26.370  1.00  0.00     0.254 C 
HETATM   24  C10 UNL     1      -2.977  48.411 -26.852  1.00  0.00     0.126 C 
HETATM   25  O2  UNL     1      -5.349  48.109 -27.108  1.00  0.00    -0.266 OA
ENDBRANCH  22  23
ENDBRANCH  21  22
ENDBRANCH  19  21
ENDBRANCH   5  19
BRANCH  16  26
HETATM   26  O6  UNL     1      -4.976  50.690 -22.927  1.00  0.00    -0.308 OA
BRANCH  26  27
HETATM   27  C22 UNL     1      -5.448  50.687 -21.651  1.00  0.00     0.259 C 
HETATM   28  O7  UNL     1      -4.889  51.174 -20.682  1.00  0.00    -0.265 OA
BRANCH  27  29
HETATM   29  C23 UNL     1      -6.786  49.979 -21.625  1.00  0.00     0.111 C 
BRANCH  29  30
HETATM   30  C24 UNL     1      -7.207  49.531 -20.227  1.00  0.00     0.005 C 
HETATM   31  C25 UNL     1      -8.346  48.520 -20.249  1.00  0.00     0.005 C 
ENDBRANCH  29  30
ENDBRANCH  27  29
ENDBRANCH  26  27
ENDBRANCH  16  26
BRANCH  10  32
HETATM   32  O4  UNL     1       0.698  53.551 -24.375  1.00  0.00    -0.389 OA
HETATM   33  H21 UNL     1       0.005  54.134 -24.018  1.00  0.00     0.210 HD
ENDBRANCH  10  32
BRANCH  13  34
HETATM   34  O5  UNL     1      -1.399  53.534 -26.812  1.00  0.00    -0.391 OA
HETATM   35  H25 UNL     1      -0.430  53.646 -26.782  1.00  0.00     0.210 HD
ENDBRANCH  13  34
TORSDOF 10
ENDMDL
MODEL 3
REMARK minimizedAffinity -7.72236633
REMARK  10 active torsions:
REMARK  status: ('A' for Active; 'I' for Inactive)
REMARK    1  A    between atoms: C5_5  and  C6_6 
REMARK    2  A    between atoms: C6_6  and  C8_8 
REMARK    3  A    between atoms: C8_8  and  O1_9 
REMARK    4  A    between atoms: O1_9  and  C9_10 
REMARK    5  A    between atoms: C14_17  and  O4_18 
REMARK    6  A    between atoms: C17_21  and  O5_22 
REMARK    7  A    between atoms: C20_25  and  O6_27 
REMARK    8  A    between atoms: O6_27  and  C22_28 
REMARK    9  A    between atoms: C22_28  and  C23_30 
REMARK   10  A    between atoms: C23_30  and  C24_31 
ROOT
HETATM    1  C1  UNL     1      -0.140  49.652 -20.133  1.00  0.00     0.015 C 
HETATM    2  C2  UNL     1      -0.360  50.764 -20.856  1.00  0.00    -0.082 C 
HETATM    3  C3  UNL     1       0.816  51.582 -21.333  1.00  0.00     0.034 C 
HETATM    4  C4  UNL     1       0.492  52.393 -22.590  1.00  0.00     0.010 C 
HETATM    5  C5  UNL     1      -0.423  51.623 -23.569  1.00  0.00    -0.001 C 
HETATM    6  C11 UNL     1      -1.764  51.243 -22.863  1.00  0.00     0.033 C 
HETATM    7  C12 UNL     1      -2.297  49.805 -23.097  1.00  0.00     0.162 C 
HETATM    8  O3  UNL     1      -3.164  49.502 -21.974  1.00  0.00    -0.373 OA
HETATM    9  C13 UNL     1      -2.959  50.483 -20.935  1.00  0.00     0.163 C 
HETATM   10  C14 UNL     1      -4.254  51.334 -20.767  1.00  0.00     0.178 C 
HETATM   11  C15 UNL     1      -4.979  51.736 -22.042  1.00  0.00    -0.030 C 
HETATM   12  C16 UNL     1      -5.037  53.021 -22.437  1.00  0.00     0.019 C 
HETATM   13  C17 UNL     1      -5.694  50.626 -22.790  1.00  0.00     0.149 C 
HETATM   14  C18 UNL     1      -5.502  50.551 -24.305  1.00  0.00     0.039 C 
HETATM   15  C19 UNL     1      -4.082  50.545 -24.883  1.00  0.00     0.044 C 
HETATM   16  C20 UNL     1      -3.025  49.482 -24.444  1.00  0.00     0.093 C 
HETATM   17  C21 UNL     1      -3.691  48.091 -24.407  1.00  0.00     0.049 C 
HETATM   18  C26 UNL     1      -1.713  51.288 -21.327  1.00  0.00     0.052 C 
ENDROOT
BRANCH   5  19
HETATM   19  C6  UNL     1      -0.657  52.401 -24.908  1.00  0.00     0.010 C 
HETATM   20  C7  UNL     1      -1.926  53.264 -24.915  1.00  0.00     0.012 C 
BRANCH  19  21
HETATM   21  C8  UNL     1       0.578  53.223 -25.345  1.00  0.00     0.183 C 
BRANCH  21  22
HETATM   22  O1  UNL     1       0.306  54.112 -26.438  1.00  0.00    -0.321 OA
BRANCH  22  23
HETATM   23  C9  UNL     1      -0.176  53.551 -27.579  1.00  0.00     0.254 C 
HETATM   24  C10 UNL     1       0.759  52.485 -28.059  1.00  0.00     0.126 C 
HETATM   25  O2  UNL     1      -1.215  53.856 -28.147  1.00  0.00    -0.266 OA
ENDBRANCH  22  23
ENDBRANCH  21  22
ENDBRANCH  19  21
ENDBRANCH   5  19
BRANCH  16  26
HETATM   26  O6  UNL     1      -2.080  49.497 -25.572  1.00  0.00    -0.308 OA
BRANCH  26  27
HETATM   27  C22 UNL     1      -2.489  49.655 -26.860  1.00  0.00     0.259 C 
HETATM   28  O7  UNL     1      -2.288  50.636 -27.558  1.00  0.00    -0.265 OA
BRANCH  27  29
HETATM   29  C23 UNL     1      -3.236  48.412 -27.293  1.00  0.00     0.111 C 
BRANCH  29  30
HETATM   30  C24 UNL     1      -4.451  48.711 -28.169  1.00  0.00     0.005 C 
HETATM   31  C25 UNL     1      -5.612  47.758 -27.911  1.00  0.00     0.005 C 
ENDBRANCH  29  30
ENDBRANCH  27  29
ENDBRANCH  26  27
ENDBRANCH  16  26
BRANCH  10  32
HETATM   32  O4  UNL     1      -5.201  50.613 -19.961  1.00  0.00    -0.389 OA
HETATM   33  H21 UNL     1      -5.177  49.686 -20.258  1.00  0.00     0.210 HD
ENDBRANCH  10  32
BRANCH  13  34
HETATM   34  O5  UNL     1      -7.100  50.778 -22.549  1.00  0.00    -0.391 OA
HETATM   35  H25 UNL     1      -7.196  51.126 -21.644  1.00  0.00     0.210 HD
ENDBRANCH  13  34
TORSDOF 10
ENDMDL
MODEL 4
REMARK minimizedAffinity -7.52168846
REMARK  10 active torsions:
REMARK  status: ('A' for Active; 'I' for Inactive)
REMARK    1  A    between atoms: C5_5  and  C6_6 
REMARK    2  A    between atoms: C6_6  and  C8_8 
REMARK    3  A    between atoms: C8_8  and  O1_9 
REMARK    4  A    between atoms: O1_9  and  C9_10 
REMARK    5  A    between atoms: C14_17  and  O4_18 
REMARK    6  A    between atoms: C17_21  and  O5_22 
REMARK    7  A    between atoms: C20_25  and  O6_27 
REMARK    8  A    between atoms: O6_27  and  C22_28 
REMARK    9  A    between atoms: C22_28  and  C23_30 
REMARK   10  A    between atoms: C23_30  and  C24_31 
ROOT
HETATM    1  C1  UNL     1      -8.013  48.894 -22.741  1.00  0.00     0.015 C 
HETATM    2  C2  UNL     1      -7.042  48.295 -23.450  1.00  0.00    -0.082 C 
HETATM    3  C3  UNL     1      -7.346  47.787 -24.839  1.00  0.00     0.034 C 
HETATM    4  C4  UNL     1      -6.097  47.717 -25.722  1.00  0.00     0.010 C 
HETATM    5  C5  UNL     1      -5.133  48.898 -25.474  1.00  0.00    -0.001 C 
HETATM    6  C11 UNL     1      -4.684  48.918 -23.977  1.00  0.00     0.033 C 
HETATM    7  C12 UNL     1      -4.665  50.297 -23.269  1.00  0.00     0.162 C 
HETATM    8  O3  UNL     1      -4.778  50.029 -21.848  1.00  0.00    -0.373 OA
HETATM    9  C13 UNL     1      -5.178  48.656 -21.652  1.00  0.00     0.163 C 
HETATM   10  C14 UNL     1      -4.018  47.874 -20.966  1.00  0.00     0.178 C 
HETATM   11  C15 UNL     1      -2.608  48.180 -21.447  1.00  0.00    -0.030 C 
HETATM   12  C16 UNL     1      -1.882  47.262 -22.114  1.00  0.00     0.019 C 
HETATM   13  C17 UNL     1      -2.044  49.535 -21.064  1.00  0.00     0.149 C 
HETATM   14  C18 UNL     1      -1.342  50.347 -22.154  1.00  0.00     0.039 C 
HETATM   15  C19 UNL     1      -2.060  50.596 -23.486  1.00  0.00     0.044 C 
HETATM   16  C20 UNL     1      -3.469  51.269 -23.542  1.00  0.00     0.093 C 
HETATM   17  C21 UNL     1      -3.491  52.478 -22.583  1.00  0.00     0.049 C 
HETATM   18  C26 UNL     1      -5.587  48.115 -23.028  1.00  0.00     0.052 C 
ENDROOT
BRANCH   5  19
HETATM   19  C6  UNL     1      -3.915  48.895 -26.459  1.00  0.00     0.010 C 
HETATM   20  C7  UNL     1      -2.605  48.402 -25.830  1.00  0.00     0.012 C 
BRANCH  19  21
HETATM   21  C8  UNL     1      -4.216  48.145 -27.778  1.00  0.00     0.183 C 
BRANCH  21  22
HETATM   22  O1  UNL     1      -4.419  49.025 -28.893  1.00  0.00    -0.321 OA
BRANCH  22  23
HETATM   23  C9  UNL     1      -5.163  48.547 -29.925  1.00  0.00     0.254 C 
HETATM   24  C10 UNL     1      -6.417  47.916 -29.402  1.00  0.00     0.126 C 
HETATM   25  O2  UNL     1      -4.874  48.612 -31.111  1.00  0.00    -0.266 OA
ENDBRANCH  22  23
ENDBRANCH  21  22
ENDBRANCH  19  21
ENDBRANCH   5  19
BRANCH  16  26
HETATM   26  O6  UNL     1      -3.513  51.786 -24.919  1.00  0.00    -0.308 OA
BRANCH  26  27
HETATM   27  C22 UNL     1      -2.483  52.491 -25.463  1.00  0.00     0.259 C 
HETATM   28  O7  UNL     1      -1.859  53.383 -24.912  1.00  0.00    -0.265 OA
BRANCH  27  29
HETATM   29  C23 UNL     1      -2.234  51.989 -26.869  1.00  0.00     0.111 C 
BRANCH  29  30
HETATM   30  C24 UNL     1      -0.982  52.583 -27.510  1.00  0.00     0.005 C 
HETATM   31  C25 UNL     1       0.097  51.541 -27.773  1.00  0.00     0.005 C 
ENDBRANCH  29  30
ENDBRANCH  27  29
ENDBRANCH  26  27
ENDBRANCH  16  26
BRANCH  10  32
HETATM   32  O4  UNL     1      -4.038  48.127 -19.551  1.00  0.00    -0.389 OA
HETATM   33  H21 UNL     1      -4.213  49.079 -19.438  1.00  0.00     0.210 HD
ENDBRANCH  10  32
BRANCH  13  34
HETATM   34  O5  UNL     1      -1.091  49.327 -20.013  1.00  0.00    -0.391 OA
HETATM   35  H25 UNL     1      -1.417  48.578 -19.480  1.00  0.00     0.210 HD
ENDBRANCH  13  34
TORSDOF 10
ENDMDL
MODEL 5
REMARK minimizedAffinity -7.5009408
REMARK  10 active torsions:
REMARK  status: ('A' for Active; 'I' for Inactive)
REMARK    1  A    between atoms: C5_5  and  C6_6 
REMARK    2  A    between atoms: C6_6  and  C8_8 
REMARK    3  A    between atoms: C8_8  and  O1_9 
REMARK    4  A    between atoms: O1_9  and  C9_10 
REMARK    5  A    between atoms: C14_17  and  O4_18 
REMARK    6  A    between atoms: C17_21  and  O5_22 
REMARK    7  A    between atoms: C20_25  and  O6_27 
REMARK    8  A    between atoms: O6_27  and  C22_28 
REMARK    9  A    between atoms: C22_28  and  C23_30 
REMARK   10  A    between atoms: C23_30  and  C24_31 
ROOT
HETATM    1  C1  UNL     1      -0.277  53.079 -20.641  1.00  0.00     0.015 C 
HETATM    2  C2  UNL     1      -0.128  51.859 -21.185  1.00  0.00    -0.082 C 
HETATM    3  C3  UNL     1       0.024  50.659 -20.282  1.00  0.00     0.034 C 
HETATM    4  C4  UNL     1      -0.431  49.361 -20.954  1.00  0.00     0.010 C 
HETATM    5  C5  UNL     1      -1.676  49.563 -21.845  1.00  0.00    -0.001 C 
HETATM    6  C11 UNL     1      -1.374  50.619 -22.957  1.00  0.00     0.033 C 
HETATM    7  C12 UNL     1      -2.469  51.683 -23.230  1.00  0.00     0.162 C 
HETATM    8  O3  UNL     1      -1.795  52.818 -23.832  1.00  0.00    -0.373 OA
HETATM    9  C13 UNL     1      -0.369  52.673 -23.659  1.00  0.00     0.163 C 
HETATM   10  C14 UNL     1       0.300  52.467 -25.051  1.00  0.00     0.178 C 
HETATM   11  C15 UNL     1      -0.429  51.564 -26.034  1.00  0.00    -0.030 C 
HETATM   12  C16 UNL     1       0.083  50.375 -26.403  1.00  0.00     0.019 C 
HETATM   13  C17 UNL     1      -1.712  52.113 -26.629  1.00  0.00     0.149 C 
HETATM   14  C18 UNL     1      -2.930  51.188 -26.670  1.00  0.00     0.039 C 
HETATM   15  C19 UNL     1      -3.379  50.479 -25.386  1.00  0.00     0.044 C 
HETATM   16  C20 UNL     1      -3.715  51.279 -24.087  1.00  0.00     0.093 C 
HETATM   17  C21 UNL     1      -4.571  52.508 -24.455  1.00  0.00     0.049 C 
HETATM   18  C26 UNL     1      -0.160  51.517 -22.672  1.00  0.00     0.052 C 
ENDROOT
BRANCH   5  19
HETATM   19  C6  UNL     1      -2.216  48.217 -22.437  1.00  0.00     0.010 C 
HETATM   20  C7  UNL     1      -1.555  46.965 -21.843  1.00  0.00     0.012 C 
BRANCH  19  21
HETATM   21  C8  UNL     1      -3.758  48.114 -22.377  1.00  0.00     0.183 C 
BRANCH  21  22
HETATM   22  O1  UNL     1      -4.219  46.908 -21.752  1.00  0.00    -0.321 OA
BRANCH  22  23
HETATM   23  C9  UNL     1      -5.413  46.970 -21.104  1.00  0.00     0.254 C 
HETATM   24  C10 UNL     1      -6.508  46.489 -22.004  1.00  0.00     0.126 C 
HETATM   25  O2  UNL     1      -5.590  47.356 -19.957  1.00  0.00    -0.266 OA
ENDBRANCH  22  23
ENDBRANCH  21  22
ENDBRANCH  19  21
ENDBRANCH   5  19
BRANCH  16  26
HETATM   26  O6  UNL     1      -4.575  50.335 -23.354  1.00  0.00    -0.308 OA
BRANCH  26  27
HETATM   27  C22 UNL     1      -5.555  50.753 -22.507  1.00  0.00     0.259 C 
HETATM   28  O7  UNL     1      -6.751  50.562 -22.650  1.00  0.00    -0.265 OA
BRANCH  27  29
HETATM   29  C23 UNL     1      -4.919  51.496 -21.352  1.00  0.00     0.111 C 
BRANCH  29  30
HETATM   30  C24 UNL     1      -4.600  50.599 -20.158  1.00  0.00     0.005 C 
HETATM   31  C25 UNL     1      -3.483  51.155 -19.284  1.00  0.00     0.005 C 
ENDBRANCH  29  30
ENDBRANCH  27  29
ENDBRANCH  26  27
ENDBRANCH  16  26
BRANCH  10  32
HETATM   32  O4  UNL     1       0.464  53.739 -25.699  1.00  0.00    -0.389 OA
HETATM   33  H21 UNL     1      -0.355  54.243 -25.542  1.00  0.00     0.210 HD
ENDBRANCH  10  32
BRANCH  13  34
HETATM   34  O5  UNL     1      -1.432  52.501 -27.981  1.00  0.00    -0.391 OA
HETATM   35  H25 UNL     1      -0.511  52.822 -27.998  1.00  0.00     0.210 HD
ENDBRANCH  13  34
TORSDOF 10
ENDMDL
MODEL 6
REMARK minimizedAffinity -7.29846048
REMARK  10 active torsions:
REMARK  status: ('A' for Active; 'I' for Inactive)
REMARK    1  A    between atoms: C5_5  and  C6_6 
REMARK    2  A    between atoms: C6_6  and  C8_8 
REMARK    3  A    between atoms: C8_8  and  O1_9 
REMARK    4  A    between atoms: O1_9  and  C9_10 
REMARK    5  A    between atoms: C14_17  and  O4_18 
REMARK    6  A    between atoms: C17_21  and  O5_22 
REMARK    7  A    between atoms: C20_25  and  O6_27 
REMARK    8  A    between atoms: O6_27  and  C22_28 
REMARK    9  A    between atoms: C22_28  and  C23_30 
REMARK   10  A    between atoms: C23_30  and  C24_31 
ROOT
HETATM    1  C1  UNL     1      -6.632  50.938 -22.482  1.00  0.00     0.015 C 
HETATM    2  C2  UNL     1      -5.391  50.770 -22.970  1.00  0.00    -0.082 C 
HETATM    3  C3  UNL     1      -4.895  51.685 -24.064  1.00  0.00     0.034 C 
HETATM    4  C4  UNL     1      -3.369  51.804 -24.079  1.00  0.00     0.010 C 
HETATM    5  C5  UNL     1      -2.765  51.823 -22.657  1.00  0.00    -0.001 C 
HETATM    6  C11 UNL     1      -3.155  50.518 -21.892  1.00  0.00     0.033 C 
HETATM    7  C12 UNL     1      -3.611  50.679 -20.418  1.00  0.00     0.162 C 
HETATM    8  O3  UNL     1      -4.419  49.514 -20.110  1.00  0.00    -0.373 OA
HETATM    9  C13 UNL     1      -4.756  48.830 -21.336  1.00  0.00     0.163 C 
HETATM   10  C14 UNL     1      -4.059  47.436 -21.356  1.00  0.00     0.178 C 
HETATM   11  C15 UNL     1      -2.631  47.377 -20.835  1.00  0.00    -0.030 C 
HETATM   12  C16 UNL     1      -1.598  47.115 -21.657  1.00  0.00     0.019 C 
HETATM   13  C17 UNL     1      -2.451  47.548 -19.338  1.00  0.00     0.149 C 
HETATM   14  C18 UNL     1      -1.353  48.497 -18.858  1.00  0.00     0.039 C 
HETATM   15  C19 UNL     1      -1.298  49.925 -19.413  1.00  0.00     0.044 C 
HETATM   16  C20 UNL     1      -2.523  50.889 -19.312  1.00  0.00     0.093 C 
HETATM   17  C21 UNL     1      -3.130  50.791 -17.896  1.00  0.00     0.049 C 
HETATM   18  C26 UNL     1      -4.354  49.762 -22.486  1.00  0.00     0.052 C 
ENDROOT
BRANCH   5  19
HETATM   19  C6  UNL     1      -1.218  52.066 -22.667  1.00  0.00     0.010 C 
HETATM   20  C7  UNL     1      -0.386  50.804 -22.397  1.00  0.00     0.012 C 
BRANCH  19  21
HETATM   21  C8  UNL     1      -0.734  52.789 -23.945  1.00  0.00     0.183 C 
BRANCH  21  22
HETATM   22  O1  UNL     1       0.533  52.312 -24.419  1.00  0.00    -0.321 OA
BRANCH  22  23
HETATM   23  C9  UNL     1       0.786  52.456 -25.746  1.00  0.00     0.254 C 
HETATM   24  C10 UNL     1       1.133  51.130 -26.348  1.00  0.00     0.126 C 
HETATM   25  O2  UNL     1       0.742  53.503 -26.378  1.00  0.00    -0.266 OA
ENDBRANCH  22  23
ENDBRANCH  21  22
ENDBRANCH  19  21
ENDBRANCH   5  19
BRANCH  16  26
HETATM   26  O6  UNL     1      -1.891  52.212 -19.438  1.00  0.00    -0.308 OA
BRANCH  26  27
HETATM   27  C22 UNL     1      -0.668  52.486 -18.907  1.00  0.00     0.259 C 
HETATM   28  O7  UNL     1      -0.138  51.884 -17.987  1.00  0.00    -0.265 OA
BRANCH  27  29
HETATM   29  C23 UNL     1      -0.066  53.662 -19.645  1.00  0.00     0.111 C 
BRANCH  29  30
HETATM   30  C24 UNL     1       1.315  53.368 -20.228  1.00  0.00     0.005 C 
HETATM   31  C25 UNL     1       1.620  54.195 -21.470  1.00  0.00     0.005 C 
ENDBRANCH  29  30
ENDBRANCH  27  29
ENDBRANCH  26  27
ENDBRANCH  16  26
BRANCH  10  32
HETATM   32  O4  UNL     1      -4.825  46.504 -20.574  1.00  0.00    -0.389 OA
HETATM   33  H21 UNL     1      -5.106  46.976 -19.770  1.00  0.00     0.210 HD
ENDBRANCH  10  32
BRANCH  13  34
HETATM   34  O5  UNL     1      -2.165  46.256 -18.786  1.00  0.00    -0.391 OA
HETATM   35  H25 UNL     1      -2.660  45.604 -19.318  1.00  0.00     0.210 HD
ENDBRANCH  13  34
TORSDOF 10
ENDMDL
MODEL 7
REMARK minimizedAffinity -7.21143913
REMARK  10 active torsions:
REMARK  status: ('A' for Active; 'I' for Inactive)
REMARK    1  A    between atoms: C5_5  and  C6_6 
REMARK    2  A    between atoms: C6_6  and  C8_8 
REMARK    3  A    between atoms: C8_8  and  O1_9 
REMARK    4  A    between atoms: O1_9  and  C9_10 
REMARK    5  A    between atoms: C14_17  and  O4_18 
REMARK    6  A    between atoms: C17_21  and  O5_22 
REMARK    7  A    between atoms: C20_25  and  O6_27 
REMARK    8  A    between atoms: O6_27  and  C22_28 
REMARK    9  A    between atoms: C22_28  and  C23_30 
REMARK   10  A    between atoms: C23_30  and  C24_31 
ROOT
HETATM    1  C1  UNL     1      -0.373  53.020 -20.541  1.00  0.00     0.015 C 
HETATM    2  C2  UNL     1      -0.241  51.802 -21.094  1.00  0.00    -0.082 C 
HETATM    3  C3  UNL     1      -0.058  50.599 -20.200  1.00  0.00     0.034 C 
HETATM    4  C4  UNL     1      -0.534  49.303 -20.861  1.00  0.00     0.010 C 
HETATM    5  C5  UNL     1      -1.808  49.507 -21.710  1.00  0.00    -0.001 C 
HETATM    6  C11 UNL     1      -1.544  50.568 -22.827  1.00  0.00     0.033 C 
HETATM    7  C12 UNL     1      -2.648  51.631 -23.061  1.00  0.00     0.162 C 
HETATM    8  O3  UNL     1      -1.995  52.769 -23.681  1.00  0.00    -0.373 OA
HETATM    9  C13 UNL     1      -0.565  52.625 -23.555  1.00  0.00     0.163 C 
HETATM   10  C14 UNL     1       0.059  52.424 -24.970  1.00  0.00     0.178 C 
HETATM   11  C15 UNL     1      -0.702  51.524 -25.931  1.00  0.00    -0.030 C 
HETATM   12  C16 UNL     1      -0.201  50.336 -26.321  1.00  0.00     0.019 C 
HETATM   13  C17 UNL     1      -2.004  52.073 -26.482  1.00  0.00     0.149 C 
HETATM   14  C18 UNL     1      -3.222  51.147 -26.485  1.00  0.00     0.039 C 
HETATM   15  C19 UNL     1      -3.628  50.434 -25.190  1.00  0.00     0.044 C 
HETATM   16  C20 UNL     1      -3.922  51.229 -23.877  1.00  0.00     0.093 C 
HETATM   17  C21 UNL     1      -4.791  52.459 -24.213  1.00  0.00     0.049 C 
HETATM   18  C26 UNL     1      -0.321  51.466 -22.579  1.00  0.00     0.052 C 
ENDROOT
BRANCH   5  19
HETATM   19  C6  UNL     1      -2.366  48.163 -22.288  1.00  0.00     0.010 C 
HETATM   20  C7  UNL     1      -1.505  46.936 -21.956  1.00  0.00     0.012 C 
BRANCH  19  21
HETATM   21  C8  UNL     1      -3.847  47.921 -21.916  1.00  0.00     0.183 C 
BRANCH  21  22
HETATM   22  O1  UNL     1      -4.031  47.562 -20.539  1.00  0.00    -0.321 OA
BRANCH  22  23
HETATM   23  C9  UNL     1      -4.809  46.475 -20.286  1.00  0.00     0.254 C 
HETATM   24  C10 UNL     1      -5.886  46.833 -19.310  1.00  0.00     0.126 C 
HETATM   25  O2  UNL     1      -4.669  45.362 -20.774  1.00  0.00    -0.266 OA
ENDBRANCH  22  23
ENDBRANCH  21  22
ENDBRANCH  19  21
ENDBRANCH   5  19
BRANCH  16  26
HETATM   26  O6  UNL     1      -4.756  50.282 -23.120  1.00  0.00    -0.308 OA
BRANCH  26  27
HETATM   27  C22 UNL     1      -5.458  50.655 -22.016  1.00  0.00     0.259 C 
HETATM   28  O7  UNL     1      -5.007  51.248 -21.050  1.00  0.00    -0.265 OA
BRANCH  27  29
HETATM   29  C23 UNL     1      -6.897  50.215 -22.178  1.00  0.00     0.111 C 
BRANCH  29  30
HETATM   30  C24 UNL     1      -7.055  48.971 -23.050  1.00  0.00     0.005 C 
HETATM   31  C25 UNL     1      -8.028  49.179 -24.204  1.00  0.00     0.005 C 
ENDBRANCH  29  30
ENDBRANCH  27  29
ENDBRANCH  26  27
ENDBRANCH  16  26
BRANCH  10  32
HETATM   32  O4  UNL     1       0.200  53.699 -25.618  1.00  0.00    -0.389 OA
HETATM   33  H21 UNL     1      -0.614  54.201 -25.433  1.00  0.00     0.210 HD
ENDBRANCH  10  32
BRANCH  13  34
HETATM   34  O5  UNL     1      -1.769  52.466 -27.840  1.00  0.00    -0.391 OA
HETATM   35  H25 UNL     1      -0.849  52.788 -27.886  1.00  0.00     0.210 HD
ENDBRANCH  13  34
TORSDOF 10
ENDMDL
MODEL 8
REMARK minimizedAffinity -7.19525862
REMARK  10 active torsions:
REMARK  status: ('A' for Active; 'I' for Inactive)
REMARK    1  A    between atoms: C5_5  and  C6_6 
REMARK    2  A    between atoms: C6_6  and  C8_8 
REMARK    3  A    between atoms: C8_8  and  O1_9 
REMARK    4  A    between atoms: O1_9  and  C9_10 
REMARK    5  A    between atoms: C14_17  and  O4_18 
REMARK    6  A    between atoms: C17_21  and  O5_22 
REMARK    7  A    between atoms: C20_25  and  O6_27 
REMARK    8  A    between atoms: O6_27  and  C22_28 
REMARK    9  A    between atoms: C22_28  and  C23_30 
REMARK   10  A    between atoms: C23_30  and  C24_31 
ROOT
HETATM    1  C1  UNL     1      -1.039  48.037 -20.068  1.00  0.00     0.015 C 
HETATM    2  C2  UNL     1      -1.123  49.377 -20.132  1.00  0.00    -0.082 C 
HETATM    3  C3  UNL     1      -0.007  50.216 -19.558  1.00  0.00     0.034 C 
HETATM    4  C4  UNL     1       0.084  51.595 -20.217  1.00  0.00     0.010 C 
HETATM    5  C5  UNL     1      -0.208  51.544 -21.733  1.00  0.00    -0.001 C 
HETATM    6  C11 UNL     1      -1.638  50.966 -21.985  1.00  0.00     0.033 C 
HETATM    7  C12 UNL     1      -1.783  49.924 -23.124  1.00  0.00     0.162 C 
HETATM    8  O3  UNL     1      -2.971  49.150 -22.822  1.00  0.00    -0.373 OA
HETATM    9  C13 UNL     1      -3.375  49.409 -21.460  1.00  0.00     0.163 C 
HETATM   10  C14 UNL     1      -4.747  50.150 -21.462  1.00  0.00     0.178 C 
HETATM   11  C15 UNL     1      -4.939  51.228 -22.517  1.00  0.00    -0.030 C 
HETATM   12  C16 UNL     1      -5.041  52.527 -22.179  1.00  0.00     0.019 C 
HETATM   13  C17 UNL     1      -5.091  50.751 -23.950  1.00  0.00     0.149 C 
HETATM   14  C18 UNL     1      -4.285  51.474 -25.029  1.00  0.00     0.039 C 
HETATM   15  C19 UNL     1      -2.773  51.651 -24.846  1.00  0.00     0.044 C 
HETATM   16  C20 UNL     1      -1.830  50.429 -24.605  1.00  0.00     0.093 C 
HETATM   17  C21 UNL     1      -2.213  49.294 -25.578  1.00  0.00     0.049 C 
HETATM   18  C26 UNL     1      -2.230  50.186 -20.800  1.00  0.00     0.052 C 
ENDROOT
BRANCH   5  19
HETATM   19  C6  UNL     1       0.003  52.931 -22.431  1.00  0.00     0.010 C 
HETATM   20  C7  UNL     1       0.617  54.002 -21.519  1.00  0.00     0.012 C 
BRANCH  19  21
HETATM   21  C8  UNL     1       0.784  52.817 -23.761  1.00  0.00     0.183 C 
BRANCH  21  22
HETATM   22  O1  UNL     1       1.478  54.023 -24.113  1.00  0.00    -0.321 OA
BRANCH  22  23
HETATM   23  C9  UNL     1       0.794  54.928 -24.863  1.00  0.00     0.254 C 
HETATM   24  C10 UNL     1      -0.015  54.221 -25.905  1.00  0.00     0.126 C 
HETATM   25  O2  UNL     1       0.820  56.143 -24.724  1.00  0.00    -0.266 OA
ENDBRANCH  22  23
ENDBRANCH  21  22
ENDBRANCH  19  21
ENDBRANCH   5  19
BRANCH  16  26
HETATM   26  O6  UNL     1      -0.522  50.957 -25.025  1.00  0.00    -0.308 OA
BRANCH  26  27
HETATM   27  C22 UNL     1      -0.091  50.890 -26.314  1.00  0.00     0.259 C 
HETATM   28  O7  UNL     1      -0.739  51.199 -27.300  1.00  0.00    -0.265 OA
BRANCH  27  29
HETATM   29  C23 UNL     1       1.330  50.369 -26.329  1.00  0.00     0.111 C 
BRANCH  29  30
HETATM   30  C24 UNL     1       2.372  51.459 -26.571  1.00  0.00     0.005 C 
HETATM   31  C25 UNL     1       2.386  51.952 -28.013  1.00  0.00     0.005 C 
ENDBRANCH  29  30
ENDBRANCH  27  29
ENDBRANCH  26  27
ENDBRANCH  16  26
BRANCH  10  32
HETATM   32  O4  UNL     1      -5.808  49.198 -21.642  1.00  0.00    -0.389 OA
HETATM   33  H21 UNL     1      -5.511  48.571 -22.327  1.00  0.00     0.210 HD
ENDBRANCH  10  32
BRANCH  13  34
HETATM   34  O5  UNL     1      -6.475  50.874 -24.303  1.00  0.00    -0.391 OA
HETATM   35  H25 UNL     1      -6.991  50.697 -23.494  1.00  0.00     0.210 HD
ENDBRANCH  13  34
TORSDOF 10
ENDMDL
MODEL 9
REMARK minimizedAffinity -7.1794219
REMARK  10 active torsions:
REMARK  status: ('A' for Active; 'I' for Inactive)
REMARK    1  A    between atoms: C5_5  and  C6_6 
REMARK    2  A    between atoms: C6_6  and  C8_8 
REMARK    3  A    between atoms: C8_8  and  O1_9 
REMARK    4  A    between atoms: O1_9  and  C9_10 
REMARK    5  A    between atoms: C14_17  and  O4_18 
REMARK    6  A    between atoms: C17_21  and  O5_22 
REMARK    7  A    between atoms: C20_25  and  O6_27 
REMARK    8  A    between atoms: O6_27  and  C22_28 
REMARK    9  A    between atoms: C22_28  and  C23_30 
REMARK   10  A    between atoms: C23_30  and  C24_31 
ROOT
HETATM    1  C1  UNL     1       0.019  54.569 -24.790  1.00  0.00     0.015 C 
HETATM    2  C2  UNL     1       0.199  53.352 -24.248  1.00  0.00    -0.082 C 
HETATM    3  C3  UNL     1       1.102  53.202 -23.048  1.00  0.00     0.034 C 
HETATM    4  C4  UNL     1       0.743  51.983 -22.195  1.00  0.00     0.010 C 
HETATM    5  C5  UNL     1      -0.781  51.753 -22.107  1.00  0.00    -0.001 C 
HETATM    6  C11 UNL     1      -1.377  51.552 -23.538  1.00  0.00     0.033 C 
HETATM    7  C12 UNL     1      -2.702  52.293 -23.856  1.00  0.00     0.162 C 
HETATM    8  O3  UNL     1      -2.759  52.428 -25.299  1.00  0.00    -0.373 OA
HETATM    9  C13 UNL     1      -1.461  52.130 -25.857  1.00  0.00     0.163 C 
HETATM   10  C14 UNL     1      -1.554  50.826 -26.707  1.00  0.00     0.178 C 
HETATM   11  C15 UNL     1      -2.401  49.698 -26.139  1.00  0.00    -0.030 C 
HETATM   12  C16 UNL     1      -1.843  48.544 -25.727  1.00  0.00     0.019 C 
HETATM   13  C17 UNL     1      -3.903  49.916 -26.141  1.00  0.00     0.149 C 
HETATM   14  C18 UNL     1      -4.672  49.574 -24.864  1.00  0.00     0.039 C 
HETATM   15  C19 UNL     1      -4.205  50.158 -23.525  1.00  0.00     0.044 C 
HETATM   16  C20 UNL     1      -4.046  51.698 -23.316  1.00  0.00     0.093 C 
HETATM   17  C21 UNL     1      -5.268  52.420 -23.922  1.00  0.00     0.049 C 
HETATM   18  C26 UNL     1      -0.480  52.056 -24.680  1.00  0.00     0.052 C 
ENDROOT
BRANCH   5  19
HETATM   19  C6  UNL     1      -1.156  50.581 -21.138  1.00  0.00     0.010 C 
HETATM   20  C7  UNL     1      -1.127  49.194 -21.796  1.00  0.00     0.012 C 
BRANCH  19  21
HETATM   21  C8  UNL     1      -0.326  50.596 -19.833  1.00  0.00     0.183 C 
BRANCH  21  22
HETATM   22  O1  UNL     1      -0.777  51.578 -18.890  1.00  0.00    -0.321 OA
BRANCH  22  23
HETATM   23  C9  UNL     1       0.059  52.621 -18.643  1.00  0.00     0.254 C 
HETATM   24  C10 UNL     1       1.004  52.269 -17.537  1.00  0.00     0.126 C 
HETATM   25  O2  UNL     1       0.060  53.697 -19.227  1.00  0.00    -0.266 OA
ENDBRANCH  22  23
ENDBRANCH  21  22
ENDBRANCH  19  21
ENDBRANCH   5  19
BRANCH  16  26
HETATM   26  O6  UNL     1      -4.129  51.824 -21.853  1.00  0.00    -0.308 OA
BRANCH  26  27
HETATM   27  C22 UNL     1      -4.904  51.000 -21.096  1.00  0.00     0.259 C 
HETATM   28  O7  UNL     1      -6.031  50.626 -21.374  1.00  0.00    -0.265 OA
BRANCH  27  29
HETATM   29  C23 UNL     1      -4.138  50.619 -19.847  1.00  0.00     0.111 C 
BRANCH  29  30
HETATM   30  C24 UNL     1      -4.143  49.117 -19.569  1.00  0.00     0.005 C 
HETATM   31  C25 UNL     1      -5.133  48.721 -18.481  1.00  0.00     0.005 C 
ENDBRANCH  29  30
ENDBRANCH  27  29
ENDBRANCH  26  27
ENDBRANCH  16  26
BRANCH  10  32
HETATM   32  O4  UNL     1      -2.090  51.135 -28.004  1.00  0.00    -0.389 OA
HETATM   33  H21 UNL     1      -2.821  51.764 -27.865  1.00  0.00     0.210 HD
ENDBRANCH  10  32
BRANCH  13  34
HETATM   34  O5  UNL     1      -4.455  49.115 -27.194  1.00  0.00    -0.391 OA
HETATM   35  H25 UNL     1      -3.794  49.096 -27.911  1.00  0.00     0.210 HD
ENDBRANCH  13  34
TORSDOF 10
ENDMDL
