MODEL 1
REMARK minimizedAffinity -7.09181833
REMARK CNNscore 0.598026574
REMARK CNNaffinity 7.07165337
REMARK  8 active torsions:
REMARK  status: ('A' for Active; 'I' for Inactive)
REMARK    1  A    between atoms: C4_4  and  C5_5 
REMARK    2  A    between atoms: C5_5  and  C6_6 
REMARK    3  A    between atoms: C6_6  and  C7_7 
REMARK    4  A    between atoms: C7_7  and  C9_9 
REMARK    5  A    between atoms: C19_19  and  C21_21 
REMARK    6  A    between atoms: C21_21  and  O2_23 
REMARK    7  A    between atoms: C22_24  and  O3_25 
REMARK    8  A    between atoms: C24_27  and  O4_28 
ROOT
HETATM    1  C9  UNL     1      -9.432   8.287  14.580  1.00  0.00    -0.002 C 
HETATM    2  C10 UNL     1      -9.817   6.861  14.090  1.00  0.00     0.006 C 
HETATM    3  C11 UNL     1     -11.354   6.766  14.133  1.00  0.00     0.011 C 
HETATM    4  C12 UNL     1     -11.837   8.229  14.123  1.00  0.00    -0.028 C 
HETATM    5  C13 UNL     1     -11.618   8.741  12.633  1.00  0.00     0.016 C 
HETATM    6  C14 UNL     1     -13.369   8.506  14.511  1.00  0.00    -0.028 C 
HETATM    7  C15 UNL     1     -13.835   7.860  15.848  1.00  0.00     0.016 C 
HETATM    8  C16 UNL     1     -14.283   7.843  13.414  1.00  0.00     0.011 C 
HETATM    9  C17 UNL     1     -15.647   8.490  13.221  1.00  0.00     0.007 C 
HETATM   10  C18 UNL     1     -15.476   9.940  12.738  1.00  0.00     0.018 C 
HETATM   11  C19 UNL     1     -16.844  10.666  12.433  1.00  0.00     0.072 C 
HETATM   12  C20 UNL     1     -17.940  10.329  13.470  1.00  0.00     0.030 C 
HETATM   13  C22 UNL     1     -16.650  12.210  12.297  1.00  0.00     0.139 C 
HETATM   14  C23 UNL     1     -15.205  12.576  11.986  1.00  0.00     0.065 C 
HETATM   15  C24 UNL     1     -14.260  12.150  13.109  1.00  0.00     0.130 C 
HETATM   16  C25 UNL     1     -14.589  10.767  13.673  1.00  0.00    -0.000 A 
HETATM   17  C26 UNL     1     -14.879  10.635  15.144  1.00  0.00     0.024 A 
HETATM   18  C27 UNL     1     -13.561  10.075  14.625  1.00  0.00    -0.021 A 
HETATM   19  C28 UNL     1     -12.394  10.851  15.286  1.00  0.00     0.012 C 
HETATM   20  C29 UNL     1     -10.962  10.406  14.962  1.00  0.00     0.011 C 
HETATM   21  C30 UNL     1     -10.787   8.887  15.112  1.00  0.00    -0.032 C 
HETATM   22  C31 UNL     1     -10.929   8.523  16.607  1.00  0.00     0.016 C 
ENDROOT
BRANCH   1  23
HETATM   23  C7  UNL     1      -8.092   8.316  15.382  1.00  0.00    -0.014 C 
HETATM   24  C8  UNL     1      -8.153   7.378  16.595  1.00  0.00     0.010 C 
BRANCH  23  25
HETATM   25  C6  UNL     1      -6.789   8.098  14.573  1.00  0.00     0.008 C 
BRANCH  25  26
HETATM   26  C5  UNL     1      -6.022   6.822  14.960  1.00  0.00     0.028 C 
BRANCH  26  27
HETATM   27  C4  UNL     1      -6.279   5.659  14.044  1.00  0.00    -0.025 C 
HETATM   28  C2  UNL     1      -5.385   4.941  13.336  1.00  0.00    -0.091 C 
HETATM   29  C1  UNL     1      -3.895   5.145  13.350  1.00  0.00     0.042 C 
HETATM   30  C3  UNL     1      -5.843   3.815  12.445  1.00  0.00     0.042 C 
ENDBRANCH  26  27
ENDBRANCH  25  26
ENDBRANCH  23  25
ENDBRANCH   1  23
BRANCH  15  31
HETATM   31  O4  UNL     1     -12.940  12.137  12.567  1.00  0.00    -0.395 OA
HETATM   32  H41 UNL     1     -12.705  13.060  12.374  1.00  0.00     0.210 HD
ENDBRANCH  15  31
BRANCH  11  33
HETATM   33  C21 UNL     1     -17.344  10.179  11.067  1.00  0.00     0.151 C 
HETATM   34  O1  UNL     1     -18.165  10.715  10.342  1.00  0.00    -0.649 OA
BRANCH  33  35
HETATM   35  O2  UNL     1     -16.805   9.002  10.685  1.00  0.00    -0.776 OA
HETATM   36  H35 UNL     1     -17.209   8.835   9.805  1.00  0.00     0.167 HD
ENDBRANCH  33  35
ENDBRANCH  11  33
BRANCH  13  37
HETATM   37  O3  UNL     1     -17.025  12.924  13.481  1.00  0.00    -0.394 OA
HETATM   38  H37 UNL     1     -17.997  12.960  13.508  1.00  0.00     0.210 HD
ENDBRANCH  13  37
TORSDOF 8
ENDMDL
MODEL 2
REMARK minimizedAffinity -9.03872871
REMARK CNNscore 0.500402391
REMARK CNNaffinity 6.82964325
REMARK  8 active torsions:
REMARK  status: ('A' for Active; 'I' for Inactive)
REMARK    1  A    between atoms: C4_4  and  C5_5 
REMARK    2  A    between atoms: C5_5  and  C6_6 
REMARK    3  A    between atoms: C6_6  and  C7_7 
REMARK    4  A    between atoms: C7_7  and  C9_9 
REMARK    5  A    between atoms: C19_19  and  C21_21 
REMARK    6  A    between atoms: C21_21  and  O2_23 
REMARK    7  A    between atoms: C22_24  and  O3_25 
REMARK    8  A    between atoms: C24_27  and  O4_28 
ROOT
HETATM    1  C9  UNL     1      -3.160   7.338  13.028  1.00  0.00    -0.002 C 
HETATM    2  C10 UNL     1      -3.270   8.888  13.132  1.00  0.00     0.006 C 
HETATM    3  C11 UNL     1      -1.870   9.420  13.491  1.00  0.00     0.011 C 
HETATM    4  C12 UNL     1      -0.905   8.293  13.078  1.00  0.00    -0.028 C 
HETATM    5  C13 UNL     1      -0.838   8.349  11.490  1.00  0.00     0.016 C 
HETATM    6  C14 UNL     1       0.600   8.367  13.629  1.00  0.00    -0.028 C 
HETATM    7  C15 UNL     1       0.727   8.560  15.168  1.00  0.00     0.016 C 
HETATM    8  C16 UNL     1       1.289   9.642  13.014  1.00  0.00     0.011 C 
HETATM    9  C17 UNL     1       2.802   9.563  12.873  1.00  0.00     0.007 C 
HETATM   10  C18 UNL     1       3.181   8.431  11.905  1.00  0.00     0.018 C 
HETATM   11  C19 UNL     1       4.734   8.328  11.634  1.00  0.00     0.072 C 
HETATM   12  C20 UNL     1       5.575   8.557  12.910  1.00  0.00     0.030 C 
HETATM   13  C22 UNL     1       5.102   6.973  10.949  1.00  0.00     0.139 C 
HETATM   14  C23 UNL     1       3.900   6.335  10.268  1.00  0.00     0.065 C 
HETATM   15  C24 UNL     1       2.798   5.991  11.270  1.00  0.00     0.130 C 
HETATM   16  C25 UNL     1       2.586   7.082  12.320  1.00  0.00    -0.000 A 
HETATM   17  C26 UNL     1       2.720   6.723  13.775  1.00  0.00     0.024 A 
HETATM   18  C27 UNL     1       1.323   7.012  13.239  1.00  0.00    -0.021 A 
HETATM   19  C28 UNL     1       0.465   5.728  13.366  1.00  0.00     0.012 C 
HETATM   20  C29 UNL     1      -1.010   5.806  12.950  1.00  0.00     0.011 C 
HETATM   21  C30 UNL     1      -1.715   7.022  13.569  1.00  0.00    -0.032 C 
HETATM   22  C31 UNL     1      -1.802   6.812  15.098  1.00  0.00     0.016 C 
ENDROOT
BRANCH   1  23
HETATM   23  C7  UNL     1      -4.451   6.602  13.506  1.00  0.00    -0.014 C 
HETATM   24  C8  UNL     1      -5.685   7.502  13.366  1.00  0.00     0.010 C 
BRANCH  23  25
HETATM   25  C6  UNL     1      -4.714   5.196  12.910  1.00  0.00     0.008 C 
BRANCH  25  26
HETATM   26  C5  UNL     1      -6.155   4.696  13.110  1.00  0.00     0.028 C 
BRANCH  26  27
HETATM   27  C4  UNL     1      -6.397   3.314  12.573  1.00  0.00    -0.025 C 
HETATM   28  C2  UNL     1      -5.674   2.635  11.661  1.00  0.00    -0.091 C 
HETATM   29  C1  UNL     1      -4.417   3.130  11.000  1.00  0.00     0.042 C 
HETATM   30  C3  UNL     1      -6.093   1.253  11.228  1.00  0.00     0.042 C 
ENDBRANCH  26  27
ENDBRANCH  25  26
ENDBRANCH  23  25
ENDBRANCH   1  23
BRANCH  15  31
HETATM   31  O4  UNL     1       1.594   5.809  10.527  1.00  0.00    -0.395 OA
HETATM   32  H41 UNL     1       1.710   5.007   9.992  1.00  0.00     0.210 HD
ENDBRANCH  15  31
BRANCH  11  33
HETATM   33  C21 UNL     1       5.113   9.426  10.634  1.00  0.00     0.151 C 
HETATM   34  O1  UNL     1       5.836  10.389  10.826  1.00  0.00    -0.649 OA
BRANCH  33  35
HETATM   35  O2  UNL     1       4.528   9.281   9.425  1.00  0.00    -0.776 OA
HETATM   36  H35 UNL     1       4.872  10.041   8.906  1.00  0.00     0.167 HD
ENDBRANCH  33  35
ENDBRANCH  11  33
BRANCH  13  37
HETATM   37  O3  UNL     1       5.630   6.011  11.870  1.00  0.00    -0.394 OA
HETATM   38  H37 UNL     1       6.550   6.264  12.065  1.00  0.00     0.210 HD
ENDBRANCH  13  37
TORSDOF 8
ENDMDL
MODEL 3
REMARK minimizedAffinity -8.51026344
REMARK CNNscore 0.49062416
REMARK CNNaffinity 6.78920698
REMARK  8 active torsions:
REMARK  status: ('A' for Active; 'I' for Inactive)
REMARK    1  A    between atoms: C4_4  and  C5_5 
REMARK    2  A    between atoms: C5_5  and  C6_6 
REMARK    3  A    between atoms: C6_6  and  C7_7 
REMARK    4  A    between atoms: C7_7  and  C9_9 
REMARK    5  A    between atoms: C19_19  and  C21_21 
REMARK    6  A    between atoms: C21_21  and  O2_23 
REMARK    7  A    between atoms: C22_24  and  O3_25 
REMARK    8  A    between atoms: C24_27  and  O4_28 
ROOT
HETATM    1  C9  UNL     1      -5.689   6.041  14.400  1.00  0.00    -0.002 C 
HETATM    2  C10 UNL     1      -4.723   5.056  13.680  1.00  0.00     0.006 C 
HETATM    3  C11 UNL     1      -3.443   5.842  13.338  1.00  0.00     0.011 C 
HETATM    4  C12 UNL     1      -3.461   7.052  14.291  1.00  0.00    -0.028 C 
HETATM    5  C13 UNL     1      -3.074   6.474  15.721  1.00  0.00     0.016 C 
HETATM    6  C14 UNL     1      -2.459   8.263  13.970  1.00  0.00    -0.028 C 
HETATM    7  C15 UNL     1      -2.530   8.805  12.513  1.00  0.00     0.016 C 
HETATM    8  C16 UNL     1      -0.984   7.736  14.123  1.00  0.00     0.011 C 
HETATM    9  C17 UNL     1       0.051   8.789  14.491  1.00  0.00     0.007 C 
HETATM   10  C18 UNL     1      -0.276   9.386  15.870  1.00  0.00     0.018 C 
HETATM   11  C19 UNL     1       0.795  10.433  16.372  1.00  0.00     0.072 C 
HETATM   12  C20 UNL     1       1.300  11.355  15.239  1.00  0.00     0.030 C 
HETATM   13  C22 UNL     1       0.254  11.264  17.578  1.00  0.00     0.139 C 
HETATM   14  C23 UNL     1      -0.898  10.561  18.283  1.00  0.00     0.065 C 
HETATM   15  C24 UNL     1      -2.098  10.374  17.355  1.00  0.00     0.130 C 
HETATM   16  C25 UNL     1      -1.698   9.949  15.941  1.00  0.00    -0.000 A 
HETATM   17  C26 UNL     1      -2.127  10.803  14.779  1.00  0.00     0.024 A 
HETATM   18  C27 UNL     1      -2.807   9.451  14.959  1.00  0.00    -0.021 A 
HETATM   19  C28 UNL     1      -4.316   9.684  15.229  1.00  0.00     0.012 C 
HETATM   20  C29 UNL     1      -5.218   8.451  15.372  1.00  0.00     0.011 C 
HETATM   21  C30 UNL     1      -4.996   7.445  14.233  1.00  0.00    -0.032 C 
HETATM   22  C31 UNL     1      -5.492   8.081  12.914  1.00  0.00     0.016 C 
ENDROOT
BRANCH   1  23
HETATM   23  C7  UNL     1      -7.192   5.767  14.077  1.00  0.00    -0.014 C 
HETATM   24  C8  UNL     1      -7.434   4.280  13.788  1.00  0.00     0.010 C 
BRANCH  23  25
HETATM   25  C6  UNL     1      -8.235   6.318  15.082  1.00  0.00     0.008 C 
BRANCH  25  26
HETATM   26  C5  UNL     1      -9.254   7.285  14.454  1.00  0.00     0.028 C 
BRANCH  26  27
HETATM   27  C4  UNL     1     -10.668   6.778  14.485  1.00  0.00    -0.025 C 
HETATM   28  C2  UNL     1     -11.729   7.223  13.784  1.00  0.00    -0.091 C 
HETATM   29  C1  UNL     1     -11.701   8.332  12.768  1.00  0.00     0.042 C 
HETATM   30  C3  UNL     1     -13.087   6.596  13.972  1.00  0.00     0.042 C 
ENDBRANCH  26  27
ENDBRANCH  25  26
ENDBRANCH  23  25
ENDBRANCH   1  23
BRANCH  15  31
HETATM   31  O4  UNL     1      -2.927   9.367  17.934  1.00  0.00    -0.395 OA
HETATM   32  H41 UNL     1      -3.294   9.740  18.752  1.00  0.00     0.210 HD
ENDBRANCH  15  31
BRANCH  11  33
HETATM   33  C21 UNL     1       2.005   9.655  16.901  1.00  0.00     0.151 C 
HETATM   34  O1  UNL     1       3.092  10.102  17.228  1.00  0.00    -0.649 OA
BRANCH  33  35
HETATM   35  O2  UNL     1       1.804   8.321  16.962  1.00  0.00    -0.776 OA
HETATM   36  H35 UNL     1       2.650   7.974  17.323  1.00  0.00     0.167 HD
ENDBRANCH  33  35
ENDBRANCH  11  33
BRANCH  13  37
HETATM   37  O3  UNL     1      -0.211  12.564  17.194  1.00  0.00    -0.394 OA
HETATM   38  H37 UNL     1       0.571  13.124  17.045  1.00  0.00     0.210 HD
ENDBRANCH  13  37
TORSDOF 8
ENDMDL
MODEL 4
REMARK minimizedAffinity -9.47111225
REMARK CNNscore 0.457304329
REMARK CNNaffinity 6.56059885
REMARK  8 active torsions:
REMARK  status: ('A' for Active; 'I' for Inactive)
REMARK    1  A    between atoms: C4_4  and  C5_5 
REMARK    2  A    between atoms: C5_5  and  C6_6 
REMARK    3  A    between atoms: C6_6  and  C7_7 
REMARK    4  A    between atoms: C7_7  and  C9_9 
REMARK    5  A    between atoms: C19_19  and  C21_21 
REMARK    6  A    between atoms: C21_21  and  O2_23 
REMARK    7  A    between atoms: C22_24  and  O3_25 
REMARK    8  A    between atoms: C24_27  and  O4_28 
ROOT
HETATM    1  C9  UNL     1      -2.173   5.480  13.564  1.00  0.00    -0.002 C 
HETATM    2  C10 UNL     1      -2.147   4.661  12.240  1.00  0.00     0.006 C 
HETATM    3  C11 UNL     1      -1.108   5.324  11.316  1.00  0.00     0.011 C 
HETATM    4  C12 UNL     1      -0.206   6.138  12.263  1.00  0.00    -0.028 C 
HETATM    5  C13 UNL     1       0.707   5.069  13.007  1.00  0.00     0.016 C 
HETATM    6  C14 UNL     1       0.766   7.230  11.602  1.00  0.00    -0.028 C 
HETATM    7  C15 UNL     1       0.070   8.229  10.633  1.00  0.00     0.016 C 
HETATM    8  C16 UNL     1       1.815   6.476  10.702  1.00  0.00     0.011 C 
HETATM    9  C17 UNL     1       3.149   7.187  10.518  1.00  0.00     0.007 C 
HETATM   10  C18 UNL     1       3.857   7.334  11.875  1.00  0.00     0.018 C 
HETATM   11  C19 UNL     1       5.290   7.989  11.768  1.00  0.00     0.072 C 
HETATM   12  C20 UNL     1       5.336   9.152  10.751  1.00  0.00     0.030 C 
HETATM   13  C22 UNL     1       5.813   8.442  13.169  1.00  0.00     0.139 C 
HETATM   14  C23 UNL     1       5.100   7.718  14.303  1.00  0.00     0.065 C 
HETATM   15  C24 UNL     1       3.603   8.024  14.316  1.00  0.00     0.130 C 
HETATM   16  C25 UNL     1       2.985   8.039  12.917  1.00  0.00    -0.000 A 
HETATM   17  C26 UNL     1       2.277   9.283  12.451  1.00  0.00     0.024 A 
HETATM   18  C27 UNL     1       1.428   8.060  12.778  1.00  0.00    -0.021 A 
HETATM   19  C28 UNL     1       0.497   8.404  13.968  1.00  0.00     0.012 C 
HETATM   20  C29 UNL     1      -0.505   7.337  14.427  1.00  0.00     0.011 C 
HETATM   21  C30 UNL     1      -1.290   6.745  13.248  1.00  0.00    -0.032 C 
HETATM   22  C31 UNL     1      -2.206   7.846  12.666  1.00  0.00     0.016 C 
ENDROOT
BRANCH   1  23
HETATM   23  C7  UNL     1      -3.593   5.548  14.212  1.00  0.00    -0.014 C 
HETATM   24  C8  UNL     1      -3.563   6.334  15.529  1.00  0.00     0.010 C 
BRANCH  23  25
HETATM   25  C6  UNL     1      -4.753   6.025  13.303  1.00  0.00     0.008 C 
BRANCH  25  26
HETATM   26  C5  UNL     1      -5.993   5.114  13.348  1.00  0.00     0.028 C 
BRANCH  26  27
HETATM   27  C4  UNL     1      -7.273   5.847  13.631  1.00  0.00    -0.025 C 
HETATM   28  C2  UNL     1      -7.813   6.154  14.827  1.00  0.00    -0.091 C 
HETATM   29  C1  UNL     1      -7.200   5.843  16.165  1.00  0.00     0.042 C 
HETATM   30  C3  UNL     1      -9.130   6.881  14.908  1.00  0.00     0.042 C 
ENDBRANCH  26  27
ENDBRANCH  25  26
ENDBRANCH  23  25
ENDBRANCH   1  23
BRANCH  15  31
HETATM   31  O4  UNL     1       2.972   7.012  15.100  1.00  0.00    -0.395 OA
HETATM   32  H41 UNL     1       3.266   7.141  16.017  1.00  0.00     0.210 HD
ENDBRANCH  15  31
BRANCH  11  33
HETATM   33  C21 UNL     1       6.267   6.914  11.277  1.00  0.00     0.151 C 
HETATM   34  O1  UNL     1       7.163   7.042  10.460  1.00  0.00    -0.649 OA
BRANCH  33  35
HETATM   35  O2  UNL     1       6.046   5.697  11.818  1.00  0.00    -0.776 OA
HETATM   36  H35 UNL     1       6.745   5.134  11.420  1.00  0.00     0.167 HD
ENDBRANCH  33  35
ENDBRANCH  11  33
BRANCH  13  37
HETATM   37  O3  UNL     1       5.653   9.847  13.394  1.00  0.00    -0.394 OA
HETATM   38  H37 UNL     1       6.347  10.308  12.888  1.00  0.00     0.210 HD
ENDBRANCH  13  37
TORSDOF 8
ENDMDL
MODEL 5
REMARK minimizedAffinity -6.70845699
REMARK CNNscore 0.436839968
REMARK CNNaffinity 5.74380112
REMARK  8 active torsions:
REMARK  status: ('A' for Active; 'I' for Inactive)
REMARK    1  A    between atoms: C4_4  and  C5_5 
REMARK    2  A    between atoms: C5_5  and  C6_6 
REMARK    3  A    between atoms: C6_6  and  C7_7 
REMARK    4  A    between atoms: C7_7  and  C9_9 
REMARK    5  A    between atoms: C19_19  and  C21_21 
REMARK    6  A    between atoms: C21_21  and  O2_23 
REMARK    7  A    between atoms: C22_24  and  O3_25 
REMARK    8  A    between atoms: C24_27  and  O4_28 
ROOT
HETATM    1  C9  UNL     1     -17.582   4.865  14.329  1.00  0.00    -0.002 C 
HETATM    2  C10 UNL     1     -18.213   5.174  15.718  1.00  0.00     0.006 C 
HETATM    3  C11 UNL     1     -18.826   3.862  16.241  1.00  0.00     0.011 C 
HETATM    4  C12 UNL     1     -18.109   2.752  15.449  1.00  0.00    -0.028 C 
HETATM    5  C13 UNL     1     -16.648   2.660  16.072  1.00  0.00     0.016 C 
HETATM    6  C14 UNL     1     -18.748   1.281  15.489  1.00  0.00    -0.028 C 
HETATM    7  C15 UNL     1     -20.262   1.213  15.138  1.00  0.00     0.016 C 
HETATM    8  C16 UNL     1     -18.663   0.748  16.968  1.00  0.00     0.011 C 
HETATM    9  C17 UNL     1     -18.602  -0.766  17.114  1.00  0.00     0.007 C 
HETATM   10  C18 UNL     1     -17.326  -1.307  16.449  1.00  0.00     0.018 C 
HETATM   11  C19 UNL     1     -17.138  -2.865  16.623  1.00  0.00     0.072 C 
HETATM   12  C20 UNL     1     -18.466  -3.643  16.477  1.00  0.00     0.030 C 
HETATM   13  C22 UNL     1     -16.049  -3.418  15.649  1.00  0.00     0.139 C 
HETATM   14  C23 UNL     1     -15.110  -2.322  15.165  1.00  0.00     0.065 C 
HETATM   15  C24 UNL     1     -15.855  -1.252  14.367  1.00  0.00     0.130 C 
HETATM   16  C25 UNL     1     -17.204  -0.879  14.984  1.00  0.00    -0.000 A 
HETATM   17  C26 UNL     1     -18.448  -1.028  14.149  1.00  0.00     0.024 A 
HETATM   18  C27 UNL     1     -17.956   0.383  14.451  1.00  0.00    -0.021 A 
HETATM   19  C28 UNL     1     -17.571   1.074  13.118  1.00  0.00     0.012 C 
HETATM   20  C29 UNL     1     -17.113   2.537  13.174  1.00  0.00     0.011 C 
HETATM   21  C30 UNL     1     -18.071   3.405  14.004  1.00  0.00    -0.032 C 
HETATM   22  C31 UNL     1     -19.421   3.497  13.257  1.00  0.00     0.016 C 
ENDROOT
BRANCH   1  23
HETATM   23  C7  UNL     1     -17.687   6.062  13.331  1.00  0.00    -0.014 C 
HETATM   24  C8  UNL     1     -17.953   7.379  14.073  1.00  0.00     0.010 C 
BRANCH  23  25
HETATM   25  C6  UNL     1     -16.536   6.221  12.307  1.00  0.00     0.008 C 
BRANCH  25  26
HETATM   26  C5  UNL     1     -15.651   7.455  12.552  1.00  0.00     0.028 C 
BRANCH  26  27
HETATM   27  C4  UNL     1     -14.227   7.121  12.897  1.00  0.00    -0.025 C 
HETATM   28  C2  UNL     1     -13.721   6.757  14.091  1.00  0.00    -0.091 C 
HETATM   29  C1  UNL     1     -14.515   6.573  15.355  1.00  0.00     0.042 C 
HETATM   30  C3  UNL     1     -12.247   6.483  14.246  1.00  0.00     0.042 C 
ENDBRANCH  26  27
ENDBRANCH  25  26
ENDBRANCH  23  25
ENDBRANCH   1  23
BRANCH  15  31
HETATM   31  O4  UNL     1     -15.019  -0.096  14.328  1.00  0.00    -0.395 OA
HETATM   32  H41 UNL     1     -14.246  -0.325  13.786  1.00  0.00     0.210 HD
ENDBRANCH  15  31
BRANCH  11  33
HETATM   33  C21 UNL     1     -16.612  -3.123  18.040  1.00  0.00     0.151 C 
HETATM   34  O1  UNL     1     -16.487  -2.315  18.945  1.00  0.00    -0.649 OA
BRANCH  33  35
HETATM   35  O2  UNL     1     -16.226  -4.400  18.248  1.00  0.00    -0.776 OA
HETATM   36  H35 UNL     1     -15.930  -4.404  19.185  1.00  0.00     0.167 HD
ENDBRANCH  33  35
ENDBRANCH  11  33
BRANCH  13  37
HETATM   37  O3  UNL     1     -16.607  -4.045  14.489  1.00  0.00    -0.394 OA
HETATM   38  H37 UNL     1     -16.938  -4.920  14.757  1.00  0.00     0.210 HD
ENDBRANCH  13  37
TORSDOF 8
ENDMDL
MODEL 6
REMARK minimizedAffinity -10.0723629
REMARK CNNscore 0.410414726
REMARK CNNaffinity 6.55090666
REMARK  8 active torsions:
REMARK  status: ('A' for Active; 'I' for Inactive)
REMARK    1  A    between atoms: C4_4  and  C5_5 
REMARK    2  A    between atoms: C5_5  and  C6_6 
REMARK    3  A    between atoms: C6_6  and  C7_7 
REMARK    4  A    between atoms: C7_7  and  C9_9 
REMARK    5  A    between atoms: C19_19  and  C21_21 
REMARK    6  A    between atoms: C21_21  and  O2_23 
REMARK    7  A    between atoms: C22_24  and  O3_25 
REMARK    8  A    between atoms: C24_27  and  O4_28 
ROOT
HETATM    1  C9  UNL     1      -2.160   5.528  13.617  1.00  0.00    -0.002 C 
HETATM    2  C10 UNL     1      -2.141   4.716  12.288  1.00  0.00     0.006 C 
HETATM    3  C11 UNL     1      -1.105   5.382  11.363  1.00  0.00     0.011 C 
HETATM    4  C12 UNL     1      -0.197   6.190  12.311  1.00  0.00    -0.028 C 
HETATM    5  C13 UNL     1       0.717   5.115  13.045  1.00  0.00     0.016 C 
HETATM    6  C14 UNL     1       0.774   7.283  11.652  1.00  0.00    -0.028 C 
HETATM    7  C15 UNL     1       0.076   8.288  10.691  1.00  0.00     0.016 C 
HETATM    8  C16 UNL     1       1.818   6.532  10.744  1.00  0.00     0.011 C 
HETATM    9  C17 UNL     1       3.152   7.241  10.557  1.00  0.00     0.007 C 
HETATM   10  C18 UNL     1       3.867   7.379  11.912  1.00  0.00     0.018 C 
HETATM   11  C19 UNL     1       5.300   8.033  11.803  1.00  0.00     0.072 C 
HETATM   12  C20 UNL     1       5.345   9.201  10.791  1.00  0.00     0.030 C 
HETATM   13  C22 UNL     1       5.830   8.477  13.203  1.00  0.00     0.139 C 
HETATM   14  C23 UNL     1       5.121   7.748  14.336  1.00  0.00     0.065 C 
HETATM   15  C24 UNL     1       3.624   8.057  14.358  1.00  0.00     0.130 C 
HETATM   16  C25 UNL     1       3.000   8.080  12.962  1.00  0.00    -0.000 A 
HETATM   17  C26 UNL     1       2.293   9.328  12.505  1.00  0.00     0.024 A 
HETATM   18  C27 UNL     1       1.443   8.106  12.829  1.00  0.00    -0.021 A 
HETATM   19  C28 UNL     1       0.518   8.444  14.025  1.00  0.00     0.012 C 
HETATM   20  C29 UNL     1      -0.484   7.377  14.483  1.00  0.00     0.011 C 
HETATM   21  C30 UNL     1      -1.276   6.793  13.303  1.00  0.00    -0.032 C 
HETATM   22  C31 UNL     1      -2.192   7.899  12.732  1.00  0.00     0.016 C 
ENDROOT
BRANCH   1  23
HETATM   23  C7  UNL     1      -3.576   5.595  14.271  1.00  0.00    -0.014 C 
HETATM   24  C8  UNL     1      -3.543   6.391  15.582  1.00  0.00     0.010 C 
BRANCH  23  25
HETATM   25  C6  UNL     1      -4.743   6.060  13.365  1.00  0.00     0.008 C 
BRANCH  25  26
HETATM   26  C5  UNL     1      -5.899   5.049  13.269  1.00  0.00     0.028 C 
BRANCH  26  27
HETATM   27  C4  UNL     1      -5.605   3.877  12.377  1.00  0.00    -0.025 C 
HETATM   28  C2  UNL     1      -6.340   2.762  12.194  1.00  0.00    -0.091 C 
HETATM   29  C1  UNL     1      -7.666   2.476  12.844  1.00  0.00     0.042 C 
HETATM   30  C3  UNL     1      -5.863   1.675  11.265  1.00  0.00     0.042 C 
ENDBRANCH  26  27
ENDBRANCH  25  26
ENDBRANCH  23  25
ENDBRANCH   1  23
BRANCH  15  31
HETATM   31  O4  UNL     1       2.995   7.042  15.139  1.00  0.00    -0.395 OA
HETATM   32  H41 UNL     1       3.293   7.166  16.055  1.00  0.00     0.210 HD
ENDBRANCH  15  31
BRANCH  11  33
HETATM   33  C21 UNL     1       6.273   6.959  11.301  1.00  0.00     0.151 C 
HETATM   34  O1  UNL     1       7.164   7.088  10.479  1.00  0.00    -0.649 OA
BRANCH  33  35
HETATM   35  O2  UNL     1       6.055   5.740  11.840  1.00  0.00    -0.776 OA
HETATM   36  H35 UNL     1       6.751   5.177  11.435  1.00  0.00     0.167 HD
ENDBRANCH  33  35
ENDBRANCH  11  33
BRANCH  13  37
HETATM   37  O3  UNL     1       5.674   9.881  13.437  1.00  0.00    -0.394 OA
HETATM   38  H37 UNL     1       6.366  10.343  12.931  1.00  0.00     0.210 HD
ENDBRANCH  13  37
TORSDOF 8
ENDMDL
MODEL 7
REMARK minimizedAffinity -6.41685915
REMARK CNNscore 0.397612065
REMARK CNNaffinity 6.29386091
REMARK  8 active torsions:
REMARK  status: ('A' for Active; 'I' for Inactive)
REMARK    1  A    between atoms: C4_4  and  C5_5 
REMARK    2  A    between atoms: C5_5  and  C6_6 
REMARK    3  A    between atoms: C6_6  and  C7_7 
REMARK    4  A    between atoms: C7_7  and  C9_9 
REMARK    5  A    between atoms: C19_19  and  C21_21 
REMARK    6  A    between atoms: C21_21  and  O2_23 
REMARK    7  A    between atoms: C22_24  and  O3_25 
REMARK    8  A    between atoms: C24_27  and  O4_28 
ROOT
HETATM    1  C9  UNL     1     -10.894   9.270  14.279  1.00  0.00    -0.002 C 
HETATM    2  C10 UNL     1     -10.817   7.893  13.556  1.00  0.00     0.006 C 
HETATM    3  C11 UNL     1     -12.263   7.399  13.364  1.00  0.00     0.011 C 
HETATM    4  C12 UNL     1     -13.129   8.669  13.477  1.00  0.00    -0.028 C 
HETATM    5  C13 UNL     1     -12.907   9.458  12.114  1.00  0.00     0.016 C 
HETATM    6  C14 UNL     1     -14.709   8.473  13.673  1.00  0.00    -0.028 C 
HETATM    7  C15 UNL     1     -15.113   7.517  14.832  1.00  0.00     0.016 C 
HETATM    8  C16 UNL     1     -15.285   7.787  12.378  1.00  0.00     0.011 C 
HETATM    9  C17 UNL     1     -16.747   8.083  12.077  1.00  0.00     0.007 C 
HETATM   10  C18 UNL     1     -16.936   9.586  11.818  1.00  0.00     0.018 C 
HETATM   11  C19 UNL     1     -18.413   9.975  11.416  1.00  0.00     0.072 C 
HETATM   12  C20 UNL     1     -19.473   9.200  12.231  1.00  0.00     0.030 C 
HETATM   13  C22 UNL     1     -18.641  11.517  11.513  1.00  0.00     0.139 C 
HETATM   14  C23 UNL     1     -17.330  12.290  11.464  1.00  0.00     0.065 C 
HETATM   15  C24 UNL     1     -16.425  11.943  12.645  1.00  0.00     0.130 C 
HETATM   16  C25 UNL     1     -16.414  10.449  12.970  1.00  0.00    -0.000 A 
HETATM   17  C26 UNL     1     -16.807  10.006  14.354  1.00  0.00     0.024 A 
HETATM   18  C27 UNL     1     -15.339   9.898  13.961  1.00  0.00    -0.021 A 
HETATM   19  C28 UNL     1     -14.507  10.829  14.880  1.00  0.00     0.012 C 
HETATM   20  C29 UNL     1     -12.982  10.829  14.711  1.00  0.00     0.011 C 
HETATM   21  C30 UNL     1     -12.410   9.404  14.683  1.00  0.00    -0.032 C 
HETATM   22  C31 UNL     1     -12.599   8.773  16.082  1.00  0.00     0.016 C 
ENDROOT
BRANCH   1  23
HETATM   23  C7  UNL     1      -9.705   9.511  15.262  1.00  0.00    -0.014 C 
HETATM   24  C8  UNL     1      -9.624  10.985  15.681  1.00  0.00     0.010 C 
BRANCH  23  25
HETATM   25  C6  UNL     1      -9.614   8.574  16.492  1.00  0.00     0.008 C 
BRANCH  25  26
HETATM   26  C5  UNL     1      -8.643   7.396  16.307  1.00  0.00     0.028 C 
BRANCH  26  27
HETATM   27  C4  UNL     1      -7.424   7.737  15.498  1.00  0.00    -0.025 C 
HETATM   28  C2  UNL     1      -6.956   7.123  14.393  1.00  0.00    -0.091 C 
HETATM   29  C1  UNL     1      -7.605   5.953  13.706  1.00  0.00     0.042 C 
HETATM   30  C3  UNL     1      -5.691   7.603  13.729  1.00  0.00     0.042 C 
ENDBRANCH  26  27
ENDBRANCH  25  26
ENDBRANCH  23  25
ENDBRANCH   1  23
BRANCH  15  31
HETATM   31  O4  UNL     1     -15.105  12.361  12.303  1.00  0.00    -0.395 OA
HETATM   32  H41 UNL     1     -15.116  13.332  12.268  1.00  0.00     0.210 HD
ENDBRANCH  15  31
BRANCH  11  33
HETATM   33  C21 UNL     1     -18.614   9.607   9.941  1.00  0.00     0.151 C 
HETATM   34  O1  UNL     1     -18.135  10.161   8.965  1.00  0.00    -0.649 OA
BRANCH  33  35
HETATM   35  O2  UNL     1     -19.450   8.564   9.754  1.00  0.00    -0.776 OA
HETATM   36  H35 UNL     1     -19.465   8.448   8.779  1.00  0.00     0.167 HD
ENDBRANCH  33  35
ENDBRANCH  11  33
BRANCH  13  37
HETATM   37  O3  UNL     1     -19.319  11.904  12.713  1.00  0.00    -0.394 OA
HETATM   38  H37 UNL     1     -20.261  11.683  12.605  1.00  0.00     0.210 HD
ENDBRANCH  13  37
TORSDOF 8
ENDMDL
MODEL 8
REMARK minimizedAffinity -6.77300358
REMARK CNNscore 0.361755908
REMARK CNNaffinity 6.29488134
REMARK  8 active torsions:
REMARK  status: ('A' for Active; 'I' for Inactive)
REMARK    1  A    between atoms: C4_4  and  C5_5 
REMARK    2  A    between atoms: C5_5  and  C6_6 
REMARK    3  A    between atoms: C6_6  and  C7_7 
REMARK    4  A    between atoms: C7_7  and  C9_9 
REMARK    5  A    between atoms: C19_19  and  C21_21 
REMARK    6  A    between atoms: C21_21  and  O2_23 
REMARK    7  A    between atoms: C22_24  and  O3_25 
REMARK    8  A    between atoms: C24_27  and  O4_28 
ROOT
HETATM    1  C9  UNL     1      -9.640   7.748  14.403  1.00  0.00    -0.002 C 
HETATM    2  C10 UNL     1     -10.955   6.939  14.198  1.00  0.00     0.006 C 
HETATM    3  C11 UNL     1     -12.090   7.740  14.862  1.00  0.00     0.011 C 
HETATM    4  C12 UNL     1     -11.548   9.179  14.959  1.00  0.00    -0.028 C 
HETATM    5  C13 UNL     1     -11.610   9.759  13.480  1.00  0.00     0.016 C 
HETATM    6  C14 UNL     1     -12.332  10.202  15.914  1.00  0.00    -0.028 C 
HETATM    7  C15 UNL     1     -12.582   9.689  17.362  1.00  0.00     0.016 C 
HETATM    8  C16 UNL     1     -13.773  10.425  15.321  1.00  0.00     0.011 C 
HETATM    9  C17 UNL     1     -14.418  11.762  15.656  1.00  0.00     0.007 C 
HETATM   10  C18 UNL     1     -13.588  12.910  15.058  1.00  0.00     0.018 C 
HETATM   11  C19 UNL     1     -14.228  14.335  15.287  1.00  0.00     0.072 C 
HETATM   12  C20 UNL     1     -14.845  14.489  16.696  1.00  0.00     0.030 C 
HETATM   13  C22 UNL     1     -13.201  15.473  14.991  1.00  0.00     0.139 C 
HETATM   14  C23 UNL     1     -12.061  14.994  14.102  1.00  0.00     0.065 C 
HETATM   15  C24 UNL     1     -11.250  13.886  14.772  1.00  0.00     0.130 C 
HETATM   16  C25 UNL     1     -12.124  12.866  15.504  1.00  0.00    -0.000 A 
HETATM   17  C26 UNL     1     -11.889  12.632  16.972  1.00  0.00     0.024 A 
HETATM   18  C27 UNL     1     -11.476  11.533  16.000  1.00  0.00    -0.021 A 
HETATM   19  C28 UNL     1      -9.940  11.342  16.086  1.00  0.00     0.012 C 
HETATM   20  C29 UNL     1      -9.306  10.230  15.240  1.00  0.00     0.011 C 
HETATM   21  C30 UNL     1     -10.051   8.896  15.398  1.00  0.00    -0.032 C 
HETATM   22  C31 UNL     1      -9.844   8.388  16.843  1.00  0.00     0.016 C 
ENDROOT
BRANCH   1  23
HETATM   23  C7  UNL     1      -8.386   6.837  14.593  1.00  0.00    -0.014 C 
HETATM   24  C8  UNL     1      -8.437   6.099  15.937  1.00  0.00     0.010 C 
BRANCH  23  25
HETATM   25  C6  UNL     1      -8.046   5.866  13.435  1.00  0.00     0.008 C 
BRANCH  25  26
HETATM   26  C5  UNL     1      -7.166   4.677  13.859  1.00  0.00     0.028 C 
BRANCH  26  27
HETATM   27  C4  UNL     1      -6.861   3.721  12.741  1.00  0.00    -0.025 C 
HETATM   28  C2  UNL     1      -5.674   3.480  12.149  1.00  0.00    -0.091 C 
HETATM   29  C1  UNL     1      -4.365   4.118  12.528  1.00  0.00     0.042 C 
HETATM   30  C3  UNL     1      -5.571   2.492  11.016  1.00  0.00     0.042 C 
ENDBRANCH  26  27
ENDBRANCH  25  26
ENDBRANCH  23  25
ENDBRANCH   1  23
BRANCH  15  31
HETATM   31  O4  UNL     1     -10.511  13.224  13.746  1.00  0.00    -0.395 OA
HETATM   32  H41 UNL     1      -9.852  13.859  13.419  1.00  0.00     0.210 HD
ENDBRANCH  15  31
BRANCH  11  33
HETATM   33  C21 UNL     1     -15.363  14.512  14.271  1.00  0.00     0.151 C 
HETATM   34  O1  UNL     1     -16.431  15.076  14.440  1.00  0.00    -0.649 OA
BRANCH  33  35
HETATM   35  O2  UNL     1     -15.115  13.931  13.078  1.00  0.00    -0.776 OA
HETATM   36  H35 UNL     1     -15.914  14.138  12.546  1.00  0.00     0.167 HD
ENDBRANCH  33  35
ENDBRANCH  11  33
BRANCH  13  37
HETATM   37  O3  UNL     1     -12.614  16.016  16.180  1.00  0.00    -0.394 OA
HETATM   38  H37 UNL     1     -13.275  16.599  16.595  1.00  0.00     0.210 HD
ENDBRANCH  13  37
TORSDOF 8
ENDMDL
MODEL 9
REMARK minimizedAffinity -7.03312254
REMARK CNNscore 0.33696714
REMARK CNNaffinity 6.1585803
REMARK  8 active torsions:
REMARK  status: ('A' for Active; 'I' for Inactive)
REMARK    1  A    between atoms: C4_4  and  C5_5 
REMARK    2  A    between atoms: C5_5  and  C6_6 
REMARK    3  A    between atoms: C6_6  and  C7_7 
REMARK    4  A    between atoms: C7_7  and  C9_9 
REMARK    5  A    between atoms: C19_19  and  C21_21 
REMARK    6  A    between atoms: C21_21  and  O2_23 
REMARK    7  A    between atoms: C22_24  and  O3_25 
REMARK    8  A    between atoms: C24_27  and  O4_28 
ROOT
HETATM    1  C9  UNL     1      -7.127 -10.274  -0.769  1.00  0.00    -0.002 C 
HETATM    2  C10 UNL     1      -8.565 -10.311  -0.173  1.00  0.00     0.006 C 
HETATM    3  C11 UNL     1      -8.454 -10.906   1.243  1.00  0.00     0.011 C 
HETATM    4  C12 UNL     1      -6.977 -10.709   1.636  1.00  0.00    -0.028 C 
HETATM    5  C13 UNL     1      -6.825  -9.159   1.959  1.00  0.00     0.016 C 
HETATM    6  C14 UNL     1      -6.434 -11.524   2.906  1.00  0.00    -0.028 C 
HETATM    7  C15 UNL     1      -6.717 -13.054   2.875  1.00  0.00     0.016 C 
HETATM    8  C16 UNL     1      -7.194 -11.009   4.185  1.00  0.00     0.011 C 
HETATM    9  C17 UNL     1      -6.436 -11.150   5.497  1.00  0.00     0.007 C 
HETATM   10  C18 UNL     1      -5.155 -10.301   5.457  1.00  0.00     0.018 C 
HETATM   11  C19 UNL     1      -4.344 -10.322   6.812  1.00  0.00     0.072 C 
HETATM   12  C20 UNL     1      -4.312 -11.724   7.463  1.00  0.00     0.030 C 
HETATM   13  C22 UNL     1      -2.901  -9.756   6.619  1.00  0.00     0.139 C 
HETATM   14  C23 UNL     1      -2.794  -8.884   5.376  1.00  0.00     0.065 C 
HETATM   15  C24 UNL     1      -3.087  -9.677   4.102  1.00  0.00     0.130 C 
HETATM   16  C25 UNL     1      -4.266 -10.638   4.257  1.00  0.00    -0.000 A 
HETATM   17  C26 UNL     1      -4.046 -12.103   3.992  1.00  0.00     0.024 A 
HETATM   18  C27 UNL     1      -4.865 -11.312   2.980  1.00  0.00    -0.021 A 
HETATM   19  C28 UNL     1      -4.120 -11.317   1.621  1.00  0.00     0.012 C 
HETATM   20  C29 UNL     1      -4.800 -10.635   0.427  1.00  0.00     0.011 C 
HETATM   21  C30 UNL     1      -6.262 -11.079   0.271  1.00  0.00    -0.032 C 
HETATM   22  C31 UNL     1      -6.280 -12.572  -0.131  1.00  0.00     0.016 C 
ENDROOT
BRANCH   1  23
HETATM   23  C7  UNL     1      -7.098 -10.528  -2.310  1.00  0.00    -0.014 C 
HETATM   24  C8  UNL     1      -8.425 -11.124  -2.797  1.00  0.00     0.010 C 
BRANCH  23  25
HETATM   25  C6  UNL     1      -6.655  -9.344  -3.205  1.00  0.00     0.008 C 
BRANCH  25  26
HETATM   26  C5  UNL     1      -7.640  -8.163  -3.206  1.00  0.00     0.028 C 
BRANCH  26  27
HETATM   27  C4  UNL     1      -8.139  -7.791  -4.574  1.00  0.00    -0.025 C 
HETATM   28  C2  UNL     1      -8.912  -6.745  -4.925  1.00  0.00    -0.091 C 
HETATM   29  C1  UNL     1      -9.418  -5.682  -3.988  1.00  0.00     0.042 C 
HETATM   30  C3  UNL     1      -9.331  -6.551  -6.360  1.00  0.00     0.042 C 
ENDBRANCH  26  27
ENDBRANCH  25  26
ENDBRANCH  23  25
ENDBRANCH   1  23
BRANCH  15  31
HETATM   31  O4  UNL     1      -3.381  -8.731   3.075  1.00  0.00    -0.395 OA
HETATM   32  H41 UNL     1      -2.558  -8.250   2.890  1.00  0.00     0.210 HD
ENDBRANCH  15  31
BRANCH  11  33
HETATM   33  C21 UNL     1      -5.042  -9.377   7.797  1.00  0.00     0.151 C 
HETATM   34  O1  UNL     1      -5.695  -8.381   7.535  1.00  0.00    -0.649 OA
BRANCH  33  35
HETATM   35  O2  UNL     1      -4.857  -9.714   9.091  1.00  0.00    -0.776 OA
HETATM   36  H35 UNL     1      -5.365  -9.033   9.585  1.00  0.00     0.167 HD
ENDBRANCH  33  35
ENDBRANCH  11  33
BRANCH  13  37
HETATM   37  O3  UNL     1      -1.911 -10.785   6.504  1.00  0.00    -0.394 OA
HETATM   38  H37 UNL     1      -1.748 -11.138   7.396  1.00  0.00     0.210 HD
ENDBRANCH  13  37
TORSDOF 8
ENDMDL
