MODEL 1
REMARK minimizedAffinity -9.79985428
REMARK  7 active torsions:
REMARK  status: ('A' for Active; 'I' for Inactive)
REMARK    1  A    between atoms: C2_2  and  C30_34 
REMARK    2  A    between atoms: C3_3  and  C4_4 
REMARK    3  A    between atoms: C4_4  and  C5_5 
REMARK    4  A    between atoms: C5_5  and  C6_6 
REMARK    5  A    between atoms: C6_6  and  C8_8 
REMARK    6  A    between atoms: C15_16  and  O2_17 
REMARK    7  A    between atoms: C30_34  and  O6_36 
ROOT
HETATM    1  C8  UNL     1      -0.483  51.755 -20.079  1.00  0.00     0.006 C 
HETATM    2  C9  UNL     1      -1.171  52.419 -18.863  1.00  0.00     0.085 C 
HETATM    3  C10 UNL     1      -2.082  51.318 -18.324  1.00  0.00     0.141 C 
HETATM    4  O1  UNL     1      -2.908  51.526 -17.448  1.00  0.00    -0.297 OA
HETATM    5  C11 UNL     1      -1.826  49.985 -19.047  1.00  0.00     0.055 C 
HETATM    6  C12 UNL     1      -0.644  49.312 -18.301  1.00  0.00     0.030 C 
HETATM    7  C13 UNL     1      -2.894  48.940 -19.234  1.00  0.00     0.010 C 
HETATM    8  C14 UNL     1      -2.979  48.153 -20.337  1.00  0.00    -0.032 C 
HETATM    9  C15 UNL     1      -1.915  48.311 -21.446  1.00  0.00     0.149 C 
HETATM   10  C16 UNL     1      -0.935  49.510 -21.344  1.00  0.00     0.047 C 
HETATM   11  C17 UNL     1      -1.490  50.622 -20.453  1.00  0.00    -0.018 C 
HETATM   12  C18 UNL     1      -2.737  51.235 -21.172  1.00  0.00     0.017 C 
HETATM   13  C19 UNL     1      -4.147  47.117 -20.568  1.00  0.00    -0.012 C 
HETATM   14  C20 UNL     1      -3.533  45.760 -20.982  1.00  0.00     0.021 C 
HETATM   15  C21 UNL     1      -5.025  47.681 -21.720  1.00  0.00     0.021 C 
HETATM   16  C22 UNL     1      -6.268  46.863 -22.019  1.00  0.00     0.080 C 
HETATM   17  C23 UNL     1      -7.133  46.747 -20.792  1.00  0.00     0.135 C 
HETATM   18  O3  UNL     1      -8.339  46.992 -20.862  1.00  0.00    -0.297 OA
HETATM   19  C24 UNL     1      -6.478  46.207 -19.516  1.00  0.00     0.018 C 
HETATM   20  C25 UNL     1      -7.446  46.446 -18.330  1.00  0.00     0.023 C 
HETATM   21  C26 UNL     1      -6.374  44.672 -19.657  1.00  0.00     0.023 C 
HETATM   22  C27 UNL     1      -5.067  46.898 -19.283  1.00  0.00     0.020 C 
HETATM   23  C28 UNL     1      -5.215  48.233 -18.529  1.00  0.00     0.090 C 
HETATM   24  C29 UNL     1      -3.848  48.697 -18.132  1.00  0.00     0.157 C 
HETATM   25  O4  UNL     1      -3.509  48.795 -16.958  1.00  0.00    -0.293 OA
ENDROOT
BRANCH   1  26
HETATM   26  C6  UNL     1      -0.017  52.695 -21.229  1.00  0.00    -0.013 C 
HETATM   27  C7  UNL     1       0.974  53.797 -20.838  1.00  0.00     0.010 C 
BRANCH  26  28
HETATM   28  C5  UNL     1       0.528  51.891 -22.440  1.00  0.00     0.008 C 
BRANCH  28  29
HETATM   29  C4  UNL     1      -0.162  52.164 -23.778  1.00  0.00     0.028 C 
BRANCH  29  30
HETATM   30  C3  UNL     1       0.836  52.225 -24.903  1.00  0.00    -0.013 C 
HETATM   31  C2  UNL     1       0.721  51.621 -26.105  1.00  0.00     0.008 C 
HETATM   32  C1  UNL     1      -0.408  50.707 -26.484  1.00  0.00     0.055 C 
BRANCH  31  33
HETATM   33  C30 UNL     1       1.754  51.809 -27.158  1.00  0.00     0.171 C 
HETATM   34  O5  UNL     1       1.547  51.808 -28.358  1.00  0.00    -0.646 OA
BRANCH  33  35
HETATM   35  O6  UNL     1       2.996  51.989 -26.679  1.00  0.00    -0.773 OA
HETATM   36  H42 UNL     1       3.537  52.102 -27.488  1.00  0.00     0.167 HD
ENDBRANCH  33  35
ENDBRANCH  31  33
ENDBRANCH  29  30
ENDBRANCH  28  29
ENDBRANCH  26  28
ENDBRANCH   1  26
BRANCH   9  37
HETATM   37  O2  UNL     1      -1.110  47.136 -21.468  1.00  0.00    -0.391 OA
HETATM   38  H20 UNL     1      -0.536  47.185 -22.250  1.00  0.00     0.210 HD
ENDBRANCH   9  37
TORSDOF 7
ENDMDL
MODEL 2
REMARK minimizedAffinity -9.7245779
REMARK  7 active torsions:
REMARK  status: ('A' for Active; 'I' for Inactive)
REMARK    1  A    between atoms: C2_2  and  C30_34 
REMARK    2  A    between atoms: C3_3  and  C4_4 
REMARK    3  A    between atoms: C4_4  and  C5_5 
REMARK    4  A    between atoms: C5_5  and  C6_6 
REMARK    5  A    between atoms: C6_6  and  C8_8 
REMARK    6  A    between atoms: C15_16  and  O2_17 
REMARK    7  A    between atoms: C30_34  and  O6_36 
ROOT
HETATM    1  C8  UNL     1      -5.237  48.136 -22.066  1.00  0.00     0.006 C 
HETATM    2  C9  UNL     1      -4.950  49.068 -20.865  1.00  0.00     0.085 C 
HETATM    3  C10 UNL     1      -4.375  50.323 -21.517  1.00  0.00     0.141 C 
HETATM    4  O1  UNL     1      -3.883  51.230 -20.862  1.00  0.00    -0.297 OA
HETATM    5  C11 UNL     1      -4.483  50.250 -23.049  1.00  0.00     0.055 C 
HETATM    6  C12 UNL     1      -5.901  50.767 -23.406  1.00  0.00     0.030 C 
HETATM    7  C13 UNL     1      -3.508  50.938 -23.969  1.00  0.00     0.010 C 
HETATM    8  C14 UNL     1      -3.120  50.419 -25.162  1.00  0.00    -0.032 C 
HETATM    9  C15 UNL     1      -3.724  49.073 -25.619  1.00  0.00     0.149 C 
HETATM   10  C16 UNL     1      -4.575  48.276 -24.594  1.00  0.00     0.047 C 
HETATM   11  C17 UNL     1      -4.264  48.689 -23.155  1.00  0.00    -0.018 C 
HETATM   12  C18 UNL     1      -2.798  48.244 -22.834  1.00  0.00     0.017 C 
HETATM   13  C19 UNL     1      -2.037  51.101 -26.085  1.00  0.00    -0.012 C 
HETATM   14  C20 UNL     1      -2.586  51.170 -27.528  1.00  0.00     0.021 C 
HETATM   15  C21 UNL     1      -0.774  50.196 -26.036  1.00  0.00     0.021 C 
HETATM   16  C22 UNL     1       0.422  50.748 -26.791  1.00  0.00     0.080 C 
HETATM   17  C23 UNL     1       0.803  52.104 -26.261  1.00  0.00     0.135 C 
HETATM   18  O3  UNL     1       1.978  52.346 -25.972  1.00  0.00    -0.297 OA
HETATM   19  C24 UNL     1      -0.291  53.176 -26.212  1.00  0.00     0.018 C 
HETATM   20  C25 UNL     1       0.232  54.371 -25.376  1.00  0.00     0.023 C 
HETATM   21  C26 UNL     1      -0.471  53.725 -27.645  1.00  0.00     0.023 C 
HETATM   22  C27 UNL     1      -1.632  52.571 -25.614  1.00  0.00     0.020 C 
HETATM   23  C28 UNL     1      -1.637  52.631 -24.074  1.00  0.00     0.090 C 
HETATM   24  C29 UNL     1      -3.012  52.280 -23.600  1.00  0.00     0.157 C 
HETATM   25  O4  UNL     1      -3.721  53.084 -23.006  1.00  0.00    -0.293 OA
ENDROOT
BRANCH   1  26
HETATM   26  C6  UNL     1      -5.200  46.603 -21.799  1.00  0.00    -0.013 C 
HETATM   27  C7  UNL     1      -4.462  46.159 -20.532  1.00  0.00     0.010 C 
BRANCH  26  28
HETATM   28  C5  UNL     1      -6.623  45.982 -21.834  1.00  0.00     0.008 C 
BRANCH  28  29
HETATM   29  C4  UNL     1      -7.212  45.763 -23.229  1.00  0.00     0.028 C 
BRANCH  29  30
HETATM   30  C3  UNL     1      -8.057  46.934 -23.654  1.00  0.00    -0.013 C 
HETATM   31  C2  UNL     1      -8.265  47.349 -24.921  1.00  0.00     0.008 C 
HETATM   32  C1  UNL     1      -7.605  46.744 -26.126  1.00  0.00     0.055 C 
BRANCH  31  33
HETATM   33  C30 UNL     1      -9.174  48.489 -25.214  1.00  0.00     0.171 C 
HETATM   34  O5  UNL     1     -10.340  48.394 -25.552  1.00  0.00    -0.646 OA
BRANCH  33  35
HETATM   35  O6  UNL     1      -8.599  49.696 -25.075  1.00  0.00    -0.773 OA
HETATM   36  H42 UNL     1      -9.322  50.319 -25.294  1.00  0.00     0.167 HD
ENDBRANCH  33  35
ENDBRANCH  31  33
ENDBRANCH  29  30
ENDBRANCH  28  29
ENDBRANCH  26  28
ENDBRANCH   1  26
BRANCH   9  37
HETATM   37  O2  UNL     1      -4.571  49.317 -26.738  1.00  0.00    -0.391 OA
HETATM   38  H20 UNL     1      -4.838  48.456 -27.101  1.00  0.00     0.210 HD
ENDBRANCH   9  37
TORSDOF 7
ENDMDL
MODEL 3
REMARK minimizedAffinity -9.55574417
REMARK  7 active torsions:
REMARK  status: ('A' for Active; 'I' for Inactive)
REMARK    1  A    between atoms: C2_2  and  C30_34 
REMARK    2  A    between atoms: C3_3  and  C4_4 
REMARK    3  A    between atoms: C4_4  and  C5_5 
REMARK    4  A    between atoms: C5_5  and  C6_6 
REMARK    5  A    between atoms: C6_6  and  C8_8 
REMARK    6  A    between atoms: C15_16  and  O2_17 
REMARK    7  A    between atoms: C30_34  and  O6_36 
ROOT
HETATM    1  C8  UNL     1      -0.481  50.893 -20.823  1.00  0.00     0.006 C 
HETATM    2  C9  UNL     1      -0.231  50.551 -19.335  1.00  0.00     0.085 C 
HETATM    3  C10 UNL     1      -1.193  49.396 -19.067  1.00  0.00     0.141 C 
HETATM    4  O1  UNL     1      -1.390  48.959 -17.944  1.00  0.00    -0.297 OA
HETATM    5  C11 UNL     1      -1.860  48.919 -20.368  1.00  0.00     0.055 C 
HETATM    6  C12 UNL     1      -0.880  47.898 -21.004  1.00  0.00     0.030 C 
HETATM    7  C13 UNL     1      -3.235  48.304 -20.402  1.00  0.00     0.010 C 
HETATM    8  C14 UNL     1      -4.107  48.491 -21.426  1.00  0.00    -0.032 C 
HETATM    9  C15 UNL     1      -3.665  49.350 -22.631  1.00  0.00     0.149 C 
HETATM   10  C16 UNL     1      -2.331  50.135 -22.511  1.00  0.00     0.047 C 
HETATM   11  C17 UNL     1      -1.924  50.342 -21.052  1.00  0.00    -0.018 C 
HETATM   12  C18 UNL     1      -2.970  51.301 -20.393  1.00  0.00     0.017 C 
HETATM   13  C19 UNL     1      -5.576  47.915 -21.421  1.00  0.00    -0.012 C 
HETATM   14  C20 UNL     1      -5.835  47.203 -22.768  1.00  0.00     0.021 C 
HETATM   15  C21 UNL     1      -6.533  49.130 -21.265  1.00  0.00     0.021 C 
HETATM   16  C22 UNL     1      -7.999  48.761 -21.137  1.00  0.00     0.080 C 
HETATM   17  C23 UNL     1      -8.214  47.849 -19.959  1.00  0.00     0.135 C 
HETATM   18  O3  UNL     1      -9.105  48.094 -19.142  1.00  0.00    -0.297 OA
HETATM   19  C24 UNL     1      -7.373  46.569 -19.895  1.00  0.00     0.018 C 
HETATM   20  C25 UNL     1      -7.538  45.945 -18.486  1.00  0.00     0.023 C 
HETATM   21  C26 UNL     1      -7.998  45.549 -20.871  1.00  0.00     0.023 C 
HETATM   22  C27 UNL     1      -5.854  46.889 -20.231  1.00  0.00     0.020 C 
HETATM   23  C28 UNL     1      -5.085  47.345 -18.976  1.00  0.00     0.090 C 
HETATM   24  C29 UNL     1      -3.627  47.387 -19.313  1.00  0.00     0.157 C 
HETATM   25  O4  UNL     1      -2.813  46.647 -18.773  1.00  0.00    -0.293 OA
ENDROOT
BRANCH   1  26
HETATM   26  C6  UNL     1      -0.205  52.357 -21.270  1.00  0.00    -0.013 C 
HETATM   27  C7  UNL     1       0.288  53.313 -20.177  1.00  0.00     0.010 C 
BRANCH  26  28
HETATM   28  C5  UNL     1       0.747  52.412 -22.495  1.00  0.00     0.008 C 
BRANCH  28  29
HETATM   29  C4  UNL     1       0.071  52.277 -23.861  1.00  0.00     0.028 C 
BRANCH  29  30
HETATM   30  C3  UNL     1       1.088  52.204 -24.968  1.00  0.00    -0.013 C 
HETATM   31  C2  UNL     1       0.945  51.553 -26.142  1.00  0.00     0.008 C 
HETATM   32  C1  UNL     1      -0.248  50.714 -26.500  1.00  0.00     0.055 C 
BRANCH  31  33
HETATM   33  C30 UNL     1       2.006  51.606 -27.182  1.00  0.00     0.171 C 
HETATM   34  O5  UNL     1       1.837  51.911 -28.349  1.00  0.00    -0.646 OA
BRANCH  33  35
HETATM   35  O6  UNL     1       3.230  51.280 -26.732  1.00  0.00    -0.773 OA
HETATM   36  H42 UNL     1       3.796  51.372 -27.525  1.00  0.00     0.167 HD
ENDBRANCH  33  35
ENDBRANCH  31  33
ENDBRANCH  29  30
ENDBRANCH  28  29
ENDBRANCH  26  28
ENDBRANCH   1  26
BRANCH   9  37
HETATM   37  O2  UNL     1      -3.526  48.498 -23.764  1.00  0.00    -0.391 OA
HETATM   38  H20 UNL     1      -3.381  49.060 -24.543  1.00  0.00     0.210 HD
ENDBRANCH   9  37
TORSDOF 7
ENDMDL
MODEL 4
REMARK minimizedAffinity -9.43417263
REMARK  7 active torsions:
REMARK  status: ('A' for Active; 'I' for Inactive)
REMARK    1  A    between atoms: C2_2  and  C30_34 
REMARK    2  A    between atoms: C3_3  and  C4_4 
REMARK    3  A    between atoms: C4_4  and  C5_5 
REMARK    4  A    between atoms: C5_5  and  C6_6 
REMARK    5  A    between atoms: C6_6  and  C8_8 
REMARK    6  A    between atoms: C15_16  and  O2_17 
REMARK    7  A    between atoms: C30_34  and  O6_36 
ROOT
HETATM    1  C8  UNL     1      -0.930  51.017 -21.723  1.00  0.00     0.006 C 
HETATM    2  C9  UNL     1      -0.214  49.840 -21.019  1.00  0.00     0.085 C 
HETATM    3  C10 UNL     1      -1.291  48.760 -20.947  1.00  0.00     0.141 C 
HETATM    4  O1  UNL     1      -1.137  47.729 -20.310  1.00  0.00    -0.297 OA
HETATM    5  C11 UNL     1      -2.543  49.173 -21.738  1.00  0.00     0.055 C 
HETATM    6  C12 UNL     1      -2.281  48.752 -23.208  1.00  0.00     0.030 C 
HETATM    7  C13 UNL     1      -3.928  48.704 -21.376  1.00  0.00     0.010 C 
HETATM    8  C14 UNL     1      -5.036  49.474 -21.527  1.00  0.00    -0.032 C 
HETATM    9  C15 UNL     1      -4.881  50.890 -22.124  1.00  0.00     0.149 C 
HETATM   10  C16 UNL     1      -3.443  51.442 -22.317  1.00  0.00     0.047 C 
HETATM   11  C17 UNL     1      -2.433  50.718 -21.426  1.00  0.00    -0.018 C 
HETATM   12  C18 UNL     1      -2.763  51.076 -19.938  1.00  0.00     0.017 C 
HETATM   13  C19 UNL     1      -6.474  49.012 -21.070  1.00  0.00    -0.012 C 
HETATM   14  C20 UNL     1      -7.468  49.268 -22.225  1.00  0.00     0.021 C 
HETATM   15  C21 UNL     1      -6.852  49.880 -19.837  1.00  0.00     0.021 C 
HETATM   16  C22 UNL     1      -8.173  49.507 -19.189  1.00  0.00     0.080 C 
HETATM   17  C23 UNL     1      -8.161  48.065 -18.755  1.00  0.00     0.135 C 
HETATM   18  O3  UNL     1      -8.515  47.761 -17.613  1.00  0.00    -0.297 OA
HETATM   19  C24 UNL     1      -7.812  47.013 -19.812  1.00  0.00     0.018 C 
HETATM   20  C25 UNL     1      -7.573  45.660 -19.097  1.00  0.00     0.023 C 
HETATM   21  C26 UNL     1      -9.066  46.797 -20.689  1.00  0.00     0.023 C 
HETATM   22  C27 UNL     1      -6.547  47.473 -20.655  1.00  0.00     0.020 C 
HETATM   23  C28 UNL     1      -5.232  47.071 -19.958  1.00  0.00     0.090 C 
HETATM   24  C29 UNL     1      -4.106  47.313 -20.914  1.00  0.00     0.157 C 
HETATM   25  O4  UNL     1      -3.418  46.398 -21.352  1.00  0.00    -0.293 OA
ENDROOT
BRANCH   1  26
HETATM   26  C6  UNL     1      -0.418  52.452 -21.403  1.00  0.00    -0.013 C 
HETATM   27  C7  UNL     1       0.290  52.628 -20.056  1.00  0.00     0.010 C 
BRANCH  26  28
HETATM   28  C5  UNL     1       0.466  53.013 -22.549  1.00  0.00     0.008 C 
BRANCH  28  29
HETATM   29  C4  UNL     1       0.397  52.245 -23.871  1.00  0.00     0.028 C 
BRANCH  29  30
HETATM   30  C3  UNL     1       0.073  53.164 -25.018  1.00  0.00    -0.013 C 
HETATM   31  C2  UNL     1       0.276  52.908 -26.328  1.00  0.00     0.008 C 
HETATM   32  C1  UNL     1       0.948  51.671 -26.851  1.00  0.00     0.055 C 
BRANCH  31  33
HETATM   33  C30 UNL     1      -0.145  53.878 -27.373  1.00  0.00     0.171 C 
HETATM   34  O5  UNL     1      -0.167  55.089 -27.244  1.00  0.00    -0.646 OA
BRANCH  33  35
HETATM   35  O6  UNL     1      -0.518  53.307 -28.531  1.00  0.00    -0.773 OA
HETATM   36  H42 UNL     1      -0.751  54.072 -29.096  1.00  0.00     0.167 HD
ENDBRANCH  33  35
ENDBRANCH  31  33
ENDBRANCH  29  30
ENDBRANCH  28  29
ENDBRANCH  26  28
ENDBRANCH   1  26
BRANCH   9  37
HETATM   37  O2  UNL     1      -5.491  50.905 -23.411  1.00  0.00    -0.391 OA
HETATM   38  H20 UNL     1      -5.509  51.826 -23.721  1.00  0.00     0.210 HD
ENDBRANCH   9  37
TORSDOF 7
ENDMDL
MODEL 5
REMARK minimizedAffinity -9.37815094
REMARK  7 active torsions:
REMARK  status: ('A' for Active; 'I' for Inactive)
REMARK    1  A    between atoms: C2_2  and  C30_34 
REMARK    2  A    between atoms: C3_3  and  C4_4 
REMARK    3  A    between atoms: C4_4  and  C5_5 
REMARK    4  A    between atoms: C5_5  and  C6_6 
REMARK    5  A    between atoms: C6_6  and  C8_8 
REMARK    6  A    between atoms: C15_16  and  O2_17 
REMARK    7  A    between atoms: C30_34  and  O6_36 
ROOT
HETATM    1  C8  UNL     1      -2.602  50.478 -25.205  1.00  0.00     0.006 C 
HETATM    2  C9  UNL     1      -3.701  51.567 -25.164  1.00  0.00     0.085 C 
HETATM    3  C10 UNL     1      -4.257  51.460 -23.746  1.00  0.00     0.141 C 
HETATM    4  O1  UNL     1      -5.256  52.065 -23.391  1.00  0.00    -0.297 OA
HETATM    5  C11 UNL     1      -3.417  50.493 -22.894  1.00  0.00     0.055 C 
HETATM    6  C12 UNL     1      -2.243  51.332 -22.323  1.00  0.00     0.030 C 
HETATM    7  C13 UNL     1      -3.996  49.696 -21.754  1.00  0.00     0.010 C 
HETATM    8  C14 UNL     1      -3.586  48.440 -21.442  1.00  0.00    -0.032 C 
HETATM    9  C15 UNL     1      -2.451  47.802 -22.272  1.00  0.00     0.149 C 
HETATM   10  C16 UNL     1      -1.989  48.540 -23.557  1.00  0.00     0.047 C 
HETATM   11  C17 UNL     1      -3.058  49.504 -24.072  1.00  0.00    -0.018 C 
HETATM   12  C18 UNL     1      -4.276  48.652 -24.562  1.00  0.00     0.017 C 
HETATM   13  C19 UNL     1      -4.251  47.576 -20.301  1.00  0.00    -0.012 C 
HETATM   14  C20 UNL     1      -3.135  46.991 -19.407  1.00  0.00     0.021 C 
HETATM   15  C21 UNL     1      -5.029  46.430 -21.004  1.00  0.00     0.021 C 
HETATM   16  C22 UNL     1      -5.826  45.544 -20.064  1.00  0.00     0.080 C 
HETATM   17  C23 UNL     1      -6.817  46.362 -19.279  1.00  0.00     0.135 C 
HETATM   18  O3  UNL     1      -7.995  46.005 -19.210  1.00  0.00    -0.297 OA
HETATM   19  C24 UNL     1      -6.276  47.561 -18.493  1.00  0.00     0.018 C 
HETATM   20  C25 UNL     1      -7.477  48.414 -18.013  1.00  0.00     0.023 C 
HETATM   21  C26 UNL     1      -5.619  47.018 -17.205  1.00  0.00     0.023 C 
HETATM   22  C27 UNL     1      -5.268  48.401 -19.389  1.00  0.00     0.020 C 
HETATM   23  C28 UNL     1      -6.015  49.429 -20.260  1.00  0.00     0.090 C 
HETATM   24  C29 UNL     1      -5.000  50.337 -20.880  1.00  0.00     0.157 C 
HETATM   25  O4  UNL     1      -4.951  51.534 -20.619  1.00  0.00    -0.293 OA
ENDROOT
BRANCH   1  26
HETATM   26  C6  UNL     1      -2.279  49.849 -26.591  1.00  0.00    -0.013 C 
HETATM   27  C7  UNL     1      -3.206  48.717 -27.049  1.00  0.00     0.010 C 
BRANCH  26  28
HETATM   28  C5  UNL     1      -2.170  50.931 -27.699  1.00  0.00     0.008 C 
BRANCH  28  29
HETATM   29  C4  UNL     1      -1.285  52.133 -27.360  1.00  0.00     0.028 C 
BRANCH  29  30
HETATM   30  C3  UNL     1       0.173  51.760 -27.386  1.00  0.00    -0.013 C 
HETATM   31  C2  UNL     1       1.030  51.819 -26.344  1.00  0.00     0.008 C 
HETATM   32  C1  UNL     1       0.672  52.355 -24.988  1.00  0.00     0.055 C 
BRANCH  31  33
HETATM   33  C30 UNL     1       2.438  51.364 -26.484  1.00  0.00     0.171 C 
HETATM   34  O5  UNL     1       2.948  50.446 -25.868  1.00  0.00    -0.646 OA
BRANCH  33  35
HETATM   35  O6  UNL     1       3.152  52.065 -27.381  1.00  0.00    -0.773 OA
HETATM   36  H42 UNL     1       4.034  51.639 -27.353  1.00  0.00     0.167 HD
ENDBRANCH  33  35
ENDBRANCH  31  33
ENDBRANCH  29  30
ENDBRANCH  28  29
ENDBRANCH  26  28
ENDBRANCH   1  26
BRANCH   9  37
HETATM   37  O2  UNL     1      -1.298  47.684 -21.443  1.00  0.00    -0.391 OA
HETATM   38  H20 UNL     1      -0.637  47.162 -21.926  1.00  0.00     0.210 HD
ENDBRANCH   9  37
TORSDOF 7
ENDMDL
MODEL 6
REMARK minimizedAffinity -9.32500648
REMARK  7 active torsions:
REMARK  status: ('A' for Active; 'I' for Inactive)
REMARK    1  A    between atoms: C2_2  and  C30_34 
REMARK    2  A    between atoms: C3_3  and  C4_4 
REMARK    3  A    between atoms: C4_4  and  C5_5 
REMARK    4  A    between atoms: C5_5  and  C6_6 
REMARK    5  A    between atoms: C6_6  and  C8_8 
REMARK    6  A    between atoms: C15_16  and  O2_17 
REMARK    7  A    between atoms: C30_34  and  O6_36 
ROOT
HETATM    1  C8  UNL     1      -3.954  49.296 -24.939  1.00  0.00     0.006 C 
HETATM    2  C9  UNL     1      -5.224  48.525 -24.506  1.00  0.00     0.085 C 
HETATM    3  C10 UNL     1      -5.377  48.890 -23.031  1.00  0.00     0.141 C 
HETATM    4  O1  UNL     1      -6.192  48.340 -22.306  1.00  0.00    -0.297 OA
HETATM    5  C11 UNL     1      -4.373  49.980 -22.624  1.00  0.00     0.055 C 
HETATM    6  C12 UNL     1      -5.039  51.334 -22.983  1.00  0.00     0.030 C 
HETATM    7  C13 UNL     1      -3.826  50.105 -21.226  1.00  0.00     0.010 C 
HETATM    8  C14 UNL     1      -2.558  50.509 -20.957  1.00  0.00    -0.032 C 
HETATM    9  C15 UNL     1      -1.634  50.890 -22.135  1.00  0.00     0.149 C 
HETATM   10  C16 UNL     1      -2.129  50.581 -23.574  1.00  0.00     0.047 C 
HETATM   11  C17 UNL     1      -3.211  49.500 -23.581  1.00  0.00    -0.018 C 
HETATM   12  C18 UNL     1      -2.549  48.156 -23.129  1.00  0.00     0.017 C 
HETATM   13  C19 UNL     1      -1.961  50.559 -19.497  1.00  0.00    -0.012 C 
HETATM   14  C20 UNL     1      -1.283  51.931 -19.284  1.00  0.00     0.021 C 
HETATM   15  C21 UNL     1      -0.907  49.421 -19.406  1.00  0.00     0.021 C 
HETATM   16  C22 UNL     1      -0.292  49.246 -18.029  1.00  0.00     0.080 C 
HETATM   17  C23 UNL     1      -1.359  48.971 -17.003  1.00  0.00     0.135 C 
HETATM   18  O3  UNL     1      -1.234  48.027 -16.220  1.00  0.00    -0.297 OA
HETATM   19  C24 UNL     1      -2.517  49.970 -16.906  1.00  0.00     0.018 C 
HETATM   20  C25 UNL     1      -3.624  49.351 -16.016  1.00  0.00     0.023 C 
HETATM   21  C26 UNL     1      -2.007  51.203 -16.128  1.00  0.00     0.023 C 
HETATM   22  C27 UNL     1      -3.054  50.338 -18.355  1.00  0.00     0.020 C 
HETATM   23  C28 UNL     1      -4.100  49.316 -18.842  1.00  0.00     0.090 C 
HETATM   24  C29 UNL     1      -4.733  49.856 -20.086  1.00  0.00     0.157 C 
HETATM   25  O4  UNL     1      -5.921  50.152 -20.137  1.00  0.00    -0.293 OA
ENDROOT
BRANCH   1  26
HETATM   26  C6  UNL     1      -3.128  48.696 -26.114  1.00  0.00    -0.013 C 
HETATM   27  C7  UNL     1      -3.925  48.282 -27.355  1.00  0.00     0.010 C 
BRANCH  26  28
HETATM   28  C5  UNL     1      -1.953  49.627 -26.520  1.00  0.00     0.008 C 
BRANCH  28  29
HETATM   29  C4  UNL     1      -2.319  50.780 -27.456  1.00  0.00     0.028 C 
BRANCH  29  30
HETATM   30  C3  UNL     1      -1.709  52.075 -26.989  1.00  0.00    -0.013 C 
HETATM   31  C2  UNL     1      -0.489  52.548 -27.320  1.00  0.00     0.008 C 
HETATM   32  C1  UNL     1       0.506  51.799 -28.159  1.00  0.00     0.055 C 
BRANCH  31  33
HETATM   33  C30 UNL     1      -0.024  53.875 -26.837  1.00  0.00     0.171 C 
HETATM   34  O5  UNL     1       0.658  54.067 -25.847  1.00  0.00    -0.646 OA
BRANCH  33  35
HETATM   35  O6  UNL     1      -0.425  54.905 -27.602  1.00  0.00    -0.773 OA
HETATM   36  H42 UNL     1      -0.034  55.685 -27.156  1.00  0.00     0.167 HD
ENDBRANCH  33  35
ENDBRANCH  31  33
ENDBRANCH  29  30
ENDBRANCH  28  29
ENDBRANCH  26  28
ENDBRANCH   1  26
BRANCH   9  37
HETATM   37  O2  UNL     1      -1.398  52.294 -22.087  1.00  0.00    -0.391 OA
HETATM   38  H20 UNL     1      -0.714  52.503 -22.743  1.00  0.00     0.210 HD
ENDBRANCH   9  37
TORSDOF 7
ENDMDL
MODEL 7
REMARK minimizedAffinity -9.09340286
REMARK  7 active torsions:
REMARK  status: ('A' for Active; 'I' for Inactive)
REMARK    1  A    between atoms: C2_2  and  C30_34 
REMARK    2  A    between atoms: C3_3  and  C4_4 
REMARK    3  A    between atoms: C4_4  and  C5_5 
REMARK    4  A    between atoms: C5_5  and  C6_6 
REMARK    5  A    between atoms: C6_6  and  C8_8 
REMARK    6  A    between atoms: C15_16  and  O2_17 
REMARK    7  A    between atoms: C30_34  and  O6_36 
ROOT
HETATM    1  C8  UNL     1      -0.391  49.826 -17.542  1.00  0.00     0.006 C 
HETATM    2  C9  UNL     1       0.455  51.116 -17.660  1.00  0.00     0.085 C 
HETATM    3  C10 UNL     1       0.620  51.568 -16.211  1.00  0.00     0.141 C 
HETATM    4  O1  UNL     1       1.107  52.649 -15.917  1.00  0.00    -0.297 OA
HETATM    5  C11 UNL     1       0.076  50.510 -15.236  1.00  0.00     0.055 C 
HETATM    6  C12 UNL     1       1.231  49.501 -15.008  1.00  0.00     0.030 C 
HETATM    7  C13 UNL     1      -0.489  50.860 -13.885  1.00  0.00     0.010 C 
HETATM    8  C14 UNL     1      -1.525  50.192 -13.317  1.00  0.00    -0.032 C 
HETATM    9  C15 UNL     1      -2.142  48.995 -14.074  1.00  0.00     0.149 C 
HETATM   10  C16 UNL     1      -1.691  48.755 -15.540  1.00  0.00     0.047 C 
HETATM   11  C17 UNL     1      -1.103  50.020 -16.166  1.00  0.00    -0.018 C 
HETATM   12  C18 UNL     1      -2.259  51.067 -16.309  1.00  0.00     0.017 C 
HETATM   13  C19 UNL     1      -2.170  50.613 -11.939  1.00  0.00    -0.012 C 
HETATM   14  C20 UNL     1      -2.291  49.358 -11.044  1.00  0.00     0.021 C 
HETATM   15  C21 UNL     1      -3.581  51.180 -12.259  1.00  0.00     0.021 C 
HETATM   16  C22 UNL     1      -4.321  51.736 -11.056  1.00  0.00     0.080 C 
HETATM   17  C23 UNL     1      -3.520  52.829 -10.400  1.00  0.00     0.135 C 
HETATM   18  O3  UNL     1      -4.053  53.907 -10.129  1.00  0.00    -0.297 OA
HETATM   19  C24 UNL     1      -2.081  52.500  -9.990  1.00  0.00     0.018 C 
HETATM   20  C25 UNL     1      -1.364  53.822  -9.616  1.00  0.00     0.023 C 
HETATM   21  C26 UNL     1      -2.144  51.683  -8.680  1.00  0.00     0.023 C 
HETATM   22  C27 UNL     1      -1.334  51.727 -11.159  1.00  0.00     0.020 C 
HETATM   23  C28 UNL     1      -0.720  52.707 -12.177  1.00  0.00     0.090 C 
HETATM   24  C29 UNL     1       0.165  51.926 -13.098  1.00  0.00     0.157 C 
HETATM   25  O4  UNL     1       1.376  52.105 -13.144  1.00  0.00    -0.293 OA
ENDROOT
BRANCH   1  26
HETATM   26  C6  UNL     1      -1.289  49.454 -18.757  1.00  0.00    -0.013 C 
HETATM   27  C7  UNL     1      -2.656  50.145 -18.820  1.00  0.00     0.010 C 
BRANCH  26  28
HETATM   28  C5  UNL     1      -0.536  49.636 -20.103  1.00  0.00     0.008 C 
BRANCH  28  29
HETATM   29  C4  UNL     1      -0.976  50.834 -20.948  1.00  0.00     0.028 C 
BRANCH  29  30
HETATM   30  C3  UNL     1      -0.143  52.050 -20.644  1.00  0.00    -0.013 C 
HETATM   31  C2  UNL     1       0.539  52.794 -21.540  1.00  0.00     0.008 C 
HETATM   32  C1  UNL     1       0.641  52.468 -23.003  1.00  0.00     0.055 C 
BRANCH  31  33
HETATM   33  C30 UNL     1       1.279  54.013 -21.119  1.00  0.00     0.171 C 
HETATM   34  O5  UNL     1       1.735  54.857 -21.870  1.00  0.00    -0.646 OA
BRANCH  33  35
HETATM   35  O6  UNL     1       1.422  54.133 -19.788  1.00  0.00    -0.773 OA
HETATM   36  H42 UNL     1       1.914  54.974 -19.688  1.00  0.00     0.167 HD
ENDBRANCH  33  35
ENDBRANCH  31  33
ENDBRANCH  29  30
ENDBRANCH  28  29
ENDBRANCH  26  28
ENDBRANCH   1  26
BRANCH   9  37
HETATM   37  O2  UNL     1      -1.831  47.802 -13.360  1.00  0.00    -0.391 OA
HETATM   38  H20 UNL     1      -2.332  47.075 -13.765  1.00  0.00     0.210 HD
ENDBRANCH   9  37
TORSDOF 7
ENDMDL
MODEL 8
REMARK minimizedAffinity -8.8838129
REMARK  7 active torsions:
REMARK  status: ('A' for Active; 'I' for Inactive)
REMARK    1  A    between atoms: C2_2  and  C30_34 
REMARK    2  A    between atoms: C3_3  and  C4_4 
REMARK    3  A    between atoms: C4_4  and  C5_5 
REMARK    4  A    between atoms: C5_5  and  C6_6 
REMARK    5  A    between atoms: C6_6  and  C8_8 
REMARK    6  A    between atoms: C15_16  and  O2_17 
REMARK    7  A    between atoms: C30_34  and  O6_36 
ROOT
HETATM    1  C8  UNL     1      -3.188  51.245 -23.909  1.00  0.00     0.006 C 
HETATM    2  C9  UNL     1      -4.687  51.521 -24.173  1.00  0.00     0.085 C 
HETATM    3  C10 UNL     1      -5.387  50.855 -22.991  1.00  0.00     0.141 C 
HETATM    4  O1  UNL     1      -6.600  50.731 -22.937  1.00  0.00    -0.297 OA
HETATM    5  C11 UNL     1      -4.367  50.364 -21.950  1.00  0.00     0.055 C 
HETATM    6  C12 UNL     1      -4.069  51.578 -21.033  1.00  0.00     0.030 C 
HETATM    7  C13 UNL     1      -4.619  49.177 -21.057  1.00  0.00     0.010 C 
HETATM    8  C14 UNL     1      -3.641  48.320 -20.667  1.00  0.00    -0.032 C 
HETATM    9  C15 UNL     1      -2.192  48.583 -21.133  1.00  0.00     0.149 C 
HETATM   10  C16 UNL     1      -1.964  49.686 -22.201  1.00  0.00     0.047 C 
HETATM   11  C17 UNL     1      -3.239  49.984 -22.990  1.00  0.00    -0.018 C 
HETATM   12  C18 UNL     1      -3.582  48.718 -23.844  1.00  0.00     0.017 C 
HETATM   13  C19 UNL     1      -3.922  47.031 -19.800  1.00  0.00    -0.012 C 
HETATM   14  C20 UNL     1      -2.918  46.993 -18.626  1.00  0.00     0.021 C 
HETATM   15  C21 UNL     1      -3.701  45.807 -20.733  1.00  0.00     0.021 C 
HETATM   16  C22 UNL     1      -4.026  44.468 -20.097  1.00  0.00     0.080 C 
HETATM   17  C23 UNL     1      -5.455  44.438 -19.627  1.00  0.00     0.135 C 
HETATM   18  O3  UNL     1      -6.184  43.488 -19.923  1.00  0.00    -0.297 OA
HETATM   19  C24 UNL     1      -5.911  45.558 -18.685  1.00  0.00     0.018 C 
HETATM   20  C25 UNL     1      -7.455  45.501 -18.568  1.00  0.00     0.023 C 
HETATM   21  C26 UNL     1      -5.380  45.227 -17.273  1.00  0.00     0.023 C 
HETATM   22  C27 UNL     1      -5.406  46.967 -19.216  1.00  0.00     0.020 C 
HETATM   23  C28 UNL     1      -6.385  47.563 -20.245  1.00  0.00     0.090 C 
HETATM   24  C29 UNL     1      -5.977  48.979 -20.509  1.00  0.00     0.157 C 
HETATM   25  O4  UNL     1      -6.694  49.928 -20.216  1.00  0.00    -0.293 OA
ENDROOT
BRANCH   1  26
HETATM   26  C6  UNL     1      -2.250  51.179 -25.149  1.00  0.00    -0.013 C 
HETATM   27  C7  UNL     1      -2.942  51.190 -26.517  1.00  0.00     0.010 C 
BRANCH  26  28
HETATM   28  C5  UNL     1      -1.153  52.276 -25.096  1.00  0.00     0.008 C 
BRANCH  28  29
HETATM   29  C4  UNL     1       0.133  51.887 -24.362  1.00  0.00     0.028 C 
BRANCH  29  30
HETATM   30  C3  UNL     1       0.640  53.022 -23.514  1.00  0.00    -0.013 C 
HETATM   31  C2  UNL     1       0.870  52.984 -22.184  1.00  0.00     0.008 C 
HETATM   32  C1  UNL     1       0.569  51.800 -21.311  1.00  0.00     0.055 C 
BRANCH  31  33
HETATM   33  C30 UNL     1       1.431  54.160 -21.469  1.00  0.00     0.171 C 
HETATM   34  O5  UNL     1       1.468  54.300 -20.260  1.00  0.00    -0.646 OA
BRANCH  33  35
HETATM   35  O6  UNL     1       1.921  55.111 -22.283  1.00  0.00    -0.773 OA
HETATM   36  H42 UNL     1       2.249  55.794 -21.662  1.00  0.00     0.167 HD
ENDBRANCH  33  35
ENDBRANCH  31  33
ENDBRANCH  29  30
ENDBRANCH  28  29
ENDBRANCH  26  28
ENDBRANCH   1  26
BRANCH   9  37
HETATM   37  O2  UNL     1      -1.416  48.958 -19.999  1.00  0.00    -0.391 OA
HETATM   38  H20 UNL     1      -0.485  48.989 -20.274  1.00  0.00     0.210 HD
ENDBRANCH   9  37
TORSDOF 7
ENDMDL
MODEL 9
REMARK minimizedAffinity -8.82298756
REMARK  7 active torsions:
REMARK  status: ('A' for Active; 'I' for Inactive)
REMARK    1  A    between atoms: C2_2  and  C30_34 
REMARK    2  A    between atoms: C3_3  and  C4_4 
REMARK    3  A    between atoms: C4_4  and  C5_5 
REMARK    4  A    between atoms: C5_5  and  C6_6 
REMARK    5  A    between atoms: C6_6  and  C8_8 
REMARK    6  A    between atoms: C15_16  and  O2_17 
REMARK    7  A    between atoms: C30_34  and  O6_36 
ROOT
HETATM    1  C8  UNL     1      -2.659  49.746 -22.686  1.00  0.00     0.006 C 
HETATM    2  C9  UNL     1      -3.088  48.278 -22.918  1.00  0.00     0.085 C 
HETATM    3  C10 UNL     1      -3.434  47.782 -21.516  1.00  0.00     0.141 C 
HETATM    4  O1  UNL     1      -3.668  46.607 -21.280  1.00  0.00    -0.297 OA
HETATM    5  C11 UNL     1      -3.408  48.935 -20.499  1.00  0.00     0.055 C 
HETATM    6  C12 UNL     1      -4.810  49.596 -20.563  1.00  0.00     0.030 C 
HETATM    7  C13 UNL     1      -3.072  48.734 -19.045  1.00  0.00     0.010 C 
HETATM    8  C14 UNL     1      -2.395  49.649 -18.305  1.00  0.00    -0.032 C 
HETATM    9  C15 UNL     1      -1.969  50.976 -18.972  1.00  0.00     0.149 C 
HETATM   10  C16 UNL     1      -2.144  51.103 -20.509  1.00  0.00     0.047 C 
HETATM   11  C17 UNL     1      -2.230  49.734 -21.185  1.00  0.00    -0.018 C 
HETATM   12  C18 UNL     1      -0.837  49.037 -21.036  1.00  0.00     0.017 C 
HETATM   13  C19 UNL     1      -1.971  49.400 -16.805  1.00  0.00    -0.012 C 
HETATM   14  C20 UNL     1      -2.378  50.630 -15.964  1.00  0.00     0.021 C 
HETATM   15  C21 UNL     1      -0.426  49.234 -16.798  1.00  0.00     0.021 C 
HETATM   16  C22 UNL     1       0.161  48.884 -15.443  1.00  0.00     0.080 C 
HETATM   17  C23 UNL     1      -0.443  47.608 -14.919  1.00  0.00     0.135 C 
HETATM   18  O3  UNL     1       0.286  46.709 -14.493  1.00  0.00    -0.297 OA
HETATM   19  C24 UNL     1      -1.971  47.535 -14.832  1.00  0.00     0.018 C 
HETATM   20  C25 UNL     1      -2.376  46.065 -14.556  1.00  0.00     0.023 C 
HETATM   21  C26 UNL     1      -2.407  48.323 -13.577  1.00  0.00     0.023 C 
HETATM   22  C27 UNL     1      -2.628  48.093 -16.166  1.00  0.00     0.020 C 
HETATM   23  C28 UNL     1      -2.731  46.996 -17.243  1.00  0.00     0.090 C 
HETATM   24  C29 UNL     1      -3.573  47.522 -18.364  1.00  0.00     0.157 C 
HETATM   25  O4  UNL     1      -4.656  47.027 -18.652  1.00  0.00    -0.293 OA
ENDROOT
BRANCH   1  26
HETATM   26  C6  UNL     1      -1.653  50.359 -23.704  1.00  0.00    -0.013 C 
HETATM   27  C7  UNL     1      -1.955  50.106 -25.184  1.00  0.00     0.010 C 
BRANCH  26  28
HETATM   28  C5  UNL     1      -1.440  51.877 -23.454  1.00  0.00     0.008 C 
BRANCH  28  29
HETATM   29  C4  UNL     1      -0.088  52.436 -23.904  1.00  0.00     0.028 C 
BRANCH  29  30
HETATM   30  C3  UNL     1      -0.240  53.318 -25.114  1.00  0.00    -0.013 C 
HETATM   31  C2  UNL     1       0.160  53.026 -26.370  1.00  0.00     0.008 C 
HETATM   32  C1  UNL     1       0.910  51.781 -26.748  1.00  0.00     0.055 C 
BRANCH  31  33
HETATM   33  C30 UNL     1      -0.103  53.962 -27.495  1.00  0.00     0.171 C 
HETATM   34  O5  UNL     1      -0.216  55.171 -27.396  1.00  0.00    -0.646 OA
BRANCH  33  35
HETATM   35  O6  UNL     1      -0.212  53.361 -28.692  1.00  0.00    -0.773 OA
HETATM   36  H42 UNL     1      -0.373  54.106 -29.306  1.00  0.00     0.167 HD
ENDBRANCH  33  35
ENDBRANCH  31  33
ENDBRANCH  29  30
ENDBRANCH  28  29
ENDBRANCH  26  28
ENDBRANCH   1  26
BRANCH   9  37
HETATM   37  O2  UNL     1      -2.729  52.033 -18.394  1.00  0.00    -0.391 OA
HETATM   38  H20 UNL     1      -2.363  52.872 -18.718  1.00  0.00     0.210 HD
ENDBRANCH   9  37
TORSDOF 7
ENDMDL
