MODEL 1
REMARK minimizedAffinity -6.83387375
REMARK CNNscore 0.773049414
REMARK CNNaffinity 7.47693682
REMARK  6 active torsions:
REMARK  status: ('A' for Active; 'I' for Inactive)
REMARK    1  A    between atoms: N1_2  and  C2_3 
REMARK    2  A    between atoms: C2_3  and  C3_4 
REMARK    3  A    between atoms: C5_6  and  O1_7 
REMARK    4  A    between atoms: C25_28  and  N2_29 
REMARK    5  A    between atoms: C26_30  and  C27_31 
REMARK    6  A    between atoms: C27_31  and  O3_32 
ROOT
HETATM    1  C3  UNL     1       2.208  55.742  -4.905  1.00  0.00    -0.021 A 
HETATM    2  C4  UNL     1       1.276  55.402  -3.904  1.00  0.00     0.045 A 
HETATM    3  C5  UNL     1      -0.078  55.628  -4.080  1.00  0.00     0.066 A 
HETATM    4  C6  UNL     1      -0.547  56.181  -5.259  1.00  0.00     0.045 A 
HETATM    5  C7  UNL     1       0.349  56.550  -6.286  1.00  0.00    -0.037 A 
HETATM    6  C8  UNL     1       1.755  56.360  -6.105  1.00  0.00    -0.042 A 
HETATM    7  C9  UNL     1       2.760  56.854  -7.139  1.00  0.00     0.044 C 
HETATM    8  C10 UNL     1       2.775  56.179  -8.520  1.00  0.00    -0.010 C 
HETATM    9  C11 UNL     1       3.901  56.749  -9.396  1.00  0.00     0.005 C 
HETATM   10  C12 UNL     1       3.977  56.060 -10.757  1.00  0.00     0.001 C 
HETATM   11  C13 UNL     1       2.778  55.150 -11.038  1.00  0.00     0.007 C 
HETATM   12  C14 UNL     1       2.630  54.054  -9.953  1.00  0.00     0.022 C 
HETATM   13  C15 UNL     1       2.849  54.638  -8.522  1.00  0.00     0.012 C 
HETATM   14  C16 UNL     1       1.375  53.099 -10.136  1.00  0.00     0.083 C 
HETATM   15  C17 UNL     1       1.006  52.927 -11.649  1.00  0.00     0.050 C 
HETATM   16  C18 UNL     1       0.056  51.714 -11.905  1.00  0.00    -0.029 C 
HETATM   17  C19 UNL     1       0.798  50.593 -12.683  1.00  0.00     0.010 C 
HETATM   18  C20 UNL     1       1.972  49.988 -11.936  1.00  0.00     0.004 C 
HETATM   19  C21 UNL     1       1.560  49.579 -10.533  1.00  0.00     0.038 C 
HETATM   20  C22 UNL     1       0.887  50.732  -9.754  1.00  0.00     0.065 C 
HETATM   21  C23 UNL     1       0.637  50.199  -8.334  1.00  0.00     0.046 C 
HETATM   22  O2  UNL     1       1.864  51.794  -9.678  1.00  0.00    -0.367 OA
HETATM   23  C24 UNL     1      -0.394  51.233 -10.502  1.00  0.00     0.069 C 
HETATM   24  C25 UNL     1      -1.083  52.462  -9.776  1.00  0.00     0.184 C 
HETATM   25  C26 UNL     1      -2.047  53.270 -10.749  1.00  0.00     0.049 C 
HETATM   26  C28 UNL     1      -2.415  52.440 -11.976  1.00  0.00     0.010 C 
HETATM   27  C29 UNL     1      -1.164  52.109 -12.782  1.00  0.00     0.011 C 
HETATM   28  C30 UNL     1       0.098  53.366  -9.264  1.00  0.00     0.139 C 
HETATM   29  C31 UNL     1      -0.269  54.770  -9.006  1.00  0.00    -0.096 C 
HETATM   30  C32 UNL     1      -0.414  55.846  -8.489  1.00  0.00    -0.101 C 
HETATM   31  C33 UNL     1      -0.285  57.012  -7.594  1.00  0.00     0.133 C 
ENDROOT
BRANCH   1  32
HETATM   32  C2  UNL     1       3.656  55.390  -4.611  1.00  0.00     0.308 C 
BRANCH  32  33
HETATM   33  N1  UNL     1       4.248  56.186  -3.532  1.00  0.00     0.083 N 
HETATM   34  C1  UNL     1       4.720  57.486  -3.988  1.00  0.00     0.307 C 
HETATM   35  H4  UNL     1       5.033  55.669  -3.142  1.00  0.00     0.315 HD
ENDBRANCH  32  33
ENDBRANCH   1  32
BRANCH   3  36
HETATM   36  O1  UNL     1      -0.925  55.266  -3.076  1.00  0.00    -0.361 OA
HETATM   37  H8  UNL     1      -1.822  55.547  -3.313  1.00  0.00     0.217 HD
ENDBRANCH   3  36
BRANCH  24  38
HETATM   38  N2  UNL     1      -1.850  51.904  -8.642  1.00  0.00     0.090 N 
HETATM   39  H34 UNL     1      -2.005  52.633  -7.943  1.00  0.00     0.313 HD
HETATM   40  H35 UNL     1      -2.799  51.670  -8.956  1.00  0.00     0.313 HD
ENDBRANCH  24  38
BRANCH  25  41
HETATM   41  C27 UNL     1      -3.314  53.861 -10.097  1.00  0.00     0.171 C 
BRANCH  41  42
HETATM   42  O3  UNL     1      -4.505  53.295 -10.639  1.00  0.00    -0.400 OA
HETATM   43  H39 UNL     1      -4.671  53.729 -11.494  1.00  0.00     0.209 HD
ENDBRANCH  41  42
ENDBRANCH  25  41
TORSDOF 6
ENDMDL
MODEL 2
REMARK minimizedAffinity -6.57952499
REMARK CNNscore 0.616952419
REMARK CNNaffinity 6.94985819
REMARK  6 active torsions:
REMARK  status: ('A' for Active; 'I' for Inactive)
REMARK    1  A    between atoms: N1_2  and  C2_3 
REMARK    2  A    between atoms: C2_3  and  C3_4 
REMARK    3  A    between atoms: C5_6  and  O1_7 
REMARK    4  A    between atoms: C25_28  and  N2_29 
REMARK    5  A    between atoms: C26_30  and  C27_31 
REMARK    6  A    between atoms: C27_31  and  O3_32 
ROOT
HETATM    1  C3  UNL     1       1.683  53.868  -5.304  1.00  0.00    -0.021 A 
HETATM    2  C4  UNL     1       0.630  53.188  -4.659  1.00  0.00     0.045 A 
HETATM    3  C5  UNL     1      -0.667  53.266  -5.131  1.00  0.00     0.066 A 
HETATM    4  C6  UNL     1      -0.956  54.006  -6.265  1.00  0.00     0.045 A 
HETATM    5  C7  UNL     1       0.063  54.714  -6.939  1.00  0.00    -0.037 A 
HETATM    6  C8  UNL     1       1.403  54.676  -6.443  1.00  0.00    -0.042 A 
HETATM    7  C9  UNL     1       2.505  55.521  -7.072  1.00  0.00     0.044 C 
HETATM    8  C10 UNL     1       2.951  55.186  -8.504  1.00  0.00    -0.010 C 
HETATM    9  C11 UNL     1       4.118  56.084  -8.938  1.00  0.00     0.005 C 
HETATM   10  C12 UNL     1       4.621  55.739 -10.339  1.00  0.00     0.001 C 
HETATM   11  C13 UNL     1       3.704  54.766 -11.083  1.00  0.00     0.007 C 
HETATM   12  C14 UNL     1       3.523  53.442 -10.299  1.00  0.00     0.022 C 
HETATM   13  C15 UNL     1       3.306  53.710  -8.777  1.00  0.00     0.012 C 
HETATM   14  C16 UNL     1       2.538  52.396 -10.974  1.00  0.00     0.083 C 
HETATM   15  C17 UNL     1       2.554  52.524 -12.535  1.00  0.00     0.050 C 
HETATM   16  C18 UNL     1       1.924  51.286 -13.250  1.00  0.00    -0.029 C 
HETATM   17  C19 UNL     1       3.015  50.479 -14.008  1.00  0.00     0.010 C 
HETATM   18  C20 UNL     1       4.084  49.882 -13.112  1.00  0.00     0.004 C 
HETATM   19  C21 UNL     1       3.452  49.114 -11.964  1.00  0.00     0.038 C 
HETATM   20  C22 UNL     1       2.422  49.960 -11.182  1.00  0.00     0.065 C 
HETATM   21  C23 UNL     1       1.965  49.090 -10.001  1.00  0.00     0.046 C 
HETATM   22  O2  UNL     1       3.144  51.098 -10.659  1.00  0.00    -0.367 OA
HETATM   23  C24 UNL     1       1.270  50.444 -12.126  1.00  0.00     0.069 C 
HETATM   24  C25 UNL     1       0.222  51.372 -11.384  1.00  0.00     0.184 C 
HETATM   25  C26 UNL     1      -0.633  52.246 -12.402  1.00  0.00     0.049 C 
HETATM   26  C28 UNL     1      -0.559  51.674 -13.815  1.00  0.00     0.010 C 
HETATM   27  C29 UNL     1       0.879  51.705 -14.320  1.00  0.00     0.011 C 
HETATM   28  C30 UNL     1       1.073  52.285 -10.426  1.00  0.00     0.139 C 
HETATM   29  C31 UNL     1       0.405  53.533 -10.011  1.00  0.00    -0.096 C 
HETATM   30  C32 UNL     1      -0.047  54.434  -9.356  1.00  0.00    -0.101 C 
HETATM   31  C33 UNL     1      -0.338  55.372  -8.256  1.00  0.00     0.133 C 
ENDROOT
BRANCH   1  32
HETATM   32  C2  UNL     1       3.069  53.654  -4.720  1.00  0.00     0.308 C 
BRANCH  32  33
HETATM   33  N1  UNL     1       3.606  54.831  -4.033  1.00  0.00     0.083 N 
HETATM   34  C1  UNL     1       2.825  55.203  -2.861  1.00  0.00     0.307 C 
HETATM   35  H4  UNL     1       3.612  55.612  -4.686  1.00  0.00     0.315 HD
ENDBRANCH  32  33
ENDBRANCH   1  32
BRANCH   3  36
HETATM   36  O1  UNL     1      -1.635  52.577  -4.464  1.00  0.00    -0.361 OA
HETATM   37  H8  UNL     1      -2.493  52.783  -4.866  1.00  0.00     0.217 HD
ENDBRANCH   3  36
BRANCH  24  38
HETATM   38  N2  UNL     1      -0.662  50.475 -10.611  1.00  0.00     0.090 N 
HETATM   39  H34 UNL     1      -1.100  50.998  -9.850  1.00  0.00     0.313 HD
HETATM   40  H35 UNL     1      -1.457  50.195 -11.196  1.00  0.00     0.313 HD
ENDBRANCH  24  38
BRANCH  25  41
HETATM   41  C27 UNL     1      -2.100  52.499 -11.998  1.00  0.00     0.171 C 
BRANCH  41  42
HETATM   42  O3  UNL     1      -2.917  52.805 -13.126  1.00  0.00    -0.400 OA
HETATM   43  H39 UNL     1      -2.758  53.737 -13.357  1.00  0.00     0.209 HD
ENDBRANCH  41  42
ENDBRANCH  25  41
TORSDOF 6
ENDMDL
MODEL 3
REMARK minimizedAffinity -6.36229515
REMARK CNNscore 0.608107626
REMARK CNNaffinity 6.54104185
REMARK  6 active torsions:
REMARK  status: ('A' for Active; 'I' for Inactive)
REMARK    1  A    between atoms: N1_2  and  C2_3 
REMARK    2  A    between atoms: C2_3  and  C3_4 
REMARK    3  A    between atoms: C5_6  and  O1_7 
REMARK    4  A    between atoms: C25_28  and  N2_29 
REMARK    5  A    between atoms: C26_30  and  C27_31 
REMARK    6  A    between atoms: C27_31  and  O3_32 
ROOT
HETATM    1  C3  UNL     1       0.671  54.599  -2.089  1.00  0.00    -0.021 A 
HETATM    2  C4  UNL     1      -0.280  53.567  -2.215  1.00  0.00     0.045 A 
HETATM    3  C5  UNL     1      -1.264  53.615  -3.186  1.00  0.00     0.066 A 
HETATM    4  C6  UNL     1      -1.323  54.679  -4.070  1.00  0.00     0.045 A 
HETATM    5  C7  UNL     1      -0.400  55.743  -3.975  1.00  0.00    -0.037 A 
HETATM    6  C8  UNL     1       0.600  55.729  -2.953  1.00  0.00    -0.042 A 
HETATM    7  C9  UNL     1       1.536  56.913  -2.744  1.00  0.00     0.044 C 
HETATM    8  C10 UNL     1       2.563  57.230  -3.843  1.00  0.00    -0.010 C 
HETATM    9  C11 UNL     1       3.469  58.398  -3.424  1.00  0.00     0.005 C 
HETATM   10  C12 UNL     1       4.537  58.704  -4.473  1.00  0.00     0.001 C 
HETATM   11  C13 UNL     1       4.313  57.961  -5.793  1.00  0.00     0.007 C 
HETATM   12  C14 UNL     1       4.272  56.427  -5.582  1.00  0.00     0.022 C 
HETATM   13  C15 UNL     1       3.433  56.049  -4.322  1.00  0.00     0.012 C 
HETATM   14  C16 UNL     1       3.986  55.581  -6.895  1.00  0.00     0.083 C 
HETATM   15  C17 UNL     1       4.541  56.302  -8.170  1.00  0.00     0.050 C 
HETATM   16  C18 UNL     1       4.640  55.352  -9.407  1.00  0.00    -0.029 C 
HETATM   17  C19 UNL     1       6.125  55.083  -9.772  1.00  0.00     0.010 C 
HETATM   18  C20 UNL     1       6.912  54.363  -8.692  1.00  0.00     0.004 C 
HETATM   19  C21 UNL     1       6.169  53.123  -8.227  1.00  0.00     0.038 C 
HETATM   20  C22 UNL     1       4.715  53.428  -7.802  1.00  0.00     0.065 C 
HETATM   21  C23 UNL     1       4.144  52.110  -7.256  1.00  0.00     0.046 C 
HETATM   22  O2  UNL     1       4.800  54.375  -6.713  1.00  0.00    -0.367 OA
HETATM   23  C24 UNL     1       3.909  54.050  -8.991  1.00  0.00     0.069 C 
HETATM   24  C25 UNL     1       2.428  54.444  -8.586  1.00  0.00     0.184 C 
HETATM   25  C26 UNL     1       1.789  55.495  -9.594  1.00  0.00     0.049 C 
HETATM   26  C28 UNL     1       2.557  55.532 -10.912  1.00  0.00     0.010 C 
HETATM   27  C29 UNL     1       3.994  55.981 -10.671  1.00  0.00     0.011 C 
HETATM   28  C30 UNL     1       2.533  55.038  -7.133  1.00  0.00     0.139 C 
HETATM   29  C31 UNL     1       1.409  55.907  -6.742  1.00  0.00    -0.096 C 
HETATM   30  C32 UNL     1       0.491  56.403  -6.144  1.00  0.00    -0.101 C 
HETATM   31  C33 UNL     1      -0.464  56.786  -5.087  1.00  0.00     0.133 C 
ENDROOT
BRANCH   1  32
HETATM   32  C2  UNL     1       1.732  54.397  -1.021  1.00  0.00     0.308 C 
BRANCH  32  33
HETATM   33  N1  UNL     1       1.758  53.042  -0.466  1.00  0.00     0.083 N 
HETATM   34  C1  UNL     1       2.204  53.010   0.920  1.00  0.00     0.307 C 
HETATM   35  H4  UNL     1       2.391  52.475  -1.028  1.00  0.00     0.315 HD
ENDBRANCH  32  33
ENDBRANCH   1  32
BRANCH   3  36
HETATM   36  O1  UNL     1      -2.146  52.579  -3.259  1.00  0.00    -0.361 OA
HETATM   37  H8  UNL     1      -2.811  52.786  -3.934  1.00  0.00     0.217 HD
ENDBRANCH   3  36
BRANCH  24  38
HETATM   38  N2  UNL     1       1.645  53.190  -8.588  1.00  0.00     0.090 N 
HETATM   39  H34 UNL     1       0.816  53.304  -8.001  1.00  0.00     0.313 HD
HETATM   40  H35 UNL     1       1.254  53.036  -9.524  1.00  0.00     0.313 HD
ENDBRANCH  24  38
BRANCH  25  41
HETATM   41  C27 UNL     1       0.277  55.339  -9.854  1.00  0.00     0.171 C 
BRANCH  41  42
HETATM   42  O3  UNL     1       0.012  54.455 -10.940  1.00  0.00    -0.400 OA
HETATM   43  H39 UNL     1       0.162  54.951 -11.764  1.00  0.00     0.209 HD
ENDBRANCH  41  42
ENDBRANCH  25  41
TORSDOF 6
ENDMDL
MODEL 4
REMARK minimizedAffinity -6.46205044
REMARK CNNscore 0.36823836
REMARK CNNaffinity 6.35820198
REMARK  6 active torsions:
REMARK  status: ('A' for Active; 'I' for Inactive)
REMARK    1  A    between atoms: N1_2  and  C2_3 
REMARK    2  A    between atoms: C2_3  and  C3_4 
REMARK    3  A    between atoms: C5_6  and  O1_7 
REMARK    4  A    between atoms: C25_28  and  N2_29 
REMARK    5  A    between atoms: C26_30  and  C27_31 
REMARK    6  A    between atoms: C27_31  and  O3_32 
ROOT
HETATM    1  C3  UNL     1       0.631  49.208 -10.417  1.00  0.00    -0.021 A 
HETATM    2  C4  UNL     1       1.799  48.444 -10.217  1.00  0.00     0.045 A 
HETATM    3  C5  UNL     1       3.032  48.894 -10.654  1.00  0.00     0.066 A 
HETATM    4  C6  UNL     1       3.145  50.120 -11.288  1.00  0.00     0.045 A 
HETATM    5  C7  UNL     1       2.002  50.915 -11.522  1.00  0.00    -0.037 A 
HETATM    6  C8  UNL     1       0.714  50.449 -11.111  1.00  0.00    -0.042 A 
HETATM    7  C9  UNL     1      -0.554  51.222 -11.452  1.00  0.00     0.044 C 
HETATM    8  C10 UNL     1      -0.765  52.597 -10.798  1.00  0.00    -0.010 C 
HETATM    9  C11 UNL     1      -2.127  53.187 -11.193  1.00  0.00     0.005 C 
HETATM   10  C12 UNL     1      -2.391  54.531 -10.515  1.00  0.00     0.001 C 
HETATM   11  C13 UNL     1      -1.158  55.100  -9.809  1.00  0.00     0.007 C 
HETATM   12  C14 UNL     1      -0.615  54.121  -8.738  1.00  0.00     0.022 C 
HETATM   13  C15 UNL     1      -0.604  52.652  -9.264  1.00  0.00     0.012 C 
HETATM   14  C16 UNL     1       0.700  54.609  -7.994  1.00  0.00     0.083 C 
HETATM   15  C17 UNL     1       0.754  56.172  -7.898  1.00  0.00     0.050 C 
HETATM   16  C18 UNL     1       1.799  56.678  -6.852  1.00  0.00    -0.029 C 
HETATM   17  C19 UNL     1       1.084  57.329  -5.637  1.00  0.00     0.010 C 
HETATM   18  C20 UNL     1       0.205  56.378  -4.847  1.00  0.00     0.004 C 
HETATM   19  C21 UNL     1       0.969  55.114  -4.493  1.00  0.00     0.038 C 
HETATM   20  C22 UNL     1       1.612  54.446  -5.729  1.00  0.00     0.065 C 
HETATM   21  C23 UNL     1       2.242  53.136  -5.227  1.00  0.00     0.046 C 
HETATM   22  O2  UNL     1       0.526  54.116  -6.624  1.00  0.00    -0.367 OA
HETATM   23  C24 UNL     1       2.609  55.425  -6.434  1.00  0.00     0.069 C 
HETATM   24  C25 UNL     1       3.246  54.809  -7.748  1.00  0.00     0.184 C 
HETATM   25  C26 UNL     1       3.842  55.927  -8.708  1.00  0.00     0.049 C 
HETATM   26  C28 UNL     1       4.056  57.240  -7.959  1.00  0.00     0.010 C 
HETATM   27  C29 UNL     1       2.725  57.775  -7.445  1.00  0.00     0.011 C 
HETATM   28  C30 UNL     1       2.080  54.018  -8.449  1.00  0.00     0.139 C 
HETATM   29  C31 UNL     1       2.278  53.782  -9.891  1.00  0.00    -0.096 C 
HETATM   30  C32 UNL     1       2.367  53.259 -10.970  1.00  0.00    -0.101 C 
HETATM   31  C33 UNL     1       2.260  52.307 -12.091  1.00  0.00     0.133 C 
ENDROOT
BRANCH   1  32
HETATM   32  C2  UNL     1      -0.648  48.629  -9.839  1.00  0.00     0.308 C 
BRANCH  32  33
HETATM   33  N1  UNL     1      -0.983  49.151  -8.511  1.00  0.00     0.083 N 
HETATM   34  C1  UNL     1      -2.413  49.359  -8.334  1.00  0.00     0.307 C 
HETATM   35  H4  UNL     1      -0.502  50.039  -8.382  1.00  0.00     0.315 HD
ENDBRANCH  32  33
ENDBRANCH   1  32
BRANCH   3  36
HETATM   36  O1  UNL     1       4.121  48.110 -10.420  1.00  0.00    -0.361 OA
HETATM   37  H8  UNL     1       4.893  48.519 -10.841  1.00  0.00     0.217 HD
ENDBRANCH   3  36
BRANCH  24  38
HETATM   38  N2  UNL     1       4.316  53.890  -7.305  1.00  0.00     0.090 N 
HETATM   39  H34 UNL     1       4.506  53.207  -8.042  1.00  0.00     0.313 HD
HETATM   40  H35 UNL     1       5.198  54.408  -7.227  1.00  0.00     0.313 HD
ENDBRANCH  24  38
BRANCH  25  41
HETATM   41  C27 UNL     1       5.116  55.534  -9.484  1.00  0.00     0.171 C 
BRANCH  41  42
HETATM   42  O3  UNL     1       4.918  55.593 -10.895  1.00  0.00    -0.400 OA
HETATM   43  H39 UNL     1       4.439  54.788 -11.157  1.00  0.00     0.209 HD
ENDBRANCH  41  42
ENDBRANCH  25  41
TORSDOF 6
ENDMDL
MODEL 5
REMARK minimizedAffinity -6.19589853
REMARK CNNscore 0.35297057
REMARK CNNaffinity 6.17701769
REMARK  6 active torsions:
REMARK  status: ('A' for Active; 'I' for Inactive)
REMARK    1  A    between atoms: N1_2  and  C2_3 
REMARK    2  A    between atoms: C2_3  and  C3_4 
REMARK    3  A    between atoms: C5_6  and  O1_7 
REMARK    4  A    between atoms: C25_28  and  N2_29 
REMARK    5  A    between atoms: C26_30  and  C27_31 
REMARK    6  A    between atoms: C27_31  and  O3_32 
ROOT
HETATM    1  C3  UNL     1       6.372  51.618  -7.414  1.00  0.00    -0.021 A 
HETATM    2  C4  UNL     1       6.218  50.579  -6.474  1.00  0.00     0.045 A 
HETATM    3  C5  UNL     1       5.273  50.658  -5.467  1.00  0.00     0.066 A 
HETATM    4  C6  UNL     1       4.443  51.762  -5.373  1.00  0.00     0.045 A 
HETATM    5  C7  UNL     1       4.567  52.834  -6.284  1.00  0.00    -0.037 A 
HETATM    6  C8  UNL     1       5.565  52.787  -7.307  1.00  0.00    -0.042 A 
HETATM    7  C9  UNL     1       5.809  53.973  -8.231  1.00  0.00     0.044 C 
HETATM    8  C10 UNL     1       4.704  54.358  -9.228  1.00  0.00    -0.010 C 
HETATM    9  C11 UNL     1       5.157  55.518 -10.127  1.00  0.00     0.005 C 
HETATM   10  C12 UNL     1       4.100  55.889 -11.167  1.00  0.00     0.001 C 
HETATM   11  C13 UNL     1       2.752  55.206 -10.922  1.00  0.00     0.007 C 
HETATM   12  C14 UNL     1       2.890  53.663 -10.907  1.00  0.00     0.022 C 
HETATM   13  C15 UNL     1       4.150  53.214 -10.103  1.00  0.00     0.012 C 
HETATM   14  C16 UNL     1       1.545  52.876 -10.602  1.00  0.00     0.083 C 
HETATM   15  C17 UNL     1       0.294  53.665 -11.118  1.00  0.00     0.050 C 
HETATM   16  C18 UNL     1      -0.989  52.777 -11.201  1.00  0.00    -0.029 C 
HETATM   17  C19 UNL     1      -1.400  52.548 -12.681  1.00  0.00     0.010 C 
HETATM   18  C20 UNL     1      -0.374  51.789 -13.503  1.00  0.00     0.004 C 
HETATM   19  C21 UNL     1       0.049  50.517 -12.788  1.00  0.00     0.038 C 
HETATM   20  C22 UNL     1       0.520  50.781 -11.341  1.00  0.00     0.065 C 
HETATM   21  C23 UNL     1       1.015  49.429 -10.800  1.00  0.00     0.046 C 
HETATM   22  O2  UNL     1       1.651  51.675 -11.438  1.00  0.00    -0.367 OA
HETATM   23  C24 UNL     1      -0.620  51.446 -10.498  1.00  0.00     0.069 C 
HETATM   24  C25 UNL     1      -0.163  51.798  -9.022  1.00  0.00     0.184 C 
HETATM   25  C26 UNL     1      -1.105  52.886  -8.345  1.00  0.00     0.049 C 
HETATM   26  C28 UNL     1      -2.437  52.997  -9.082  1.00  0.00     0.010 C 
HETATM   27  C29 UNL     1      -2.207  53.455 -10.518  1.00  0.00     0.011 C 
HETATM   28  C30 UNL     1       1.314  52.324  -9.152  1.00  0.00     0.139 C 
HETATM   29  C31 UNL     1       1.772  53.157  -8.025  1.00  0.00    -0.096 C 
HETATM   30  C32 UNL     1       2.413  53.609  -7.114  1.00  0.00    -0.101 C 
HETATM   31  C33 UNL     1       3.508  53.928  -6.179  1.00  0.00     0.133 C 
ENDROOT
BRANCH   1  32
HETATM   32  C2  UNL     1       7.405  51.382  -8.502  1.00  0.00     0.308 C 
BRANCH  32  33
HETATM   33  N1  UNL     1       6.839  50.860  -9.748  1.00  0.00     0.083 N 
HETATM   34  C1  UNL     1       7.280  49.504 -10.042  1.00  0.00     0.307 C 
HETATM   35  H4  UNL     1       7.122  51.471 -10.512  1.00  0.00     0.315 HD
ENDBRANCH  32  33
ENDBRANCH   1  32
BRANCH   3  36
HETATM   36  O1  UNL     1       5.170  49.614  -4.599  1.00  0.00    -0.361 OA
HETATM   37  H8  UNL     1       4.521  49.842  -3.916  1.00  0.00     0.217 HD
ENDBRANCH   3  36
BRANCH  24  38
HETATM   38  N2  UNL     1      -0.207  50.534  -8.256  1.00  0.00     0.090 N 
HETATM   39  H34 UNL     1       0.403  50.608  -7.440  1.00  0.00     0.313 HD
HETATM   40  H35 UNL     1      -1.141  50.419  -7.845  1.00  0.00     0.313 HD
ENDBRANCH  24  38
BRANCH  25  41
HETATM   41  C27 UNL     1      -1.338  52.720  -6.829  1.00  0.00     0.171 C 
BRANCH  41  42
HETATM   42  O3  UNL     1      -0.431  51.784  -6.252  1.00  0.00    -0.400 OA
HETATM   43  H39 UNL     1      -0.760  50.892  -6.460  1.00  0.00     0.209 HD
ENDBRANCH  41  42
ENDBRANCH  25  41
TORSDOF 6
ENDMDL
MODEL 6
REMARK minimizedAffinity -6.55682373
REMARK CNNscore 0.33984524
REMARK CNNaffinity 5.46721888
REMARK  6 active torsions:
REMARK  status: ('A' for Active; 'I' for Inactive)
REMARK    1  A    between atoms: N1_2  and  C2_3 
REMARK    2  A    between atoms: C2_3  and  C3_4 
REMARK    3  A    between atoms: C5_6  and  O1_7 
REMARK    4  A    between atoms: C25_28  and  N2_29 
REMARK    5  A    between atoms: C26_30  and  C27_31 
REMARK    6  A    between atoms: C27_31  and  O3_32 
ROOT
HETATM    1  C3  UNL     1       7.796  69.029 -35.734  1.00  0.00    -0.021 A 
HETATM    2  C4  UNL     1       8.548  70.018 -36.399  1.00  0.00     0.045 A 
HETATM    3  C5  UNL     1       8.697  70.000 -37.774  1.00  0.00     0.066 A 
HETATM    4  C6  UNL     1       8.090  69.011 -38.530  1.00  0.00     0.045 A 
HETATM    5  C7  UNL     1       7.336  67.992 -37.908  1.00  0.00    -0.037 A 
HETATM    6  C8  UNL     1       7.205  67.973 -36.484  1.00  0.00    -0.042 A 
HETATM    7  C9  UNL     1       6.501  66.825 -35.769  1.00  0.00     0.044 C 
HETATM    8  C10 UNL     1       4.989  66.654 -35.982  1.00  0.00    -0.010 C 
HETATM    9  C11 UNL     1       4.442  65.504 -35.123  1.00  0.00     0.005 C 
HETATM   10  C12 UNL     1       2.930  65.342 -35.271  1.00  0.00     0.001 C 
HETATM   11  C13 UNL     1       2.345  66.179 -36.412  1.00  0.00     0.007 C 
HETATM   12  C14 UNL     1       2.651  67.687 -36.225  1.00  0.00     0.022 C 
HETATM   13  C15 UNL     1       4.125  67.914 -35.766  1.00  0.00     0.012 C 
HETATM   14  C16 UNL     1       2.128  68.623 -37.395  1.00  0.00     0.083 C 
HETATM   15  C17 UNL     1       0.833  68.040 -38.056  1.00  0.00     0.050 C 
HETATM   16  C18 UNL     1       0.069  69.094 -38.921  1.00  0.00    -0.029 C 
HETATM   17  C19 UNL     1      -1.284  69.469 -38.257  1.00  0.00     0.010 C 
HETATM   18  C20 UNL     1      -1.150  70.135 -36.901  1.00  0.00     0.004 C 
HETATM   19  C21 UNL     1      -0.168  71.293 -36.970  1.00  0.00     0.038 C 
HETATM   20  C22 UNL     1       1.194  70.878 -37.569  1.00  0.00     0.065 C 
HETATM   21  C23 UNL     1       2.100  72.116 -37.464  1.00  0.00     0.046 C 
HETATM   22  O2  UNL     1       1.723  69.850 -36.702  1.00  0.00    -0.367 OA
HETATM   23  C24 UNL     1       1.016  70.317 -39.019  1.00  0.00     0.069 C 
HETATM   24  C25 UNL     1       2.379  69.815 -39.653  1.00  0.00     0.184 C 
HETATM   25  C26 UNL     1       2.144  68.820 -40.871  1.00  0.00     0.049 C 
HETATM   26  C28 UNL     1       0.720  68.932 -41.409  1.00  0.00     0.010 C 
HETATM   27  C29 UNL     1      -0.282  68.540 -40.329  1.00  0.00     0.011 C 
HETATM   28  C30 UNL     1       3.153  69.108 -38.480  1.00  0.00     0.139 C 
HETATM   29  C31 UNL     1       4.188  68.152 -38.915  1.00  0.00    -0.096 C 
HETATM   30  C32 UNL     1       5.227  67.562 -39.047  1.00  0.00    -0.101 C 
HETATM   31  C33 UNL     1       6.593  67.043 -38.843  1.00  0.00     0.133 C 
ENDROOT
BRANCH   1  32
HETATM   32  C2  UNL     1       7.663  69.195 -34.230  1.00  0.00     0.308 C 
BRANCH  32  33
HETATM   33  N1  UNL     1       7.070  68.035 -33.559  1.00  0.00     0.083 N 
HETATM   34  C1  UNL     1       7.072  68.163 -32.108  1.00  0.00     0.307 C 
HETATM   35  H4  UNL     1       7.601  67.206 -33.817  1.00  0.00     0.315 HD
ENDBRANCH  32  33
ENDBRANCH   1  32
BRANCH   3  36
HETATM   36  O1  UNL     1       9.429  70.991 -38.354  1.00  0.00    -0.361 OA
HETATM   37  H8  UNL     1       9.501  70.807 -39.303  1.00  0.00     0.217 HD
ENDBRANCH   3  36
BRANCH  24  38
HETATM   38  N2  UNL     1       3.100  71.023 -40.109  1.00  0.00     0.090 N 
HETATM   39  H34 UNL     1       4.098  70.817 -40.180  1.00  0.00     0.313 HD
HETATM   40  H35 UNL     1       2.830  71.234 -41.076  1.00  0.00     0.313 HD
ENDBRANCH  24  38
BRANCH  25  41
HETATM   41  C27 UNL     1       3.166  68.919 -42.022  1.00  0.00     0.171 C 
BRANCH  41  42
HETATM   42  O3  UNL     1       4.380  69.539 -41.604  1.00  0.00    -0.400 OA
HETATM   43  H39 UNL     1       4.224  70.499 -41.581  1.00  0.00     0.209 HD
ENDBRANCH  41  42
ENDBRANCH  25  41
TORSDOF 6
ENDMDL
MODEL 7
REMARK minimizedAffinity -8.13015938
REMARK CNNscore 0.319533348
REMARK CNNaffinity 6.38845253
REMARK  6 active torsions:
REMARK  status: ('A' for Active; 'I' for Inactive)
REMARK    1  A    between atoms: N1_2  and  C2_3 
REMARK    2  A    between atoms: C2_3  and  C3_4 
REMARK    3  A    between atoms: C5_6  and  O1_7 
REMARK    4  A    between atoms: C25_28  and  N2_29 
REMARK    5  A    between atoms: C26_30  and  C27_31 
REMARK    6  A    between atoms: C27_31  and  O3_32 
ROOT
HETATM    1  C3  UNL     1      -5.547  46.030 -32.024  1.00  0.00    -0.021 A 
HETATM    2  C4  UNL     1      -4.943  47.137 -31.394  1.00  0.00     0.045 A 
HETATM    3  C5  UNL     1      -5.649  48.305 -31.169  1.00  0.00     0.066 A 
HETATM    4  C6  UNL     1      -6.977  48.404 -31.547  1.00  0.00     0.045 A 
HETATM    5  C7  UNL     1      -7.622  47.326 -32.193  1.00  0.00    -0.037 A 
HETATM    6  C8  UNL     1      -6.897  46.125 -32.468  1.00  0.00    -0.042 A 
HETATM    7  C9  UNL     1      -7.522  44.988 -33.267  1.00  0.00     0.044 C 
HETATM    8  C10 UNL     1      -8.696  44.219 -32.642  1.00  0.00    -0.010 C 
HETATM    9  C11 UNL     1      -9.140  43.064 -33.551  1.00  0.00     0.005 C 
HETATM   10  C12 UNL     1     -10.272  42.245 -32.932  1.00  0.00     0.001 C 
HETATM   11  C13 UNL     1     -10.873  42.898 -31.684  1.00  0.00     0.007 C 
HETATM   12  C14 UNL     1      -9.798  43.133 -30.593  1.00  0.00     0.022 C 
HETATM   13  C15 UNL     1      -8.477  43.692 -31.208  1.00  0.00     0.012 C 
HETATM   14  C16 UNL     1     -10.325  43.860 -29.284  1.00  0.00     0.083 C 
HETATM   15  C17 UNL     1     -11.829  43.520 -29.010  1.00  0.00     0.050 C 
HETATM   16  C18 UNL     1     -12.275  43.877 -27.555  1.00  0.00    -0.029 C 
HETATM   17  C19 UNL     1     -12.564  42.587 -26.740  1.00  0.00     0.010 C 
HETATM   18  C20 UNL     1     -11.357  41.689 -26.545  1.00  0.00     0.004 C 
HETATM   19  C21 UNL     1     -10.177  42.487 -26.016  1.00  0.00     0.038 C 
HETATM   20  C22 UNL     1      -9.865  43.727 -26.884  1.00  0.00     0.065 C 
HETATM   21  C23 UNL     1      -8.593  44.354 -26.290  1.00  0.00     0.046 C 
HETATM   22  O2  UNL     1      -9.555  43.231 -28.205  1.00  0.00    -0.367 OA
HETATM   23  C24 UNL     1     -11.101  44.686 -26.947  1.00  0.00     0.069 C 
HETATM   24  C25 UNL     1     -10.853  45.942 -27.881  1.00  0.00     0.184 C 
HETATM   25  C26 UNL     1     -12.213  46.627 -28.339  1.00  0.00     0.049 C 
HETATM   26  C28 UNL     1     -13.373  46.205 -27.442  1.00  0.00     0.010 C 
HETATM   27  C29 UNL     1     -13.593  44.699 -27.539  1.00  0.00     0.011 C 
HETATM   28  C30 UNL     1     -10.047  45.395 -29.117  1.00  0.00     0.139 C 
HETATM   29  C31 UNL     1     -10.127  46.237 -30.324  1.00  0.00    -0.096 C 
HETATM   30  C32 UNL     1      -9.843  46.891 -31.292  1.00  0.00    -0.101 C 
HETATM   31  C33 UNL     1      -9.120  47.488 -32.431  1.00  0.00     0.133 C 
ENDROOT
BRANCH   1  32
HETATM   32  C2  UNL     1      -4.681  44.790 -32.159  1.00  0.00     0.308 C 
BRANCH  32  33
HETATM   33  N1  UNL     1      -5.207  43.805 -33.108  1.00  0.00     0.083 N 
HETATM   34  C1  UNL     1      -4.443  42.566 -33.113  1.00  0.00     0.307 C 
HETATM   35  H4  UNL     1      -5.182  44.211 -34.042  1.00  0.00     0.315 HD
ENDBRANCH  32  33
ENDBRANCH   1  32
BRANCH   3  36
HETATM   36  O1  UNL     1      -5.007  49.334 -30.547  1.00  0.00    -0.361 OA
HETATM   37  H8  UNL     1      -5.602  50.099 -30.523  1.00  0.00     0.217 HD
ENDBRANCH   3  36
BRANCH  24  38
HETATM   38  N2  UNL     1     -10.037  46.894 -27.098  1.00  0.00     0.090 N 
HETATM   39  H34 UNL     1      -9.547  47.526 -27.733  1.00  0.00     0.313 HD
HETATM   40  H35 UNL     1     -10.658  47.519 -26.571  1.00  0.00     0.313 HD
ENDBRANCH  24  38
BRANCH  25  41
HETATM   41  C27 UNL     1     -12.173  48.163 -28.483  1.00  0.00     0.171 C 
BRANCH  41  42
HETATM   42  O3  UNL     1     -12.419  48.820 -27.242  1.00  0.00    -0.400 OA
HETATM   43  H39 UNL     1     -13.380  48.801 -27.087  1.00  0.00     0.209 HD
ENDBRANCH  41  42
ENDBRANCH  25  41
TORSDOF 6
ENDMDL
MODEL 8
REMARK minimizedAffinity -7.12040997
REMARK CNNscore 0.310467839
REMARK CNNaffinity 6.14411688
REMARK  6 active torsions:
REMARK  status: ('A' for Active; 'I' for Inactive)
REMARK    1  A    between atoms: N1_2  and  C2_3 
REMARK    2  A    between atoms: C2_3  and  C3_4 
REMARK    3  A    between atoms: C5_6  and  O1_7 
REMARK    4  A    between atoms: C25_28  and  N2_29 
REMARK    5  A    between atoms: C26_30  and  C27_31 
REMARK    6  A    between atoms: C27_31  and  O3_32 
ROOT
HETATM    1  C3  UNL     1     -10.315  46.161 -36.773  1.00  0.00    -0.021 A 
HETATM    2  C4  UNL     1     -11.372  47.075 -36.958  1.00  0.00     0.045 A 
HETATM    3  C5  UNL     1     -12.580  46.913 -36.305  1.00  0.00     0.066 A 
HETATM    4  C6  UNL     1     -12.770  45.850 -35.439  1.00  0.00     0.045 A 
HETATM    5  C7  UNL     1     -11.745  44.901 -35.231  1.00  0.00    -0.037 A 
HETATM    6  C8  UNL     1     -10.503  45.031 -35.927  1.00  0.00    -0.042 A 
HETATM    7  C9  UNL     1      -9.420  43.965 -35.821  1.00  0.00     0.044 C 
HETATM    8  C10 UNL     1      -8.721  43.771 -34.466  1.00  0.00    -0.010 C 
HETATM    9  C11 UNL     1      -7.609  42.717 -34.570  1.00  0.00     0.005 C 
HETATM   10  C12 UNL     1      -6.857  42.539 -33.251  1.00  0.00     0.001 C 
HETATM   11  C13 UNL     1      -7.531  43.251 -32.076  1.00  0.00     0.007 C 
HETATM   12  C14 UNL     1      -7.682  44.771 -32.342  1.00  0.00     0.022 C 
HETATM   13  C15 UNL     1      -8.162  45.046 -33.801  1.00  0.00     0.012 C 
HETATM   14  C16 UNL     1      -8.424  45.578 -31.194  1.00  0.00     0.083 C 
HETATM   15  C17 UNL     1      -8.179  44.928 -29.790  1.00  0.00     0.050 C 
HETATM   16  C18 UNL     1      -8.545  45.884 -28.609  1.00  0.00    -0.029 C 
HETATM   17  C19 UNL     1      -7.266  46.326 -27.847  1.00  0.00     0.010 C 
HETATM   18  C20 UNL     1      -6.289  47.132 -28.683  1.00  0.00     0.004 C 
HETATM   19  C21 UNL     1      -7.001  48.276 -29.383  1.00  0.00     0.038 C 
HETATM   20  C22 UNL     1      -8.230  47.802 -30.191  1.00  0.00     0.065 C 
HETATM   21  C23 UNL     1      -8.765  49.045 -30.922  1.00  0.00     0.046 C 
HETATM   22  O2  UNL     1      -7.732  46.871 -31.178  1.00  0.00    -0.367 OA
HETATM   23  C24 UNL     1      -9.268  47.091 -29.259  1.00  0.00     0.069 C 
HETATM   24  C25 UNL     1     -10.517  46.527 -30.054  1.00  0.00     0.184 C 
HETATM   25  C26 UNL     1     -11.295  45.409 -29.234  1.00  0.00     0.049 C 
HETATM   26  C28 UNL     1     -10.937  45.463 -27.751  1.00  0.00     0.010 C 
HETATM   27  C29 UNL     1      -9.451  45.185 -27.559  1.00  0.00     0.011 C 
HETATM   28  C30 UNL     1      -9.935  45.948 -31.396  1.00  0.00     0.139 C 
HETATM   29  C31 UNL     1     -10.796  44.952 -32.061  1.00  0.00    -0.096 C 
HETATM   30  C32 UNL     1     -11.444  44.352 -32.877  1.00  0.00    -0.101 C 
HETATM   31  C33 UNL     1     -12.007  43.859 -34.148  1.00  0.00     0.133 C 
ENDROOT
BRANCH   1  32
HETATM   32  C2  UNL     1      -9.023  46.484 -37.503  1.00  0.00     0.308 C 
BRANCH  32  33
HETATM   33  N1  UNL     1      -8.221  47.522 -36.849  1.00  0.00     0.083 N 
HETATM   34  C1  UNL     1      -7.356  48.233 -37.780  1.00  0.00     0.307 C 
HETATM   35  H4  UNL     1      -7.645  47.083 -36.134  1.00  0.00     0.315 HD
ENDBRANCH  32  33
ENDBRANCH   1  32
BRANCH   3  36
HETATM   36  O1  UNL     1     -13.556  47.839 -36.521  1.00  0.00    -0.361 OA
HETATM   37  H8  UNL     1     -14.359  47.556 -36.056  1.00  0.00     0.217 HD
ENDBRANCH   3  36
BRANCH  24  38
HETATM   38  N2  UNL     1     -11.403  47.680 -30.318  1.00  0.00     0.090 N 
HETATM   39  H34 UNL     1     -12.011  47.470 -31.112  1.00  0.00     0.313 HD
HETATM   40  H35 UNL     1     -12.061  47.789 -29.537  1.00  0.00     0.313 HD
ENDBRANCH  24  38
BRANCH  25  41
HETATM   41  C27 UNL     1     -12.827  45.387 -29.419  1.00  0.00     0.171 C 
BRANCH  41  42
HETATM   42  O3  UNL     1     -13.474  46.367 -28.612  1.00  0.00    -0.400 OA
HETATM   43  H39 UNL     1     -13.520  46.015 -27.706  1.00  0.00     0.209 HD
ENDBRANCH  41  42
ENDBRANCH  25  41
TORSDOF 6
ENDMDL
MODEL 9
REMARK minimizedAffinity -7.59938574
REMARK CNNscore 0.291037798
REMARK CNNaffinity 6.1596694
REMARK  6 active torsions:
REMARK  status: ('A' for Active; 'I' for Inactive)
REMARK    1  A    between atoms: N1_2  and  C2_3 
REMARK    2  A    between atoms: C2_3  and  C3_4 
REMARK    3  A    between atoms: C5_6  and  O1_7 
REMARK    4  A    between atoms: C25_28  and  N2_29 
REMARK    5  A    between atoms: C26_30  and  C27_31 
REMARK    6  A    between atoms: C27_31  and  O3_32 
ROOT
HETATM    1  C3  UNL     1     -14.436  44.891 -27.576  1.00  0.00    -0.021 A 
HETATM    2  C4  UNL     1     -14.954  45.923 -26.767  1.00  0.00     0.045 A 
HETATM    3  C5  UNL     1     -14.292  46.337 -25.625  1.00  0.00     0.066 A 
HETATM    4  C6  UNL     1     -13.090  45.752 -25.262  1.00  0.00     0.045 A 
HETATM    5  C7  UNL     1     -12.539  44.706 -26.034  1.00  0.00    -0.037 A 
HETATM    6  C8  UNL     1     -13.229  44.239 -27.196  1.00  0.00    -0.042 A 
HETATM    7  C9  UNL     1     -12.727  43.036 -27.985  1.00  0.00     0.044 C 
HETATM    8  C10 UNL     1     -11.396  43.167 -28.743  1.00  0.00    -0.010 C 
HETATM    9  C11 UNL     1     -11.093  41.891 -29.542  1.00  0.00     0.005 C 
HETATM   10  C12 UNL     1      -9.802  42.010 -30.350  1.00  0.00     0.001 C 
HETATM   11  C13 UNL     1      -8.981  43.251 -29.992  1.00  0.00     0.007 C 
HETATM   12  C14 UNL     1      -9.798  44.552 -30.199  1.00  0.00     0.022 C 
HETATM   13  C15 UNL     1     -11.255  44.398 -29.663  1.00  0.00     0.012 C 
HETATM   14  C16 UNL     1      -9.039  45.887 -29.796  1.00  0.00     0.083 C 
HETATM   15  C17 UNL     1      -7.493  45.749 -30.006  1.00  0.00     0.050 C 
HETATM   16  C18 UNL     1      -6.758  47.128 -30.006  1.00  0.00    -0.029 C 
HETATM   17  C19 UNL     1      -6.213  47.457 -31.423  1.00  0.00     0.010 C 
HETATM   18  C20 UNL     1      -7.287  47.614 -32.484  1.00  0.00     0.004 C 
HETATM   19  C21 UNL     1      -8.367  48.573 -32.013  1.00  0.00     0.038 C 
HETATM   20  C22 UNL     1      -8.943  48.184 -30.633  1.00  0.00     0.065 C 
HETATM   21  C23 UNL     1     -10.088  49.172 -30.355  1.00  0.00     0.046 C 
HETATM   22  O2  UNL     1      -9.507  46.862 -30.786  1.00  0.00    -0.367 OA
HETATM   23  C24 UNL     1      -7.816  48.164 -29.547  1.00  0.00     0.069 C 
HETATM   24  C25 UNL     1      -8.345  47.705 -28.125  1.00  0.00     0.184 C 
HETATM   25  C26 UNL     1      -7.168  47.211 -27.177  1.00  0.00     0.049 C 
HETATM   26  C28 UNL     1      -5.813  47.701 -27.679  1.00  0.00     0.010 C 
HETATM   27  C29 UNL     1      -5.525  47.126 -29.062  1.00  0.00     0.011 C 
HETATM   28  C30 UNL     1      -9.370  46.547 -28.411  1.00  0.00     0.139 C 
HETATM   29  C31 UNL     1      -9.616  45.647 -27.269  1.00  0.00    -0.096 C 
HETATM   30  C32 UNL     1     -10.150  44.988 -26.417  1.00  0.00    -0.101 C 
HETATM   31  C33 UNL     1     -11.145  44.237 -25.628  1.00  0.00     0.133 C 
ENDROOT
BRANCH   1  32
HETATM   32  C2  UNL     1     -15.230  44.571 -28.831  1.00  0.00     0.308 C 
BRANCH  32  33
HETATM   33  N1  UNL     1     -16.660  44.369 -28.588  1.00  0.00     0.083 N 
HETATM   34  C1  UNL     1     -16.982  42.993 -28.235  1.00  0.00     0.307 C 
HETATM   35  H4  UNL     1     -17.170  44.621 -29.432  1.00  0.00     0.315 HD
ENDBRANCH  32  33
ENDBRANCH   1  32
BRANCH   3  36
HETATM   36  O1  UNL     1     -14.842  47.346 -24.894  1.00  0.00    -0.361 OA
HETATM   37  H8  UNL     1     -14.308  47.476 -24.095  1.00  0.00     0.217 HD
ENDBRANCH   3  36
BRANCH  24  38
HETATM   38  N2  UNL     1      -9.025  48.876 -27.532  1.00  0.00     0.090 N 
HETATM   39  H34 UNL     1      -9.684  48.563 -26.817  1.00  0.00     0.313 HD
HETATM   40  H35 UNL     1      -8.344  49.431 -27.001  1.00  0.00     0.313 HD
ENDBRANCH  24  38
BRANCH  25  41
HETATM   41  C27 UNL     1      -7.337  47.533 -25.677  1.00  0.00     0.171 C 
BRANCH  41  42
HETATM   42  O3  UNL     1      -7.612  48.915 -25.458  1.00  0.00    -0.400 OA
HETATM   43  H39 UNL     1      -6.768  49.395 -25.526  1.00  0.00     0.209 HD
ENDBRANCH  41  42
ENDBRANCH  25  41
TORSDOF 6
ENDMDL
