MODEL 1
REMARK minimizedAffinity -7.20734835
REMARK  8 active torsions:
REMARK  status: ('A' for Active; 'I' for Inactive)
REMARK    1  A    between atoms: P1_2  and  O2_3 
REMARK    2  A    between atoms: P1_2  and  O3_4 
REMARK    3  A    between atoms: P1_2  and  C1_5 
REMARK    4  A    between atoms: C1_5  and  C2_6 
REMARK    5  A    between atoms: C1_5  and  P2_14 
REMARK    6  A    between atoms: C2_6  and  C3_7 
REMARK    7  A    between atoms: P2_14  and  O5_16 
REMARK    8  A    between atoms: P2_14  and  O6_17 
ROOT
HETATM    1  C1  UNL     1       6.262  63.409 -34.591  1.00  0.00     0.214 C 
ENDROOT
BRANCH   1   2
HETATM    2  P1  UNL     1       4.805  63.164 -33.576  1.00  0.00     0.252 P 
HETATM    3  O1  UNL     1       4.779  63.636 -32.165  1.00  0.00    -0.653 OA
BRANCH   2   4
HETATM    4  O2  UNL     1       4.525  61.579 -33.620  1.00  0.00    -0.328 OA
HETATM    5  H1  UNL     1       3.887  61.303 -32.934  1.00  0.00     0.220 HD
ENDBRANCH   2   4
BRANCH   2   6
HETATM    6  O3  UNL     1       3.541  63.686 -34.409  1.00  0.00    -0.328 OA
HETATM    7  H2  UNL     1       2.740  63.783 -33.862  1.00  0.00     0.220 HD
ENDBRANCH   2   6
ENDBRANCH   1   2
BRANCH   1   8
HETATM    8  C2  UNL     1       7.095  62.121 -34.651  1.00  0.00     0.085 C 
BRANCH   8   9
HETATM    9  C3  UNL     1       8.395  62.259 -33.900  1.00  0.00     0.010 A 
HETATM   10  C4  UNL     1       9.223  63.357 -34.109  1.00  0.00     0.025 A 
HETATM   11  C5  UNL     1      10.414  63.448 -33.393  1.00  0.00     0.003 A 
HETATM   12  C6  UNL     1      10.744  62.447 -32.490  1.00  0.00     0.017 A 
HETATM   13  C7  UNL     1       9.866  61.389 -32.339  1.00  0.00     0.088 A 
HETATM   14  N1  UNL     1       8.700  61.269 -33.022  1.00  0.00    -0.369 N 
ATOM     15  H1  UNL     1       8.081  60.471 -32.883  1.00  0.00     0.165 HD
ENDBRANCH   8   9
ENDBRANCH   1   8
BRANCH   1  16
HETATM   16  P2  UNL     1       5.973  64.125 -36.212  1.00  0.00     0.252 P 
HETATM   17  O4  UNL     1       5.210  65.406 -36.252  1.00  0.00    -0.653 OA
BRANCH  16  18
HETATM   18  O5  UNL     1       5.287  62.976 -37.093  1.00  0.00    -0.328 OA
HETATM   19  H10 UNL     1       5.013  63.335 -37.961  1.00  0.00     0.220 HD
ENDBRANCH  16  18
BRANCH  16  20
HETATM   20  O6  UNL     1       7.386  64.233 -36.962  1.00  0.00    -0.328 OA
HETATM   21  H11 UNL     1       8.127  63.734 -36.537  1.00  0.00     0.220 HD
ENDBRANCH  16  20
ENDBRANCH   1  16
TORSDOF 8
ENDMDL
MODEL 2
REMARK minimizedAffinity -6.64047241
REMARK  8 active torsions:
REMARK  status: ('A' for Active; 'I' for Inactive)
REMARK    1  A    between atoms: P1_2  and  O2_3 
REMARK    2  A    between atoms: P1_2  and  O3_4 
REMARK    3  A    between atoms: P1_2  and  C1_5 
REMARK    4  A    between atoms: C1_5  and  C2_6 
REMARK    5  A    between atoms: C1_5  and  P2_14 
REMARK    6  A    between atoms: C2_6  and  C3_7 
REMARK    7  A    between atoms: P2_14  and  O5_16 
REMARK    8  A    between atoms: P2_14  and  O6_17 
ROOT
HETATM    1  C1  UNL     1      -0.630  52.444 -26.405  1.00  0.00     0.214 C 
ENDROOT
BRANCH   1   2
HETATM    2  P1  UNL     1       0.615  52.663 -25.134  1.00  0.00     0.252 P 
HETATM    3  O1  UNL     1       0.482  51.977 -23.821  1.00  0.00    -0.653 OA
BRANCH   2   4
HETATM    4  O2  UNL     1       0.707  54.254 -24.906  1.00  0.00    -0.328 OA
HETATM    5  H1  UNL     1       1.195  54.477 -24.090  1.00  0.00     0.220 HD
ENDBRANCH   2   4
BRANCH   2   6
HETATM    6  O3  UNL     1       2.044  52.403 -25.808  1.00  0.00    -0.328 OA
HETATM    7  H2  UNL     1       2.759  52.296 -25.152  1.00  0.00     0.220 HD
ENDBRANCH   2   6
ENDBRANCH   1   2
BRANCH   1   8
HETATM    8  C2  UNL     1      -2.010  52.220 -25.769  1.00  0.00     0.085 C 
BRANCH   8   9
HETATM    9  C3  UNL     1      -2.584  50.875 -26.138  1.00  0.00     0.010 A 
HETATM   10  C4  UNL     1      -2.570  49.823 -25.226  1.00  0.00     0.025 A 
HETATM   11  C5  UNL     1      -3.112  48.598 -25.605  1.00  0.00     0.003 A 
HETATM   12  C6  UNL     1      -3.651  48.455 -26.877  1.00  0.00     0.017 A 
HETATM   13  C7  UNL     1      -3.628  49.550 -27.722  1.00  0.00     0.088 A 
HETATM   14  N1  UNL     1      -3.106  50.756 -27.385  1.00  0.00    -0.369 N 
ATOM     15  H1  UNL     1      -3.105  51.538 -28.039  1.00  0.00     0.165 HD
ENDBRANCH   8   9
ENDBRANCH   1   8
BRANCH   1  16
HETATM   16  P2  UNL     1      -0.656  53.691 -27.697  1.00  0.00     0.252 P 
HETATM   17  O4  UNL     1      -0.202  55.060 -27.316  1.00  0.00    -0.653 OA
BRANCH  16  18
HETATM   18  O5  UNL     1      -2.143  53.685 -28.295  1.00  0.00    -0.328 OA
HETATM   19  H10 UNL     1      -2.250  54.414 -28.939  1.00  0.00     0.220 HD
ENDBRANCH  16  18
BRANCH  16  20
HETATM   20  O6  UNL     1       0.144  53.111 -28.959  1.00  0.00    -0.328 OA
HETATM   21  H11 UNL     1       0.343  52.142 -28.922  1.00  0.00     0.220 HD
ENDBRANCH  16  20
ENDBRANCH   1  16
TORSDOF 8
ENDMDL
MODEL 3
REMARK minimizedAffinity -6.63012981
REMARK  8 active torsions:
REMARK  status: ('A' for Active; 'I' for Inactive)
REMARK    1  A    between atoms: P1_2  and  O2_3 
REMARK    2  A    between atoms: P1_2  and  O3_4 
REMARK    3  A    between atoms: P1_2  and  C1_5 
REMARK    4  A    between atoms: C1_5  and  C2_6 
REMARK    5  A    between atoms: C1_5  and  P2_14 
REMARK    6  A    between atoms: C2_6  and  C3_7 
REMARK    7  A    between atoms: P2_14  and  O5_16 
REMARK    8  A    between atoms: P2_14  and  O6_17 
ROOT
HETATM    1  C1  UNL     1      -0.958  51.375 -27.417  1.00  0.00     0.214 C 
ENDROOT
BRANCH   1   2
HETATM    2  P1  UNL     1      -0.698  53.138 -27.610  1.00  0.00     0.252 P 
HETATM    3  O1  UNL     1      -0.188  53.955 -26.475  1.00  0.00    -0.653 OA
BRANCH   2   4
HETATM    4  O2  UNL     1      -2.117  53.721 -28.099  1.00  0.00    -0.328 OA
HETATM    5  H1  UNL     1      -2.153  54.694 -28.030  1.00  0.00     0.220 HD
ENDBRANCH   2   4
BRANCH   2   6
HETATM    6  O3  UNL     1       0.161  53.358 -28.944  1.00  0.00    -0.328 OA
HETATM    7  H2  UNL     1       0.524  54.260 -29.016  1.00  0.00     0.220 HD
ENDBRANCH   2   6
ENDBRANCH   1   2
BRANCH   1   8
HETATM    8  C2  UNL     1      -0.017  50.810 -26.343  1.00  0.00     0.085 C 
BRANCH   8   9
HETATM    9  C3  UNL     1      -0.427  51.240 -24.957  1.00  0.00     0.010 A 
HETATM   10  C4  UNL     1       0.330  52.168 -24.248  1.00  0.00     0.025 A 
HETATM   11  C5  UNL     1      -0.085  52.539 -22.972  1.00  0.00     0.003 A 
HETATM   12  C6  UNL     1      -1.239  51.979 -22.440  1.00  0.00     0.017 A 
HETATM   13  C7  UNL     1      -1.936  51.066 -23.211  1.00  0.00     0.088 A 
HETATM   14  N1  UNL     1      -1.558  50.681 -24.455  1.00  0.00    -0.369 N 
ATOM     15  H1  UNL     1      -2.098  50.001 -24.990  1.00  0.00     0.165 HD
ENDBRANCH   8   9
ENDBRANCH   1   8
BRANCH   1  16
HETATM   16  P2  UNL     1      -2.662  50.857 -27.189  1.00  0.00     0.252 P 
HETATM   17  O4  UNL     1      -3.489  51.668 -26.251  1.00  0.00    -0.653 OA
BRANCH  16  18
HETATM   18  O5  UNL     1      -2.607  49.309 -26.775  1.00  0.00    -0.328 OA
HETATM   19  H10 UNL     1      -3.502  48.992 -26.540  1.00  0.00     0.220 HD
ENDBRANCH  16  18
BRANCH  16  20
HETATM   20  O6  UNL     1      -3.335  50.724 -28.638  1.00  0.00    -0.328 OA
HETATM   21  H11 UNL     1      -2.703  50.744 -29.399  1.00  0.00     0.220 HD
ENDBRANCH  16  20
ENDBRANCH   1  16
TORSDOF 8
ENDMDL
MODEL 4
REMARK minimizedAffinity -6.54246378
REMARK  8 active torsions:
REMARK  status: ('A' for Active; 'I' for Inactive)
REMARK    1  A    between atoms: P1_2  and  O2_3 
REMARK    2  A    between atoms: P1_2  and  O3_4 
REMARK    3  A    between atoms: P1_2  and  C1_5 
REMARK    4  A    between atoms: C1_5  and  C2_6 
REMARK    5  A    between atoms: C1_5  and  P2_14 
REMARK    6  A    between atoms: C2_6  and  C3_7 
REMARK    7  A    between atoms: P2_14  and  O5_16 
REMARK    8  A    between atoms: P2_14  and  O6_17 
ROOT
HETATM    1  C1  UNL     1      -0.729  53.036 -24.640  1.00  0.00     0.214 C 
ENDROOT
BRANCH   1   2
HETATM    2  P1  UNL     1      -2.368  52.322 -24.765  1.00  0.00     0.252 P 
HETATM    3  O1  UNL     1      -3.300  52.755 -25.841  1.00  0.00    -0.653 OA
BRANCH   2   4
HETATM    4  O2  UNL     1      -3.048  52.576 -23.328  1.00  0.00    -0.328 OA
HETATM    5  H1  UNL     1      -4.012  52.421 -23.349  1.00  0.00     0.220 HD
ENDBRANCH   2   4
BRANCH   2   6
HETATM    6  O3  UNL     1      -2.208  50.730 -24.713  1.00  0.00    -0.328 OA
HETATM    7  H2  UNL     1      -3.018  50.258 -24.981  1.00  0.00     0.220 HD
ENDBRANCH   2   6
ENDBRANCH   1   2
BRANCH   1   8
HETATM    8  C2  UNL     1       0.189  52.126 -23.810  1.00  0.00     0.085 C 
BRANCH   8   9
HETATM    9  C3  UNL     1       0.261  52.568 -22.370  1.00  0.00     0.010 A 
HETATM   10  C4  UNL     1       1.094  53.615 -21.990  1.00  0.00     0.025 A 
HETATM   11  C5  UNL     1       1.130  53.993 -20.650  1.00  0.00     0.003 A 
HETATM   12  C6  UNL     1       0.336  53.321 -19.730  1.00  0.00     0.017 A 
HETATM   13  C7  UNL     1      -0.466  52.292 -20.190  1.00  0.00     0.088 A 
HETATM   14  N1  UNL     1      -0.522  51.897 -21.487  1.00  0.00    -0.369 N 
ATOM     15  H1  UNL     1      -1.125  51.131 -21.785  1.00  0.00     0.165 HD
ENDBRANCH   8   9
ENDBRANCH   1   8
BRANCH   1  16
HETATM   16  P2  UNL     1       0.020  53.550 -26.189  1.00  0.00     0.252 P 
HETATM   17  O4  UNL     1       1.255  52.827 -26.608  1.00  0.00    -0.653 OA
BRANCH  16  18
HETATM   18  O5  UNL     1       0.247  55.132 -26.073  1.00  0.00    -0.328 OA
HETATM   19  H10 UNL     1       0.744  55.459 -26.849  1.00  0.00     0.220 HD
ENDBRANCH  16  18
BRANCH  16  20
HETATM   20  O6  UNL     1      -1.116  53.523 -27.319  1.00  0.00    -0.328 OA
HETATM   21  H11 UNL     1      -2.042  53.434 -26.983  1.00  0.00     0.220 HD
ENDBRANCH  16  20
ENDBRANCH   1  16
TORSDOF 8
ENDMDL
MODEL 5
REMARK minimizedAffinity -6.5317688
REMARK  8 active torsions:
REMARK  status: ('A' for Active; 'I' for Inactive)
REMARK    1  A    between atoms: P1_2  and  O2_3 
REMARK    2  A    between atoms: P1_2  and  O3_4 
REMARK    3  A    between atoms: P1_2  and  C1_5 
REMARK    4  A    between atoms: C1_5  and  C2_6 
REMARK    5  A    between atoms: C1_5  and  P2_14 
REMARK    6  A    between atoms: C2_6  and  C3_7 
REMARK    7  A    between atoms: P2_14  and  O5_16 
REMARK    8  A    between atoms: P2_14  and  O6_17 
ROOT
HETATM    1  C1  UNL     1      -0.745  52.497 -26.287  1.00  0.00     0.214 C 
ENDROOT
BRANCH   1   2
HETATM    2  P1  UNL     1      -0.668  53.669 -27.640  1.00  0.00     0.252 P 
HETATM    3  O1  UNL     1      -0.211  55.065 -27.405  1.00  0.00    -0.653 OA
BRANCH   2   4
HETATM    4  O2  UNL     1      -2.151  53.685 -28.267  1.00  0.00    -0.328 OA
HETATM    5  H1  UNL     1      -2.283  54.441 -28.870  1.00  0.00     0.220 HD
ENDBRANCH   2   4
BRANCH   2   6
HETATM    6  O3  UNL     1       0.127  52.969 -28.841  1.00  0.00    -0.328 OA
HETATM    7  H2  UNL     1       0.396  53.599 -29.536  1.00  0.00     0.220 HD
ENDBRANCH   2   6
ENDBRANCH   1   2
BRANCH   1   8
HETATM    8  C2  UNL     1      -0.905  51.068 -26.825  1.00  0.00     0.085 C 
BRANCH   8   9
HETATM    9  C3  UNL     1      -1.991  50.315 -26.099  1.00  0.00     0.010 A 
HETATM   10  C4  UNL     1      -2.458  49.097 -26.585  1.00  0.00     0.025 A 
HETATM   11  C5  UNL     1      -3.460  48.433 -25.884  1.00  0.00     0.003 A 
HETATM   12  C6  UNL     1      -3.966  48.997 -24.720  1.00  0.00     0.017 A 
HETATM   13  C7  UNL     1      -3.447  50.209 -24.303  1.00  0.00     0.088 A 
HETATM   14  N1  UNL     1      -2.473  50.883 -24.964  1.00  0.00    -0.369 N 
ATOM     15  H1  UNL     1      -2.118  51.777 -24.625  1.00  0.00     0.165 HD
ENDBRANCH   8   9
ENDBRANCH   1   8
BRANCH   1  16
HETATM   16  P2  UNL     1       0.559  52.634 -25.059  1.00  0.00     0.252 P 
HETATM   17  O4  UNL     1       0.345  51.914 -23.772  1.00  0.00    -0.653 OA
BRANCH  16  18
HETATM   18  O5  UNL     1       0.811  54.203 -24.848  1.00  0.00    -0.328 OA
HETATM   19  H10 UNL     1       1.443  54.347 -24.116  1.00  0.00     0.220 HD
ENDBRANCH  16  18
BRANCH  16  20
HETATM   20  O6  UNL     1       1.942  52.232 -25.762  1.00  0.00    -0.328 OA
HETATM   21  H11 UNL     1       1.911  52.172 -26.749  1.00  0.00     0.220 HD
ENDBRANCH  16  20
ENDBRANCH   1  16
TORSDOF 8
ENDMDL
MODEL 6
REMARK minimizedAffinity -6.5072422
REMARK  8 active torsions:
REMARK  status: ('A' for Active; 'I' for Inactive)
REMARK    1  A    between atoms: P1_2  and  O2_3 
REMARK    2  A    between atoms: P1_2  and  O3_4 
REMARK    3  A    between atoms: P1_2  and  C1_5 
REMARK    4  A    between atoms: C1_5  and  C2_6 
REMARK    5  A    between atoms: C1_5  and  P2_14 
REMARK    6  A    between atoms: C2_6  and  C3_7 
REMARK    7  A    between atoms: P2_14  and  O5_16 
REMARK    8  A    between atoms: P2_14  and  O6_17 
ROOT
HETATM    1  C1  UNL     1      -0.712  53.039 -24.755  1.00  0.00     0.214 C 
ENDROOT
BRANCH   1   2
HETATM    2  P1  UNL     1      -2.362  52.343 -24.835  1.00  0.00     0.252 P 
HETATM    3  O1  UNL     1      -3.299  52.741 -25.920  1.00  0.00    -0.653 OA
BRANCH   2   4
HETATM    4  O2  UNL     1      -3.024  52.668 -23.404  1.00  0.00    -0.328 OA
HETATM    5  H1  UNL     1      -3.990  52.525 -23.410  1.00  0.00     0.220 HD
ENDBRANCH   2   4
BRANCH   2   6
HETATM    6  O3  UNL     1      -2.222  50.752 -24.714  1.00  0.00    -0.328 OA
HETATM    7  H2  UNL     1      -3.041  50.280 -24.954  1.00  0.00     0.220 HD
ENDBRANCH   2   6
ENDBRANCH   1   2
BRANCH   1   8
HETATM    8  C2  UNL     1       0.223  52.111 -23.967  1.00  0.00     0.085 C 
BRANCH   8   9
HETATM    9  C3  UNL     1       0.422  52.589 -22.551  1.00  0.00     0.010 A 
HETATM   10  C4  UNL     1      -0.114  51.881 -21.480  1.00  0.00     0.025 A 
HETATM   11  C5  UNL     1       0.095  52.356 -20.188  1.00  0.00     0.003 A 
HETATM   12  C6  UNL     1       0.832  53.518 -19.999  1.00  0.00     0.017 A 
HETATM   13  C7  UNL     1       1.332  54.161 -21.116  1.00  0.00     0.088 A 
HETATM   14  N1  UNL     1       1.144  53.727 -22.388  1.00  0.00    -0.369 N 
ATOM     15  H1  UNL     1       1.528  54.232 -23.186  1.00  0.00     0.165 HD
ENDBRANCH   8   9
ENDBRANCH   1   8
BRANCH   1  16
HETATM   16  P2  UNL     1      -0.009  53.564 -26.322  1.00  0.00     0.252 P 
HETATM   17  O4  UNL     1       1.209  52.841 -26.785  1.00  0.00    -0.653 OA
BRANCH  16  18
HETATM   18  O5  UNL     1       0.226  55.145 -26.200  1.00  0.00    -0.328 OA
HETATM   19  H10 UNL     1       0.700  55.476 -26.988  1.00  0.00     0.220 HD
ENDBRANCH  16  18
BRANCH  16  20
HETATM   20  O6  UNL     1      -1.180  53.550 -27.417  1.00  0.00    -0.328 OA
HETATM   21  H11 UNL     1      -2.096  53.462 -27.053  1.00  0.00     0.220 HD
ENDBRANCH  16  20
ENDBRANCH   1  16
TORSDOF 8
ENDMDL
MODEL 7
REMARK minimizedAffinity -6.46281624
REMARK  8 active torsions:
REMARK  status: ('A' for Active; 'I' for Inactive)
REMARK    1  A    between atoms: P1_2  and  O2_3 
REMARK    2  A    between atoms: P1_2  and  O3_4 
REMARK    3  A    between atoms: P1_2  and  C1_5 
REMARK    4  A    between atoms: C1_5  and  C2_6 
REMARK    5  A    between atoms: C1_5  and  P2_14 
REMARK    6  A    between atoms: C2_6  and  C3_7 
REMARK    7  A    between atoms: P2_14  and  O5_16 
REMARK    8  A    between atoms: P2_14  and  O6_17 
ROOT
HETATM    1  C1  UNL     1      -1.349  52.350 -26.567  1.00  0.00     0.214 C 
ENDROOT
BRANCH   1   2
HETATM    2  P1  UNL     1      -0.929  52.413 -24.826  1.00  0.00     0.252 P 
HETATM    3  O1  UNL     1       0.306  53.106 -24.371  1.00  0.00    -0.653 OA
BRANCH   2   4
HETATM    4  O2  UNL     1      -0.894  50.876 -24.346  1.00  0.00    -0.328 OA
HETATM    5  H1  UNL     1      -0.469  50.777 -23.473  1.00  0.00     0.220 HD
ENDBRANCH   2   4
BRANCH   2   6
HETATM    6  O3  UNL     1      -2.228  52.915 -24.034  1.00  0.00    -0.328 OA
HETATM    7  H2  UNL     1      -2.033  53.176 -23.114  1.00  0.00     0.220 HD
ENDBRANCH   2   6
ENDBRANCH   1   2
BRANCH   1   8
HETATM    8  C2  UNL     1      -2.867  52.205 -26.747  1.00  0.00     0.085 C 
BRANCH   8   9
HETATM    9  C3  UNL     1      -3.329  50.794 -26.480  1.00  0.00     0.010 A 
HETATM   10  C4  UNL     1      -3.056  49.774 -27.385  1.00  0.00     0.025 A 
HETATM   11  C5  UNL     1      -3.499  48.485 -27.100  1.00  0.00     0.003 A 
HETATM   12  C6  UNL     1      -4.198  48.250 -25.923  1.00  0.00     0.017 A 
HETATM   13  C7  UNL     1      -4.427  49.318 -25.075  1.00  0.00     0.088 A 
HETATM   14  N1  UNL     1      -4.012  50.585 -25.325  1.00  0.00    -0.369 N 
ATOM     15  H1  UNL     1      -4.203  51.347 -24.675  1.00  0.00     0.165 HD
ENDBRANCH   8   9
ENDBRANCH   1   8
BRANCH   1  16
HETATM   16  P2  UNL     1      -0.651  53.653 -27.587  1.00  0.00     0.252 P 
HETATM   17  O4  UNL     1       0.111  54.722 -26.879  1.00  0.00    -0.653 OA
BRANCH  16  18
HETATM   18  O5  UNL     1      -1.863  54.239 -28.456  1.00  0.00    -0.328 OA
HETATM   19  H10 UNL     1      -1.567  55.022 -28.962  1.00  0.00     0.220 HD
ENDBRANCH  16  18
BRANCH  16  20
HETATM   20  O6  UNL     1       0.207  52.962 -28.752  1.00  0.00    -0.328 OA
HETATM   21  H11 UNL     1       0.067  51.988 -28.856  1.00  0.00     0.220 HD
ENDBRANCH  16  20
ENDBRANCH   1  16
TORSDOF 8
ENDMDL
MODEL 8
REMARK minimizedAffinity -6.39160776
REMARK  8 active torsions:
REMARK  status: ('A' for Active; 'I' for Inactive)
REMARK    1  A    between atoms: P1_2  and  O2_3 
REMARK    2  A    between atoms: P1_2  and  O3_4 
REMARK    3  A    between atoms: P1_2  and  C1_5 
REMARK    4  A    between atoms: C1_5  and  C2_6 
REMARK    5  A    between atoms: C1_5  and  P2_14 
REMARK    6  A    between atoms: C2_6  and  C3_7 
REMARK    7  A    between atoms: P2_14  and  O5_16 
REMARK    8  A    between atoms: P2_14  and  O6_17 
ROOT
HETATM    1  C1  UNL     1      -1.201  52.213 -26.226  1.00  0.00     0.214 C 
ENDROOT
BRANCH   1   2
HETATM    2  P1  UNL     1      -2.468  51.050 -26.730  1.00  0.00     0.252 P 
HETATM    3  O1  UNL     1      -2.206  49.586 -26.695  1.00  0.00    -0.653 OA
BRANCH   2   4
HETATM    4  O2  UNL     1      -2.871  51.490 -28.225  1.00  0.00    -0.328 OA
HETATM    5  H1  UNL     1      -3.396  50.802 -28.678  1.00  0.00     0.220 HD
ENDBRANCH   2   4
BRANCH   2   6
HETATM    6  O3  UNL     1      -3.816  51.439 -25.959  1.00  0.00    -0.328 OA
HETATM    7  H2  UNL     1      -4.497  50.743 -26.011  1.00  0.00     0.220 HD
ENDBRANCH   2   6
ENDBRANCH   1   2
BRANCH   1   8
HETATM    8  C2  UNL     1      -0.085  51.490 -25.458  1.00  0.00     0.085 C 
BRANCH   8   9
HETATM    9  C3  UNL     1      -0.179  51.732 -23.973  1.00  0.00     0.010 A 
HETATM   10  C4  UNL     1       0.582  52.726 -23.366  1.00  0.00     0.025 A 
HETATM   11  C5  UNL     1       0.465  52.919 -21.992  1.00  0.00     0.003 A 
HETATM   12  C6  UNL     1      -0.407  52.120 -21.264  1.00  0.00     0.017 A 
HETATM   13  C7  UNL     1      -1.130  51.156 -21.943  1.00  0.00     0.088 A 
HETATM   14  N1  UNL     1      -1.036  50.940 -23.279  1.00  0.00    -0.369 N 
ATOM     15  H1  UNL     1      -1.585  50.216 -23.742  1.00  0.00     0.165 HD
ENDBRANCH   8   9
ENDBRANCH   1   8
BRANCH   1  16
HETATM   16  P2  UNL     1      -0.570  53.290 -27.517  1.00  0.00     0.252 P 
HETATM   17  O4  UNL     1       0.355  52.673 -28.510  1.00  0.00    -0.653 OA
BRANCH  16  18
HETATM   18  O5  UNL     1       0.085  54.548 -26.770  1.00  0.00    -0.328 OA
HETATM   19  H10 UNL     1       0.536  55.126 -27.417  1.00  0.00     0.220 HD
ENDBRANCH  16  18
BRANCH  16  20
HETATM   20  O6  UNL     1      -1.821  54.011 -28.213  1.00  0.00    -0.328 OA
HETATM   21  H11 UNL     1      -2.679  53.924 -27.730  1.00  0.00     0.220 HD
ENDBRANCH  16  20
ENDBRANCH   1  16
TORSDOF 8
ENDMDL
MODEL 9
REMARK minimizedAffinity -6.35204411
REMARK  8 active torsions:
REMARK  status: ('A' for Active; 'I' for Inactive)
REMARK    1  A    between atoms: P1_2  and  O2_3 
REMARK    2  A    between atoms: P1_2  and  O3_4 
REMARK    3  A    between atoms: P1_2  and  C1_5 
REMARK    4  A    between atoms: C1_5  and  C2_6 
REMARK    5  A    between atoms: C1_5  and  P2_14 
REMARK    6  A    between atoms: C2_6  and  C3_7 
REMARK    7  A    between atoms: P2_14  and  O5_16 
REMARK    8  A    between atoms: P2_14  and  O6_17 
ROOT
HETATM    1  C1  UNL     1      -0.112  52.722 -26.273  1.00  0.00     0.214 C 
ENDROOT
BRANCH   1   2
HETATM    2  P1  UNL     1      -1.571  52.944 -27.289  1.00  0.00     0.252 P 
HETATM    3  O1  UNL     1      -1.726  54.158 -28.135  1.00  0.00    -0.653 OA
BRANCH   2   4
HETATM    4  O2  UNL     1      -2.814  52.834 -26.271  1.00  0.00    -0.328 OA
HETATM    5  H1  UNL     1      -3.644  53.151 -26.675  1.00  0.00     0.220 HD
ENDBRANCH   2   4
BRANCH   2   6
HETATM    6  O3  UNL     1      -1.787  51.596 -28.126  1.00  0.00    -0.328 OA
HETATM    7  H2  UNL     1      -2.429  51.699 -28.853  1.00  0.00     0.220 HD
ENDBRANCH   2   6
ENDBRANCH   1   2
BRANCH   1   8
HETATM    8  C2  UNL     1      -0.500  52.165 -24.895  1.00  0.00     0.085 C 
BRANCH   8   9
HETATM    9  C3  UNL     1       0.200  52.899 -23.778  1.00  0.00     0.010 A 
HETATM   10  C4  UNL     1       0.126  52.435 -22.468  1.00  0.00     0.025 A 
HETATM   11  C5  UNL     1       0.788  53.140 -21.467  1.00  0.00     0.003 A 
HETATM   12  C6  UNL     1       1.505  54.283 -21.797  1.00  0.00     0.017 A 
HETATM   13  C7  UNL     1       1.531  54.675 -23.123  1.00  0.00     0.088 A 
HETATM   14  N1  UNL     1       0.895  54.013 -24.122  1.00  0.00    -0.369 N 
ATOM     15  H1  UNL     1       0.936  54.338 -25.087  1.00  0.00     0.165 HD
ENDBRANCH   8   9
ENDBRANCH   1   8
BRANCH   1  16
HETATM   16  P2  UNL     1       1.240  51.816 -27.032  1.00  0.00     0.252 P 
HETATM   17  O4  UNL     1       1.273  51.788 -28.522  1.00  0.00    -0.653 OA
BRANCH  16  18
HETATM   18  O5  UNL     1       1.208  50.347 -26.392  1.00  0.00    -0.328 OA
HETATM   19  H10 UNL     1       1.861  49.772 -26.838  1.00  0.00     0.220 HD
ENDBRANCH  16  18
BRANCH  16  20
HETATM   20  O6  UNL     1       2.611  52.356 -26.401  1.00  0.00    -0.328 OA
HETATM   21  H11 UNL     1       2.510  52.920 -25.595  1.00  0.00     0.220 HD
ENDBRANCH  16  20
ENDBRANCH   1  16
TORSDOF 8
ENDMDL
