MODEL 1
REMARK minimizedAffinity -6.86469984
REMARK  11 active torsions:
REMARK  status: ('A' for Active; 'I' for Inactive)
REMARK    1  A    between atoms: O1_2  and  C2_3 
REMARK    2  A    between atoms: C5_6  and  N1_7 
REMARK    3  A    between atoms: N1_7  and  C6_8 
REMARK    4  A    between atoms: C6_8  and  C7_9 
REMARK    5  A    between atoms: C7_9  and  C8_10 
REMARK    6  A    between atoms: C8_10  and  C9_11 
REMARK    7  A    between atoms: C9_11  and  C10_12 
REMARK    8  A    between atoms: C10_12  and  O2_13 
REMARK    9  A    between atoms: O2_13  and  N2_14 
REMARK   10  A    between atoms: C13_23  and  O5_24 
REMARK   11  A    between atoms: C15_26  and  O6_27 
ROOT
HETATM    1  C2  UNL     1      -0.883  51.723 -20.873  1.00  0.00     0.105 A 
HETATM    2  C3  UNL     1      -0.786  52.321 -22.128  1.00  0.00     0.057 A 
HETATM    3  C4  UNL     1      -1.796  52.149 -23.115  1.00  0.00     0.035 A 
HETATM    4  C5  UNL     1      -1.744  52.714 -24.407  1.00  0.00     0.093 A 
HETATM    5  N3  UNL     1      -2.741  52.566 -25.295  1.00  0.00    -0.342 N 
ATOM      6  H3  UNL     1      -2.702  52.996 -26.219  1.00  0.00     0.167 HD
HETATM    7  C11 UNL     1      -3.783  51.829 -24.907  1.00  0.00     0.182 A 
HETATM    8  N4  UNL     1      -3.926  51.227 -23.725  1.00  0.00    -0.349 N 
ATOM      9  H4  UNL     1      -4.751  50.668 -23.510  1.00  0.00     0.166 HD
HETATM   10  C12 UNL     1      -2.938  51.386 -22.827  1.00  0.00     0.083 A 
HETATM   11  C13 UNL     1      -3.022  50.796 -21.559  1.00  0.00     0.132 A 
HETATM   12  C15 UNL     1      -2.000  50.930 -20.607  1.00  0.00     0.137 A 
ENDROOT
BRANCH   4  13
HETATM   13  N1  UNL     1      -0.607  53.469 -24.783  1.00  0.00    -0.278 NA
HETATM   14  H5  UNL     1      -0.611  54.330 -24.239  1.00  0.00     0.129 HD
BRANCH  13  15
HETATM   15  C6  UNL     1       0.667  52.763 -24.656  1.00  0.00     0.094 C 
BRANCH  15  16
HETATM   16  C7  UNL     1       0.679  51.583 -25.632  1.00  0.00     0.015 C 
BRANCH  16  17
HETATM   17  C8  UNL     1       1.971  51.479 -26.447  1.00  0.00     0.003 C 
BRANCH  17  18
HETATM   18  C9  UNL     1       1.786  51.828 -27.927  1.00  0.00     0.029 C 
BRANCH  18  19
HETATM   19  C10 UNL     1       0.310  51.953 -28.311  1.00  0.00     0.208 C 
BRANCH  19  20
HETATM   20  O2  UNL     1       0.073  53.267 -28.806  1.00  0.00    -0.221 OA
BRANCH  20  21
HETATM   21  N2  UNL     1      -0.663  54.067 -27.900  1.00  0.00     0.004 N 
HETATM   22  O3  UNL     1      -0.047  54.947 -27.295  1.00  0.00    -0.511 OA
HETATM   23  O4  UNL     1      -1.851  53.755 -27.845  1.00  0.00    -0.511 OA
ENDBRANCH  20  21
ENDBRANCH  19  20
ENDBRANCH  18  19
ENDBRANCH  17  18
ENDBRANCH  16  17
ENDBRANCH  15  16
ENDBRANCH  13  15
ENDBRANCH   4  13
BRANCH   1  24
HETATM   24  O1  UNL     1       0.044  51.832 -19.874  1.00  0.00    -0.353 OA
HETATM   25  C1  UNL     1       0.856  53.000 -19.860  1.00  0.00     0.210 C 
ENDBRANCH   1  24
BRANCH  11  26
HETATM   26  O5  UNL     1      -4.107  49.999 -21.248  1.00  0.00    -0.351 OA
HETATM   27  C14 UNL     1      -5.192  50.812 -20.802  1.00  0.00     0.210 C 
ENDBRANCH  11  26
BRANCH  12  28
HETATM   28  O6  UNL     1      -2.147  50.349 -19.368  1.00  0.00    -0.351 OA
HETATM   29  C16 UNL     1      -2.639  51.314 -18.437  1.00  0.00     0.210 C 
ENDBRANCH  12  28
TORSDOF 11
ENDMDL
MODEL 2
REMARK minimizedAffinity -6.67737675
REMARK  11 active torsions:
REMARK  status: ('A' for Active; 'I' for Inactive)
REMARK    1  A    between atoms: O1_2  and  C2_3 
REMARK    2  A    between atoms: C5_6  and  N1_7 
REMARK    3  A    between atoms: N1_7  and  C6_8 
REMARK    4  A    between atoms: C6_8  and  C7_9 
REMARK    5  A    between atoms: C7_9  and  C8_10 
REMARK    6  A    between atoms: C8_10  and  C9_11 
REMARK    7  A    between atoms: C9_11  and  C10_12 
REMARK    8  A    between atoms: C10_12  and  O2_13 
REMARK    9  A    between atoms: O2_13  and  N2_14 
REMARK   10  A    between atoms: C13_23  and  O5_24 
REMARK   11  A    between atoms: C15_26  and  O6_27 
ROOT
HETATM    1  C2  UNL     1       8.400  63.960 -35.678  1.00  0.00     0.105 A 
HETATM    2  C3  UNL     1       7.124  64.511 -35.583  1.00  0.00     0.057 A 
HETATM    3  C4  UNL     1       6.057  63.813 -34.951  1.00  0.00     0.035 A 
HETATM    4  C5  UNL     1       4.742  64.311 -34.839  1.00  0.00     0.093 A 
HETATM    5  N3  UNL     1       3.774  63.642 -34.193  1.00  0.00    -0.342 N 
ATOM      6  H3  UNL     1       2.831  64.021 -34.101  1.00  0.00     0.167 HD
HETATM    7  C11 UNL     1       4.107  62.457 -33.678  1.00  0.00     0.182 A 
HETATM    8  N4  UNL     1       5.307  61.878 -33.747  1.00  0.00    -0.349 N 
ATOM      9  H4  UNL     1       5.477  60.960 -33.337  1.00  0.00     0.166 HD
HETATM   10  C12 UNL     1       6.283  62.552 -34.378  1.00  0.00     0.083 A 
HETATM   11  C13 UNL     1       7.573  62.015 -34.479  1.00  0.00     0.132 A 
HETATM   12  C15 UNL     1       8.609  62.687 -35.146  1.00  0.00     0.137 A 
ENDROOT
BRANCH   4  13
HETATM   13  N1  UNL     1       4.428  65.563 -35.421  1.00  0.00    -0.278 NA
HETATM   14  H5  UNL     1       4.976  65.657 -36.274  1.00  0.00     0.129 HD
BRANCH  13  15
HETATM   15  C6  UNL     1       3.004  65.781 -35.674  1.00  0.00     0.094 C 
BRANCH  15  16
HETATM   16  C7  UNL     1       2.840  67.034 -36.538  1.00  0.00     0.015 C 
BRANCH  16  17
HETATM   17  C8  UNL     1       2.522  66.728 -38.004  1.00  0.00     0.003 C 
BRANCH  17  18
HETATM   18  C9  UNL     1       1.114  67.165 -38.424  1.00  0.00     0.029 C 
BRANCH  18  19
HETATM   19  C10 UNL     1       0.551  66.294 -39.549  1.00  0.00     0.208 C 
BRANCH  19  20
HETATM   20  O2  UNL     1      -0.478  67.016 -40.218  1.00  0.00    -0.221 OA
BRANCH  20  21
HETATM   21  N2  UNL     1      -0.269  67.094 -41.616  1.00  0.00     0.004 N 
HETATM   22  O3  UNL     1       0.868  67.372 -42.002  1.00  0.00    -0.511 OA
HETATM   23  O4  UNL     1      -1.289  66.867 -42.264  1.00  0.00    -0.511 OA
ENDBRANCH  20  21
ENDBRANCH  19  20
ENDBRANCH  18  19
ENDBRANCH  17  18
ENDBRANCH  16  17
ENDBRANCH  15  16
ENDBRANCH  13  15
ENDBRANCH   4  13
BRANCH   1  24
HETATM   24  O1  UNL     1       9.475  64.560 -36.275  1.00  0.00    -0.353 OA
HETATM   25  C1  UNL     1      10.729  63.894 -36.184  1.00  0.00     0.210 C 
ENDBRANCH   1  24
BRANCH  11  26
HETATM   26  O5  UNL     1       7.830  60.756 -33.970  1.00  0.00    -0.351 OA
HETATM   27  C14 UNL     1       7.429  59.763 -34.913  1.00  0.00     0.210 C 
ENDBRANCH  11  26
BRANCH  12  28
HETATM   28  O6  UNL     1       9.864  62.124 -35.193  1.00  0.00    -0.351 OA
HETATM   29  C16 UNL     1      10.430  62.094 -33.882  1.00  0.00     0.210 C 
ENDBRANCH  12  28
TORSDOF 11
ENDMDL
MODEL 3
REMARK minimizedAffinity -6.63792706
REMARK  11 active torsions:
REMARK  status: ('A' for Active; 'I' for Inactive)
REMARK    1  A    between atoms: O1_2  and  C2_3 
REMARK    2  A    between atoms: C5_6  and  N1_7 
REMARK    3  A    between atoms: N1_7  and  C6_8 
REMARK    4  A    between atoms: C6_8  and  C7_9 
REMARK    5  A    between atoms: C7_9  and  C8_10 
REMARK    6  A    between atoms: C8_10  and  C9_11 
REMARK    7  A    between atoms: C9_11  and  C10_12 
REMARK    8  A    between atoms: C10_12  and  O2_13 
REMARK    9  A    between atoms: O2_13  and  N2_14 
REMARK   10  A    between atoms: C13_23  and  O5_24 
REMARK   11  A    between atoms: C15_26  and  O6_27 
ROOT
HETATM    1  C2  UNL     1      -0.597  49.944 -18.707  1.00  0.00     0.105 A 
HETATM    2  C3  UNL     1      -0.479  50.448 -20.002  1.00  0.00     0.057 A 
HETATM    3  C4  UNL     1       0.103  51.721 -20.254  1.00  0.00     0.035 A 
HETATM    4  C5  UNL     1       0.235  52.290 -21.538  1.00  0.00     0.093 A 
HETATM    5  N3  UNL     1       0.833  53.475 -21.740  1.00  0.00    -0.342 N 
ATOM      6  H3  UNL     1       0.941  53.869 -22.675  1.00  0.00     0.167 HD
HETATM    7  C11 UNL     1       1.278  54.113 -20.656  1.00  0.00     0.182 A 
HETATM    8  N4  UNL     1       1.183  53.684 -19.395  1.00  0.00    -0.349 N 
ATOM      9  H4  UNL     1       1.539  54.240 -18.618  1.00  0.00     0.166 HD
HETATM   10  C12 UNL     1       0.601  52.490 -19.191  1.00  0.00     0.083 A 
HETATM   11  C13 UNL     1       0.477  51.967 -17.898  1.00  0.00     0.132 A 
HETATM   12  C15 UNL     1      -0.141  50.732 -17.650  1.00  0.00     0.137 A 
ENDROOT
BRANCH   4  13
HETATM   13  N1  UNL     1      -0.273  51.588 -22.658  1.00  0.00    -0.278 NA
HETATM   14  H5  UNL     1      -1.279  51.491 -22.535  1.00  0.00     0.129 HD
BRANCH  13  15
HETATM   15  C6  UNL     1       0.052  52.184 -23.953  1.00  0.00     0.094 C 
BRANCH  15  16
HETATM   16  C7  UNL     1      -1.114  51.946 -24.916  1.00  0.00     0.015 C 
BRANCH  16  17
HETATM   17  C8  UNL     1      -0.779  50.976 -26.052  1.00  0.00     0.003 C 
BRANCH  17  18
HETATM   18  C9  UNL     1       0.654  51.125 -26.575  1.00  0.00     0.029 C 
BRANCH  18  19
HETATM   19  C10 UNL     1       0.908  52.510 -27.174  1.00  0.00     0.208 C 
BRANCH  19  20
HETATM   20  O2  UNL     1      -0.115  52.797 -28.122  1.00  0.00    -0.221 OA
BRANCH  20  21
HETATM   21  N2  UNL     1      -0.756  54.034 -27.875  1.00  0.00     0.004 N 
HETATM   22  O3  UNL     1      -1.893  54.181 -28.327  1.00  0.00    -0.511 OA
HETATM   23  O4  UNL     1      -0.060  54.809 -27.222  1.00  0.00    -0.511 OA
ENDBRANCH  20  21
ENDBRANCH  19  20
ENDBRANCH  18  19
ENDBRANCH  17  18
ENDBRANCH  16  17
ENDBRANCH  15  16
ENDBRANCH  13  15
ENDBRANCH   4  13
BRANCH   1  24
HETATM   24  O1  UNL     1      -1.149  48.736 -18.379  1.00  0.00    -0.353 OA
HETATM   25  C1  UNL     1      -1.728  47.974 -19.432  1.00  0.00     0.210 C 
ENDBRANCH   1  24
BRANCH  11  26
HETATM   26  O5  UNL     1       0.912  52.710 -16.816  1.00  0.00    -0.351 OA
HETATM   27  C14 UNL     1       2.271  52.389 -16.524  1.00  0.00     0.210 C 
ENDBRANCH  11  26
BRANCH  12  28
HETATM   28  O6  UNL     1      -0.213  50.255 -16.361  1.00  0.00    -0.351 OA
HETATM   29  C16 UNL     1      -1.459  50.633 -15.775  1.00  0.00     0.210 C 
ENDBRANCH  12  28
TORSDOF 11
ENDMDL
MODEL 4
REMARK minimizedAffinity -6.6194005
REMARK  11 active torsions:
REMARK  status: ('A' for Active; 'I' for Inactive)
REMARK    1  A    between atoms: O1_2  and  C2_3 
REMARK    2  A    between atoms: C5_6  and  N1_7 
REMARK    3  A    between atoms: N1_7  and  C6_8 
REMARK    4  A    between atoms: C6_8  and  C7_9 
REMARK    5  A    between atoms: C7_9  and  C8_10 
REMARK    6  A    between atoms: C8_10  and  C9_11 
REMARK    7  A    between atoms: C9_11  and  C10_12 
REMARK    8  A    between atoms: C10_12  and  O2_13 
REMARK    9  A    between atoms: O2_13  and  N2_14 
REMARK   10  A    between atoms: C13_23  and  O5_24 
REMARK   11  A    between atoms: C15_26  and  O6_27 
ROOT
HETATM    1  C2  UNL     1       0.714  52.472 -25.513  1.00  0.00     0.105 A 
HETATM    2  C3  UNL     1       0.556  52.229 -24.149  1.00  0.00     0.057 A 
HETATM    3  C4  UNL     1      -0.732  52.119 -23.557  1.00  0.00     0.035 A 
HETATM    4  C5  UNL     1      -0.954  51.891 -22.183  1.00  0.00     0.093 A 
HETATM    5  N3  UNL     1      -2.187  51.747 -21.669  1.00  0.00    -0.342 N 
ATOM      6  H3  UNL     1      -2.335  51.563 -20.677  1.00  0.00     0.167 HD
HETATM    7  C11 UNL     1      -3.207  51.859 -22.522  1.00  0.00     0.182 A 
HETATM    8  N4  UNL     1      -3.116  52.100 -23.831  1.00  0.00    -0.349 N 
ATOM      9  H4  UNL     1      -3.949  52.184 -24.414  1.00  0.00     0.166 HD
HETATM   10  C12 UNL     1      -1.883  52.227 -24.352  1.00  0.00     0.083 A 
HETATM   11  C13 UNL     1      -1.707  52.467 -25.721  1.00  0.00     0.132 A 
HETATM   12  C15 UNL     1      -0.434  52.622 -26.291  1.00  0.00     0.137 A 
ENDROOT
BRANCH   4  13
HETATM   13  N1  UNL     1       0.158  51.803 -21.311  1.00  0.00    -0.278 NA
HETATM   14  H5  UNL     1       0.959  51.493 -21.857  1.00  0.00     0.129 HD
BRANCH  13  15
HETATM   15  C6  UNL     1       0.457  53.031 -20.574  1.00  0.00     0.094 C 
BRANCH  15  16
HETATM   16  C7  UNL     1      -0.108  52.910 -19.157  1.00  0.00     0.015 C 
BRANCH  16  17
HETATM   17  C8  UNL     1       0.955  52.596 -18.101  1.00  0.00     0.003 C 
BRANCH  17  18
HETATM   18  C9  UNL     1       0.588  51.410 -17.203  1.00  0.00     0.029 C 
BRANCH  18  19
HETATM   19  C10 UNL     1       1.311  51.459 -15.856  1.00  0.00     0.208 C 
BRANCH  19  20
HETATM   20  O2  UNL     1       2.326  52.456 -15.915  1.00  0.00    -0.221 OA
BRANCH  20  21
HETATM   21  N2  UNL     1       3.604  51.954 -15.569  1.00  0.00     0.004 N 
HETATM   22  O3  UNL     1       3.685  51.275 -14.544  1.00  0.00    -0.511 OA
HETATM   23  O4  UNL     1       4.477  52.282 -16.369  1.00  0.00    -0.511 OA
ENDBRANCH  20  21
ENDBRANCH  19  20
ENDBRANCH  18  19
ENDBRANCH  17  18
ENDBRANCH  16  17
ENDBRANCH  15  16
ENDBRANCH  13  15
ENDBRANCH   4  13
BRANCH   1  24
HETATM   24  O1  UNL     1       1.914  52.597 -26.158  1.00  0.00    -0.353 OA
HETATM   25  C1  UNL     1       2.591  51.400 -26.517  1.00  0.00     0.210 C 
ENDBRANCH   1  24
BRANCH  11  26
HETATM   26  O5  UNL     1      -2.813  52.627 -26.534  1.00  0.00    -0.351 OA
HETATM   27  C14 UNL     1      -3.103  51.399 -27.201  1.00  0.00     0.210 C 
ENDBRANCH  11  26
BRANCH  12  28
HETATM   28  O6  UNL     1      -0.319  52.832 -27.647  1.00  0.00    -0.351 OA
HETATM   29  C16 UNL     1      -0.354  54.232 -27.923  1.00  0.00     0.210 C 
ENDBRANCH  12  28
TORSDOF 11
ENDMDL
MODEL 5
REMARK minimizedAffinity -6.57838774
REMARK  11 active torsions:
REMARK  status: ('A' for Active; 'I' for Inactive)
REMARK    1  A    between atoms: O1_2  and  C2_3 
REMARK    2  A    between atoms: C5_6  and  N1_7 
REMARK    3  A    between atoms: N1_7  and  C6_8 
REMARK    4  A    between atoms: C6_8  and  C7_9 
REMARK    5  A    between atoms: C7_9  and  C8_10 
REMARK    6  A    between atoms: C8_10  and  C9_11 
REMARK    7  A    between atoms: C9_11  and  C10_12 
REMARK    8  A    between atoms: C10_12  and  O2_13 
REMARK    9  A    between atoms: O2_13  and  N2_14 
REMARK   10  A    between atoms: C13_23  and  O5_24 
REMARK   11  A    between atoms: C15_26  and  O6_27 
ROOT
HETATM    1  C2  UNL     1      -1.248  51.796 -21.493  1.00  0.00     0.105 A 
HETATM    2  C3  UNL     1      -1.799  52.085 -22.740  1.00  0.00     0.057 A 
HETATM    3  C4  UNL     1      -3.165  51.813 -23.031  1.00  0.00     0.035 A 
HETATM    4  C5  UNL     1      -3.774  52.066 -24.278  1.00  0.00     0.093 A 
HETATM    5  N3  UNL     1      -5.079  51.838 -24.499  1.00  0.00    -0.342 N 
ATOM      6  H3  UNL     1      -5.514  52.045 -25.399  1.00  0.00     0.167 HD
HETATM    7  C11 UNL     1      -5.777  51.328 -23.483  1.00  0.00     0.182 A 
HETATM    8  N4  UNL     1      -5.301  51.024 -22.274  1.00  0.00    -0.349 N 
ATOM      9  H4  UNL     1      -5.901  50.624 -21.553  1.00  0.00     0.166 HD
HETATM   10  C12 UNL     1      -3.999  51.267 -22.044  1.00  0.00     0.083 A 
HETATM   11  C13 UNL     1      -3.430  50.987 -20.795  1.00  0.00     0.132 A 
HETATM   12  C15 UNL     1      -2.071  51.214 -20.529  1.00  0.00     0.137 A 
ENDROOT
BRANCH   4  13
HETATM   13  N1  UNL     1      -2.988  52.586 -25.335  1.00  0.00    -0.278 NA
HETATM   14  H5  UNL     1      -2.042  52.718 -24.985  1.00  0.00     0.129 HD
BRANCH  13  15
HETATM   15  C6  UNL     1      -2.998  51.783 -26.557  1.00  0.00     0.094 C 
BRANCH  15  16
HETATM   16  C7  UNL     1      -1.931  50.691 -26.442  1.00  0.00     0.015 C 
BRANCH  16  17
HETATM   17  C8  UNL     1      -0.625  51.035 -27.163  1.00  0.00     0.003 C 
BRANCH  17  18
HETATM   18  C9  UNL     1       0.610  50.940 -26.260  1.00  0.00     0.029 C 
BRANCH  18  19
HETATM   19  C10 UNL     1       1.260  52.305 -26.026  1.00  0.00     0.208 C 
BRANCH  19  20
HETATM   20  O2  UNL     1       0.625  53.267 -26.862  1.00  0.00    -0.221 OA
BRANCH  20  21
HETATM   21  N2  UNL     1       0.076  54.347 -26.130  1.00  0.00     0.004 N 
HETATM   22  O3  UNL     1      -0.441  54.087 -25.042  1.00  0.00    -0.511 OA
HETATM   23  O4  UNL     1       0.198  55.425 -26.708  1.00  0.00    -0.511 OA
ENDBRANCH  20  21
ENDBRANCH  19  20
ENDBRANCH  18  19
ENDBRANCH  17  18
ENDBRANCH  16  17
ENDBRANCH  15  16
ENDBRANCH  13  15
ENDBRANCH   4  13
BRANCH   1  24
HETATM   24  O1  UNL     1       0.054  52.019 -21.136  1.00  0.00    -0.353 OA
HETATM   25  C1  UNL     1       0.417  53.350 -20.788  1.00  0.00     0.210 C 
ENDBRANCH   1  24
BRANCH  11  26
HETATM   26  O5  UNL     1      -4.203  50.407 -19.807  1.00  0.00    -0.351 OA
HETATM   27  C14 UNL     1      -4.284  48.999 -20.023  1.00  0.00     0.210 C 
ENDBRANCH  11  26
BRANCH  12  28
HETATM   28  O6  UNL     1      -1.570  50.943 -19.276  1.00  0.00    -0.351 OA
HETATM   29  C16 UNL     1      -0.858  49.705 -19.297  1.00  0.00     0.210 C 
ENDBRANCH  12  28
TORSDOF 11
ENDMDL
MODEL 6
REMARK minimizedAffinity -6.5125494
REMARK  11 active torsions:
REMARK  status: ('A' for Active; 'I' for Inactive)
REMARK    1  A    between atoms: O1_2  and  C2_3 
REMARK    2  A    between atoms: C5_6  and  N1_7 
REMARK    3  A    between atoms: N1_7  and  C6_8 
REMARK    4  A    between atoms: C6_8  and  C7_9 
REMARK    5  A    between atoms: C7_9  and  C8_10 
REMARK    6  A    between atoms: C8_10  and  C9_11 
REMARK    7  A    between atoms: C9_11  and  C10_12 
REMARK    8  A    between atoms: C10_12  and  O2_13 
REMARK    9  A    between atoms: O2_13  and  N2_14 
REMARK   10  A    between atoms: C13_23  and  O5_24 
REMARK   11  A    between atoms: C15_26  and  O6_27 
ROOT
HETATM    1  C2  UNL     1       0.700  52.470 -25.735  1.00  0.00     0.105 A 
HETATM    2  C3  UNL     1       0.655  52.256 -24.359  1.00  0.00     0.057 A 
HETATM    3  C4  UNL     1      -0.581  52.139 -23.664  1.00  0.00     0.035 A 
HETATM    4  C5  UNL     1      -0.690  51.940 -22.272  1.00  0.00     0.093 A 
HETATM    5  N3  UNL     1      -1.876  51.788 -21.659  1.00  0.00    -0.342 N 
ATOM      6  H3  UNL     1      -1.942  51.623 -20.654  1.00  0.00     0.167 HD
HETATM    7  C11 UNL     1      -2.962  51.863 -22.431  1.00  0.00     0.182 A 
HETATM    8  N4  UNL     1      -2.978  52.075 -23.748  1.00  0.00    -0.349 N 
ATOM      9  H4  UNL     1      -3.856  52.132 -24.265  1.00  0.00     0.166 HD
HETATM   10  C12 UNL     1      -1.793  52.211 -24.368  1.00  0.00     0.083 A 
HETATM   11  C13 UNL     1      -1.729  52.422 -25.751  1.00  0.00     0.132 A 
HETATM   12  C15 UNL     1      -0.509  52.584 -26.423  1.00  0.00     0.137 A 
ENDROOT
BRANCH   4  13
HETATM   13  N1  UNL     1       0.489  51.890 -21.489  1.00  0.00    -0.278 NA
HETATM   14  H5  UNL     1       1.183  51.354 -22.004  1.00  0.00     0.129 HD
BRANCH  13  15
HETATM   15  C6  UNL     1       1.012  53.195 -21.086  1.00  0.00     0.094 C 
BRANCH  15  16
HETATM   16  C7  UNL     1       1.246  53.191 -19.574  1.00  0.00     0.015 C 
BRANCH  16  17
HETATM   17  C8  UNL     1       0.063  52.638 -18.775  1.00  0.00     0.003 C 
BRANCH  17  18
HETATM   18  C9  UNL     1       0.465  51.566 -17.757  1.00  0.00     0.029 C 
BRANCH  18  19
HETATM   19  C10 UNL     1      -0.634  50.522 -17.553  1.00  0.00     0.208 C 
BRANCH  19  20
HETATM   20  O2  UNL     1      -1.312  50.800 -16.332  1.00  0.00    -0.221 OA
BRANCH  20  21
HETATM   21  N2  UNL     1      -2.676  51.125 -16.528  1.00  0.00     0.004 N 
HETATM   22  O3  UNL     1      -3.366  51.295 -15.521  1.00  0.00    -0.511 OA
HETATM   23  O4  UNL     1      -2.984  51.191 -17.716  1.00  0.00    -0.511 OA
ENDBRANCH  20  21
ENDBRANCH  19  20
ENDBRANCH  18  19
ENDBRANCH  17  18
ENDBRANCH  16  17
ENDBRANCH  15  16
ENDBRANCH  13  15
ENDBRANCH   4  13
BRANCH   1  24
HETATM   24  O1  UNL     1       1.842  52.601 -26.476  1.00  0.00    -0.353 OA
HETATM   25  C1  UNL     1       2.609  51.425 -26.708  1.00  0.00     0.210 C 
ENDBRANCH   1  24
BRANCH  11  26
HETATM   26  O5  UNL     1      -2.899  52.545 -26.477  1.00  0.00    -0.351 OA
HETATM   27  C14 UNL     1      -3.130  51.352 -27.225  1.00  0.00     0.210 C 
ENDBRANCH  11  26
BRANCH  12  28
HETATM   28  O6  UNL     1      -0.504  52.765 -27.788  1.00  0.00    -0.351 OA
HETATM   29  C16 UNL     1      -0.492  54.160 -28.090  1.00  0.00     0.210 C 
ENDBRANCH  12  28
TORSDOF 11
ENDMDL
MODEL 7
REMARK minimizedAffinity -6.47250271
REMARK  11 active torsions:
REMARK  status: ('A' for Active; 'I' for Inactive)
REMARK    1  A    between atoms: O1_2  and  C2_3 
REMARK    2  A    between atoms: C5_6  and  N1_7 
REMARK    3  A    between atoms: N1_7  and  C6_8 
REMARK    4  A    between atoms: C6_8  and  C7_9 
REMARK    5  A    between atoms: C7_9  and  C8_10 
REMARK    6  A    between atoms: C8_10  and  C9_11 
REMARK    7  A    between atoms: C9_11  and  C10_12 
REMARK    8  A    between atoms: C10_12  and  O2_13 
REMARK    9  A    between atoms: O2_13  and  N2_14 
REMARK   10  A    between atoms: C13_23  and  O5_24 
REMARK   11  A    between atoms: C15_26  and  O6_27 
ROOT
HETATM    1  C2  UNL     1      -0.401  52.197 -22.632  1.00  0.00     0.105 A 
HETATM    2  C3  UNL     1      -1.666  51.798 -23.059  1.00  0.00     0.057 A 
HETATM    3  C4  UNL     1      -2.670  51.394 -22.135  1.00  0.00     0.035 A 
HETATM    4  C5  UNL     1      -3.961  50.965 -22.508  1.00  0.00     0.093 A 
HETATM    5  N3  UNL     1      -4.897  50.636 -21.602  1.00  0.00    -0.342 N 
ATOM      6  H3  UNL     1      -5.834  50.347 -21.882  1.00  0.00     0.167 HD
HETATM    7  C11 UNL     1      -4.539  50.707 -20.319  1.00  0.00     0.182 A 
HETATM    8  N4  UNL     1      -3.342  51.072 -19.854  1.00  0.00    -0.349 N 
ATOM      9  H4  UNL     1      -3.143  51.087 -18.854  1.00  0.00     0.166 HD
HETATM   10  C12 UNL     1      -2.408  51.418 -20.757  1.00  0.00     0.083 A 
HETATM   11  C13 UNL     1      -1.132  51.825 -20.345  1.00  0.00     0.132 A 
HETATM   12  C15 UNL     1      -0.131  52.177 -21.264  1.00  0.00     0.137 A 
ENDROOT
BRANCH   4  13
HETATM   13  N1  UNL     1      -4.290  50.883 -23.882  1.00  0.00    -0.278 NA
HETATM   14  H5  UNL     1      -3.425  50.953 -24.415  1.00  0.00     0.129 HD
BRANCH  13  15
HETATM   15  C6  UNL     1      -5.055  49.695 -24.259  1.00  0.00     0.094 C 
BRANCH  15  16
HETATM   16  C7  UNL     1      -4.080  48.568 -24.608  1.00  0.00     0.015 C 
BRANCH  16  17
HETATM   17  C8  UNL     1      -3.814  48.433 -26.110  1.00  0.00     0.003 C 
BRANCH  17  18
HETATM   18  C9  UNL     1      -2.573  49.200 -26.579  1.00  0.00     0.029 C 
BRANCH  18  19
HETATM   19  C10 UNL     1      -2.927  50.357 -27.514  1.00  0.00     0.208 C 
BRANCH  19  20
HETATM   20  O2  UNL     1      -1.883  51.324 -27.467  1.00  0.00    -0.221 OA
BRANCH  20  21
HETATM   21  N2  UNL     1      -2.350  52.613 -27.116  1.00  0.00     0.004 N 
HETATM   22  O3  UNL     1      -1.936  53.564 -27.782  1.00  0.00    -0.511 OA
HETATM   23  O4  UNL     1      -3.127  52.597 -26.164  1.00  0.00    -0.511 OA
ENDBRANCH  20  21
ENDBRANCH  19  20
ENDBRANCH  18  19
ENDBRANCH  17  18
ENDBRANCH  16  17
ENDBRANCH  15  16
ENDBRANCH  13  15
ENDBRANCH   4  13
BRANCH   1  24
HETATM   24  O1  UNL     1       0.620  52.591 -23.453  1.00  0.00    -0.353 OA
HETATM   25  C1  UNL     1       0.282  53.399 -24.574  1.00  0.00     0.210 C 
ENDBRANCH   1  24
BRANCH  11  26
HETATM   26  O5  UNL     1      -0.815  51.820 -19.000  1.00  0.00    -0.351 OA
HETATM   27  C14 UNL     1      -0.298  50.542 -18.632  1.00  0.00     0.210 C 
ENDBRANCH  11  26
BRANCH  12  28
HETATM   28  O6  UNL     1       1.097  52.593 -20.802  1.00  0.00    -0.351 OA
HETATM   29  C16 UNL     1       1.081  54.006 -20.596  1.00  0.00     0.210 C 
ENDBRANCH  12  28
TORSDOF 11
ENDMDL
MODEL 8
REMARK minimizedAffinity -6.39783907
REMARK  11 active torsions:
REMARK  status: ('A' for Active; 'I' for Inactive)
REMARK    1  A    between atoms: O1_2  and  C2_3 
REMARK    2  A    between atoms: C5_6  and  N1_7 
REMARK    3  A    between atoms: N1_7  and  C6_8 
REMARK    4  A    between atoms: C6_8  and  C7_9 
REMARK    5  A    between atoms: C7_9  and  C8_10 
REMARK    6  A    between atoms: C8_10  and  C9_11 
REMARK    7  A    between atoms: C9_11  and  C10_12 
REMARK    8  A    between atoms: C10_12  and  O2_13 
REMARK    9  A    between atoms: O2_13  and  N2_14 
REMARK   10  A    between atoms: C13_23  and  O5_24 
REMARK   11  A    between atoms: C15_26  and  O6_27 
ROOT
HETATM    1  C2  UNL     1       0.711  52.508 -25.653  1.00  0.00     0.105 A 
HETATM    2  C3  UNL     1       0.599  52.286 -24.281  1.00  0.00     0.057 A 
HETATM    3  C4  UNL     1      -0.669  52.173 -23.647  1.00  0.00     0.035 A 
HETATM    4  C5  UNL     1      -0.846  51.966 -22.263  1.00  0.00     0.093 A 
HETATM    5  N3  UNL     1      -2.060  51.817 -21.709  1.00  0.00    -0.342 N 
ATOM      6  H3  UNL     1      -2.176  51.648 -20.709  1.00  0.00     0.167 HD
HETATM    7  C11 UNL     1      -3.108  51.904 -22.531  1.00  0.00     0.182 A 
HETATM    8  N4  UNL     1      -3.060  52.123 -23.846  1.00  0.00    -0.349 N 
ATOM      9  H4  UNL     1      -3.911  52.189 -24.404  1.00  0.00     0.166 HD
HETATM   10  C12 UNL     1      -1.846  52.255 -24.407  1.00  0.00     0.083 A 
HETATM   11  C13 UNL     1      -1.715  52.474 -25.785  1.00  0.00     0.132 A 
HETATM   12  C15 UNL     1      -0.462  52.632 -26.397  1.00  0.00     0.137 A 
ENDROOT
BRANCH   4  13
HETATM   13  N1  UNL     1       0.294  51.904 -21.425  1.00  0.00    -0.278 NA
HETATM   14  H5  UNL     1       0.866  51.121 -21.733  1.00  0.00     0.129 HD
BRANCH  13  15
HETATM   15  C6  UNL     1       1.072  53.141 -21.358  1.00  0.00     0.094 C 
BRANCH  15  16
HETATM   16  C7  UNL     1       1.209  53.563 -19.893  1.00  0.00     0.015 C 
BRANCH  16  17
HETATM   17  C8  UNL     1       0.109  52.997 -18.990  1.00  0.00     0.003 C 
BRANCH  17  18
HETATM   18  C9  UNL     1       0.653  52.217 -17.788  1.00  0.00     0.029 C 
BRANCH  18  19
HETATM   19  C10 UNL     1       0.208  50.753 -17.801  1.00  0.00     0.208 C 
BRANCH  19  20
HETATM   20  O2  UNL     1      -0.135  50.364 -16.475  1.00  0.00    -0.221 OA
BRANCH  20  21
HETATM   21  N2  UNL     1      -0.242  48.961 -16.329  1.00  0.00     0.004 N 
HETATM   22  O3  UNL     1       0.673  48.383 -15.739  1.00  0.00    -0.511 OA
HETATM   23  O4  UNL     1      -1.268  48.506 -16.830  1.00  0.00    -0.511 OA
ENDBRANCH  20  21
ENDBRANCH  19  20
ENDBRANCH  18  19
ENDBRANCH  17  18
ENDBRANCH  16  17
ENDBRANCH  15  16
ENDBRANCH  13  15
ENDBRANCH   4  13
BRANCH   1  24
HETATM   24  O1  UNL     1       1.889  52.635 -26.336  1.00  0.00    -0.353 OA
HETATM   25  C1  UNL     1       2.590  51.441 -26.660  1.00  0.00     0.210 C 
ENDBRANCH   1  24
BRANCH  11  26
HETATM   26  O5  UNL     1      -2.847  52.608 -26.565  1.00  0.00    -0.351 OA
HETATM   27  C14 UNL     1      -3.113  51.381 -27.244  1.00  0.00     0.210 C 
ENDBRANCH  11  26
BRANCH  12  28
HETATM   28  O6  UNL     1      -0.391  52.821 -27.759  1.00  0.00    -0.351 OA
HETATM   29  C16 UNL     1      -0.442  54.216 -28.056  1.00  0.00     0.210 C 
ENDBRANCH  12  28
TORSDOF 11
ENDMDL
MODEL 9
REMARK minimizedAffinity -6.38719034
REMARK  11 active torsions:
REMARK  status: ('A' for Active; 'I' for Inactive)
REMARK    1  A    between atoms: O1_2  and  C2_3 
REMARK    2  A    between atoms: C5_6  and  N1_7 
REMARK    3  A    between atoms: N1_7  and  C6_8 
REMARK    4  A    between atoms: C6_8  and  C7_9 
REMARK    5  A    between atoms: C7_9  and  C8_10 
REMARK    6  A    between atoms: C8_10  and  C9_11 
REMARK    7  A    between atoms: C9_11  and  C10_12 
REMARK    8  A    between atoms: C10_12  and  O2_13 
REMARK    9  A    between atoms: O2_13  and  N2_14 
REMARK   10  A    between atoms: C13_23  and  O5_24 
REMARK   11  A    between atoms: C15_26  and  O6_27 
ROOT
HETATM    1  C2  UNL     1      -6.153  47.468 -30.821  1.00  0.00     0.105 A 
HETATM    2  C3  UNL     1      -5.256  47.784 -29.802  1.00  0.00     0.057 A 
HETATM    3  C4  UNL     1      -5.679  47.905 -28.449  1.00  0.00     0.035 A 
HETATM    4  C5  UNL     1      -4.822  48.239 -27.379  1.00  0.00     0.093 A 
HETATM    5  N3  UNL     1      -5.251  48.298 -26.108  1.00  0.00    -0.342 N 
ATOM      6  H3  UNL     1      -4.618  48.521 -25.339  1.00  0.00     0.167 HD
HETATM    7  C11 UNL     1      -6.546  48.050 -25.901  1.00  0.00     0.182 A 
HETATM    8  N4  UNL     1      -7.450  47.751 -26.837  1.00  0.00    -0.349 N 
ATOM      9  H4  UNL     1      -8.427  47.587 -26.597  1.00  0.00     0.166 HD
HETATM   10  C12 UNL     1      -7.021  47.675 -28.108  1.00  0.00     0.083 A 
HETATM   11  C13 UNL     1      -7.908  47.353 -29.144  1.00  0.00     0.132 A 
HETATM   12  C15 UNL     1      -7.494  47.283 -30.483  1.00  0.00     0.137 A 
ENDROOT
BRANCH   4  13
HETATM   13  N1  UNL     1      -3.460  48.518 -27.649  1.00  0.00    -0.278 NA
HETATM   14  H5  UNL     1      -3.424  49.186 -28.415  1.00  0.00     0.129 HD
BRANCH  13  15
HETATM   15  C6  UNL     1      -2.691  48.985 -26.496  1.00  0.00     0.094 C 
BRANCH  15  16
HETATM   16  C7  UNL     1      -2.023  50.315 -26.852  1.00  0.00     0.015 C 
BRANCH  16  17
HETATM   17  C8  UNL     1      -0.971  50.762 -25.833  1.00  0.00     0.003 C 
BRANCH  17  18
HETATM   18  C9  UNL     1       0.448  50.813 -26.408  1.00  0.00     0.029 C 
BRANCH  18  19
HETATM   19  C10 UNL     1       0.632  51.970 -27.391  1.00  0.00     0.208 C 
BRANCH  19  20
HETATM   20  O2  UNL     1       0.837  53.172 -26.655  1.00  0.00    -0.221 OA
BRANCH  20  21
HETATM   21  N2  UNL     1      -0.039  54.210 -27.052  1.00  0.00     0.004 N 
HETATM   22  O3  UNL     1      -0.922  53.925 -27.864  1.00  0.00    -0.511 OA
HETATM   23  O4  UNL     1       0.218  55.284 -26.511  1.00  0.00    -0.511 OA
ENDBRANCH  20  21
ENDBRANCH  19  20
ENDBRANCH  18  19
ENDBRANCH  17  18
ENDBRANCH  16  17
ENDBRANCH  15  16
ENDBRANCH  13  15
ENDBRANCH   4  13
BRANCH   1  24
HETATM   24  O1  UNL     1      -5.830  47.340 -32.144  1.00  0.00    -0.353 OA
HETATM   25  C1  UNL     1      -4.609  47.926 -32.578  1.00  0.00     0.210 C 
ENDBRANCH   1  24
BRANCH  11  26
HETATM   26  O5  UNL     1      -9.247  47.164 -28.861  1.00  0.00    -0.351 OA
HETATM   27  C14 UNL     1      -9.499  45.781 -28.618  1.00  0.00     0.210 C 
ENDBRANCH  11  26
BRANCH  12  28
HETATM   28  O6  UNL     1      -8.404  46.938 -31.457  1.00  0.00    -0.351 OA
HETATM   29  C16 UNL     1      -8.741  48.090 -32.231  1.00  0.00     0.210 C 
ENDBRANCH  12  28
TORSDOF 11
ENDMDL
