MODEL 1
REMARK minimizedAffinity -7.83947229
REMARK CNNscore 0.508408129
REMARK CNNaffinity 6.09797239
REMARK  10 active torsions:
REMARK  status: ('A' for Active; 'I' for Inactive)
REMARK    1  A    between atoms: C2_2  and  N1_3 
REMARK    2  A    between atoms: N1_3  and  C3_4 
REMARK    3  A    between atoms: C3_4  and  C4_5 
REMARK    4  A    between atoms: C4_5  and  C5_6 
REMARK    5  A    between atoms: C8_9  and  C9_10 
REMARK    6  A    between atoms: C13_14  and  C14_15 
REMARK    7  A    between atoms: C14_15  and  O1_16 
REMARK    8  A    between atoms: C23_27  and  O4_28 
REMARK    9  A    between atoms: C28_33  and  C29_34 
REMARK   10  A    between atoms: C29_34  and  O5_35 
ROOT
HETATM    1  C5  UNL     1       0.433  54.569  -9.922  1.00  0.00    -0.012 C 
HETATM    2  C6  UNL     1       0.973  54.712  -8.687  1.00  0.00     0.015 C 
HETATM    3  C7  UNL     1       2.258  53.960  -8.363  1.00  0.00     0.066 C 
HETATM    4  C8  UNL     1       3.521  54.477  -9.106  1.00  0.00     0.102 C 
HETATM    5  C16 UNL     1       4.150  55.604  -8.383  1.00  0.00    -0.096 C 
HETATM    6  C17 UNL     1       4.628  56.501  -7.741  1.00  0.00    -0.096 C 
HETATM    7  C18 UNL     1       5.079  57.586  -6.840  1.00  0.00     0.110 C 
HETATM    8  C19 UNL     1       6.399  57.192  -6.194  1.00  0.00     0.133 C 
HETATM    9  C20 UNL     1       6.832  58.225  -5.193  1.00  0.00     0.265 C 
HETATM   10  O2  UNL     1       7.992  58.604  -5.092  1.00  0.00    -0.265 OA
HETATM   11  O3  UNL     1       5.852  58.649  -4.305  1.00  0.00    -0.278 OA
HETATM   12  C21 UNL     1       4.501  58.329  -4.520  1.00  0.00     0.089 A 
HETATM   13  C22 UNL     1       3.614  58.551  -3.468  1.00  0.00     0.075 A 
HETATM   14  C23 UNL     1       2.264  58.244  -3.643  1.00  0.00     0.074 A 
HETATM   15  C24 UNL     1       1.791  57.749  -4.863  1.00  0.00    -0.022 A 
HETATM   16  C25 UNL     1       2.699  57.617  -5.921  1.00  0.00     0.021 A 
HETATM   17  C26 UNL     1       4.069  57.844  -5.749  1.00  0.00    -0.007 A 
HETATM   18  C27 UNL     1       0.358  57.329  -5.081  1.00  0.00     0.077 C 
HETATM   19  C28 UNL     1       0.093  55.801  -5.251  1.00  0.00     0.171 C 
HETATM   20  O7  UNL     1       0.793  55.255  -6.403  1.00  0.00    -0.309 OA
HETATM   21  C39 UNL     1       0.247  55.482  -7.623  1.00  0.00     0.289 C 
HETATM   22  O8  UNL     1      -0.745  56.171  -7.809  1.00  0.00    -0.260 OA
ENDROOT
BRANCH  19  23
HETATM   23  C29 UNL     1       0.364  54.895  -3.990  1.00  0.00     0.089 C 
HETATM   24  C30 UNL     1      -0.068  53.426  -4.211  1.00  0.00     0.041 C 
HETATM   25  C31 UNL     1       0.180  52.537  -2.990  1.00  0.00     0.004 C 
HETATM   26  C32 UNL     1      -0.478  53.095  -1.734  1.00  0.00     0.005 C 
HETATM   27  C33 UNL     1      -0.046  54.546  -1.472  1.00  0.00    -0.001 C 
HETATM   28  C34 UNL     1      -0.678  55.084  -0.186  1.00  0.00     0.083 C 
HETATM   29  C38 UNL     1      -0.327  55.464  -2.696  1.00  0.00     0.027 C 
HETATM   30  C35 UNL     1      -2.138  55.404  -0.384  1.00  0.00     0.127 C 
HETATM   31  O6  UNL     1      -2.994  55.050   0.424  1.00  0.00    -0.298 OA
HETATM   32  C36 UNL     1      -2.471  56.283  -1.561  1.00  0.00     0.079 C 
HETATM   33  C37 UNL     1      -1.837  55.753  -2.841  1.00  0.00     0.015 C 
BRANCH  23  34
HETATM   34  O5  UNL     1       1.774  54.880  -3.697  1.00  0.00    -0.387 OA
HETATM   35  H31 UNL     1       2.105  55.795  -3.691  1.00  0.00     0.210 HD
ENDBRANCH  23  34
ENDBRANCH  19  23
BRANCH  14  36
HETATM   36  O4  UNL     1       1.382  58.432  -2.618  1.00  0.00    -0.360 OA
HETATM   37  H26 UNL     1       1.883  58.614  -1.805  1.00  0.00     0.217 HD
ENDBRANCH  14  36
BRANCH   1  38
HETATM   38  C4  UNL     1      -0.838  55.168 -10.478  1.00  0.00     0.058 C 
BRANCH  38  39
HETATM   39  C3  UNL     1      -2.042  54.225 -10.282  1.00  0.00     0.273 C 
BRANCH  39  40
HETATM   40  N1  UNL     1      -2.379  53.422 -11.461  1.00  0.00     0.083 N 
HETATM   41  H6  UNL     1      -1.912  52.519 -11.380  1.00  0.00     0.315 HD
BRANCH  40  42
HETATM   42  C2  UNL     1      -3.820  53.199 -11.600  1.00  0.00     0.265 C 
HETATM   43  C1  UNL     1      -4.238  51.990 -10.774  1.00  0.00     0.037 C 
ENDBRANCH  40  42
ENDBRANCH  39  40
ENDBRANCH  38  39
ENDBRANCH   1  38
BRANCH   4  44
HETATM   44  C9  UNL     1       4.540  53.363  -9.316  1.00  0.00    -0.042 A 
HETATM   45  C10 UNL     1       5.875  53.494  -8.902  1.00  0.00     0.008 A 
HETATM   46  C11 UNL     1       6.786  52.456  -9.101  1.00  0.00     0.001 A 
HETATM   47  C12 UNL     1       6.381  51.277  -9.728  1.00  0.00     0.009 A 
HETATM   48  C13 UNL     1       5.060  51.123 -10.164  1.00  0.00    -0.034 A 
HETATM   49  C15 UNL     1       4.150  52.172  -9.953  1.00  0.00     0.017 A 
BRANCH  48  50
HETATM   50  C14 UNL     1       4.616  49.871 -10.868  1.00  0.00     0.202 C 
BRANCH  50  51
HETATM   51  O1  UNL     1       5.370  49.710 -12.061  1.00  0.00    -0.396 OA
HETATM   52  H20 UNL     1       5.129  48.842 -12.429  1.00  0.00     0.209 HD
ENDBRANCH  50  51
ENDBRANCH  48  50
ENDBRANCH   4  44
TORSDOF 10
ENDMDL
MODEL 2
REMARK minimizedAffinity -8.66724968
REMARK CNNscore 0.487024426
REMARK CNNaffinity 5.97347832
REMARK  10 active torsions:
REMARK  status: ('A' for Active; 'I' for Inactive)
REMARK    1  A    between atoms: C2_2  and  N1_3 
REMARK    2  A    between atoms: N1_3  and  C3_4 
REMARK    3  A    between atoms: C3_4  and  C4_5 
REMARK    4  A    between atoms: C4_5  and  C5_6 
REMARK    5  A    between atoms: C8_9  and  C9_10 
REMARK    6  A    between atoms: C13_14  and  C14_15 
REMARK    7  A    between atoms: C14_15  and  O1_16 
REMARK    8  A    between atoms: C23_27  and  O4_28 
REMARK    9  A    between atoms: C28_33  and  C29_34 
REMARK   10  A    between atoms: C29_34  and  O5_35 
ROOT
HETATM    1  C5  UNL     1       6.349  65.481 -34.490  1.00  0.00    -0.012 C 
HETATM    2  C6  UNL     1       5.926  66.537 -35.226  1.00  0.00     0.015 C 
HETATM    3  C7  UNL     1       6.068  67.938 -34.640  1.00  0.00     0.066 C 
HETATM    4  C8  UNL     1       7.531  68.451 -34.527  1.00  0.00     0.102 C 
HETATM    5  C16 UNL     1       7.985  69.072 -35.790  1.00  0.00    -0.096 C 
HETATM    6  C17 UNL     1       8.290  69.583 -36.835  1.00  0.00    -0.096 C 
HETATM    7  C18 UNL     1       8.507  70.163 -38.180  1.00  0.00     0.110 C 
HETATM    8  C19 UNL     1       8.640  71.674 -38.063  1.00  0.00     0.133 C 
HETATM    9  C20 UNL     1       8.755  72.305 -39.422  1.00  0.00     0.265 C 
HETATM   10  O2  UNL     1       9.541  73.213 -39.666  1.00  0.00    -0.265 OA
HETATM   11  O3  UNL     1       7.833  71.872 -40.365  1.00  0.00    -0.278 OA
HETATM   12  C21 UNL     1       7.043  70.735 -40.128  1.00  0.00     0.089 A 
HETATM   13  C22 UNL     1       5.965  70.513 -40.984  1.00  0.00     0.075 A 
HETATM   14  C23 UNL     1       5.156  69.394 -40.779  1.00  0.00     0.074 A 
HETATM   15  C24 UNL     1       5.432  68.486 -39.752  1.00  0.00    -0.022 A 
HETATM   16  C25 UNL     1       6.570  68.700 -38.965  1.00  0.00     0.021 A 
HETATM   17  C26 UNL     1       7.353  69.853 -39.099  1.00  0.00    -0.007 A 
HETATM   18  C27 UNL     1       4.546  67.304 -39.438  1.00  0.00     0.077 C 
HETATM   19  C28 UNL     1       3.738  67.368 -38.105  1.00  0.00     0.171 C 
HETATM   20  O7  UNL     1       4.610  67.463 -36.946  1.00  0.00    -0.309 OA
HETATM   21  C39 UNL     1       5.208  66.321 -36.525  1.00  0.00     0.289 C 
HETATM   22  O8  UNL     1       5.110  65.248 -37.103  1.00  0.00    -0.260 OA
ENDROOT
BRANCH  19  23
HETATM   23  C29 UNL     1       2.616  68.472 -38.014  1.00  0.00     0.089 C 
HETATM   24  C30 UNL     1       1.661  68.249 -36.817  1.00  0.00     0.041 C 
HETATM   25  C31 UNL     1       0.560  69.308 -36.724  1.00  0.00     0.004 C 
HETATM   26  C32 UNL     1      -0.236  69.421 -38.018  1.00  0.00     0.005 C 
HETATM   27  C33 UNL     1       0.684  69.671 -39.223  1.00  0.00    -0.001 C 
HETATM   28  C34 UNL     1      -0.127  69.826 -40.511  1.00  0.00     0.083 C 
HETATM   29  C38 UNL     1       1.785  68.578 -39.346  1.00  0.00     0.027 C 
HETATM   30  C35 UNL     1      -0.642  68.495 -40.998  1.00  0.00     0.127 C 
HETATM   31  O6  UNL     1      -1.807  68.344 -41.362  1.00  0.00    -0.298 OA
HETATM   32  C36 UNL     1       0.379  67.395 -41.129  1.00  0.00     0.079 C 
HETATM   33  C37 UNL     1       1.192  67.244 -39.849  1.00  0.00     0.015 C 
BRANCH  23  34
HETATM   34  O5  UNL     1       3.222  69.765 -37.835  1.00  0.00    -0.387 OA
HETATM   35  H31 UNL     1       3.930  69.876 -38.493  1.00  0.00     0.210 HD
ENDBRANCH  23  34
ENDBRANCH  19  23
BRANCH  14  36
HETATM   36  O4  UNL     1       4.081  69.170 -41.591  1.00  0.00    -0.360 OA
HETATM   37  H26 UNL     1       3.930  69.963 -42.133  1.00  0.00     0.217 HD
ENDBRANCH  14  36
BRANCH   1  38
HETATM   38  C4  UNL     1       6.289  64.008 -34.820  1.00  0.00     0.058 C 
BRANCH  38  39
HETATM   39  C3  UNL     1       4.946  63.386 -34.389  1.00  0.00     0.273 C 
BRANCH  39  40
HETATM   40  N1  UNL     1       5.007  62.623 -33.138  1.00  0.00     0.083 N 
HETATM   41  H6  UNL     1       5.914  62.789 -32.704  1.00  0.00     0.315 HD
BRANCH  40  42
HETATM   42  C2  UNL     1       3.954  63.002 -32.194  1.00  0.00     0.265 C 
HETATM   43  C1  UNL     1       4.087  64.475 -31.833  1.00  0.00     0.037 C 
ENDBRANCH  40  42
ENDBRANCH  39  40
ENDBRANCH  38  39
ENDBRANCH   1  38
BRANCH   4  44
HETATM   44  C9  UNL     1       7.687  69.439 -33.377  1.00  0.00    -0.042 A 
HETATM   45  C10 UNL     1       8.710  70.401 -33.362  1.00  0.00     0.008 A 
HETATM   46  C11 UNL     1       8.827  71.298 -32.300  1.00  0.00     0.001 A 
HETATM   47  C12 UNL     1       7.932  71.240 -31.231  1.00  0.00     0.009 A 
HETATM   48  C13 UNL     1       6.911  70.283 -31.211  1.00  0.00    -0.034 A 
HETATM   49  C15 UNL     1       6.799  69.389 -32.289  1.00  0.00     0.017 A 
BRANCH  48  50
HETATM   50  C14 UNL     1       5.958  70.189 -30.052  1.00  0.00     0.202 C 
BRANCH  50  51
HETATM   51  O1  UNL     1       5.423  68.874 -29.988  1.00  0.00    -0.396 OA
HETATM   52  H20 UNL     1       4.898  68.826 -29.170  1.00  0.00     0.209 HD
ENDBRANCH  50  51
ENDBRANCH  48  50
ENDBRANCH   4  44
TORSDOF 10
ENDMDL
MODEL 3
REMARK minimizedAffinity -7.55044699
REMARK CNNscore 0.430851787
REMARK CNNaffinity 5.95556498
REMARK  10 active torsions:
REMARK  status: ('A' for Active; 'I' for Inactive)
REMARK    1  A    between atoms: C2_2  and  N1_3 
REMARK    2  A    between atoms: N1_3  and  C3_4 
REMARK    3  A    between atoms: C3_4  and  C4_5 
REMARK    4  A    between atoms: C4_5  and  C5_6 
REMARK    5  A    between atoms: C8_9  and  C9_10 
REMARK    6  A    between atoms: C13_14  and  C14_15 
REMARK    7  A    between atoms: C14_15  and  O1_16 
REMARK    8  A    between atoms: C23_27  and  O4_28 
REMARK    9  A    between atoms: C28_33  and  C29_34 
REMARK   10  A    between atoms: C29_34  and  O5_35 
ROOT
HETATM    1  C5  UNL     1       2.002  53.583  -9.951  1.00  0.00    -0.012 C 
HETATM    2  C6  UNL     1       2.426  53.997  -8.732  1.00  0.00     0.015 C 
HETATM    3  C7  UNL     1       3.395  53.110  -7.958  1.00  0.00     0.066 C 
HETATM    4  C8  UNL     1       4.826  53.026  -8.561  1.00  0.00     0.102 C 
HETATM    5  C16 UNL     1       5.675  54.143  -8.092  1.00  0.00    -0.096 C 
HETATM    6  C17 UNL     1       6.323  55.060  -7.661  1.00  0.00    -0.096 C 
HETATM    7  C18 UNL     1       6.972  56.241  -7.048  1.00  0.00     0.110 C 
HETATM    8  C19 UNL     1       8.044  55.779  -6.072  1.00  0.00     0.133 C 
HETATM    9  C20 UNL     1       8.651  56.950  -5.354  1.00  0.00     0.265 C 
HETATM   10  O2  UNL     1       9.854  57.049  -5.145  1.00  0.00    -0.265 OA
HETATM   11  O3  UNL     1       7.749  57.871  -4.837  1.00  0.00    -0.278 OA
HETATM   12  C21 UNL     1       6.394  57.834  -5.206  1.00  0.00     0.089 A 
HETATM   13  C22 UNL     1       5.504  58.604  -4.459  1.00  0.00     0.075 A 
HETATM   14  C23 UNL     1       4.150  58.592  -4.795  1.00  0.00     0.074 A 
HETATM   15  C24 UNL     1       3.685  57.847  -5.883  1.00  0.00    -0.022 A 
HETATM   16  C25 UNL     1       4.621  57.152  -6.659  1.00  0.00     0.021 A 
HETATM   17  C26 UNL     1       5.972  57.085  -6.299  1.00  0.00    -0.007 A 
HETATM   18  C27 UNL     1       2.223  57.738  -6.242  1.00  0.00     0.077 C 
HETATM   19  C28 UNL     1       1.544  56.353  -6.005  1.00  0.00     0.171 C 
HETATM   20  O7  UNL     1       2.172  55.300  -6.787  1.00  0.00    -0.309 OA
HETATM   21  C39 UNL     1       1.848  55.230  -8.102  1.00  0.00     0.289 C 
HETATM   22  O8  UNL     1       1.126  56.035  -8.671  1.00  0.00    -0.260 OA
ENDROOT
BRANCH  19  23
HETATM   23  C29 UNL     1       1.404  55.885  -4.506  1.00  0.00     0.089 C 
HETATM   24  C30 UNL     1       0.633  54.550  -4.371  1.00  0.00     0.041 C 
HETATM   25  C31 UNL     1       0.481  54.090  -2.919  1.00  0.00     0.004 C 
HETATM   26  C32 UNL     1      -0.162  55.160  -2.045  1.00  0.00     0.005 C 
HETATM   27  C33 UNL     1       0.598  56.491  -2.136  1.00  0.00    -0.001 C 
HETATM   28  C34 UNL     1      -0.030  57.547  -1.223  1.00  0.00     0.083 C 
HETATM   29  C38 UNL     1       0.727  56.985  -3.607  1.00  0.00     0.027 C 
HETATM   30  C35 UNL     1      -1.317  58.077  -1.802  1.00  0.00     0.127 C 
HETATM   31  O6  UNL     1      -2.332  58.200  -1.120  1.00  0.00    -0.298 OA
HETATM   32  C36 UNL     1      -1.255  58.561  -3.227  1.00  0.00     0.079 C 
HETATM   33  C37 UNL     1      -0.623  57.515  -4.137  1.00  0.00     0.015 C 
BRANCH  23  34
HETATM   34  O5  UNL     1       2.711  55.677  -3.939  1.00  0.00    -0.387 OA
HETATM   35  H31 UNL     1       3.267  56.451  -4.134  1.00  0.00     0.210 HD
ENDBRANCH  23  34
ENDBRANCH  19  23
BRANCH  14  36
HETATM   36  O4  UNL     1       3.257  59.320  -4.061  1.00  0.00    -0.360 OA
HETATM   37  H26 UNL     1       3.701  59.637  -3.257  1.00  0.00     0.217 HD
ENDBRANCH  14  36
BRANCH   1  38
HETATM   38  C4  UNL     1       1.028  54.250 -10.893  1.00  0.00     0.058 C 
BRANCH  38  39
HETATM   39  C3  UNL     1      -0.339  53.536 -10.893  1.00  0.00     0.273 C 
BRANCH  39  40
HETATM   40  N1  UNL     1      -1.494  54.440 -10.884  1.00  0.00     0.083 N 
HETATM   41  H6  UNL     1      -1.770  54.618 -11.848  1.00  0.00     0.315 HD
BRANCH  40  42
HETATM   42  C2  UNL     1      -2.638  53.887 -10.157  1.00  0.00     0.265 C 
HETATM   43  C1  UNL     1      -3.797  53.654 -11.116  1.00  0.00     0.037 C 
ENDBRANCH  40  42
ENDBRANCH  39  40
ENDBRANCH  38  39
ENDBRANCH   1  38
BRANCH   4  44
HETATM   44  C9  UNL     1       5.491  51.695  -8.233  1.00  0.00    -0.042 A 
HETATM   45  C10 UNL     1       5.421  51.130  -6.949  1.00  0.00     0.008 A 
HETATM   46  C11 UNL     1       6.034  49.907  -6.677  1.00  0.00     0.001 A 
HETATM   47  C12 UNL     1       6.738  49.236  -7.677  1.00  0.00     0.009 A 
HETATM   48  C13 UNL     1       6.837  49.782  -8.963  1.00  0.00    -0.034 A 
HETATM   49  C15 UNL     1       6.210  51.010  -9.227  1.00  0.00     0.017 A 
BRANCH  48  50
HETATM   50  C14 UNL     1       7.617  49.086 -10.043  1.00  0.00     0.202 C 
BRANCH  50  51
HETATM   51  O1  UNL     1       7.921  50.013 -11.076  1.00  0.00    -0.396 OA
HETATM   52  H20 UNL     1       8.510  49.553 -11.699  1.00  0.00     0.209 HD
ENDBRANCH  50  51
ENDBRANCH  48  50
ENDBRANCH   4  44
TORSDOF 10
ENDMDL
MODEL 4
REMARK minimizedAffinity -6.89542627
REMARK CNNscore 0.399640203
REMARK CNNaffinity 5.30326843
REMARK  10 active torsions:
REMARK  status: ('A' for Active; 'I' for Inactive)
REMARK    1  A    between atoms: C2_2  and  N1_3 
REMARK    2  A    between atoms: N1_3  and  C3_4 
REMARK    3  A    between atoms: C3_4  and  C4_5 
REMARK    4  A    between atoms: C4_5  and  C5_6 
REMARK    5  A    between atoms: C8_9  and  C9_10 
REMARK    6  A    between atoms: C13_14  and  C14_15 
REMARK    7  A    between atoms: C14_15  and  O1_16 
REMARK    8  A    between atoms: C23_27  and  O4_28 
REMARK    9  A    between atoms: C28_33  and  C29_34 
REMARK   10  A    between atoms: C29_34  and  O5_35 
ROOT
HETATM    1  C5  UNL     1      -8.351  48.599 -20.002  1.00  0.00    -0.012 C 
HETATM    2  C6  UNL     1      -9.049  47.681 -20.713  1.00  0.00     0.015 C 
HETATM    3  C7  UNL     1      -8.730  47.509 -22.194  1.00  0.00     0.066 C 
HETATM    4  C8  UNL     1      -7.347  46.865 -22.492  1.00  0.00     0.102 C 
HETATM    5  C16 UNL     1      -7.424  45.388 -22.470  1.00  0.00    -0.096 C 
HETATM    6  C17 UNL     1      -7.551  44.192 -22.458  1.00  0.00    -0.096 C 
HETATM    7  C18 UNL     1      -7.877  42.749 -22.399  1.00  0.00     0.110 C 
HETATM    8  C19 UNL     1      -7.748  42.144 -23.789  1.00  0.00     0.133 C 
HETATM    9  C20 UNL     1      -8.174  40.703 -23.784  1.00  0.00     0.265 C 
HETATM   10  O2  UNL     1      -7.564  39.830 -24.389  1.00  0.00    -0.265 OA
HETATM   11  O3  UNL     1      -9.374  40.433 -23.140  1.00  0.00    -0.278 OA
HETATM   12  C21 UNL     1      -9.986  41.402 -22.326  1.00  0.00     0.089 A 
HETATM   13  C22 UNL     1     -11.302  41.169 -21.930  1.00  0.00     0.075 A 
HETATM   14  C23 UNL     1     -11.944  42.109 -21.123  1.00  0.00     0.074 A 
HETATM   15  C24 UNL     1     -11.276  43.257 -20.686  1.00  0.00    -0.022 A 
HETATM   16  C25 UNL     1      -9.929  43.415 -21.037  1.00  0.00     0.021 A 
HETATM   17  C26 UNL     1      -9.286  42.528 -21.908  1.00  0.00    -0.007 A 
HETATM   18  C27 UNL     1     -11.946  44.342 -19.877  1.00  0.00     0.077 C 
HETATM   19  C28 UNL     1     -12.188  45.705 -20.596  1.00  0.00     0.171 C 
HETATM   20  O7  UNL     1     -10.943  46.317 -21.032  1.00  0.00    -0.309 OA
HETATM   21  C39 UNL     1     -10.201  46.950 -20.089  1.00  0.00     0.289 C 
HETATM   22  O8  UNL     1     -10.484  46.971 -18.900  1.00  0.00    -0.260 OA
ENDROOT
BRANCH  19  23
HETATM   23  C29 UNL     1     -13.218  45.698 -21.790  1.00  0.00     0.089 C 
HETATM   24  C30 UNL     1     -13.101  46.957 -22.681  1.00  0.00     0.041 C 
HETATM   25  C31 UNL     1     -14.104  46.968 -23.837  1.00  0.00     0.004 C 
HETATM   26  C32 UNL     1     -15.538  46.799 -23.351  1.00  0.00     0.005 C 
HETATM   27  C33 UNL     1     -15.692  45.539 -22.485  1.00  0.00    -0.001 C 
HETATM   28  C34 UNL     1     -17.144  45.355 -22.037  1.00  0.00     0.083 C 
HETATM   29  C38 UNL     1     -14.701  45.537 -21.286  1.00  0.00     0.027 C 
HETATM   30  C35 UNL     1     -17.509  46.326 -20.943  1.00  0.00     0.127 C 
HETATM   31  O6  UNL     1     -18.557  46.969 -20.970  1.00  0.00    -0.298 OA
HETATM   32  C36 UNL     1     -16.578  46.374 -19.760  1.00  0.00     0.079 C 
HETATM   33  C37 UNL     1     -15.132  46.550 -20.204  1.00  0.00     0.015 C 
BRANCH  23  34
HETATM   34  O5  UNL     1     -12.974  44.559 -22.634  1.00  0.00    -0.387 OA
HETATM   35  H31 UNL     1     -12.901  43.763 -22.080  1.00  0.00     0.210 HD
ENDBRANCH  23  34
ENDBRANCH  19  23
BRANCH  14  36
HETATM   36  O4  UNL     1     -13.241  41.912 -20.743  1.00  0.00    -0.360 OA
HETATM   37  H26 UNL     1     -13.606  41.173 -21.257  1.00  0.00     0.217 HD
ENDBRANCH  14  36
BRANCH   1  38
HETATM   38  C4  UNL     1      -8.495  48.985 -18.549  1.00  0.00     0.058 C 
BRANCH  38  39
HETATM   39  C3  UNL     1      -7.568  48.146 -17.646  1.00  0.00     0.273 C 
BRANCH  39  40
HETATM   40  N1  UNL     1      -6.144  48.469 -17.775  1.00  0.00     0.083 N 
HETATM   41  H6  UNL     1      -5.825  48.876 -16.897  1.00  0.00     0.315 HD
BRANCH  40  42
HETATM   42  C2  UNL     1      -5.323  47.294 -18.078  1.00  0.00     0.265 C 
HETATM   43  C1  UNL     1      -5.003  47.256 -19.566  1.00  0.00     0.037 C 
ENDBRANCH  40  42
ENDBRANCH  39  40
ENDBRANCH  38  39
ENDBRANCH   1  38
BRANCH   4  44
HETATM   44  C9  UNL     1      -6.792  47.335 -23.831  1.00  0.00    -0.042 A 
HETATM   45  C10 UNL     1      -7.465  47.089 -25.039  1.00  0.00     0.008 A 
HETATM   46  C11 UNL     1      -6.937  47.536 -26.251  1.00  0.00     0.001 A 
HETATM   47  C12 UNL     1      -5.723  48.222 -26.277  1.00  0.00     0.009 A 
HETATM   48  C13 UNL     1      -5.022  48.469 -25.091  1.00  0.00    -0.034 A 
HETATM   49  C15 UNL     1      -5.565  48.020 -23.876  1.00  0.00     0.017 A 
BRANCH  48  50
HETATM   50  C14 UNL     1      -3.697  49.180 -25.107  1.00  0.00     0.202 C 
BRANCH  50  51
HETATM   51  O1  UNL     1      -2.953  48.814 -23.953  1.00  0.00    -0.396 OA
HETATM   52  H20 UNL     1      -2.070  49.210 -24.054  1.00  0.00     0.209 HD
ENDBRANCH  50  51
ENDBRANCH  48  50
ENDBRANCH   4  44
TORSDOF 10
ENDMDL
MODEL 5
REMARK minimizedAffinity -8.87568188
REMARK CNNscore 0.38068074
REMARK CNNaffinity 6.69577837
REMARK  10 active torsions:
REMARK  status: ('A' for Active; 'I' for Inactive)
REMARK    1  A    between atoms: C2_2  and  N1_3 
REMARK    2  A    between atoms: N1_3  and  C3_4 
REMARK    3  A    between atoms: C3_4  and  C4_5 
REMARK    4  A    between atoms: C4_5  and  C5_6 
REMARK    5  A    between atoms: C8_9  and  C9_10 
REMARK    6  A    between atoms: C13_14  and  C14_15 
REMARK    7  A    between atoms: C14_15  and  O1_16 
REMARK    8  A    between atoms: C23_27  and  O4_28 
REMARK    9  A    between atoms: C28_33  and  C29_34 
REMARK   10  A    between atoms: C29_34  and  O5_35 
ROOT
HETATM    1  C5  UNL     1      -2.365  46.470 -15.575  1.00  0.00    -0.012 C 
HETATM    2  C6  UNL     1      -2.637  47.426 -16.497  1.00  0.00     0.015 C 
HETATM    3  C7  UNL     1      -2.787  48.869 -16.027  1.00  0.00     0.066 C 
HETATM    4  C8  UNL     1      -1.468  49.537 -15.546  1.00  0.00     0.102 C 
HETATM    5  C16 UNL     1      -0.715  50.120 -16.677  1.00  0.00    -0.096 C 
HETATM    6  C17 UNL     1      -0.157  50.591 -17.633  1.00  0.00    -0.096 C 
HETATM    7  C18 UNL     1       0.398  51.102 -18.907  1.00  0.00     0.110 C 
HETATM    8  C19 UNL     1       0.369  52.623 -18.897  1.00  0.00     0.133 C 
HETATM    9  C20 UNL     1       0.827  53.173 -20.218  1.00  0.00     0.265 C 
HETATM   10  O2  UNL     1       1.574  54.140 -20.310  1.00  0.00    -0.265 OA
HETATM   11  O3  UNL     1       0.262  52.586 -21.342  1.00  0.00    -0.278 OA
HETATM   12  C21 UNL     1      -0.469  51.391 -21.237  1.00  0.00     0.089 A 
HETATM   13  C22 UNL     1      -1.225  51.002 -22.342  1.00  0.00     0.075 A 
HETATM   14  C23 UNL     1      -1.965  49.821 -22.276  1.00  0.00     0.074 A 
HETATM   15  C24 UNL     1      -1.932  49.015 -21.134  1.00  0.00    -0.022 A 
HETATM   16  C25 UNL     1      -1.097  49.397 -20.076  1.00  0.00     0.021 A 
HETATM   17  C26 UNL     1      -0.405  50.614 -20.087  1.00  0.00    -0.007 A 
HETATM   18  C27 UNL     1      -2.772  47.770 -20.980  1.00  0.00     0.077 C 
HETATM   19  C28 UNL     1      -3.939  47.835 -19.947  1.00  0.00     0.171 C 
HETATM   20  O7  UNL     1      -3.458  48.096 -18.600  1.00  0.00    -0.309 OA
HETATM   21  C39 UNL     1      -2.920  47.052 -17.922  1.00  0.00     0.289 C 
HETATM   22  O8  UNL     1      -2.757  45.940 -18.401  1.00  0.00    -0.260 OA
ENDROOT
BRANCH  19  23
HETATM   23  C29 UNL     1      -5.124  48.820 -20.283  1.00  0.00     0.089 C 
HETATM   24  C30 UNL     1      -6.336  48.635 -19.339  1.00  0.00     0.041 C 
HETATM   25  C31 UNL     1      -7.497  49.578 -19.663  1.00  0.00     0.004 C 
HETATM   26  C32 UNL     1      -7.940  49.462 -21.116  1.00  0.00     0.005 C 
HETATM   27  C33 UNL     1      -6.761  49.669 -22.080  1.00  0.00    -0.001 C 
HETATM   28  C34 UNL     1      -7.224  49.593 -23.537  1.00  0.00     0.083 C 
HETATM   29  C38 UNL     1      -5.590  48.690 -21.781  1.00  0.00     0.027 C 
HETATM   30  C35 UNL     1      -7.499  48.170 -23.952  1.00  0.00     0.127 C 
HETATM   31  O6  UNL     1      -8.517  47.859 -24.567  1.00  0.00    -0.298 OA
HETATM   32  C36 UNL     1      -6.402  47.174 -23.678  1.00  0.00     0.079 C 
HETATM   33  C37 UNL     1      -5.936  47.253 -22.230  1.00  0.00     0.015 C 
BRANCH  23  34
HETATM   34  O5  UNL     1      -4.679  50.181 -20.137  1.00  0.00    -0.387 OA
HETATM   35  H31 UNL     1      -3.835  50.291 -20.609  1.00  0.00     0.210 HD
ENDBRANCH  23  34
ENDBRANCH  19  23
BRANCH  14  36
HETATM   36  O4  UNL     1      -2.732  49.434 -23.338  1.00  0.00    -0.360 OA
HETATM   37  H26 UNL     1      -2.780  50.170 -23.971  1.00  0.00     0.217 HD
ENDBRANCH  14  36
BRANCH   1  38
HETATM   38  C4  UNL     1      -2.206  44.980 -15.772  1.00  0.00     0.058 C 
BRANCH  38  39
HETATM   39  C3  UNL     1      -1.181  44.385 -14.785  1.00  0.00     0.273 C 
BRANCH  39  40
HETATM   40  N1  UNL     1       0.127  44.090 -15.377  1.00  0.00     0.083 N 
HETATM   41  H6  UNL     1       0.851  44.416 -14.737  1.00  0.00     0.315 HD
BRANCH  40  42
HETATM   42  C2  UNL     1       0.324  42.661 -15.628  1.00  0.00     0.265 C 
HETATM   43  C1  UNL     1       1.243  42.468 -16.826  1.00  0.00     0.037 C 
ENDBRANCH  40  42
ENDBRANCH  39  40
ENDBRANCH  38  39
ENDBRANCH   1  38
BRANCH   4  44
HETATM   44  C9  UNL     1      -1.739  50.609 -14.497  1.00  0.00    -0.042 A 
HETATM   45  C10 UNL     1      -3.044  51.012 -14.170  1.00  0.00     0.008 A 
HETATM   46  C11 UNL     1      -3.264  51.991 -13.201  1.00  0.00     0.001 A 
HETATM   47  C12 UNL     1      -2.185  52.593 -12.554  1.00  0.00     0.009 A 
HETATM   48  C13 UNL     1      -0.872  52.223 -12.869  1.00  0.00    -0.034 A 
HETATM   49  C15 UNL     1      -0.662  51.231 -13.841  1.00  0.00     0.017 A 
BRANCH  48  50
HETATM   50  C14 UNL     1       0.302  52.883 -12.201  1.00  0.00     0.202 C 
BRANCH  50  51
HETATM   51  O1  UNL     1       1.484  52.593 -12.933  1.00  0.00    -0.396 OA
HETATM   52  H20 UNL     1       2.197  53.121 -12.533  1.00  0.00     0.209 HD
ENDBRANCH  50  51
ENDBRANCH  48  50
ENDBRANCH   4  44
TORSDOF 10
ENDMDL
MODEL 6
REMARK minimizedAffinity -7.05945015
REMARK CNNscore 0.362238437
REMARK CNNaffinity 5.87326479
REMARK  10 active torsions:
REMARK  status: ('A' for Active; 'I' for Inactive)
REMARK    1  A    between atoms: C2_2  and  N1_3 
REMARK    2  A    between atoms: N1_3  and  C3_4 
REMARK    3  A    between atoms: C3_4  and  C4_5 
REMARK    4  A    between atoms: C4_5  and  C5_6 
REMARK    5  A    between atoms: C8_9  and  C9_10 
REMARK    6  A    between atoms: C13_14  and  C14_15 
REMARK    7  A    between atoms: C14_15  and  O1_16 
REMARK    8  A    between atoms: C23_27  and  O4_28 
REMARK    9  A    between atoms: C28_33  and  C29_34 
REMARK   10  A    between atoms: C29_34  and  O5_35 
ROOT
HETATM    1  C5  UNL     1      -8.136  48.247 -23.507  1.00  0.00    -0.012 C 
HETATM    2  C6  UNL     1      -8.933  47.416 -24.222  1.00  0.00     0.015 C 
HETATM    3  C7  UNL     1      -9.221  46.026 -23.666  1.00  0.00     0.066 C 
HETATM    4  C8  UNL     1     -10.128  46.004 -22.403  1.00  0.00     0.102 C 
HETATM    5  C16 UNL     1     -11.561  46.015 -22.767  1.00  0.00    -0.096 C 
HETATM    6  C17 UNL     1     -12.710  46.004 -23.124  1.00  0.00    -0.096 C 
HETATM    7  C18 UNL     1     -14.061  46.002 -23.729  1.00  0.00     0.110 C 
HETATM    8  C19 UNL     1     -14.735  44.666 -23.456  1.00  0.00     0.133 C 
HETATM    9  C20 UNL     1     -16.067  44.591 -24.147  1.00  0.00     0.265 C 
HETATM   10  O2  UNL     1     -17.064  44.119 -23.614  1.00  0.00    -0.265 OA
HETATM   11  O3  UNL     1     -16.078  44.989 -25.477  1.00  0.00    -0.278 OA
HETATM   12  C21 UNL     1     -14.979  45.665 -26.033  1.00  0.00     0.089 A 
HETATM   13  C22 UNL     1     -14.942  45.798 -27.420  1.00  0.00     0.075 A 
HETATM   14  C23 UNL     1     -13.866  46.463 -28.009  1.00  0.00     0.074 A 
HETATM   15  C24 UNL     1     -12.849  47.019 -27.228  1.00  0.00    -0.022 A 
HETATM   16  C25 UNL     1     -12.963  46.936 -25.834  1.00  0.00     0.021 A 
HETATM   17  C26 UNL     1     -13.991  46.209 -25.221  1.00  0.00    -0.007 A 
HETATM   18  C27 UNL     1     -11.625  47.679 -27.816  1.00  0.00     0.077 C 
HETATM   19  C28 UNL     1     -10.271  46.923 -27.648  1.00  0.00     0.171 C 
HETATM   20  O7  UNL     1      -9.924  46.737 -26.248  1.00  0.00    -0.309 OA
HETATM   21  C39 UNL     1      -9.406  47.805 -25.592  1.00  0.00     0.289 C 
HETATM   22  O8  UNL     1      -9.285  48.916 -26.086  1.00  0.00    -0.260 OA
ENDROOT
BRANCH  19  23
HETATM   23  C29 UNL     1     -10.130  45.552 -28.413  1.00  0.00     0.089 C 
HETATM   24  C30 UNL     1      -8.671  45.040 -28.448  1.00  0.00     0.041 C 
HETATM   25  C31 UNL     1      -8.519  43.714 -29.198  1.00  0.00     0.004 C 
HETATM   26  C32 UNL     1      -9.084  43.788 -30.610  1.00  0.00     0.005 C 
HETATM   27  C33 UNL     1     -10.544  44.268 -30.606  1.00  0.00    -0.001 C 
HETATM   28  C34 UNL     1     -11.116  44.299 -32.026  1.00  0.00     0.083 C 
HETATM   29  C38 UNL     1     -10.702  45.633 -29.877  1.00  0.00     0.027 C 
HETATM   30  C35 UNL     1     -10.582  45.472 -32.807  1.00  0.00     0.127 C 
HETATM   31  O6  UNL     1     -10.166  45.350 -33.957  1.00  0.00    -0.298 OA
HETATM   32  C36 UNL     1     -10.700  46.821 -32.145  1.00  0.00     0.079 C 
HETATM   33  C37 UNL     1     -10.138  46.790 -30.730  1.00  0.00     0.015 C 
BRANCH  23  34
HETATM   34  O5  UNL     1     -10.916  44.544 -27.750  1.00  0.00    -0.387 OA
HETATM   35  H31 UNL     1     -11.808  44.894 -27.586  1.00  0.00     0.210 HD
ENDBRANCH  23  34
ENDBRANCH  19  23
BRANCH  14  36
HETATM   36  O4  UNL     1     -13.798  46.583 -29.368  1.00  0.00    -0.360 OA
HETATM   37  H26 UNL     1     -14.475  46.009 -29.766  1.00  0.00     0.217 HD
ENDBRANCH  14  36
BRANCH   1  38
HETATM   38  C4  UNL     1      -7.672  49.643 -23.849  1.00  0.00     0.058 C 
BRANCH  38  39
HETATM   39  C3  UNL     1      -6.219  49.885 -23.392  1.00  0.00     0.273 C 
BRANCH  39  40
HETATM   40  N1  UNL     1      -5.261  50.053 -24.489  1.00  0.00     0.083 N 
HETATM   41  H6  UNL     1      -4.401  50.445 -24.108  1.00  0.00     0.315 HD
BRANCH  40  42
HETATM   42  C2  UNL     1      -4.949  48.793 -25.166  1.00  0.00     0.265 C 
HETATM   43  C1  UNL     1      -3.444  48.563 -25.163  1.00  0.00     0.037 C 
ENDBRANCH  40  42
ENDBRANCH  39  40
ENDBRANCH  38  39
ENDBRANCH   1  38
BRANCH   4  44
HETATM   44  C9  UNL     1      -9.826  44.798 -21.522  1.00  0.00    -0.042 A 
HETATM   45  C10 UNL     1     -10.619  44.479 -20.407  1.00  0.00     0.008 A 
HETATM   46  C11 UNL     1     -10.324  43.366 -19.620  1.00  0.00     0.001 A 
HETATM   47  C12 UNL     1      -9.225  42.563 -19.925  1.00  0.00     0.009 A 
HETATM   48  C13 UNL     1      -8.407  42.864 -21.021  1.00  0.00    -0.034 A 
HETATM   49  C15 UNL     1      -8.718  43.983 -21.810  1.00  0.00     0.017 A 
BRANCH  48  50
HETATM   50  C14 UNL     1      -7.203  42.024 -21.344  1.00  0.00     0.202 C 
BRANCH  50  51
HETATM   51  O1  UNL     1      -6.081  42.871 -21.553  1.00  0.00    -0.396 OA
HETATM   52  H20 UNL     1      -5.308  42.290 -21.654  1.00  0.00     0.209 HD
ENDBRANCH  50  51
ENDBRANCH  48  50
ENDBRANCH   4  44
TORSDOF 10
ENDMDL
MODEL 7
REMARK minimizedAffinity -7.59124565
REMARK CNNscore 0.34449935
REMARK CNNaffinity 6.23465395
REMARK  10 active torsions:
REMARK  status: ('A' for Active; 'I' for Inactive)
REMARK    1  A    between atoms: C2_2  and  N1_3 
REMARK    2  A    between atoms: N1_3  and  C3_4 
REMARK    3  A    between atoms: C3_4  and  C4_5 
REMARK    4  A    between atoms: C4_5  and  C5_6 
REMARK    5  A    between atoms: C8_9  and  C9_10 
REMARK    6  A    between atoms: C13_14  and  C14_15 
REMARK    7  A    between atoms: C14_15  and  O1_16 
REMARK    8  A    between atoms: C23_27  and  O4_28 
REMARK    9  A    between atoms: C28_33  and  C29_34 
REMARK   10  A    between atoms: C29_34  and  O5_35 
ROOT
HETATM    1  C5  UNL     1       0.590  54.398  -9.897  1.00  0.00    -0.012 C 
HETATM    2  C6  UNL     1       1.110  54.591  -8.660  1.00  0.00     0.015 C 
HETATM    3  C7  UNL     1       2.422  53.900  -8.306  1.00  0.00     0.066 C 
HETATM    4  C8  UNL     1       3.671  54.454  -9.047  1.00  0.00     0.102 C 
HETATM    5  C16 UNL     1       4.244  55.621  -8.343  1.00  0.00    -0.096 C 
HETATM    6  C17 UNL     1       4.677  56.551  -7.716  1.00  0.00    -0.096 C 
HETATM    7  C18 UNL     1       5.072  57.673  -6.834  1.00  0.00     0.110 C 
HETATM    8  C19 UNL     1       6.400  57.348  -6.167  1.00  0.00     0.133 C 
HETATM    9  C20 UNL     1       6.778  58.420  -5.184  1.00  0.00     0.265 C 
HETATM   10  O2  UNL     1       7.921  58.849  -5.079  1.00  0.00    -0.265 OA
HETATM   11  O3  UNL     1       5.772  58.822  -4.316  1.00  0.00    -0.278 OA
HETATM   12  C21 UNL     1       4.438  58.441  -4.538  1.00  0.00     0.089 A 
HETATM   13  C22 UNL     1       3.530  58.649  -3.500  1.00  0.00     0.075 A 
HETATM   14  C23 UNL     1       2.196  58.282  -3.683  1.00  0.00     0.074 A 
HETATM   15  C24 UNL     1       1.759  57.742  -4.895  1.00  0.00    -0.022 A 
HETATM   16  C25 UNL     1       2.683  57.625  -5.942  1.00  0.00     0.021 A 
HETATM   17  C26 UNL     1       4.041  57.912  -5.760  1.00  0.00    -0.007 A 
HETATM   18  C27 UNL     1       0.346  57.257  -5.119  1.00  0.00     0.077 C 
HETATM   19  C28 UNL     1       0.147  55.716  -5.258  1.00  0.00     0.171 C 
HETATM   20  O7  UNL     1       0.882  55.175  -6.390  1.00  0.00    -0.309 OA
HETATM   21  C39 UNL     1       0.341  55.352  -7.621  1.00  0.00     0.289 C 
HETATM   22  O8  UNL     1      -0.677  55.995  -7.832  1.00  0.00    -0.260 OA
ENDROOT
BRANCH  19  23
HETATM   23  C29 UNL     1       0.442  54.849  -3.975  1.00  0.00     0.089 C 
HETATM   24  C30 UNL     1       1.950  54.563  -3.786  1.00  0.00     0.041 C 
HETATM   25  C31 UNL     1       2.248  53.712  -2.549  1.00  0.00     0.004 C 
HETATM   26  C32 UNL     1       1.462  52.408  -2.549  1.00  0.00     0.005 C 
HETATM   27  C33 UNL     1      -0.046  52.661  -2.708  1.00  0.00    -0.001 C 
HETATM   28  C34 UNL     1      -0.831  51.348  -2.664  1.00  0.00     0.083 C 
HETATM   29  C38 UNL     1      -0.361  53.495  -3.983  1.00  0.00     0.027 C 
HETATM   30  C35 UNL     1      -0.680  50.576  -3.950  1.00  0.00     0.127 C 
HETATM   31  O6  UNL     1      -0.437  49.371  -3.958  1.00  0.00    -0.298 OA
HETATM   32  C36 UNL     1      -0.964  51.336  -5.220  1.00  0.00     0.079 C 
HETATM   33  C37 UNL     1      -0.188  52.647  -5.261  1.00  0.00     0.015 C 
BRANCH  23  34
HETATM   34  O5  UNL     1      -0.005  55.553  -2.801  1.00  0.00    -0.387 OA
HETATM   35  H31 UNL     1      -0.913  55.871  -2.949  1.00  0.00     0.210 HD
ENDBRANCH  23  34
ENDBRANCH  19  23
BRANCH  14  36
HETATM   36  O4  UNL     1       1.296  58.455  -2.671  1.00  0.00    -0.360 OA
HETATM   37  H26 UNL     1       1.780  58.676  -1.857  1.00  0.00     0.217 HD
ENDBRANCH  14  36
BRANCH   1  38
HETATM   38  C4  UNL     1      -0.698  54.932 -10.479  1.00  0.00     0.058 C 
BRANCH  38  39
HETATM   39  C3  UNL     1      -1.827  53.884 -10.410  1.00  0.00     0.273 C 
BRANCH  39  40
HETATM   40  N1  UNL     1      -3.009  54.215 -11.213  1.00  0.00     0.083 N 
HETATM   41  H6  UNL     1      -2.786  54.054 -12.195  1.00  0.00     0.315 HD
BRANCH  40  42
HETATM   42  C2  UNL     1      -4.178  53.411 -10.854  1.00  0.00     0.265 C 
HETATM   43  C1  UNL     1      -3.745  51.995 -10.501  1.00  0.00     0.037 C 
ENDBRANCH  40  42
ENDBRANCH  39  40
ENDBRANCH  38  39
ENDBRANCH   1  38
BRANCH   4  44
HETATM   44  C9  UNL     1       4.737  53.378  -9.222  1.00  0.00    -0.042 A 
HETATM   45  C10 UNL     1       6.066  53.583  -8.819  1.00  0.00     0.008 A 
HETATM   46  C11 UNL     1       7.021  52.580  -8.985  1.00  0.00     0.001 A 
HETATM   47  C12 UNL     1       6.667  51.363  -9.567  1.00  0.00     0.009 A 
HETATM   48  C13 UNL     1       5.353  51.135  -9.992  1.00  0.00    -0.034 A 
HETATM   49  C15 UNL     1       4.398  52.149  -9.814  1.00  0.00     0.017 A 
BRANCH  48  50
HETATM   50  C14 UNL     1       4.963  49.840 -10.648  1.00  0.00     0.202 C 
BRANCH  50  51
HETATM   51  O1  UNL     1       5.725  49.666 -11.835  1.00  0.00    -0.396 OA
HETATM   52  H20 UNL     1       5.520  48.776 -12.170  1.00  0.00     0.209 HD
ENDBRANCH  50  51
ENDBRANCH  48  50
ENDBRANCH   4  44
TORSDOF 10
ENDMDL
MODEL 8
REMARK minimizedAffinity -6.86581421
REMARK CNNscore 0.327599227
REMARK CNNaffinity 6.27429199
REMARK  10 active torsions:
REMARK  status: ('A' for Active; 'I' for Inactive)
REMARK    1  A    between atoms: C2_2  and  N1_3 
REMARK    2  A    between atoms: N1_3  and  C3_4 
REMARK    3  A    between atoms: C3_4  and  C4_5 
REMARK    4  A    between atoms: C4_5  and  C5_6 
REMARK    5  A    between atoms: C8_9  and  C9_10 
REMARK    6  A    between atoms: C13_14  and  C14_15 
REMARK    7  A    between atoms: C14_15  and  O1_16 
REMARK    8  A    between atoms: C23_27  and  O4_28 
REMARK    9  A    between atoms: C28_33  and  C29_34 
REMARK   10  A    between atoms: C29_34  and  O5_35 
ROOT
HETATM    1  C5  UNL     1       2.678  53.634  -9.858  1.00  0.00    -0.012 C 
HETATM    2  C6  UNL     1       2.983  54.073  -8.613  1.00  0.00     0.015 C 
HETATM    3  C7  UNL     1       4.034  53.314  -7.810  1.00  0.00     0.066 C 
HETATM    4  C8  UNL     1       5.487  53.451  -8.345  1.00  0.00     0.102 C 
HETATM    5  C16 UNL     1       6.146  54.664  -7.816  1.00  0.00    -0.096 C 
HETATM    6  C17 UNL     1       6.635  55.653  -7.338  1.00  0.00    -0.096 C 
HETATM    7  C18 UNL     1       7.081  56.899  -6.673  1.00  0.00     0.110 C 
HETATM    8  C19 UNL     1       8.163  56.570  -5.656  1.00  0.00     0.133 C 
HETATM    9  C20 UNL     1       8.563  57.798  -4.887  1.00  0.00     0.265 C 
HETATM   10  O2  UNL     1       9.729  58.061  -4.620  1.00  0.00    -0.265 OA
HETATM   11  O3  UNL     1       7.516  58.568  -4.398  1.00  0.00    -0.278 OA
HETATM   12  C21 UNL     1       6.198  58.347  -4.832  1.00  0.00     0.089 A 
HETATM   13  C22 UNL     1       5.175  58.964  -4.114  1.00  0.00     0.075 A 
HETATM   14  C23 UNL     1       3.852  58.768  -4.515  1.00  0.00     0.074 A 
HETATM   15  C24 UNL     1       3.549  57.991  -5.637  1.00  0.00    -0.022 A 
HETATM   16  C25 UNL     1       4.609  57.457  -6.380  1.00  0.00     0.021 A 
HETATM   17  C26 UNL     1       5.938  57.574  -5.957  1.00  0.00    -0.007 A 
HETATM   18  C27 UNL     1       2.134  57.684  -6.068  1.00  0.00     0.077 C 
HETATM   19  C28 UNL     1       1.651  56.212  -5.889  1.00  0.00     0.171 C 
HETATM   20  O7  UNL     1       2.458  55.279  -6.659  1.00  0.00    -0.309 OA
HETATM   21  C39 UNL     1       2.207  55.196  -7.989  1.00  0.00     0.289 C 
HETATM   22  O8  UNL     1       1.403  55.904  -8.577  1.00  0.00    -0.260 OA
ENDROOT
BRANCH  19  23
HETATM   23  C29 UNL     1       1.513  55.691  -4.407  1.00  0.00     0.089 C 
HETATM   24  C30 UNL     1       2.795  54.986  -3.904  1.00  0.00     0.041 C 
HETATM   25  C31 UNL     1       2.670  54.465  -2.470  1.00  0.00     0.004 C 
HETATM   26  C32 UNL     1       1.464  53.550  -2.298  1.00  0.00     0.005 C 
HETATM   27  C33 UNL     1       0.169  54.234  -2.763  1.00  0.00    -0.001 C 
HETATM   28  C34 UNL     1      -1.041  53.323  -2.546  1.00  0.00     0.083 C 
HETATM   29  C38 UNL     1       0.276  54.734  -4.232  1.00  0.00     0.027 C 
HETATM   30  C35 UNL     1      -1.087  52.218  -3.571  1.00  0.00     0.127 C 
HETATM   31  O6  UNL     1      -1.300  51.049  -3.254  1.00  0.00    -0.298 OA
HETATM   32  C36 UNL     1      -0.979  52.643  -5.012  1.00  0.00     0.079 C 
HETATM   33  C37 UNL     1       0.221  53.556  -5.228  1.00  0.00     0.015 C 
BRANCH  23  34
HETATM   34  O5  UNL     1       1.268  56.801  -3.524  1.00  0.00    -0.387 OA
HETATM   35  H31 UNL     1       0.552  57.347  -3.893  1.00  0.00     0.210 HD
ENDBRANCH  23  34
ENDBRANCH  19  23
BRANCH  14  36
HETATM   36  O4  UNL     1       2.833  59.343  -3.811  1.00  0.00    -0.360 OA
HETATM   37  H26 UNL     1       3.190  59.700  -2.981  1.00  0.00     0.217 HD
ENDBRANCH  14  36
BRANCH   1  38
HETATM   38  C4  UNL     1       1.661  54.179 -10.834  1.00  0.00     0.058 C 
BRANCH  38  39
HETATM   39  C3  UNL     1       0.364  53.343 -10.826  1.00  0.00     0.273 C 
BRANCH  39  40
HETATM   40  N1  UNL     1      -0.830  54.077 -11.254  1.00  0.00     0.083 N 
HETATM   41  H6  UNL     1      -1.338  53.502 -11.926  1.00  0.00     0.315 HD
BRANCH  40  42
HETATM   42  C2  UNL     1      -1.722  54.404 -10.140  1.00  0.00     0.265 C 
HETATM   43  C1  UNL     1      -3.156  54.043 -10.502  1.00  0.00     0.037 C 
ENDBRANCH  40  42
ENDBRANCH  39  40
ENDBRANCH  38  39
ENDBRANCH   1  38
BRANCH   4  44
HETATM   44  C9  UNL     1       6.321  52.220  -8.010  1.00  0.00    -0.042 A 
HETATM   45  C10 UNL     1       6.795  51.979  -6.710  1.00  0.00     0.008 A 
HETATM   46  C11 UNL     1       7.552  50.841  -6.429  1.00  0.00     0.001 A 
HETATM   47  C12 UNL     1       7.858  49.934  -7.443  1.00  0.00     0.009 A 
HETATM   48  C13 UNL     1       7.412  50.154  -8.751  1.00  0.00    -0.034 A 
HETATM   49  C15 UNL     1       6.645  51.300  -9.022  1.00  0.00     0.017 A 
BRANCH  48  50
HETATM   50  C14 UNL     1       7.759  49.201  -9.861  1.00  0.00     0.202 C 
BRANCH  50  51
HETATM   51  O1  UNL     1       7.778  49.903 -11.096  1.00  0.00    -0.396 OA
HETATM   52  H20 UNL     1       8.106  49.279 -11.766  1.00  0.00     0.209 HD
ENDBRANCH  50  51
ENDBRANCH  48  50
ENDBRANCH   4  44
TORSDOF 10
ENDMDL
MODEL 9
REMARK minimizedAffinity -6.52868271
REMARK CNNscore 0.312159181
REMARK CNNaffinity 6.07209826
REMARK  10 active torsions:
REMARK  status: ('A' for Active; 'I' for Inactive)
REMARK    1  A    between atoms: C2_2  and  N1_3 
REMARK    2  A    between atoms: N1_3  and  C3_4 
REMARK    3  A    between atoms: C3_4  and  C4_5 
REMARK    4  A    between atoms: C4_5  and  C5_6 
REMARK    5  A    between atoms: C8_9  and  C9_10 
REMARK    6  A    between atoms: C13_14  and  C14_15 
REMARK    7  A    between atoms: C14_15  and  O1_16 
REMARK    8  A    between atoms: C23_27  and  O4_28 
REMARK    9  A    between atoms: C28_33  and  C29_34 
REMARK   10  A    between atoms: C29_34  and  O5_35 
ROOT
HETATM    1  C5  UNL     1      -7.268  48.507 -24.111  1.00  0.00    -0.012 C 
HETATM    2  C6  UNL     1      -7.790  47.373 -23.584  1.00  0.00     0.015 C 
HETATM    3  C7  UNL     1      -9.204  46.967 -23.983  1.00  0.00     0.066 C 
HETATM    4  C8  UNL     1      -9.356  46.495 -25.456  1.00  0.00     0.102 C 
HETATM    5  C16 UNL     1      -9.043  45.056 -25.597  1.00  0.00    -0.096 C 
HETATM    6  C17 UNL     1      -8.796  43.880 -25.646  1.00  0.00    -0.096 C 
HETATM    7  C18 UNL     1      -8.456  42.444 -25.533  1.00  0.00     0.110 C 
HETATM    8  C19 UNL     1      -9.697  41.607 -25.805  1.00  0.00     0.133 C 
HETATM    9  C20 UNL     1      -9.412  40.147 -25.595  1.00  0.00     0.265 C 
HETATM   10  O2  UNL     1      -9.826  39.276 -26.350  1.00  0.00    -0.265 OA
HETATM   11  O3  UNL     1      -8.739  39.828 -24.423  1.00  0.00    -0.278 OA
HETATM   12  C21 UNL     1      -8.140  40.832 -23.644  1.00  0.00     0.089 A 
HETATM   13  C22 UNL     1      -7.718  40.484 -22.361  1.00  0.00     0.075 A 
HETATM   14  C23 UNL     1      -7.119  41.454 -21.557  1.00  0.00     0.074 A 
HETATM   15  C24 UNL     1      -6.911  42.753 -22.032  1.00  0.00    -0.022 A 
HETATM   16  C25 UNL     1      -7.273  43.042 -23.353  1.00  0.00     0.021 A 
HETATM   17  C26 UNL     1      -7.945  42.111 -24.153  1.00  0.00    -0.007 A 
HETATM   18  C27 UNL     1      -6.339  43.859 -21.178  1.00  0.00     0.077 C 
HETATM   19  C28 UNL     1      -7.316  45.004 -20.767  1.00  0.00     0.171 C 
HETATM   20  O7  UNL     1      -7.852  45.702 -21.925  1.00  0.00    -0.309 OA
HETATM   21  C39 UNL     1      -7.045  46.611 -22.528  1.00  0.00     0.289 C 
HETATM   22  O8  UNL     1      -5.886  46.818 -22.198  1.00  0.00    -0.260 OA
ENDROOT
BRANCH  19  23
HETATM   23  C29 UNL     1      -8.495  44.610 -19.797  1.00  0.00     0.089 C 
HETATM   24  C30 UNL     1      -9.595  43.785 -20.506  1.00  0.00     0.041 C 
HETATM   25  C31 UNL     1     -10.751  43.405 -19.577  1.00  0.00     0.004 C 
HETATM   26  C32 UNL     1     -11.363  44.624 -18.898  1.00  0.00     0.005 C 
HETATM   27  C33 UNL     1     -10.297  45.450 -18.161  1.00  0.00    -0.001 C 
HETATM   28  C34 UNL     1     -10.927  46.648 -17.447  1.00  0.00     0.083 C 
HETATM   29  C38 UNL     1      -9.135  45.871 -19.107  1.00  0.00     0.027 C 
HETATM   30  C35 UNL     1     -11.300  47.735 -18.424  1.00  0.00     0.127 C 
HETATM   31  O6  UNL     1     -12.393  48.297 -18.383  1.00  0.00    -0.298 OA
HETATM   32  C36 UNL     1     -10.215  48.177 -19.372  1.00  0.00     0.079 C 
HETATM   33  C37 UNL     1      -9.582  46.985 -20.078  1.00  0.00     0.015 C 
BRANCH  23  34
HETATM   34  O5  UNL     1      -7.987  43.800 -18.721  1.00  0.00    -0.387 OA
HETATM   35  H31 UNL     1      -7.200  44.231 -18.345  1.00  0.00     0.210 HD
ENDBRANCH  23  34
ENDBRANCH  19  23
BRANCH  14  36
HETATM   36  O4  UNL     1      -6.720  41.140 -20.289  1.00  0.00    -0.360 OA
HETATM   37  H26 UNL     1      -7.082  40.268 -20.057  1.00  0.00     0.217 HD
ENDBRANCH  14  36
BRANCH   1  38
HETATM   38  C4  UNL     1      -5.921  49.140 -23.855  1.00  0.00     0.058 C 
BRANCH  38  39
HETATM   39  C3  UNL     1      -4.874  48.686 -24.892  1.00  0.00     0.273 C 
BRANCH  39  40
HETATM   40  N1  UNL     1      -5.408  48.494 -26.244  1.00  0.00     0.083 N 
HETATM   41  H6  UNL     1      -5.941  49.324 -26.501  1.00  0.00     0.315 HD
BRANCH  40  42
HETATM   42  C2  UNL     1      -4.357  48.278 -27.241  1.00  0.00     0.265 C 
HETATM   43  C1  UNL     1      -3.560  49.560 -27.439  1.00  0.00     0.037 C 
ENDBRANCH  40  42
ENDBRANCH  39  40
ENDBRANCH  38  39
ENDBRANCH   1  38
BRANCH   4  44
HETATM   44  C9  UNL     1     -10.756  46.775 -25.989  1.00  0.00    -0.042 A 
HETATM   45  C10 UNL     1     -11.896  46.640 -25.181  1.00  0.00     0.008 A 
HETATM   46  C11 UNL     1     -13.166  46.909 -25.692  1.00  0.00     0.001 A 
HETATM   47  C12 UNL     1     -13.318  47.303 -27.022  1.00  0.00     0.009 A 
HETATM   48  C13 UNL     1     -12.201  47.432 -27.856  1.00  0.00    -0.034 A 
HETATM   49  C15 UNL     1     -10.927  47.166 -27.329  1.00  0.00     0.017 A 
BRANCH  48  50
HETATM   50  C14 UNL     1     -12.352  47.827 -29.299  1.00  0.00     0.202 C 
BRANCH  50  51
HETATM   51  O1  UNL     1     -13.142  46.856 -29.972  1.00  0.00    -0.396 OA
HETATM   52  H20 UNL     1     -13.302  47.200 -30.868  1.00  0.00     0.209 HD
ENDBRANCH  50  51
ENDBRANCH  48  50
ENDBRANCH   4  44
TORSDOF 10
ENDMDL
