MODEL 1
REMARK minimizedAffinity -7.53909874
REMARK CNNscore 0.673763573
REMARK CNNaffinity 6.9282856
REMARK  10 active torsions:
REMARK  status: ('A' for Active; 'I' for Inactive)
REMARK    1  A    between atoms: C19_21  and  O3_22 
REMARK    2  A    between atoms: C19_21  and  C20_23 
REMARK    3  A    between atoms: C20_23  and  C21_25 
REMARK    4  A    between atoms: C21_25  and  O5_26 
REMARK    5  A    between atoms: O5_26  and  C22_27 
REMARK    6  A    between atoms: C22_27  and  C23_29 
REMARK    7  A    between atoms: C23_29  and  C24_30 
REMARK    8  A    between atoms: C24_30  and  C25_31 
REMARK       I    between atoms: C25_31  and  N1_33 
REMARK    9  A    between atoms: N1_33  and  C26_34 
REMARK   10  A    between atoms: C26_34  and  C27_35 
ROOT
HETATM    1  C1  UNL     1      -6.908   6.768  13.676  1.00  0.00     0.021 C 
HETATM    2  C2  UNL     1      -8.118   5.909  14.103  1.00  0.00    -0.009 C 
HETATM    3  C3  UNL     1      -7.647   4.753  15.036  1.00  0.00     0.022 C 
HETATM    4  C4  UNL     1      -6.843   3.674  14.323  1.00  0.00     0.084 C 
HETATM    5  C5  UNL     1      -7.618   3.123  13.157  1.00  0.00     0.149 C 
HETATM    6  O1  UNL     1      -7.477   1.970  12.757  1.00  0.00    -0.293 OA
HETATM    7  C6  UNL     1      -8.525   4.037  12.425  1.00  0.00     0.053 C 
HETATM    8  C7  UNL     1      -8.726   5.307  12.822  1.00  0.00    -0.067 C 
HETATM    9  C8  UNL     1      -9.553   6.229  11.955  1.00  0.00     0.035 C 
HETATM   10  C9  UNL     1     -10.613   6.968  12.760  1.00  0.00     0.010 C 
HETATM   11  C10 UNL     1      -9.982   7.732  13.930  1.00  0.00     0.003 C 
HETATM   12  C11 UNL     1      -9.216   6.744  14.860  1.00  0.00     0.072 C 
HETATM   13  C12 UNL     1      -8.733   7.483  16.125  1.00  0.00     0.133 C 
HETATM   14  O2  UNL     1      -7.586   7.402  16.562  1.00  0.00    -0.297 OA
HETATM   15  C13 UNL     1      -9.776   8.294  16.883  1.00  0.00     0.091 C 
HETATM   16  C14 UNL     1     -10.448   9.289  15.926  1.00  0.00     0.005 C 
HETATM   17  C15 UNL     1      -9.399  10.338  15.472  1.00  0.00     0.019 C 
HETATM   18  C16 UNL     1     -11.047   8.472  14.753  1.00  0.00     0.002 C 
HETATM   19  C17 UNL     1     -11.947   9.475  14.040  1.00  0.00     0.009 C 
HETATM   20  C18 UNL     1     -12.484  10.389  15.160  1.00  0.00     0.047 C 
HETATM   21  C19 UNL     1     -11.738   9.985  16.451  1.00  0.00     0.128 C 
ENDROOT
BRANCH  21  22
HETATM   22  O3  UNL     1     -12.559   9.004  17.116  1.00  0.00    -0.381 OA
HETATM   23  H25 UNL     1     -12.300   9.017  18.062  1.00  0.00     0.211 HD
ENDBRANCH  21  22
BRANCH  21  24
HETATM   24  C20 UNL     1     -11.479  11.090  17.492  1.00  0.00     0.185 C 
HETATM   25  O4  UNL     1     -10.704  12.010  17.200  1.00  0.00    -0.292 OA
BRANCH  24  26
HETATM   26  C21 UNL     1     -12.200  11.035  18.833  1.00  0.00     0.260 C 
BRANCH  26  27
HETATM   27  O5  UNL     1     -11.580  10.112  19.728  1.00  0.00    -0.314 OA
BRANCH  27  28
HETATM   28  C22 UNL     1     -11.123  10.666  20.880  1.00  0.00     0.259 C 
HETATM   29  O6  UNL     1     -10.264  11.541  20.931  1.00  0.00    -0.265 OA
BRANCH  28  30
HETATM   30  C23 UNL     1     -11.762  10.081  22.117  1.00  0.00     0.120 C 
BRANCH  30  31
HETATM   31  C24 UNL     1     -10.849   9.962  23.332  1.00  0.00     0.112 C 
BRANCH  31  32
HETATM   32  C25 UNL     1     -10.692  11.284  24.060  1.00  0.00     0.218 C 
HETATM   33  O7  UNL     1     -11.546  11.753  24.805  1.00  0.00    -0.274 OA
HETATM   34  N1  UNL     1      -9.499  11.911  23.773  1.00  0.00    -0.356 N 
HETATM   35  H32 UNL     1      -8.778  11.385  23.299  1.00  0.00     0.162 HD
BRANCH  34  36
HETATM   36  C26 UNL     1      -9.101  13.124  24.454  1.00  0.00     0.168 C 
BRANCH  36  37
HETATM   37  C27 UNL     1      -7.914  13.704  23.748  1.00  0.00     0.000 A 
HETATM   38  C28 UNL     1      -6.990  13.063  22.941  1.00  0.00     0.017 A 
HETATM   39  C29 UNL     1      -5.988  13.950  22.452  1.00  0.00     0.008 A 
HETATM   40  C30 UNL     1      -6.186  15.242  22.888  1.00  0.00     0.050 A 
HETATM   41  S1  UNL     1      -7.568  15.379  23.883  1.00  0.00    -0.105 SA
ENDBRANCH  36  37
ENDBRANCH  34  36
ENDBRANCH  31  32
ENDBRANCH  30  31
ENDBRANCH  28  30
ENDBRANCH  27  28
ENDBRANCH  26  27
ENDBRANCH  24  26
ENDBRANCH  21  24
TORSDOF 10
ENDMDL
MODEL 2
REMARK minimizedAffinity -7.50309181
REMARK CNNscore 0.641335189
REMARK CNNaffinity 7.0571785
REMARK  10 active torsions:
REMARK  status: ('A' for Active; 'I' for Inactive)
REMARK    1  A    between atoms: C19_21  and  O3_22 
REMARK    2  A    between atoms: C19_21  and  C20_23 
REMARK    3  A    between atoms: C20_23  and  C21_25 
REMARK    4  A    between atoms: C21_25  and  O5_26 
REMARK    5  A    between atoms: O5_26  and  C22_27 
REMARK    6  A    between atoms: C22_27  and  C23_29 
REMARK    7  A    between atoms: C23_29  and  C24_30 
REMARK    8  A    between atoms: C24_30  and  C25_31 
REMARK       I    between atoms: C25_31  and  N1_33 
REMARK    9  A    between atoms: N1_33  and  C26_34 
REMARK   10  A    between atoms: C26_34  and  C27_35 
ROOT
HETATM    1  C1  UNL     1       3.256   6.888  11.236  1.00  0.00     0.021 C 
HETATM    2  C2  UNL     1       2.115   6.170  10.482  1.00  0.00    -0.009 C 
HETATM    3  C3  UNL     1       2.420   4.645  10.383  1.00  0.00     0.022 C 
HETATM    4  C4  UNL     1       3.565   4.305   9.438  1.00  0.00     0.084 C 
HETATM    5  C5  UNL     1       3.309   4.878   8.071  1.00  0.00     0.149 C 
HETATM    6  O1  UNL     1       3.745   4.359   7.047  1.00  0.00    -0.293 OA
HETATM    7  C6  UNL     1       2.568   6.156   7.976  1.00  0.00     0.053 C 
HETATM    8  C7  UNL     1       2.060   6.766   9.062  1.00  0.00    -0.067 C 
HETATM    9  C8  UNL     1       1.437   8.136   8.917  1.00  0.00     0.035 C 
HETATM   10  C9  UNL     1       0.073   8.215   9.588  1.00  0.00     0.010 C 
HETATM   11  C10 UNL     1       0.162   7.805  11.064  1.00  0.00     0.003 C 
HETATM   12  C11 UNL     1       0.717   6.354  11.180  1.00  0.00     0.072 C 
HETATM   13  C12 UNL     1       0.640   5.881  12.646  1.00  0.00     0.133 C 
HETATM   14  O2  UNL     1       1.578   5.347  13.237  1.00  0.00    -0.297 OA
HETATM   15  C13 UNL     1      -0.703   6.040  13.347  1.00  0.00     0.091 C 
HETATM   16  C14 UNL     1      -1.163   7.501  13.249  1.00  0.00     0.005 C 
HETATM   17  C15 UNL     1      -0.191   8.392  14.070  1.00  0.00     0.019 C 
HETATM   18  C16 UNL     1      -1.212   7.873  11.745  1.00  0.00     0.002 C 
HETATM   19  C17 UNL     1      -1.966   9.198  11.727  1.00  0.00     0.009 C 
HETATM   20  C18 UNL     1      -2.973   9.095  12.892  1.00  0.00     0.047 C 
HETATM   21  C19 UNL     1      -2.642   7.786  13.642  1.00  0.00     0.128 C 
ENDROOT
BRANCH  21  22
HETATM   22  O3  UNL     1      -3.480   6.759  13.075  1.00  0.00    -0.381 OA
HETATM   23  H25 UNL     1      -3.552   6.051  13.751  1.00  0.00     0.211 HD
ENDBRANCH  21  22
BRANCH  21  24
HETATM   24  C20 UNL     1      -2.908   7.754  15.159  1.00  0.00     0.185 C 
HETATM   25  O4  UNL     1      -2.388   8.624  15.870  1.00  0.00    -0.292 OA
BRANCH  24  26
HETATM   26  C21 UNL     1      -3.821   6.679  15.733  1.00  0.00     0.260 C 
BRANCH  26  27
HETATM   27  O5  UNL     1      -5.179   7.116  15.790  1.00  0.00    -0.314 OA
BRANCH  27  28
HETATM   28  C22 UNL     1      -6.086   6.191  15.384  1.00  0.00     0.259 C 
HETATM   29  O6  UNL     1      -5.983   5.529  14.355  1.00  0.00    -0.265 OA
BRANCH  28  30
HETATM   30  C23 UNL     1      -7.267   6.064  16.317  1.00  0.00     0.120 C 
BRANCH  30  31
HETATM   31  C24 UNL     1      -8.565   5.596  15.669  1.00  0.00     0.112 C 
BRANCH  31  32
HETATM   32  C25 UNL     1      -9.265   6.715  14.920  1.00  0.00     0.218 C 
HETATM   33  O7  UNL     1      -9.082   6.952  13.731  1.00  0.00    -0.274 OA
HETATM   34  N1  UNL     1     -10.108   7.449  15.726  1.00  0.00    -0.356 N 
HETATM   35  H32 UNL     1     -10.341   7.087  16.639  1.00  0.00     0.162 HD
BRANCH  34  36
HETATM   36  C26 UNL     1     -10.959   8.485  15.183  1.00  0.00     0.168 C 
BRANCH  36  37
HETATM   37  C27 UNL     1     -12.088   7.839  14.440  1.00  0.00     0.000 A 
HETATM   38  C28 UNL     1     -12.715   6.633  14.701  1.00  0.00     0.017 A 
HETATM   39  C29 UNL     1     -13.748   6.344  13.762  1.00  0.00     0.008 A 
HETATM   40  C30 UNL     1     -13.886   7.343  12.824  1.00  0.00     0.050 A 
HETATM   41  S1  UNL     1     -12.774   8.617  13.073  1.00  0.00    -0.105 SA
ENDBRANCH  36  37
ENDBRANCH  34  36
ENDBRANCH  31  32
ENDBRANCH  30  31
ENDBRANCH  28  30
ENDBRANCH  27  28
ENDBRANCH  26  27
ENDBRANCH  24  26
ENDBRANCH  21  24
TORSDOF 10
ENDMDL
MODEL 3
REMARK minimizedAffinity -7.50496721
REMARK CNNscore 0.570071876
REMARK CNNaffinity 7.16987228
REMARK  10 active torsions:
REMARK  status: ('A' for Active; 'I' for Inactive)
REMARK    1  A    between atoms: C19_21  and  O3_22 
REMARK    2  A    between atoms: C19_21  and  C20_23 
REMARK    3  A    between atoms: C20_23  and  C21_25 
REMARK    4  A    between atoms: C21_25  and  O5_26 
REMARK    5  A    between atoms: O5_26  and  C22_27 
REMARK    6  A    between atoms: C22_27  and  C23_29 
REMARK    7  A    between atoms: C23_29  and  C24_30 
REMARK    8  A    between atoms: C24_30  and  C25_31 
REMARK       I    between atoms: C25_31  and  N1_33 
REMARK    9  A    between atoms: N1_33  and  C26_34 
REMARK   10  A    between atoms: C26_34  and  C27_35 
ROOT
HETATM    1  C1  UNL     1     -10.825   7.945  12.668  1.00  0.00     0.021 C 
HETATM    2  C2  UNL     1     -10.784   7.551  14.161  1.00  0.00    -0.009 C 
HETATM    3  C3  UNL     1     -11.704   6.318  14.412  1.00  0.00     0.022 C 
HETATM    4  C4  UNL     1     -13.192   6.626  14.299  1.00  0.00     0.084 C 
HETATM    5  C5  UNL     1     -13.568   7.756  15.219  1.00  0.00     0.149 C 
HETATM    6  O1  UNL     1     -14.688   7.860  15.711  1.00  0.00    -0.293 OA
HETATM    7  C6  UNL     1     -12.565   8.816  15.470  1.00  0.00     0.053 C 
HETATM    8  C7  UNL     1     -11.320   8.752  14.965  1.00  0.00    -0.067 C 
HETATM    9  C8  UNL     1     -10.389   9.930  15.141  1.00  0.00     0.035 C 
HETATM   10  C9  UNL     1      -9.022   9.503  15.656  1.00  0.00     0.010 C 
HETATM   11  C10 UNL     1      -8.397   8.440  14.742  1.00  0.00     0.003 C 
HETATM   12  C11 UNL     1      -9.333   7.198  14.655  1.00  0.00     0.072 C 
HETATM   13  C12 UNL     1      -8.627   6.064  13.882  1.00  0.00     0.133 C 
HETATM   14  O2  UNL     1      -9.158   5.431  12.971  1.00  0.00    -0.297 OA
HETATM   15  C13 UNL     1      -7.222   5.695  14.342  1.00  0.00     0.091 C 
HETATM   16  C14 UNL     1      -6.337   6.949  14.346  1.00  0.00     0.005 C 
HETATM   17  C15 UNL     1      -6.149   7.438  12.885  1.00  0.00     0.019 C 
HETATM   18  C16 UNL     1      -7.022   7.997  15.261  1.00  0.00     0.002 C 
HETATM   19  C17 UNL     1      -5.945   9.058  15.459  1.00  0.00     0.009 C 
HETATM   20  C18 UNL     1      -4.614   8.277  15.447  1.00  0.00     0.047 C 
HETATM   21  C19 UNL     1      -4.965   6.821  15.070  1.00  0.00     0.128 C 
ENDROOT
BRANCH  21  22
HETATM   22  O3  UNL     1      -5.155   6.106  16.307  1.00  0.00    -0.381 OA
HETATM   23  H25 UNL     1      -5.014   5.156  16.106  1.00  0.00     0.211 HD
ENDBRANCH  21  22
BRANCH  21  24
HETATM   24  C20 UNL     1      -3.909   6.022  14.283  1.00  0.00     0.185 C 
HETATM   25  O4  UNL     1      -4.245   4.950  13.762  1.00  0.00    -0.292 OA
BRANCH  24  26
HETATM   26  C21 UNL     1      -2.500   6.582  14.143  1.00  0.00     0.260 C 
BRANCH  26  27
HETATM   27  O5  UNL     1      -2.352   7.343  12.945  1.00  0.00    -0.314 OA
BRANCH  27  28
HETATM   28  C22 UNL     1      -1.742   8.544  13.112  1.00  0.00     0.259 C 
HETATM   29  O6  UNL     1      -1.699   9.422  12.254  1.00  0.00    -0.265 OA
BRANCH  28  30
HETATM   30  C23 UNL     1      -1.086   8.697  14.464  1.00  0.00     0.120 C 
BRANCH  30  31
HETATM   31  C24 UNL     1       0.408   8.996  14.436  1.00  0.00     0.112 C 
BRANCH  31  32
HETATM   32  C25 UNL     1       1.185   7.954  13.652  1.00  0.00     0.218 C 
HETATM   33  O7  UNL     1       1.206   6.763  13.946  1.00  0.00    -0.274 OA
HETATM   34  N1  UNL     1       1.881   8.495  12.594  1.00  0.00    -0.356 N 
HETATM   35  H32 UNL     1       1.673   9.441  12.310  1.00  0.00     0.162 HD
BRANCH  34  36
HETATM   36  C26 UNL     1       2.590   7.657  11.650  1.00  0.00     0.168 C 
BRANCH  36  37
HETATM   37  C27 UNL     1       2.009   7.872  10.286  1.00  0.00     0.000 A 
HETATM   38  C28 UNL     1       0.680   8.009   9.926  1.00  0.00     0.017 A 
HETATM   39  C29 UNL     1       0.514   8.189   8.521  1.00  0.00     0.008 A 
HETATM   40  C30 UNL     1       1.721   8.198   7.857  1.00  0.00     0.050 A 
HETATM   41  S1  UNL     1       3.042   7.987   8.921  1.00  0.00    -0.105 SA
ENDBRANCH  36  37
ENDBRANCH  34  36
ENDBRANCH  31  32
ENDBRANCH  30  31
ENDBRANCH  28  30
ENDBRANCH  27  28
ENDBRANCH  26  27
ENDBRANCH  24  26
ENDBRANCH  21  24
TORSDOF 10
ENDMDL
MODEL 4
REMARK minimizedAffinity -8.98869228
REMARK CNNscore 0.448961139
REMARK CNNaffinity 7.31046867
REMARK  10 active torsions:
REMARK  status: ('A' for Active; 'I' for Inactive)
REMARK    1  A    between atoms: C19_21  and  O3_22 
REMARK    2  A    between atoms: C19_21  and  C20_23 
REMARK    3  A    between atoms: C20_23  and  C21_25 
REMARK    4  A    between atoms: C21_25  and  O5_26 
REMARK    5  A    between atoms: O5_26  and  C22_27 
REMARK    6  A    between atoms: C22_27  and  C23_29 
REMARK    7  A    between atoms: C23_29  and  C24_30 
REMARK    8  A    between atoms: C24_30  and  C25_31 
REMARK       I    between atoms: C25_31  and  N1_33 
REMARK    9  A    between atoms: N1_33  and  C26_34 
REMARK   10  A    between atoms: C26_34  and  C27_35 
ROOT
HETATM    1  C1  UNL     1       0.021   7.410  10.054  1.00  0.00     0.021 C 
HETATM    2  C2  UNL     1       0.835   7.297  11.362  1.00  0.00    -0.009 C 
HETATM    3  C3  UNL     1       1.908   8.426  11.420  1.00  0.00     0.022 C 
HETATM    4  C4  UNL     1       3.049   8.244  10.428  1.00  0.00     0.084 C 
HETATM    5  C5  UNL     1       3.695   6.897  10.607  1.00  0.00     0.149 C 
HETATM    6  O1  UNL     1       4.878   6.694  10.350  1.00  0.00    -0.293 OA
HETATM    7  C6  UNL     1       2.842   5.765  11.039  1.00  0.00     0.053 C 
HETATM    8  C7  UNL     1       1.543   5.929  11.343  1.00  0.00    -0.067 C 
HETATM    9  C8  UNL     1       0.694   4.714  11.642  1.00  0.00     0.035 C 
HETATM   10  C9  UNL     1      -0.115   4.884  12.919  1.00  0.00     0.010 C 
HETATM   11  C10 UNL     1      -0.976   6.154  12.859  1.00  0.00     0.003 C 
HETATM   12  C11 UNL     1      -0.067   7.401  12.647  1.00  0.00     0.072 C 
HETATM   13  C12 UNL     1      -0.910   8.688  12.763  1.00  0.00     0.133 C 
HETATM   14  O2  UNL     1      -0.863   9.607  11.947  1.00  0.00    -0.297 OA
HETATM   15  C13 UNL     1      -1.789   8.820  14.001  1.00  0.00     0.091 C 
HETATM   16  C14 UNL     1      -2.700   7.591  14.117  1.00  0.00     0.005 C 
HETATM   17  C15 UNL     1      -3.702   7.592  12.931  1.00  0.00     0.019 C 
HETATM   18  C16 UNL     1      -1.788   6.338  14.149  1.00  0.00     0.002 C 
HETATM   19  C17 UNL     1      -2.730   5.219  14.579  1.00  0.00     0.009 C 
HETATM   20  C18 UNL     1      -3.740   5.897  15.528  1.00  0.00     0.047 C 
HETATM   21  C19 UNL     1      -3.445   7.412  15.472  1.00  0.00     0.128 C 
ENDROOT
BRANCH  21  22
HETATM   22  O3  UNL     1      -2.530   7.697  16.549  1.00  0.00    -0.381 OA
HETATM   23  H25 UNL     1      -2.622   8.653  16.749  1.00  0.00     0.211 HD
ENDBRANCH  21  22
BRANCH  21  24
HETATM   24  C20 UNL     1      -4.635   8.370  15.669  1.00  0.00     0.185 C 
HETATM   25  O4  UNL     1      -4.423   9.590  15.644  1.00  0.00    -0.292 OA
BRANCH  24  26
HETATM   26  C21 UNL     1      -6.032   7.796  15.859  1.00  0.00     0.260 C 
BRANCH  26  27
HETATM   27  O5  UNL     1      -6.813   7.903  14.669  1.00  0.00    -0.314 OA
BRANCH  27  28
HETATM   28  C22 UNL     1      -7.610   6.834  14.419  1.00  0.00     0.259 C 
HETATM   29  O6  UNL     1      -8.527   6.472  15.150  1.00  0.00    -0.265 OA
BRANCH  28  30
HETATM   30  C23 UNL     1      -7.244   6.100  13.151  1.00  0.00     0.120 C 
BRANCH  30  31
HETATM   31  C24 UNL     1      -8.283   5.106  12.646  1.00  0.00     0.112 C 
BRANCH  31  32
HETATM   32  C25 UNL     1      -7.735   3.693  12.574  1.00  0.00     0.218 C 
HETATM   33  O7  UNL     1      -8.246   2.738  13.149  1.00  0.00    -0.274 OA
HETATM   34  N1  UNL     1      -6.589   3.606  11.814  1.00  0.00    -0.356 N 
HETATM   35  H32 UNL     1      -6.334   4.390  11.231  1.00  0.00     0.162 HD
BRANCH  34  36
HETATM   36  C26 UNL     1      -5.974   2.329  11.520  1.00  0.00     0.168 C 
BRANCH  36  37
HETATM   37  C27 UNL     1      -4.515   2.547  11.260  1.00  0.00     0.000 A 
HETATM   38  C28 UNL     1      -3.898   3.630  10.659  1.00  0.00     0.017 A 
HETATM   39  C29 UNL     1      -2.483   3.472  10.577  1.00  0.00     0.008 A 
HETATM   40  C30 UNL     1      -2.065   2.282  11.129  1.00  0.00     0.050 A 
HETATM   41  S1  UNL     1      -3.370   1.362  11.737  1.00  0.00    -0.105 SA
ENDBRANCH  36  37
ENDBRANCH  34  36
ENDBRANCH  31  32
ENDBRANCH  30  31
ENDBRANCH  28  30
ENDBRANCH  27  28
ENDBRANCH  26  27
ENDBRANCH  24  26
ENDBRANCH  21  24
TORSDOF 10
ENDMDL
MODEL 5
REMARK minimizedAffinity -8.08554459
REMARK CNNscore 0.422592193
REMARK CNNaffinity 6.85120201
REMARK  10 active torsions:
REMARK  status: ('A' for Active; 'I' for Inactive)
REMARK    1  A    between atoms: C19_21  and  O3_22 
REMARK    2  A    between atoms: C19_21  and  C20_23 
REMARK    3  A    between atoms: C20_23  and  C21_25 
REMARK    4  A    between atoms: C21_25  and  O5_26 
REMARK    5  A    between atoms: O5_26  and  C22_27 
REMARK    6  A    between atoms: C22_27  and  C23_29 
REMARK    7  A    between atoms: C23_29  and  C24_30 
REMARK    8  A    between atoms: C24_30  and  C25_31 
REMARK       I    between atoms: C25_31  and  N1_33 
REMARK    9  A    between atoms: N1_33  and  C26_34 
REMARK   10  A    between atoms: C26_34  and  C27_35 
ROOT
HETATM    1  C1  UNL     1      -2.071   4.575  10.257  1.00  0.00     0.021 C 
HETATM    2  C2  UNL     1      -1.999   3.811  11.597  1.00  0.00    -0.009 C 
HETATM    3  C3  UNL     1      -0.563   3.245  11.811  1.00  0.00     0.022 C 
HETATM    4  C4  UNL     1      -0.207   2.097  10.876  1.00  0.00     0.084 C 
HETATM    5  C5  UNL     1      -1.225   0.994  10.983  1.00  0.00     0.149 C 
HETATM    6  O1  UNL     1      -0.945  -0.184  10.780  1.00  0.00    -0.293 OA
HETATM    7  C6  UNL     1      -2.630   1.366  11.269  1.00  0.00     0.053 C 
HETATM    8  C7  UNL     1      -2.995   2.638  11.509  1.00  0.00    -0.067 C 
HETATM    9  C8  UNL     1      -4.462   2.971  11.656  1.00  0.00     0.035 C 
HETATM   10  C9  UNL     1      -4.733   3.816  12.893  1.00  0.00     0.010 C 
HETATM   11  C10 UNL     1      -3.878   5.090  12.886  1.00  0.00     0.003 C 
HETATM   12  C11 UNL     1      -2.367   4.715  12.831  1.00  0.00     0.072 C 
HETATM   13  C12 UNL     1      -1.506   5.985  13.002  1.00  0.00     0.133 C 
HETATM   14  O2  UNL     1      -0.561   6.268  12.268  1.00  0.00    -0.297 OA
HETATM   15  C13 UNL     1      -1.835   6.878  14.193  1.00  0.00     0.091 C 
HETATM   16  C14 UNL     1      -3.321   7.259  14.154  1.00  0.00     0.005 C 
HETATM   17  C15 UNL     1      -3.578   8.159  12.915  1.00  0.00     0.019 C 
HETATM   18  C16 UNL     1      -4.138   5.942  14.136  1.00  0.00     0.002 C 
HETATM   19  C17 UNL     1      -5.565   6.402  14.417  1.00  0.00     0.009 C 
HETATM   20  C18 UNL     1      -5.411   7.616  15.357  1.00  0.00     0.047 C 
HETATM   21  C19 UNL     1      -3.898   7.913  15.443  1.00  0.00     0.128 C 
ENDROOT
BRANCH  21  22
HETATM   22  O3  UNL     1      -3.398   7.199  16.592  1.00  0.00    -0.381 OA
HETATM   23  H25 UNL     1      -2.571   7.651  16.864  1.00  0.00     0.211 HD
ENDBRANCH  21  22
BRANCH  21  24
HETATM   24  C20 UNL     1      -3.477   9.381  15.648  1.00  0.00     0.185 C 
HETATM   25  O4  UNL     1      -3.710  10.195  14.744  1.00  0.00    -0.292 OA
BRANCH  24  26
HETATM   26  C21 UNL     1      -2.818   9.793  16.957  1.00  0.00     0.260 C 
BRANCH  26  27
HETATM   27  O5  UNL     1      -1.409   9.565  16.933  1.00  0.00    -0.314 OA
BRANCH  27  28
HETATM   28  C22 UNL     1      -0.667  10.659  16.625  1.00  0.00     0.259 C 
HETATM   29  O6  UNL     1       0.178  10.692  15.736  1.00  0.00    -0.265 OA
BRANCH  28  30
HETATM   30  C23 UNL     1      -0.963  11.848  17.509  1.00  0.00     0.120 C 
BRANCH  30  31
HETATM   31  C24 UNL     1      -0.623  11.668  18.984  1.00  0.00     0.112 C 
BRANCH  31  32
HETATM   32  C25 UNL     1       0.875  11.648  19.227  1.00  0.00     0.218 C 
HETATM   33  O7  UNL     1       1.606  12.612  19.026  1.00  0.00    -0.274 OA
HETATM   34  N1  UNL     1       1.325  10.425  19.673  1.00  0.00    -0.356 N 
HETATM   35  H32 UNL     1       0.647   9.744  19.983  1.00  0.00     0.162 HD
BRANCH  34  36
HETATM   36  C26 UNL     1       2.700  10.229  20.077  1.00  0.00     0.168 C 
BRANCH  36  37
HETATM   37  C27 UNL     1       2.730   9.912  21.541  1.00  0.00     0.000 A 
HETATM   38  C28 UNL     1       2.461   8.709  22.170  1.00  0.00     0.017 A 
HETATM   39  C29 UNL     1       2.584   8.798  23.587  1.00  0.00     0.008 A 
HETATM   40  C30 UNL     1       2.956  10.060  23.994  1.00  0.00     0.050 A 
HETATM   41  S1  UNL     1       3.152  11.129  22.675  1.00  0.00    -0.105 SA
ENDBRANCH  36  37
ENDBRANCH  34  36
ENDBRANCH  31  32
ENDBRANCH  30  31
ENDBRANCH  28  30
ENDBRANCH  27  28
ENDBRANCH  26  27
ENDBRANCH  24  26
ENDBRANCH  21  24
TORSDOF 10
ENDMDL
MODEL 6
REMARK minimizedAffinity -9.38518524
REMARK CNNscore 0.410690278
REMARK CNNaffinity 7.06681442
REMARK  10 active torsions:
REMARK  status: ('A' for Active; 'I' for Inactive)
REMARK    1  A    between atoms: C19_21  and  O3_22 
REMARK    2  A    between atoms: C19_21  and  C20_23 
REMARK    3  A    between atoms: C20_23  and  C21_25 
REMARK    4  A    between atoms: C21_25  and  O5_26 
REMARK    5  A    between atoms: O5_26  and  C22_27 
REMARK    6  A    between atoms: C22_27  and  C23_29 
REMARK    7  A    between atoms: C23_29  and  C24_30 
REMARK    8  A    between atoms: C24_30  and  C25_31 
REMARK       I    between atoms: C25_31  and  N1_33 
REMARK    9  A    between atoms: N1_33  and  C26_34 
REMARK   10  A    between atoms: C26_34  and  C27_35 
ROOT
HETATM    1  C1  UNL     1      -6.298   5.722  15.911  1.00  0.00     0.021 C 
HETATM    2  C2  UNL     1      -6.411   6.336  14.498  1.00  0.00    -0.009 C 
HETATM    3  C3  UNL     1      -7.165   7.699  14.569  1.00  0.00     0.022 C 
HETATM    4  C4  UNL     1      -8.650   7.566  14.877  1.00  0.00     0.084 C 
HETATM    5  C5  UNL     1      -9.315   6.650  13.885  1.00  0.00     0.149 C 
HETATM    6  O1  UNL     1     -10.496   6.766  13.571  1.00  0.00    -0.293 OA
HETATM    7  C6  UNL     1      -8.526   5.525  13.334  1.00  0.00     0.053 C 
HETATM    8  C7  UNL     1      -7.226   5.353  13.635  1.00  0.00    -0.067 C 
HETATM    9  C8  UNL     1      -6.514   4.110  13.153  1.00  0.00     0.035 C 
HETATM   10  C9  UNL     1      -5.185   4.438  12.487  1.00  0.00     0.010 C 
HETATM   11  C10 UNL     1      -4.287   5.257  13.424  1.00  0.00     0.003 C 
HETATM   12  C11 UNL     1      -5.008   6.578  13.829  1.00  0.00     0.072 C 
HETATM   13  C12 UNL     1      -4.040   7.479  14.624  1.00  0.00     0.133 C 
HETATM   14  O2  UNL     1      -4.337   8.023  15.686  1.00  0.00    -0.297 OA
HETATM   15  C13 UNL     1      -2.675   7.736  13.998  1.00  0.00     0.091 C 
HETATM   16  C14 UNL     1      -1.995   6.398  13.681  1.00  0.00     0.005 C 
HETATM   17  C15 UNL     1      -1.676   5.665  15.012  1.00  0.00     0.019 C 
HETATM   18  C16 UNL     1      -2.949   5.600  12.755  1.00  0.00     0.002 C 
HETATM   19  C17 UNL     1      -2.080   4.457  12.243  1.00  0.00     0.009 C 
HETATM   20  C18 UNL     1      -0.660   5.053  12.147  1.00  0.00     0.047 C 
HETATM   21  C19 UNL     1      -0.734   6.464  12.769  1.00  0.00     0.128 C 
ENDROOT
BRANCH  21  22
HETATM   22  O3  UNL     1      -0.990   7.383  11.688  1.00  0.00    -0.381 OA
HETATM   23  H25 UNL     1      -0.683   8.264  11.990  1.00  0.00     0.211 HD
ENDBRANCH  21  22
BRANCH  21  24
HETATM   24  C20 UNL     1       0.528   6.992  13.477  1.00  0.00     0.185 C 
HETATM   25  O4  UNL     1       1.248   6.187  14.081  1.00  0.00    -0.292 OA
BRANCH  24  26
HETATM   26  C21 UNL     1       0.868   8.474  13.389  1.00  0.00     0.260 C 
BRANCH  26  27
HETATM   27  O5  UNL     1       1.815   8.737  12.354  1.00  0.00    -0.314 OA
BRANCH  27  28
HETATM   28  C22 UNL     1       3.048   9.093  12.795  1.00  0.00     0.259 C 
HETATM   29  O6  UNL     1       3.482  10.241  12.776  1.00  0.00    -0.265 OA
BRANCH  28  30
HETATM   30  C23 UNL     1       3.862   7.924  13.298  1.00  0.00     0.120 C 
BRANCH  30  31
HETATM   31  C24 UNL     1       5.122   7.612  12.499  1.00  0.00     0.112 C 
BRANCH  31  32
HETATM   32  C25 UNL     1       4.828   6.753  11.283  1.00  0.00     0.218 C 
HETATM   33  O7  UNL     1       5.656   6.508  10.412  1.00  0.00    -0.274 OA
HETATM   34  N1  UNL     1       3.528   6.299  11.253  1.00  0.00    -0.356 N 
HETATM   35  H32 UNL     1       2.965   6.391  12.086  1.00  0.00     0.162 HD
BRANCH  34  36
HETATM   36  C26 UNL     1       3.076   5.368  10.243  1.00  0.00     0.168 C 
BRANCH  36  37
HETATM   37  C27 UNL     1       2.565   6.144   9.068  1.00  0.00     0.000 A 
HETATM   38  C28 UNL     1       2.727   5.877   7.720  1.00  0.00     0.017 A 
HETATM   39  C29 UNL     1       2.101   6.855   6.893  1.00  0.00     0.008 A 
HETATM   40  C30 UNL     1       1.470   7.829   7.635  1.00  0.00     0.050 A 
HETATM   41  S1  UNL     1       1.636   7.566   9.315  1.00  0.00    -0.105 SA
ENDBRANCH  36  37
ENDBRANCH  34  36
ENDBRANCH  31  32
ENDBRANCH  30  31
ENDBRANCH  28  30
ENDBRANCH  27  28
ENDBRANCH  26  27
ENDBRANCH  24  26
ENDBRANCH  21  24
TORSDOF 10
ENDMDL
MODEL 7
REMARK minimizedAffinity -7.50417662
REMARK CNNscore 0.350491703
REMARK CNNaffinity 6.96569967
REMARK  10 active torsions:
REMARK  status: ('A' for Active; 'I' for Inactive)
REMARK    1  A    between atoms: C19_21  and  O3_22 
REMARK    2  A    between atoms: C19_21  and  C20_23 
REMARK    3  A    between atoms: C20_23  and  C21_25 
REMARK    4  A    between atoms: C21_25  and  O5_26 
REMARK    5  A    between atoms: O5_26  and  C22_27 
REMARK    6  A    between atoms: C22_27  and  C23_29 
REMARK    7  A    between atoms: C23_29  and  C24_30 
REMARK    8  A    between atoms: C24_30  and  C25_31 
REMARK       I    between atoms: C25_31  and  N1_33 
REMARK    9  A    between atoms: N1_33  and  C26_34 
REMARK   10  A    between atoms: C26_34  and  C27_35 
ROOT
HETATM    1  C1  UNL     1     -10.805   7.923  12.661  1.00  0.00     0.021 C 
HETATM    2  C2  UNL     1     -10.764   7.544  14.158  1.00  0.00    -0.009 C 
HETATM    3  C3  UNL     1     -11.699   6.326  14.424  1.00  0.00     0.022 C 
HETATM    4  C4  UNL     1     -13.183   6.652  14.314  1.00  0.00     0.084 C 
HETATM    5  C5  UNL     1     -13.541   7.796  15.223  1.00  0.00     0.149 C 
HETATM    6  O1  UNL     1     -14.658   7.919  15.719  1.00  0.00    -0.293 OA
HETATM    7  C6  UNL     1     -12.523   8.845  15.460  1.00  0.00     0.053 C 
HETATM    8  C7  UNL     1     -11.281   8.760  14.952  1.00  0.00    -0.067 C 
HETATM    9  C8  UNL     1     -10.334   9.927  15.113  1.00  0.00     0.035 C 
HETATM   10  C9  UNL     1      -8.971   9.487  15.627  1.00  0.00     0.010 C 
HETATM   11  C10 UNL     1      -8.363   8.408  14.722  1.00  0.00     0.003 C 
HETATM   12  C11 UNL     1      -9.316   7.177  14.650  1.00  0.00     0.072 C 
HETATM   13  C12 UNL     1      -8.628   6.026  13.886  1.00  0.00     0.133 C 
HETATM   14  O2  UNL     1      -9.170   5.391  12.983  1.00  0.00    -0.297 OA
HETATM   15  C13 UNL     1      -7.226   5.643  14.344  1.00  0.00     0.091 C 
HETATM   16  C14 UNL     1      -6.325   6.885  14.333  1.00  0.00     0.005 C 
HETATM   17  C15 UNL     1      -6.135   7.358  12.867  1.00  0.00     0.019 C 
HETATM   18  C16 UNL     1      -6.992   7.951  15.240  1.00  0.00     0.002 C 
HETATM   19  C17 UNL     1      -5.901   9.000  15.424  1.00  0.00     0.009 C 
HETATM   20  C18 UNL     1      -4.580   8.201  15.414  1.00  0.00     0.047 C 
HETATM   21  C19 UNL     1      -4.951   6.746  15.053  1.00  0.00     0.128 C 
ENDROOT
BRANCH  21  22
HETATM   22  O3  UNL     1      -5.147   6.046  16.298  1.00  0.00    -0.381 OA
HETATM   23  H25 UNL     1      -5.019   5.092  16.106  1.00  0.00     0.211 HD
ENDBRANCH  21  22
BRANCH  21  24
HETATM   24  C20 UNL     1      -3.910   5.925  14.270  1.00  0.00     0.185 C 
HETATM   25  O4  UNL     1      -4.221   5.479  13.159  1.00  0.00    -0.292 OA
BRANCH  24  26
HETATM   26  C21 UNL     1      -2.525   5.713  14.868  1.00  0.00     0.260 C 
BRANCH  26  27
HETATM   27  O5  UNL     1      -1.599   6.703  14.418  1.00  0.00    -0.314 OA
BRANCH  27  28
HETATM   28  C22 UNL     1      -0.468   6.203  13.860  1.00  0.00     0.259 C 
HETATM   29  O6  UNL     1       0.659   6.638  14.078  1.00  0.00    -0.265 OA
BRANCH  28  30
HETATM   30  C23 UNL     1      -0.727   5.059  12.909  1.00  0.00     0.120 C 
BRANCH  30  31
HETATM   31  C24 UNL     1       0.514   4.436  12.281  1.00  0.00     0.112 C 
BRANCH  31  32
HETATM   32  C25 UNL     1       1.143   5.342  11.238  1.00  0.00     0.218 C 
HETATM   33  O7  UNL     1       0.543   5.757  10.252  1.00  0.00    -0.274 OA
HETATM   34  N1  UNL     1       2.464   5.625  11.507  1.00  0.00    -0.356 N 
HETATM   35  H32 UNL     1       2.831   5.398  12.420  1.00  0.00     0.162 HD
BRANCH  34  36
HETATM   36  C26 UNL     1       3.213   6.565  10.702  1.00  0.00     0.168 C 
BRANCH  36  37
HETATM   37  C27 UNL     1       4.534   6.817  11.362  1.00  0.00     0.000 A 
HETATM   38  C28 UNL     1       5.752   6.207  11.116  1.00  0.00     0.017 A 
HETATM   39  C29 UNL     1       6.789   6.708  11.956  1.00  0.00     0.008 A 
HETATM   40  C30 UNL     1       6.334   7.691  12.806  1.00  0.00     0.050 A 
HETATM   41  S1  UNL     1       4.668   8.005  12.593  1.00  0.00    -0.105 SA
ENDBRANCH  36  37
ENDBRANCH  34  36
ENDBRANCH  31  32
ENDBRANCH  30  31
ENDBRANCH  28  30
ENDBRANCH  27  28
ENDBRANCH  26  27
ENDBRANCH  24  26
ENDBRANCH  21  24
TORSDOF 10
ENDMDL
MODEL 8
REMARK minimizedAffinity -8.9854517
REMARK CNNscore 0.288443804
REMARK CNNaffinity 7.1759553
REMARK  10 active torsions:
REMARK  status: ('A' for Active; 'I' for Inactive)
REMARK    1  A    between atoms: C19_21  and  O3_22 
REMARK    2  A    between atoms: C19_21  and  C20_23 
REMARK    3  A    between atoms: C20_23  and  C21_25 
REMARK    4  A    between atoms: C21_25  and  O5_26 
REMARK    5  A    between atoms: O5_26  and  C22_27 
REMARK    6  A    between atoms: C22_27  and  C23_29 
REMARK    7  A    between atoms: C23_29  and  C24_30 
REMARK    8  A    between atoms: C24_30  and  C25_31 
REMARK       I    between atoms: C25_31  and  N1_33 
REMARK    9  A    between atoms: N1_33  and  C26_34 
REMARK   10  A    between atoms: C26_34  and  C27_35 
ROOT
HETATM    1  C1  UNL     1      -6.659   6.295  16.217  1.00  0.00     0.021 C 
HETATM    2  C2  UNL     1      -6.836   6.815  14.773  1.00  0.00    -0.009 C 
HETATM    3  C3  UNL     1      -7.363   8.282  14.797  1.00  0.00     0.022 C 
HETATM    4  C4  UNL     1      -8.807   8.410  15.262  1.00  0.00     0.084 C 
HETATM    5  C5  UNL     1      -9.710   7.542  14.428  1.00  0.00     0.149 C 
HETATM    6  O1  UNL     1     -10.888   7.822  14.224  1.00  0.00    -0.293 OA
HETATM    7  C6  UNL     1      -9.166   6.269  13.904  1.00  0.00     0.053 C 
HETATM    8  C7  UNL     1      -7.882   5.914  14.088  1.00  0.00    -0.067 C 
HETATM    9  C8  UNL     1      -7.423   4.542  13.650  1.00  0.00     0.035 C 
HETATM   10  C9  UNL     1      -6.144   4.604  12.828  1.00  0.00     0.010 C 
HETATM   11  C10 UNL     1      -5.034   5.336  13.594  1.00  0.00     0.003 C 
HETATM   12  C11 UNL     1      -5.497   6.780  13.949  1.00  0.00     0.072 C 
HETATM   13  C12 UNL     1      -4.321   7.571  14.560  1.00  0.00     0.133 C 
HETATM   14  O2  UNL     1      -4.411   8.232  15.594  1.00  0.00    -0.297 OA
HETATM   15  C13 UNL     1      -3.012   7.561  13.780  1.00  0.00     0.091 C 
HETATM   16  C14 UNL     1      -2.581   6.112  13.518  1.00  0.00     0.005 C 
HETATM   17  C15 UNL     1      -2.229   5.437  14.871  1.00  0.00     0.019 C 
HETATM   18  C16 UNL     1      -3.743   5.411  12.767  1.00  0.00     0.002 C 
HETATM   19  C17 UNL     1      -3.119   4.110  12.275  1.00  0.00     0.009 C 
HETATM   20  C18 UNL     1      -1.645   4.464  11.985  1.00  0.00     0.047 C 
HETATM   21  C19 UNL     1      -1.436   5.911  12.483  1.00  0.00     0.128 C 
ENDROOT
BRANCH  21  22
HETATM   22  O3  UNL     1      -1.670   6.777  11.354  1.00  0.00    -0.381 OA
HETATM   23  H25 UNL     1      -1.201   7.618  11.545  1.00  0.00     0.211 HD
ENDBRANCH  21  22
BRANCH  21  24
HETATM   24  C20 UNL     1      -0.037   6.280  13.011  1.00  0.00     0.185 C 
HETATM   25  O4  UNL     1       0.636   5.404  13.571  1.00  0.00    -0.292 OA
BRANCH  24  26
HETATM   26  C21 UNL     1       0.488   7.695  12.806  1.00  0.00     0.260 C 
BRANCH  26  27
HETATM   27  O5  UNL     1       1.461   7.750  11.762  1.00  0.00    -0.314 OA
BRANCH  27  28
HETATM   28  C22 UNL     1       0.942   7.892  10.516  1.00  0.00     0.259 C 
HETATM   29  O6  UNL     1       0.163   8.783  10.191  1.00  0.00    -0.265 OA
BRANCH  28  30
HETATM   30  C23 UNL     1       1.400   6.822   9.554  1.00  0.00     0.120 C 
BRANCH  30  31
HETATM   31  C24 UNL     1       1.971   7.329   8.234  1.00  0.00     0.112 C 
BRANCH  31  32
HETATM   32  C25 UNL     1       3.139   8.276   8.444  1.00  0.00     0.218 C 
HETATM   33  O7  UNL     1       3.390   9.216   7.697  1.00  0.00    -0.274 OA
HETATM   34  N1  UNL     1       3.897   7.949   9.546  1.00  0.00    -0.356 N 
HETATM   35  H32 UNL     1       3.528   7.280  10.206  1.00  0.00     0.162 HD
BRANCH  34  36
HETATM   36  C26 UNL     1       4.986   8.792   9.990  1.00  0.00     0.168 C 
BRANCH  36  37
HETATM   37  C27 UNL     1       5.458   8.305  11.325  1.00  0.00     0.000 A 
HETATM   38  C28 UNL     1       5.141   8.788  12.583  1.00  0.00     0.017 A 
HETATM   39  C29 UNL     1       5.799   8.067  13.622  1.00  0.00     0.008 A 
HETATM   40  C30 UNL     1       6.585   7.050  13.128  1.00  0.00     0.050 A 
HETATM   41  S1  UNL     1       6.532   6.969  11.422  1.00  0.00    -0.105 SA
ENDBRANCH  36  37
ENDBRANCH  34  36
ENDBRANCH  31  32
ENDBRANCH  30  31
ENDBRANCH  28  30
ENDBRANCH  27  28
ENDBRANCH  26  27
ENDBRANCH  24  26
ENDBRANCH  21  24
TORSDOF 10
ENDMDL
MODEL 9
REMARK minimizedAffinity -8.01466084
REMARK CNNscore 0.287587583
REMARK CNNaffinity 6.21739578
REMARK  10 active torsions:
REMARK  status: ('A' for Active; 'I' for Inactive)
REMARK    1  A    between atoms: C19_21  and  O3_22 
REMARK    2  A    between atoms: C19_21  and  C20_23 
REMARK    3  A    between atoms: C20_23  and  C21_25 
REMARK    4  A    between atoms: C21_25  and  O5_26 
REMARK    5  A    between atoms: O5_26  and  C22_27 
REMARK    6  A    between atoms: C22_27  and  C23_29 
REMARK    7  A    between atoms: C23_29  and  C24_30 
REMARK    8  A    between atoms: C24_30  and  C25_31 
REMARK       I    between atoms: C25_31  and  N1_33 
REMARK    9  A    between atoms: N1_33  and  C26_34 
REMARK   10  A    between atoms: C26_34  and  C27_35 
ROOT
HETATM    1  C1  UNL     1      -2.178   7.393  12.594  1.00  0.00     0.021 C 
HETATM    2  C2  UNL     1      -2.966   6.827  13.795  1.00  0.00    -0.009 C 
HETATM    3  C3  UNL     1      -2.462   5.391  14.133  1.00  0.00     0.022 C 
HETATM    4  C4  UNL     1      -2.847   4.344  13.096  1.00  0.00     0.084 C 
HETATM    5  C5  UNL     1      -4.336   4.339  12.877  1.00  0.00     0.149 C 
HETATM    6  O1  UNL     1      -4.949   3.330  12.539  1.00  0.00    -0.293 OA
HETATM    7  C6  UNL     1      -5.064   5.622  13.003  1.00  0.00     0.053 C 
HETATM    8  C7  UNL     1      -4.448   6.757  13.378  1.00  0.00    -0.067 C 
HETATM    9  C8  UNL     1      -5.215   8.059  13.353  1.00  0.00     0.035 C 
HETATM   10  C9  UNL     1      -5.057   8.838  14.651  1.00  0.00     0.010 C 
HETATM   11  C10 UNL     1      -3.576   9.080  14.969  1.00  0.00     0.003 C 
HETATM   12  C11 UNL     1      -2.828   7.718  15.084  1.00  0.00     0.072 C 
HETATM   13  C12 UNL     1      -1.385   7.954  15.577  1.00  0.00     0.133 C 
HETATM   14  O2  UNL     1      -0.396   7.451  15.046  1.00  0.00    -0.297 OA
HETATM   15  C13 UNL     1      -1.220   8.808  16.827  1.00  0.00     0.091 C 
HETATM   16  C14 UNL     1      -1.925  10.156  16.625  1.00  0.00     0.005 C 
HETATM   17  C15 UNL     1      -1.186  10.951  15.515  1.00  0.00     0.019 C 
HETATM   18  C16 UNL     1      -3.407   9.857  16.282  1.00  0.00     0.002 C 
HETATM   19  C17 UNL     1      -4.087  11.216  16.413  1.00  0.00     0.009 C 
HETATM   20  C18 UNL     1      -3.318  11.935  17.542  1.00  0.00     0.047 C 
HETATM   21  C19 UNL     1      -2.118  11.030  17.899  1.00  0.00     0.128 C 
ENDROOT
BRANCH  21  22
HETATM   22  O3  UNL     1      -2.544  10.184  18.985  1.00  0.00    -0.381 OA
HETATM   23  H25 UNL     1      -1.730   9.887  19.445  1.00  0.00     0.211 HD
ENDBRANCH  21  22
BRANCH  21  24
HETATM   24  C20 UNL     1      -0.832  11.723  18.388  1.00  0.00     0.185 C 
HETATM   25  O4  UNL     1      -0.531  12.823  17.905  1.00  0.00    -0.292 OA
BRANCH  24  26
HETATM   26  C21 UNL     1       0.012  11.055  19.465  1.00  0.00     0.260 C 
BRANCH  26  27
HETATM   27  O5  UNL     1       1.172  10.432  18.914  1.00  0.00    -0.314 OA
BRANCH  27  28
HETATM   28  C22 UNL     1       2.256  10.439  19.731  1.00  0.00     0.259 C 
HETATM   29  O6  UNL     1       3.391  10.734  19.367  1.00  0.00    -0.265 OA
BRANCH  28  30
HETATM   30  C23 UNL     1       1.940  10.021  21.147  1.00  0.00     0.120 C 
BRANCH  30  31
HETATM   31  C24 UNL     1       3.136   9.576  21.981  1.00  0.00     0.112 C 
BRANCH  31  32
HETATM   32  C25 UNL     1       3.741  10.723  22.769  1.00  0.00     0.218 C 
HETATM   33  O7  UNL     1       3.210  11.222  23.755  1.00  0.00    -0.274 OA
HETATM   34  N1  UNL     1       4.938  11.157  22.241  1.00  0.00    -0.356 N 
HETATM   35  H32 UNL     1       5.395  10.587  21.544  1.00  0.00     0.162 HD
BRANCH  34  36
HETATM   36  C26 UNL     1       5.737  12.161  22.909  1.00  0.00     0.168 C 
BRANCH  36  37
HETATM   37  C27 UNL     1       7.051  12.279  22.200  1.00  0.00     0.000 A 
HETATM   38  C28 UNL     1       7.291  12.528  20.860  1.00  0.00     0.017 A 
HETATM   39  C29 UNL     1       8.683  12.558  20.554  1.00  0.00     0.008 A 
HETATM   40  C30 UNL     1       9.461  12.345  21.670  1.00  0.00     0.050 A 
HETATM   41  S1  UNL     1       8.518  12.107  23.075  1.00  0.00    -0.105 SA
ENDBRANCH  36  37
ENDBRANCH  34  36
ENDBRANCH  31  32
ENDBRANCH  30  31
ENDBRANCH  28  30
ENDBRANCH  27  28
ENDBRANCH  26  27
ENDBRANCH  24  26
ENDBRANCH  21  24
TORSDOF 10
ENDMDL
