MODEL 1
REMARK minimizedAffinity -8.18400192
REMARK CNNscore 0.705827177
REMARK CNNaffinity 7.3466506
REMARK  10 active torsions:
REMARK  status: ('A' for Active; 'I' for Inactive)
REMARK    1  A    between atoms: C3_3  and  O1_4 
REMARK    2  A    between atoms: N1_14  and  O2_16 
REMARK    3  A    between atoms: O2_16  and  C13_17 
REMARK    4  A    between atoms: C13_17  and  C14_18 
REMARK       I    between atoms: C14_18  and  N2_20 
REMARK    5  A    between atoms: N2_20  and  C15_21 
REMARK    6  A    between atoms: C15_21  and  C16_22 
REMARK       I    between atoms: C16_22  and  N3_24 
REMARK    7  A    between atoms: N3_24  and  C17_25 
REMARK    8  A    between atoms: C17_25  and  C18_26 
REMARK    9  A    between atoms: C17_25  and  C19_29 
REMARK   10  A    between atoms: C18_26  and  O6_28 
ROOT
HETATM    1  C1  UNL     1      -3.578   6.540  15.659  1.00  0.00     0.015 C 
HETATM    2  C2  UNL     1      -4.684   6.247  15.293  1.00  0.00    -0.078 C 
HETATM    3  C3  UNL     1      -6.041   5.857  14.842  1.00  0.00     0.128 C 
HETATM    4  C4  UNL     1      -6.899   5.515  16.061  1.00  0.00     0.052 C 
HETATM    5  C5  UNL     1      -7.428   6.858  16.544  1.00  0.00     0.010 C 
HETATM    6  C6  UNL     1      -7.523   7.772  15.303  1.00  0.00     0.002 C 
HETATM    7  C7  UNL     1      -8.954   8.227  14.942  1.00  0.00    -0.004 C 
HETATM    8  C8  UNL     1      -9.576   9.105  16.036  1.00  0.00     0.010 C 
HETATM    9  C9  UNL     1     -10.938   9.631  15.598  1.00  0.00     0.035 C 
HETATM   10  C10 UNL     1     -11.875   8.521  15.181  1.00  0.00    -0.069 C 
HETATM   11  C11 UNL     1     -13.129   8.497  15.668  1.00  0.00     0.030 C 
HETATM   12  C12 UNL     1     -14.145   7.526  15.189  1.00  0.00     0.032 C 
HETATM   13  N1  UNL     1     -15.343   7.604  15.696  1.00  0.00    -0.271 N 
ATOM     14  H1  UNL     1     -15.607   8.251  16.440  1.00  0.00     0.194 HD
HETATM   15  C22 UNL     1     -13.743   6.568  14.089  1.00  0.00     0.060 C 
HETATM   16  C23 UNL     1     -12.258   6.240  14.169  1.00  0.00     0.020 C 
HETATM   17  C24 UNL     1     -11.333   7.492  14.179  1.00  0.00    -0.016 C 
HETATM   18  C25 UNL     1     -11.332   8.141  12.776  1.00  0.00     0.020 C 
HETATM   19  C26 UNL     1      -9.888   7.032  14.619  1.00  0.00     0.002 C 
HETATM   20  C27 UNL     1      -9.217   6.019  13.663  1.00  0.00     0.007 C 
HETATM   21  C28 UNL     1      -7.885   6.495  13.090  1.00  0.00     0.014 C 
HETATM   22  C29 UNL     1      -6.836   7.004  14.129  1.00  0.00     0.003 C 
HETATM   23  C30 UNL     1      -5.905   7.956  13.336  1.00  0.00     0.020 C 
ENDROOT
BRANCH   3  24
HETATM   24  O1  UNL     1      -5.912   4.710  14.014  1.00  0.00    -0.377 OA
HETATM   25  H2  UNL     1      -5.363   4.070  14.498  1.00  0.00     0.211 HD
ENDBRANCH   3  24
BRANCH  13  26
HETATM   26  O2  UNL     1     -16.224   6.693  15.098  1.00  0.00    -0.271 OA
BRANCH  26  27
HETATM   27  C13 UNL     1     -16.437   5.608  15.995  1.00  0.00     0.303 C 
BRANCH  27  28
HETATM   28  C14 UNL     1     -16.566   4.276  15.259  1.00  0.00     0.244 C 
HETATM   29  O3  UNL     1     -16.493   4.194  14.034  1.00  0.00    -0.271 OA
HETATM   30  N2  UNL     1     -16.737   3.174  16.070  1.00  0.00    -0.350 N 
HETATM   31  H16 UNL     1     -17.104   3.367  16.997  1.00  0.00     0.163 HD
BRANCH  30  32
HETATM   32  C15 UNL     1     -17.018   1.873  15.500  1.00  0.00     0.225 C 
BRANCH  32  33
HETATM   33  C16 UNL     1     -16.096   0.806  16.097  1.00  0.00     0.236 C 
HETATM   34  O4  UNL     1     -14.916   1.023  16.370  1.00  0.00    -0.272 OA
HETATM   35  N3  UNL     1     -16.689  -0.431  16.228  1.00  0.00    -0.345 N 
HETATM   36  H19 UNL     1     -17.705  -0.465  16.263  1.00  0.00     0.163 HD
BRANCH  35  37
HETATM   37  C17 UNL     1     -16.016  -1.557  16.883  1.00  0.00     0.185 C 
BRANCH  37  38
HETATM   38  C18 UNL     1     -16.833  -2.016  18.101  1.00  0.00     0.163 C 
HETATM   39  O5  UNL     1     -18.050  -2.031  18.200  1.00  0.00    -0.648 OA
BRANCH  38  40
HETATM   40  O6  UNL     1     -16.065  -2.398  19.150  1.00  0.00    -0.775 OA
HETATM   41  H21 UNL     1     -16.719  -2.674  19.829  1.00  0.00     0.167 HD
ENDBRANCH  38  40
ENDBRANCH  37  38
BRANCH  37  42
HETATM   42  C19 UNL     1     -15.778  -2.743  15.923  1.00  0.00     0.010 C 
HETATM   43  C20 UNL     1     -16.827  -2.829  14.806  1.00  0.00     0.012 C 
HETATM   44  C21 UNL     1     -14.373  -2.708  15.314  1.00  0.00     0.012 C 
ENDBRANCH  37  42
ENDBRANCH  35  37
ENDBRANCH  32  33
ENDBRANCH  30  32
ENDBRANCH  27  28
ENDBRANCH  26  27
ENDBRANCH  13  26
TORSDOF 10
ENDMDL
MODEL 2
REMARK minimizedAffinity -8.45375156
REMARK CNNscore 0.488715082
REMARK CNNaffinity 7.16318655
REMARK  10 active torsions:
REMARK  status: ('A' for Active; 'I' for Inactive)
REMARK    1  A    between atoms: C3_3  and  O1_4 
REMARK    2  A    between atoms: N1_14  and  O2_16 
REMARK    3  A    between atoms: O2_16  and  C13_17 
REMARK    4  A    between atoms: C13_17  and  C14_18 
REMARK       I    between atoms: C14_18  and  N2_20 
REMARK    5  A    between atoms: N2_20  and  C15_21 
REMARK    6  A    between atoms: C15_21  and  C16_22 
REMARK       I    between atoms: C16_22  and  N3_24 
REMARK    7  A    between atoms: N3_24  and  C17_25 
REMARK    8  A    between atoms: C17_25  and  C18_26 
REMARK    9  A    between atoms: C17_25  and  C19_29 
REMARK   10  A    between atoms: C18_26  and  O6_28 
ROOT
HETATM    1  C1  UNL     1     -15.428  10.587  13.958  1.00  0.00     0.015 C 
HETATM    2  C2  UNL     1     -14.602   9.747  13.723  1.00  0.00    -0.078 C 
HETATM    3  C3  UNL     1     -13.596   8.705  13.409  1.00  0.00     0.128 C 
HETATM    4  C4  UNL     1     -12.575   9.269  12.420  1.00  0.00     0.052 C 
HETATM    5  C5  UNL     1     -11.566  10.003  13.292  1.00  0.00     0.010 C 
HETATM    6  C6  UNL     1     -11.553   9.285  14.658  1.00  0.00     0.002 C 
HETATM    7  C7  UNL     1     -10.208   8.621  15.028  1.00  0.00    -0.004 C 
HETATM    8  C8  UNL     1      -9.081   9.650  15.195  1.00  0.00     0.010 C 
HETATM    9  C9  UNL     1      -7.801   8.975  15.673  1.00  0.00     0.035 C 
HETATM   10  C10 UNL     1      -7.381   7.836  14.772  1.00  0.00    -0.069 C 
HETATM   11  C11 UNL     1      -6.105   7.763  14.350  1.00  0.00     0.030 C 
HETATM   12  C12 UNL     1      -5.590   6.598  13.590  1.00  0.00     0.032 C 
HETATM   13  N1  UNL     1      -4.331   6.602  13.255  1.00  0.00    -0.271 N 
ATOM     14  H1  UNL     1      -3.695   7.380  13.433  1.00  0.00     0.194 HD
HETATM   15  C22 UNL     1      -6.540   5.450  13.326  1.00  0.00     0.060 C 
HETATM   16  C23 UNL     1      -7.975   5.947  13.206  1.00  0.00     0.020 C 
HETATM   17  C24 UNL     1      -8.453   6.796  14.420  1.00  0.00    -0.016 C 
HETATM   18  C25 UNL     1      -8.650   5.875  15.646  1.00  0.00     0.020 C 
HETATM   19  C26 UNL     1      -9.790   7.529  14.010  1.00  0.00     0.002 C 
HETATM   20  C27 UNL     1     -10.964   6.582  13.668  1.00  0.00     0.007 C 
HETATM   21  C28 UNL     1     -12.203   6.790  14.535  1.00  0.00     0.014 C 
HETATM   22  C29 UNL     1     -12.729   8.257  14.634  1.00  0.00     0.003 C 
HETATM   23  C30 UNL     1     -13.522   8.317  15.965  1.00  0.00     0.020 C 
ENDROOT
BRANCH   3  24
HETATM   24  O1  UNL     1     -14.277   7.609  12.815  1.00  0.00    -0.377 OA
HETATM   25  H2  UNL     1     -14.834   7.970  12.105  1.00  0.00     0.211 HD
ENDBRANCH   3  24
BRANCH  13  26
HETATM   26  O2  UNL     1      -3.954   5.410  12.621  1.00  0.00    -0.271 OA
BRANCH  26  27
HETATM   27  C13 UNL     1      -2.940   4.781  13.398  1.00  0.00     0.303 C 
BRANCH  27  28
HETATM   28  C14 UNL     1      -1.567   4.888  12.737  1.00  0.00     0.244 C 
HETATM   29  O3  UNL     1      -1.345   4.446  11.611  1.00  0.00    -0.271 OA
HETATM   30  N2  UNL     1      -0.608   5.543  13.481  1.00  0.00    -0.350 N 
HETATM   31  H16 UNL     1      -0.778   5.573  14.482  1.00  0.00     0.163 HD
BRANCH  30  32
HETATM   32  C15 UNL     1       0.770   5.587  13.038  1.00  0.00     0.225 C 
BRANCH  32  33
HETATM   33  C16 UNL     1       0.998   6.763  12.085  1.00  0.00     0.236 C 
HETATM   34  O4  UNL     1       0.239   7.730  12.026  1.00  0.00    -0.272 OA
HETATM   35  N3  UNL     1       2.084   6.601  11.252  1.00  0.00    -0.345 N 
HETATM   36  H19 UNL     1       2.809   5.950  11.545  1.00  0.00     0.163 HD
BRANCH  35  37
HETATM   37  C17 UNL     1       2.542   7.660  10.347  1.00  0.00     0.185 C 
BRANCH  37  38
HETATM   38  C18 UNL     1       4.050   7.892  10.536  1.00  0.00     0.163 C 
HETATM   39  O5  UNL     1       4.956   7.236  10.047  1.00  0.00    -0.648 OA
BRANCH  38  40
HETATM   40  O6  UNL     1       4.334   8.922  11.369  1.00  0.00    -0.775 OA
HETATM   41  H21 UNL     1       5.315   8.954  11.373  1.00  0.00     0.167 HD
ENDBRANCH  38  40
ENDBRANCH  37  38
BRANCH  37  42
HETATM   42  C19 UNL     1       2.232   7.346   8.866  1.00  0.00     0.010 C 
HETATM   43  C20 UNL     1       2.679   8.461   7.912  1.00  0.00     0.012 C 
HETATM   44  C21 UNL     1       2.844   6.012   8.429  1.00  0.00     0.012 C 
ENDBRANCH  37  42
ENDBRANCH  35  37
ENDBRANCH  32  33
ENDBRANCH  30  32
ENDBRANCH  27  28
ENDBRANCH  26  27
ENDBRANCH  13  26
TORSDOF 10
ENDMDL
MODEL 3
REMARK minimizedAffinity -8.91121864
REMARK CNNscore 0.474247456
REMARK CNNaffinity 6.87531042
REMARK  10 active torsions:
REMARK  status: ('A' for Active; 'I' for Inactive)
REMARK    1  A    between atoms: C3_3  and  O1_4 
REMARK    2  A    between atoms: N1_14  and  O2_16 
REMARK    3  A    between atoms: O2_16  and  C13_17 
REMARK    4  A    between atoms: C13_17  and  C14_18 
REMARK       I    between atoms: C14_18  and  N2_20 
REMARK    5  A    between atoms: N2_20  and  C15_21 
REMARK    6  A    between atoms: C15_21  and  C16_22 
REMARK       I    between atoms: C16_22  and  N3_24 
REMARK    7  A    between atoms: N3_24  and  C17_25 
REMARK    8  A    between atoms: C17_25  and  C18_26 
REMARK    9  A    between atoms: C17_25  and  C19_29 
REMARK   10  A    between atoms: C18_26  and  O6_28 
ROOT
HETATM    1  C1  UNL     1      -6.566   6.062  15.447  1.00  0.00     0.015 C 
HETATM    2  C2  UNL     1      -5.493   6.597  15.362  1.00  0.00    -0.078 C 
HETATM    3  C3  UNL     1      -4.172   7.265  15.286  1.00  0.00     0.128 C 
HETATM    4  C4  UNL     1      -3.096   6.319  15.819  1.00  0.00     0.052 C 
HETATM    5  C5  UNL     1      -2.738   5.440  14.630  1.00  0.00     0.010 C 
HETATM    6  C6  UNL     1      -2.987   6.283  13.361  1.00  0.00     0.002 C 
HETATM    7  C7  UNL     1      -1.725   6.577  12.521  1.00  0.00    -0.004 C 
HETATM    8  C8  UNL     1      -1.105   5.299  11.939  1.00  0.00     0.010 C 
HETATM    9  C9  UNL     1       0.065   5.634  11.023  1.00  0.00     0.035 C 
HETATM   10  C10 UNL     1       1.106   6.489  11.710  1.00  0.00    -0.069 C 
HETATM   11  C11 UNL     1       2.404   6.145  11.627  1.00  0.00     0.030 C 
HETATM   12  C12 UNL     1       3.487   7.015  12.148  1.00  0.00     0.032 C 
HETATM   13  N1  UNL     1       4.716   6.613  11.989  1.00  0.00    -0.271 N 
ATOM     14  H1  UNL     1       4.975   5.714  11.582  1.00  0.00     0.194 HD
HETATM   15  C22 UNL     1       3.095   8.345  12.754  1.00  0.00     0.060 C 
HETATM   16  C23 UNL     1       1.717   8.265  13.397  1.00  0.00     0.020 C 
HETATM   17  C24 UNL     1       0.604   7.741  12.443  1.00  0.00    -0.016 C 
HETATM   18  C25 UNL     1       0.282   8.821  11.385  1.00  0.00     0.020 C 
HETATM   19  C26 UNL     1      -0.659   7.374  13.317  1.00  0.00     0.002 C 
HETATM   20  C27 UNL     1      -1.283   8.567  14.077  1.00  0.00     0.007 C 
HETATM   21  C28 UNL     1      -2.747   8.826  13.733  1.00  0.00     0.014 C 
HETATM   22  C29 UNL     1      -3.700   7.592  13.828  1.00  0.00     0.003 C 
HETATM   23  C30 UNL     1      -4.888   7.921  12.888  1.00  0.00     0.020 C 
ENDROOT
BRANCH   3  24
HETATM   24  O1  UNL     1      -4.226   8.429  16.097  1.00  0.00    -0.377 OA
HETATM   25  H2  UNL     1      -4.579   8.158  16.962  1.00  0.00     0.211 HD
ENDBRANCH   3  24
BRANCH  13  26
HETATM   26  O2  UNL     1       5.640   7.563  12.445  1.00  0.00    -0.271 OA
BRANCH  26  27
HETATM   27  C13 UNL     1       6.005   7.239  13.783  1.00  0.00     0.303 C 
BRANCH  27  28
HETATM   28  C14 UNL     1       7.414   7.720  14.122  1.00  0.00     0.244 C 
HETATM   29  O3  UNL     1       8.205   8.096  13.258  1.00  0.00    -0.271 OA
HETATM   30  N2  UNL     1       7.721   7.732  15.467  1.00  0.00    -0.350 N 
HETATM   31  H16 UNL     1       7.157   7.119  16.048  1.00  0.00     0.163 HD
BRANCH  30  32
HETATM   32  C15 UNL     1       9.065   8.025  15.916  1.00  0.00     0.225 C 
BRANCH  32  33
HETATM   33  C16 UNL     1       9.084   9.279  16.795  1.00  0.00     0.236 C 
HETATM   34  O4  UNL     1       8.151   9.587  17.536  1.00  0.00    -0.272 OA
HETATM   35  N3  UNL     1      10.204  10.062  16.621  1.00  0.00    -0.345 N 
HETATM   36  H19 UNL     1      11.035   9.618  16.237  1.00  0.00     0.163 HD
BRANCH  35  37
HETATM   37  C17 UNL     1      10.471  11.244  17.449  1.00  0.00     0.185 C 
BRANCH  37  38
HETATM   38  C18 UNL     1      11.005  10.809  18.823  1.00  0.00     0.163 C 
HETATM   39  O5  UNL     1      10.465  10.984  19.904  1.00  0.00    -0.648 OA
BRANCH  38  40
HETATM   40  O6  UNL     1      12.218  10.208  18.761  1.00  0.00    -0.775 OA
HETATM   41  H21 UNL     1      12.410   9.977  19.696  1.00  0.00     0.167 HD
ENDBRANCH  38  40
ENDBRANCH  37  38
BRANCH  37  42
HETATM   42  C19 UNL     1      11.458  12.224  16.779  1.00  0.00     0.010 C 
HETATM   43  C20 UNL     1      11.160  13.693  17.107  1.00  0.00     0.012 C 
HETATM   44  C21 UNL     1      12.912  11.898  17.134  1.00  0.00     0.012 C 
ENDBRANCH  37  42
ENDBRANCH  35  37
ENDBRANCH  32  33
ENDBRANCH  30  32
ENDBRANCH  27  28
ENDBRANCH  26  27
ENDBRANCH  13  26
TORSDOF 10
ENDMDL
MODEL 4
REMARK minimizedAffinity -7.94015646
REMARK CNNscore 0.458061755
REMARK CNNaffinity 7.08128214
REMARK  10 active torsions:
REMARK  status: ('A' for Active; 'I' for Inactive)
REMARK    1  A    between atoms: C3_3  and  O1_4 
REMARK    2  A    between atoms: N1_14  and  O2_16 
REMARK    3  A    between atoms: O2_16  and  C13_17 
REMARK    4  A    between atoms: C13_17  and  C14_18 
REMARK       I    between atoms: C14_18  and  N2_20 
REMARK    5  A    between atoms: N2_20  and  C15_21 
REMARK    6  A    between atoms: C15_21  and  C16_22 
REMARK       I    between atoms: C16_22  and  N3_24 
REMARK    7  A    between atoms: N3_24  and  C17_25 
REMARK    8  A    between atoms: C17_25  and  C18_26 
REMARK    9  A    between atoms: C17_25  and  C19_29 
REMARK   10  A    between atoms: C18_26  and  O6_28 
ROOT
HETATM    1  C1  UNL     1       1.443   8.408  13.261  1.00  0.00     0.015 C 
HETATM    2  C2  UNL     1       0.323   8.620  13.641  1.00  0.00    -0.078 C 
HETATM    3  C3  UNL     1      -1.053   8.909  14.109  1.00  0.00     0.128 C 
HETATM    4  C4  UNL     1      -1.938   9.234  12.905  1.00  0.00     0.052 C 
HETATM    5  C5  UNL     1      -2.384   7.876  12.383  1.00  0.00     0.010 C 
HETATM    6  C6  UNL     1      -2.413   6.920  13.595  1.00  0.00     0.002 C 
HETATM    7  C7  UNL     1      -3.811   6.365  13.948  1.00  0.00    -0.004 C 
HETATM    8  C8  UNL     1      -4.384   5.483  12.830  1.00  0.00     0.010 C 
HETATM    9  C9  UNL     1      -5.707   4.859  13.258  1.00  0.00     0.035 C 
HETATM   10  C10 UNL     1      -6.709   5.895  13.712  1.00  0.00    -0.069 C 
HETATM   11  C11 UNL     1      -7.966   5.855  13.231  1.00  0.00     0.030 C 
HETATM   12  C12 UNL     1      -9.037   6.744  13.744  1.00  0.00     0.032 C 
HETATM   13  N1  UNL     1     -10.231   6.606  13.240  1.00  0.00    -0.271 N 
ATOM     14  H1  UNL     1     -10.459   5.967  12.478  1.00  0.00     0.194 HD
HETATM   15  C22 UNL     1      -8.690   7.692  14.871  1.00  0.00     0.060 C 
HETATM   16  C23 UNL     1      -7.229   8.116  14.796  1.00  0.00     0.020 C 
HETATM   17  C24 UNL     1      -6.227   6.925  14.743  1.00  0.00    -0.016 C 
HETATM   18  C25 UNL     1      -6.176   6.235  16.125  1.00  0.00     0.020 C 
HETATM   19  C26 UNL     1      -4.817   7.488  14.312  1.00  0.00     0.002 C 
HETATM   20  C27 UNL     1      -4.205   8.512  15.296  1.00  0.00     0.007 C 
HETATM   21  C28 UNL     1      -2.842   8.104  15.848  1.00  0.00     0.014 C 
HETATM   22  C29 UNL     1      -1.769   7.694  14.790  1.00  0.00     0.003 C 
HETATM   23  C30 UNL     1      -0.775   6.779  15.549  1.00  0.00     0.020 C 
ENDROOT
BRANCH   3  24
HETATM   24  O1  UNL     1      -0.991  10.037  14.970  1.00  0.00    -0.377 OA
HETATM   25  H2  UNL     1      -0.486  10.725  14.504  1.00  0.00     0.211 HD
ENDBRANCH   3  24
BRANCH  13  26
HETATM   26  O2  UNL     1     -11.164   7.441  13.870  1.00  0.00    -0.271 OA
BRANCH  26  27
HETATM   27  C13 UNL     1     -11.976   6.649  14.731  1.00  0.00     0.303 C 
BRANCH  27  28
HETATM   28  C14 UNL     1     -13.345   6.361  14.117  1.00  0.00     0.244 C 
HETATM   29  O3  UNL     1     -13.624   6.671  12.960  1.00  0.00    -0.271 OA
HETATM   30  N2  UNL     1     -14.230   5.701  14.944  1.00  0.00    -0.350 N 
HETATM   31  H16 UNL     1     -14.041   5.783  15.939  1.00  0.00     0.163 HD
BRANCH  30  32
HETATM   32  C15 UNL     1     -15.605   5.496  14.542  1.00  0.00     0.225 C 
BRANCH  32  33
HETATM   33  C16 UNL     1     -16.073   4.083  14.905  1.00  0.00     0.236 C 
HETATM   34  O4  UNL     1     -16.991   3.869  15.696  1.00  0.00    -0.272 OA
HETATM   35  N3  UNL     1     -15.324   3.084  14.324  1.00  0.00    -0.345 N 
HETATM   36  H19 UNL     1     -14.798   3.317  13.485  1.00  0.00     0.163 HD
BRANCH  35  37
HETATM   37  C17 UNL     1     -15.677   1.666  14.450  1.00  0.00     0.185 C 
BRANCH  37  38
HETATM   38  C18 UNL     1     -15.348   1.170  15.867  1.00  0.00     0.163 C 
HETATM   39  O5  UNL     1     -16.113   1.114  16.816  1.00  0.00    -0.648 OA
BRANCH  38  40
HETATM   40  O6  UNL     1     -14.052   0.806  16.020  1.00  0.00    -0.775 OA
HETATM   41  H21 UNL     1     -14.005   0.502  16.953  1.00  0.00     0.167 HD
ENDBRANCH  38  40
ENDBRANCH  37  38
BRANCH  37  42
HETATM   42  C19 UNL     1     -17.162   1.396  14.122  1.00  0.00     0.010 C 
HETATM   43  C20 UNL     1     -17.562   1.871  12.719  1.00  0.00     0.012 C 
HETATM   44  C21 UNL     1     -17.521  -0.084  14.291  1.00  0.00     0.012 C 
ENDBRANCH  37  42
ENDBRANCH  35  37
ENDBRANCH  32  33
ENDBRANCH  30  32
ENDBRANCH  27  28
ENDBRANCH  26  27
ENDBRANCH  13  26
TORSDOF 10
ENDMDL
MODEL 5
REMARK minimizedAffinity -7.66492891
REMARK CNNscore 0.430722564
REMARK CNNaffinity 6.59432745
REMARK  10 active torsions:
REMARK  status: ('A' for Active; 'I' for Inactive)
REMARK    1  A    between atoms: C3_3  and  O1_4 
REMARK    2  A    between atoms: N1_14  and  O2_16 
REMARK    3  A    between atoms: O2_16  and  C13_17 
REMARK    4  A    between atoms: C13_17  and  C14_18 
REMARK       I    between atoms: C14_18  and  N2_20 
REMARK    5  A    between atoms: N2_20  and  C15_21 
REMARK    6  A    between atoms: C15_21  and  C16_22 
REMARK       I    between atoms: C16_22  and  N3_24 
REMARK    7  A    between atoms: N3_24  and  C17_25 
REMARK    8  A    between atoms: C17_25  and  C18_26 
REMARK    9  A    between atoms: C17_25  and  C19_29 
REMARK   10  A    between atoms: C18_26  and  O6_28 
ROOT
HETATM    1  C1  UNL     1       2.580   6.170   8.888  1.00  0.00     0.015 C 
HETATM    2  C2  UNL     1       2.352   6.518  10.015  1.00  0.00    -0.078 C 
HETATM    3  C3  UNL     1       2.100   6.956  11.408  1.00  0.00     0.128 C 
HETATM    4  C4  UNL     1       1.886   8.469  11.431  1.00  0.00     0.052 C 
HETATM    5  C5  UNL     1       0.415   8.652  11.090  1.00  0.00     0.010 C 
HETATM    6  C6  UNL     1      -0.319   7.390  11.591  1.00  0.00     0.002 C 
HETATM    7  C7  UNL     1      -1.357   7.644  12.707  1.00  0.00    -0.004 C 
HETATM    8  C8  UNL     1      -2.521   8.522  12.227  1.00  0.00     0.010 C 
HETATM    9  C9  UNL     1      -3.581   8.655  13.313  1.00  0.00     0.035 C 
HETATM   10  C10 UNL     1      -3.007   9.163  14.616  1.00  0.00    -0.069 C 
HETATM   11  C11 UNL     1      -3.618  10.175  15.259  1.00  0.00     0.030 C 
HETATM   12  C12 UNL     1      -3.198  10.623  16.609  1.00  0.00     0.032 C 
HETATM   13  N1  UNL     1      -3.875  11.588  17.165  1.00  0.00    -0.271 N 
ATOM     14  H1  UNL     1      -4.635  12.090  16.706  1.00  0.00     0.194 HD
HETATM   15  C22 UNL     1      -2.067   9.875  17.282  1.00  0.00     0.060 C 
HETATM   16  C23 UNL     1      -1.089   9.326  16.251  1.00  0.00     0.020 C 
HETATM   17  C24 UNL     1      -1.757   8.450  15.151  1.00  0.00    -0.016 C 
HETATM   18  C25 UNL     1      -2.198   7.101  15.765  1.00  0.00     0.020 C 
HETATM   19  C26 UNL     1      -0.716   8.254  13.980  1.00  0.00     0.002 C 
HETATM   20  C27 UNL     1       0.577   7.509  14.387  1.00  0.00     0.007 C 
HETATM   21  C28 UNL     1       0.836   6.234  13.589  1.00  0.00     0.014 C 
HETATM   22  C29 UNL     1       0.786   6.378  12.035  1.00  0.00     0.003 C 
HETATM   23  C30 UNL     1       0.458   4.959  11.504  1.00  0.00     0.020 C 
ENDROOT
BRANCH   3  24
HETATM   24  O1  UNL     1       3.244   6.625  12.182  1.00  0.00    -0.377 OA
HETATM   25  H2  UNL     1       4.019   6.965  11.704  1.00  0.00     0.211 HD
ENDBRANCH   3  24
BRANCH  13  26
HETATM   26  O2  UNL     1      -3.433  11.854  18.468  1.00  0.00    -0.271 OA
BRANCH  26  27
HETATM   27  C13 UNL     1      -3.385  13.265  18.655  1.00  0.00     0.303 C 
BRANCH  27  28
HETATM   28  C14 UNL     1      -2.067  13.713  19.284  1.00  0.00     0.244 C 
HETATM   29  O3  UNL     1      -1.948  14.794  19.857  1.00  0.00    -0.271 OA
HETATM   30  N2  UNL     1      -1.034  12.804  19.189  1.00  0.00    -0.350 N 
HETATM   31  H16 UNL     1      -1.123  12.119  18.444  1.00  0.00     0.163 HD
BRANCH  30  32
HETATM   32  C15 UNL     1       0.304  13.157  19.612  1.00  0.00     0.225 C 
BRANCH  32  33
HETATM   33  C16 UNL     1       1.028  11.942  20.199  1.00  0.00     0.236 C 
HETATM   34  O4  UNL     1       0.481  10.852  20.355  1.00  0.00    -0.272 OA
HETATM   35  N3  UNL     1       2.319  12.207  20.602  1.00  0.00    -0.345 N 
HETATM   36  H19 UNL     1       2.787  13.010  20.188  1.00  0.00     0.163 HD
BRANCH  35  37
HETATM   37  C17 UNL     1       3.221  11.155  21.084  1.00  0.00     0.185 C 
BRANCH  37  38
HETATM   38  C18 UNL     1       4.680  11.548  20.802  1.00  0.00     0.163 C 
HETATM   39  O5  UNL     1       5.289  12.487  21.289  1.00  0.00    -0.648 OA
BRANCH  38  40
HETATM   40  O6  UNL     1       5.282  10.754  19.884  1.00  0.00    -0.775 OA
HETATM   41  H21 UNL     1       6.194  11.114  19.828  1.00  0.00     0.167 HD
ENDBRANCH  38  40
ENDBRANCH  37  38
BRANCH  37  42
HETATM   42  C19 UNL     1       3.030  10.856  22.587  1.00  0.00     0.010 C 
HETATM   43  C20 UNL     1       3.956   9.745  23.099  1.00  0.00     0.012 C 
HETATM   44  C21 UNL     1       3.205  12.113  23.443  1.00  0.00     0.012 C 
ENDBRANCH  37  42
ENDBRANCH  35  37
ENDBRANCH  32  33
ENDBRANCH  30  32
ENDBRANCH  27  28
ENDBRANCH  26  27
ENDBRANCH  13  26
TORSDOF 10
ENDMDL
MODEL 6
REMARK minimizedAffinity -6.78572655
REMARK CNNscore 0.341747195
REMARK CNNaffinity 6.92928743
REMARK  10 active torsions:
REMARK  status: ('A' for Active; 'I' for Inactive)
REMARK    1  A    between atoms: C3_3  and  O1_4 
REMARK    2  A    between atoms: N1_14  and  O2_16 
REMARK    3  A    between atoms: O2_16  and  C13_17 
REMARK    4  A    between atoms: C13_17  and  C14_18 
REMARK       I    between atoms: C14_18  and  N2_20 
REMARK    5  A    between atoms: N2_20  and  C15_21 
REMARK    6  A    between atoms: C15_21  and  C16_22 
REMARK       I    between atoms: C16_22  and  N3_24 
REMARK    7  A    between atoms: N3_24  and  C17_25 
REMARK    8  A    between atoms: C17_25  and  C18_26 
REMARK    9  A    between atoms: C17_25  and  C19_29 
REMARK   10  A    between atoms: C18_26  and  O6_28 
ROOT
HETATM    1  C1  UNL     1       0.270   6.905  13.121  1.00  0.00     0.015 C 
HETATM    2  C2  UNL     1      -0.744   7.396  13.539  1.00  0.00    -0.078 C 
HETATM    3  C3  UNL     1      -1.983   8.027  14.052  1.00  0.00     0.128 C 
HETATM    4  C4  UNL     1      -2.859   8.452  12.873  1.00  0.00     0.052 C 
HETATM    5  C5  UNL     1      -3.633   7.196  12.501  1.00  0.00     0.010 C 
HETATM    6  C6  UNL     1      -3.787   6.368  13.795  1.00  0.00     0.002 C 
HETATM    7  C7  UNL     1      -5.244   6.175  14.271  1.00  0.00    -0.004 C 
HETATM    8  C8  UNL     1      -6.078   5.364  13.271  1.00  0.00     0.010 C 
HETATM    9  C9  UNL     1      -7.472   5.093  13.824  1.00  0.00     0.035 C 
HETATM   10  C10 UNL     1      -8.183   6.363  14.235  1.00  0.00    -0.069 C 
HETATM   11  C11 UNL     1      -9.448   6.573  13.828  1.00  0.00     0.030 C 
HETATM   12  C12 UNL     1     -10.254   7.721  14.314  1.00  0.00     0.032 C 
HETATM   13  N1  UNL     1     -11.482   7.821  13.889  1.00  0.00    -0.271 N 
ATOM     14  H1  UNL     1     -11.902   7.195  13.202  1.00  0.00     0.194 HD
HETATM   15  C22 UNL     1      -9.623   8.647  15.331  1.00  0.00     0.060 C 
HETATM   16  C23 UNL     1      -8.114   8.719  15.138  1.00  0.00     0.020 C 
HETATM   17  C24 UNL     1      -7.410   7.331  15.141  1.00  0.00    -0.016 C 
HETATM   18  C25 UNL     1      -7.414   6.755  16.575  1.00  0.00     0.020 C 
HETATM   19  C26 UNL     1      -5.944   7.523  14.585  1.00  0.00     0.002 C 
HETATM   20  C27 UNL     1      -5.049   8.451  15.437  1.00  0.00     0.007 C 
HETATM   21  C28 UNL     1      -3.775   7.786  15.951  1.00  0.00     0.014 C 
HETATM   22  C29 UNL     1      -2.901   7.063  14.878  1.00  0.00     0.003 C 
HETATM   23  C30 UNL     1      -2.084   6.006  15.663  1.00  0.00     0.020 C 
ENDROOT
BRANCH   3  24
HETATM   24  O1  UNL     1      -1.609   9.172  14.803  1.00  0.00    -0.377 OA
HETATM   25  H2  UNL     1      -0.999   9.689  14.250  1.00  0.00     0.211 HD
ENDBRANCH   3  24
BRANCH  13  26
HETATM   26  O2  UNL     1     -12.157   8.893  14.490  1.00  0.00    -0.271 OA
BRANCH  26  27
HETATM   27  C13 UNL     1     -13.420   8.431  14.958  1.00  0.00     0.303 C 
BRANCH  27  28
HETATM   28  C14 UNL     1     -14.266   7.844  13.829  1.00  0.00     0.244 C 
HETATM   29  O3  UNL     1     -14.260   8.314  12.692  1.00  0.00    -0.271 OA
HETATM   30  N2  UNL     1     -15.009   6.734  14.171  1.00  0.00    -0.350 N 
HETATM   31  H16 UNL     1     -15.202   6.627  15.162  1.00  0.00     0.163 HD
BRANCH  30  32
HETATM   32  C15 UNL     1     -15.963   6.167  13.241  1.00  0.00     0.225 C 
BRANCH  32  33
HETATM   33  C16 UNL     1     -16.705   4.986  13.875  1.00  0.00     0.236 C 
HETATM   34  O4  UNL     1     -17.606   4.379  13.298  1.00  0.00    -0.272 OA
HETATM   35  N3  UNL     1     -16.320   4.720  15.171  1.00  0.00    -0.345 N 
HETATM   36  H19 UNL     1     -15.404   5.049  15.468  1.00  0.00     0.163 HD
BRANCH  35  37
HETATM   37  C17 UNL     1     -16.824   3.561  15.915  1.00  0.00     0.185 C 
BRANCH  37  38
HETATM   38  C18 UNL     1     -18.358   3.616  15.991  1.00  0.00     0.163 C 
HETATM   39  O5  UNL     1     -19.110   2.686  16.235  1.00  0.00    -0.648 OA
BRANCH  38  40
HETATM   40  O6  UNL     1     -18.865   4.842  15.714  1.00  0.00    -0.775 OA
HETATM   41  H21 UNL     1     -19.834   4.722  15.820  1.00  0.00     0.167 HD
ENDBRANCH  38  40
ENDBRANCH  37  38
BRANCH  37  42
HETATM   42  C19 UNL     1     -16.368   2.220  15.299  1.00  0.00     0.010 C 
HETATM   43  C20 UNL     1     -17.309   1.718  14.196  1.00  0.00     0.012 C 
HETATM   44  C21 UNL     1     -14.936   2.298  14.765  1.00  0.00     0.012 C 
ENDBRANCH  37  42
ENDBRANCH  35  37
ENDBRANCH  32  33
ENDBRANCH  30  32
ENDBRANCH  27  28
ENDBRANCH  26  27
ENDBRANCH  13  26
TORSDOF 10
ENDMDL
MODEL 7
REMARK minimizedAffinity -8.58446884
REMARK CNNscore 0.324262202
REMARK CNNaffinity 7.25555849
REMARK  10 active torsions:
REMARK  status: ('A' for Active; 'I' for Inactive)
REMARK    1  A    between atoms: C3_3  and  O1_4 
REMARK    2  A    between atoms: N1_14  and  O2_16 
REMARK    3  A    between atoms: O2_16  and  C13_17 
REMARK    4  A    between atoms: C13_17  and  C14_18 
REMARK       I    between atoms: C14_18  and  N2_20 
REMARK    5  A    between atoms: N2_20  and  C15_21 
REMARK    6  A    between atoms: C15_21  and  C16_22 
REMARK       I    between atoms: C16_22  and  N3_24 
REMARK    7  A    between atoms: N3_24  and  C17_25 
REMARK    8  A    between atoms: C17_25  and  C18_26 
REMARK    9  A    between atoms: C17_25  and  C19_29 
REMARK   10  A    between atoms: C18_26  and  O6_28 
ROOT
HETATM    1  C1  UNL     1      -9.999   6.999  14.947  1.00  0.00     0.015 C 
HETATM    2  C2  UNL     1      -9.031   6.436  14.513  1.00  0.00    -0.078 C 
HETATM    3  C3  UNL     1      -7.853   5.723  13.964  1.00  0.00     0.128 C 
HETATM    4  C4  UNL     1      -7.531   6.275  12.575  1.00  0.00     0.052 C 
HETATM    5  C5  UNL     1      -6.680   7.507  12.843  1.00  0.00     0.010 C 
HETATM    6  C6  UNL     1      -5.933   7.254  14.170  1.00  0.00     0.002 C 
HETATM    7  C7  UNL     1      -4.395   7.186  14.045  1.00  0.00    -0.004 C 
HETATM    8  C8  UNL     1      -3.791   8.521  13.589  1.00  0.00     0.010 C 
HETATM    9  C9  UNL     1      -2.269   8.455  13.589  1.00  0.00     0.035 C 
HETATM   10  C10 UNL     1      -1.745   7.301  12.765  1.00  0.00    -0.069 C 
HETATM   11  C11 UNL     1      -0.762   7.519  11.872  1.00  0.00     0.030 C 
HETATM   12  C12 UNL     1      -0.100   6.412  11.139  1.00  0.00     0.032 C 
HETATM   13  N1  UNL     1       0.866   6.720  10.320  1.00  0.00    -0.271 N 
ATOM     14  H1  UNL     1       1.154   7.676  10.110  1.00  0.00     0.194 HD
HETATM   15  C22 UNL     1      -0.535   4.997  11.453  1.00  0.00     0.060 C 
HETATM   16  C23 UNL     1      -2.002   4.957  11.863  1.00  0.00     0.020 C 
HETATM   17  C24 UNL     1      -2.356   5.919  13.034  1.00  0.00    -0.016 C 
HETATM   18  C25 UNL     1      -1.754   5.374  14.349  1.00  0.00     0.020 C 
HETATM   19  C26 UNL     1      -3.929   6.040  13.110  1.00  0.00     0.002 C 
HETATM   20  C27 UNL     1      -4.662   4.714  13.417  1.00  0.00     0.007 C 
HETATM   21  C28 UNL     1      -5.522   4.756  14.677  1.00  0.00     0.014 C 
HETATM   22  C29 UNL     1      -6.532   5.943  14.776  1.00  0.00     0.003 C 
HETATM   23  C30 UNL     1      -6.799   6.126  16.292  1.00  0.00     0.020 C 
ENDROOT
BRANCH   3  24
HETATM   24  O1  UNL     1      -8.187   4.346  13.863  1.00  0.00    -0.377 OA
HETATM   25  H2  UNL     1      -9.041   4.293  13.400  1.00  0.00     0.211 HD
ENDBRANCH   3  24
BRANCH  13  26
HETATM   26  O2  UNL     1       1.461   5.580   9.762  1.00  0.00    -0.271 OA
BRANCH  26  27
HETATM   27  C13 UNL     1       2.602   5.234  10.541  1.00  0.00     0.303 C 
BRANCH  27  28
HETATM   28  C14 UNL     1       3.786   6.159  10.261  1.00  0.00     0.244 C 
HETATM   29  O3  UNL     1       3.816   6.909   9.287  1.00  0.00    -0.271 OA
HETATM   30  N2  UNL     1       4.799   6.112  11.195  1.00  0.00    -0.350 N 
HETATM   31  H16 UNL     1       4.839   5.265  11.753  1.00  0.00     0.163 HD
BRANCH  30  32
HETATM   32  C15 UNL     1       6.040   6.825  10.977  1.00  0.00     0.225 C 
BRANCH  32  33
HETATM   33  C16 UNL     1       6.163   8.010  11.940  1.00  0.00     0.236 C 
HETATM   34  O4  UNL     1       5.755   9.137  11.664  1.00  0.00    -0.272 OA
HETATM   35  N3  UNL     1       6.837   7.712  13.104  1.00  0.00    -0.345 N 
HETATM   36  H19 UNL     1       6.881   6.735  13.386  1.00  0.00     0.163 HD
BRANCH  35  37
HETATM   37  C17 UNL     1       6.963   8.673  14.205  1.00  0.00     0.185 C 
BRANCH  37  38
HETATM   38  C18 UNL     1       6.283   8.115  15.465  1.00  0.00     0.163 C 
HETATM   39  O5  UNL     1       5.133   7.716  15.557  1.00  0.00    -0.648 OA
BRANCH  38  40
HETATM   40  O6  UNL     1       7.084   8.127  16.558  1.00  0.00    -0.775 OA
HETATM   41  H21 UNL     1       6.524   7.732  17.261  1.00  0.00     0.167 HD
ENDBRANCH  38  40
ENDBRANCH  37  38
BRANCH  37  42
HETATM   42  C19 UNL     1       8.434   9.034  14.508  1.00  0.00     0.010 C 
HETATM   43  C20 UNL     1       9.420   7.939  14.082  1.00  0.00     0.012 C 
HETATM   44  C21 UNL     1       8.833  10.368  13.871  1.00  0.00     0.012 C 
ENDBRANCH  37  42
ENDBRANCH  35  37
ENDBRANCH  32  33
ENDBRANCH  30  32
ENDBRANCH  27  28
ENDBRANCH  26  27
ENDBRANCH  13  26
TORSDOF 10
ENDMDL
MODEL 8
REMARK minimizedAffinity -7.92413473
REMARK CNNscore 0.31847921
REMARK CNNaffinity 5.59087038
REMARK  10 active torsions:
REMARK  status: ('A' for Active; 'I' for Inactive)
REMARK    1  A    between atoms: C3_3  and  O1_4 
REMARK    2  A    between atoms: N1_14  and  O2_16 
REMARK    3  A    between atoms: O2_16  and  C13_17 
REMARK    4  A    between atoms: C13_17  and  C14_18 
REMARK       I    between atoms: C14_18  and  N2_20 
REMARK    5  A    between atoms: N2_20  and  C15_21 
REMARK    6  A    between atoms: C15_21  and  C16_22 
REMARK       I    between atoms: C16_22  and  N3_24 
REMARK    7  A    between atoms: N3_24  and  C17_25 
REMARK    8  A    between atoms: C17_25  and  C18_26 
REMARK    9  A    between atoms: C17_25  and  C19_29 
REMARK   10  A    between atoms: C18_26  and  O6_28 
ROOT
HETATM    1  C1  UNL     1      -9.877  -6.857  -6.349  1.00  0.00     0.015 C 
HETATM    2  C2  UNL     1      -9.155  -7.353  -5.527  1.00  0.00    -0.078 C 
HETATM    3  C3  UNL     1      -8.241  -7.954  -4.528  1.00  0.00     0.128 C 
HETATM    4  C4  UNL     1      -7.845  -6.892  -3.502  1.00  0.00     0.052 C 
HETATM    5  C5  UNL     1      -8.981  -6.897  -2.490  1.00  0.00     0.010 C 
HETATM    6  C6  UNL     1      -9.566  -8.325  -2.483  1.00  0.00     0.002 C 
HETATM    7  C7  UNL     1      -9.418  -9.079  -1.143  1.00  0.00    -0.004 C 
HETATM    8  C8  UNL     1     -10.204  -8.406  -0.010  1.00  0.00     0.010 C 
HETATM    9  C9  UNL     1     -10.133  -9.237   1.266  1.00  0.00     0.035 C 
HETATM   10  C10 UNL     1      -8.709  -9.531   1.680  1.00  0.00    -0.069 C 
HETATM   11  C11 UNL     1      -8.336  -9.323   2.956  1.00  0.00     0.030 C 
HETATM   12  C12 UNL     1      -7.002  -9.729   3.465  1.00  0.00     0.032 C 
HETATM   13  N1  UNL     1      -6.746  -9.518   4.725  1.00  0.00    -0.271 N 
ATOM     14  H1  UNL     1      -7.381  -9.041   5.365  1.00  0.00     0.194 HD
HETATM   15  C22 UNL     1      -6.065 -10.433   2.509  1.00  0.00     0.060 C 
HETATM   16  C23 UNL     1      -6.296  -9.967   1.077  1.00  0.00     0.020 C 
HETATM   17  C24 UNL     1      -7.773 -10.096   0.602  1.00  0.00    -0.016 C 
HETATM   18  C25 UNL     1      -8.119 -11.588   0.397  1.00  0.00     0.020 C 
HETATM   19  C26 UNL     1      -7.935  -9.263  -0.730  1.00  0.00     0.002 C 
HETATM   20  C27 UNL     1      -7.067  -9.761  -1.909  1.00  0.00     0.007 C 
HETATM   21  C28 UNL     1      -7.868 -10.152  -3.148  1.00  0.00     0.014 C 
HETATM   22  C29 UNL     1      -8.889  -9.090  -3.666  1.00  0.00     0.003 C 
HETATM   23  C30 UNL     1      -9.948  -9.896  -4.460  1.00  0.00     0.020 C 
ENDROOT
BRANCH   3  24
HETATM   24  O1  UNL     1      -7.083  -8.407  -5.214  1.00  0.00    -0.377 OA
HETATM   25  H2  UNL     1      -6.773  -7.670  -5.768  1.00  0.00     0.211 HD
ENDBRANCH   3  24
BRANCH  13  26
HETATM   26  O2  UNL     1      -5.492 -10.025   5.095  1.00  0.00    -0.271 OA
BRANCH  26  27
HETATM   27  C13 UNL     1      -5.685 -11.071   6.042  1.00  0.00     0.303 C 
BRANCH  27  28
HETATM   28  C14 UNL     1      -4.653 -11.019   7.167  1.00  0.00     0.244 C 
HETATM   29  O3  UNL     1      -3.790 -11.885   7.306  1.00  0.00    -0.271 OA
HETATM   30  N2  UNL     1      -4.741  -9.918   7.992  1.00  0.00    -0.350 N 
HETATM   31  H16 UNL     1      -5.645  -9.456   8.008  1.00  0.00     0.163 HD
BRANCH  30  32
HETATM   32  C15 UNL     1      -3.922  -9.817   9.181  1.00  0.00     0.225 C 
BRANCH  32  33
HETATM   33  C16 UNL     1      -4.793  -9.762  10.440  1.00  0.00     0.236 C 
HETATM   34  O4  UNL     1      -4.358 -10.019  11.562  1.00  0.00    -0.272 OA
HETATM   35  N3  UNL     1      -6.116  -9.473  10.187  1.00  0.00    -0.345 N 
HETATM   36  H19 UNL     1      -6.336  -8.998   9.315  1.00  0.00     0.163 HD
BRANCH  35  37
HETATM   37  C17 UNL     1      -7.091  -9.261  11.262  1.00  0.00     0.185 C 
BRANCH  37  38
HETATM   38  C18 UNL     1      -6.666  -8.060  12.122  1.00  0.00     0.163 C 
HETATM   39  O5  UNL     1      -6.617  -6.892  11.770  1.00  0.00    -0.648 OA
BRANCH  38  40
HETATM   40  O6  UNL     1      -6.286  -8.406  13.376  1.00  0.00    -0.775 OA
HETATM   41  H21 UNL     1      -6.066  -7.546  13.797  1.00  0.00     0.167 HD
ENDBRANCH  38  40
ENDBRANCH  37  38
BRANCH  37  42
HETATM   42  C19 UNL     1      -8.525  -9.053  10.727  1.00  0.00     0.010 C 
HETATM   43  C20 UNL     1      -8.556  -8.589   9.264  1.00  0.00     0.012 C 
HETATM   44  C21 UNL     1      -9.380 -10.312  10.891  1.00  0.00     0.012 C 
ENDBRANCH  37  42
ENDBRANCH  35  37
ENDBRANCH  32  33
ENDBRANCH  30  32
ENDBRANCH  27  28
ENDBRANCH  26  27
ENDBRANCH  13  26
TORSDOF 10
ENDMDL
MODEL 9
REMARK minimizedAffinity -7.64556408
REMARK CNNscore 0.305776894
REMARK CNNaffinity 6.73521233
REMARK  10 active torsions:
REMARK  status: ('A' for Active; 'I' for Inactive)
REMARK    1  A    between atoms: C3_3  and  O1_4 
REMARK    2  A    between atoms: N1_14  and  O2_16 
REMARK    3  A    between atoms: O2_16  and  C13_17 
REMARK    4  A    between atoms: C13_17  and  C14_18 
REMARK       I    between atoms: C14_18  and  N2_20 
REMARK    5  A    between atoms: N2_20  and  C15_21 
REMARK    6  A    between atoms: C15_21  and  C16_22 
REMARK       I    between atoms: C16_22  and  N3_24 
REMARK    7  A    between atoms: N3_24  and  C17_25 
REMARK    8  A    between atoms: C17_25  and  C18_26 
REMARK    9  A    between atoms: C17_25  and  C19_29 
REMARK   10  A    between atoms: C18_26  and  O6_28 
ROOT
HETATM    1  C1  UNL     1      -6.958   6.305  16.091  1.00  0.00     0.015 C 
HETATM    2  C2  UNL     1      -5.937   6.876  15.814  1.00  0.00    -0.078 C 
HETATM    3  C3  UNL     1      -4.679   7.593  15.499  1.00  0.00     0.128 C 
HETATM    4  C4  UNL     1      -3.502   6.852  16.135  1.00  0.00     0.052 C 
HETATM    5  C5  UNL     1      -3.151   5.762  15.132  1.00  0.00     0.010 C 
HETATM    6  C6  UNL     1      -3.542   6.296  13.738  1.00  0.00     0.002 C 
HETATM    7  C7  UNL     1      -2.360   6.481  12.761  1.00  0.00    -0.004 C 
HETATM    8  C8  UNL     1      -1.681   5.149  12.415  1.00  0.00     0.010 C 
HETATM    9  C9  UNL     1      -0.598   5.352  11.362  1.00  0.00     0.035 C 
HETATM   10  C10 UNL     1       0.413   6.398  11.772  1.00  0.00    -0.069 C 
HETATM   11  C11 UNL     1       1.727   6.126  11.664  1.00  0.00     0.030 C 
HETATM   12  C12 UNL     1       2.769   7.153  11.906  1.00  0.00     0.032 C 
HETATM   13  N1  UNL     1       4.014   6.804  11.742  1.00  0.00    -0.271 N 
ATOM     14  H1  UNL     1       4.315   5.856  11.514  1.00  0.00     0.194 HD
HETATM   15  C22 UNL     1       2.314   8.556  12.248  1.00  0.00     0.060 C 
HETATM   16  C23 UNL     1       0.988   8.530  12.997  1.00  0.00     0.020 C 
HETATM   17  C24 UNL     1      -0.138   7.744  12.262  1.00  0.00    -0.016 C 
HETATM   18  C25 UNL     1      -0.607   8.549  11.029  1.00  0.00     0.020 C 
HETATM   19  C26 UNL     1      -1.313   7.495  13.288  1.00  0.00     0.002 C 
HETATM   20  C27 UNL     1      -1.979   8.782  13.827  1.00  0.00     0.007 C 
HETATM   21  C28 UNL     1      -3.477   8.869  13.549  1.00  0.00     0.014 C 
HETATM   22  C29 UNL     1      -4.324   7.628  13.973  1.00  0.00     0.003 C 
HETATM   23  C30 UNL     1      -5.590   7.673  13.079  1.00  0.00     0.020 C 
ENDROOT
BRANCH   3  24
HETATM   24  O1  UNL     1      -4.773   8.898  16.050  1.00  0.00    -0.377 OA
HETATM   25  H2  UNL     1      -5.050   8.797  16.976  1.00  0.00     0.211 HD
ENDBRANCH   3  24
BRANCH  13  26
HETATM   26  O2  UNL     1       4.888   7.885  11.916  1.00  0.00    -0.271 OA
BRANCH  26  27
HETATM   27  C13 UNL     1       6.069   7.643  11.157  1.00  0.00     0.303 C 
BRANCH  27  28
HETATM   28  C14 UNL     1       7.268   7.334  12.052  1.00  0.00     0.244 C 
HETATM   29  O3  UNL     1       8.156   6.554  11.712  1.00  0.00    -0.271 OA
HETATM   30  N2  UNL     1       7.295   8.015  13.251  1.00  0.00    -0.350 N 
HETATM   31  H16 UNL     1       6.397   8.361  13.576  1.00  0.00     0.163 HD
BRANCH  30  32
HETATM   32  C15 UNL     1       8.293   7.709  14.254  1.00  0.00     0.225 C 
BRANCH  32  33
HETATM   33  C16 UNL     1       9.431   8.733  14.219  1.00  0.00     0.236 C 
HETATM   34  O4  UNL     1      10.341   8.689  13.392  1.00  0.00    -0.272 OA
HETATM   35  N3  UNL     1       9.380   9.655  15.241  1.00  0.00    -0.345 N 
HETATM   36  H19 UNL     1       8.481   9.811  15.690  1.00  0.00     0.163 HD
BRANCH  35  37
HETATM   37  C17 UNL     1      10.309  10.787  15.322  1.00  0.00     0.185 C 
BRANCH  37  38
HETATM   38  C18 UNL     1       9.856  11.903  14.366  1.00  0.00     0.163 C 
HETATM   39  O5  UNL     1       9.111  12.832  14.632  1.00  0.00    -0.648 OA
BRANCH  38  40
HETATM   40  O6  UNL     1      10.341  11.762  13.109  1.00  0.00    -0.775 OA
HETATM   41  H21 UNL     1       9.985  12.544  12.634  1.00  0.00     0.167 HD
ENDBRANCH  38  40
ENDBRANCH  37  38
BRANCH  37  42
HETATM   42  C19 UNL     1      10.445  11.338  16.758  1.00  0.00     0.010 C 
HETATM   43  C20 UNL     1       9.991  10.337  17.829  1.00  0.00     0.012 C 
HETATM   44  C21 UNL     1      11.874  11.804  17.055  1.00  0.00     0.012 C 
ENDBRANCH  37  42
ENDBRANCH  35  37
ENDBRANCH  32  33
ENDBRANCH  30  32
ENDBRANCH  27  28
ENDBRANCH  26  27
ENDBRANCH  13  26
TORSDOF 10
ENDMDL
