MODEL 1
REMARK minimizedAffinity -7.80609369
REMARK CNNscore 0.459361076
REMARK CNNaffinity 6.96206284
REMARK  8 active torsions:
REMARK  status: ('A' for Active; 'I' for Inactive)
REMARK    1  A    between atoms: C3_3  and  O1_4 
REMARK    2  A    between atoms: N1_14  and  O2_16 
REMARK    3  A    between atoms: O2_16  and  C13_17 
REMARK    4  A    between atoms: C13_17  and  C14_18 
REMARK       I    between atoms: C14_18  and  N2_20 
REMARK    5  A    between atoms: N2_20  and  C15_21 
REMARK    6  A    between atoms: C15_21  and  C16_22 
REMARK    7  A    between atoms: C16_22  and  O4_23 
REMARK    8  A    between atoms: C16_22  and  C17_24 
ROOT
HETATM    1  C1  UNL     1       0.613   6.174  13.998  1.00  0.00     0.015 C 
HETATM    2  C2  UNL     1      -0.474   6.686  13.977  1.00  0.00    -0.078 C 
HETATM    3  C3  UNL     1      -1.797   7.338  13.968  1.00  0.00     0.128 C 
HETATM    4  C4  UNL     1      -1.986   8.188  12.707  1.00  0.00     0.052 C 
HETATM    5  C5  UNL     1      -3.494   8.371  12.641  1.00  0.00     0.010 C 
HETATM    6  C6  UNL     1      -4.019   6.958  12.918  1.00  0.00     0.002 C 
HETATM    7  C7  UNL     1      -5.522   6.937  13.264  1.00  0.00    -0.004 C 
HETATM    8  C8  UNL     1      -6.155   5.580  12.945  1.00  0.00     0.010 C 
HETATM    9  C9  UNL     1      -7.679   5.637  13.043  1.00  0.00     0.035 C 
HETATM   10  C10 UNL     1      -8.196   6.520  14.157  1.00  0.00    -0.069 C 
HETATM   11  C11 UNL     1      -9.468   6.955  14.102  1.00  0.00     0.030 C 
HETATM   12  C12 UNL     1     -10.085   7.706  15.225  1.00  0.00     0.032 C 
HETATM   13  N1  UNL     1     -11.262   8.230  15.032  1.00  0.00    -0.271 N 
ATOM     14  H1  UNL     1     -11.759   8.203  14.141  1.00  0.00     0.194 HD
HETATM   15  C23 UNL     1      -9.313   7.760  16.526  1.00  0.00     0.060 C 
HETATM   16  C24 UNL     1      -7.832   7.952  16.223  1.00  0.00     0.020 C 
HETATM   17  C25 UNL     1      -7.230   6.849  15.295  1.00  0.00    -0.016 C 
HETATM   18  C26 UNL     1      -7.055   5.563  16.139  1.00  0.00     0.020 C 
HETATM   19  C27 UNL     1      -5.873   7.423  14.700  1.00  0.00     0.002 C 
HETATM   20  C28 UNL     1      -4.683   7.359  15.679  1.00  0.00     0.007 C 
HETATM   21  C29 UNL     1      -3.704   6.229  15.369  1.00  0.00     0.014 C 
HETATM   22  C30 UNL     1      -3.037   6.352  13.978  1.00  0.00     0.003 C 
HETATM   23  C31 UNL     1      -2.649   4.926  13.513  1.00  0.00     0.020 C 
ENDROOT
BRANCH   3  24
HETATM   24  O1  UNL     1      -1.835   8.231  15.082  1.00  0.00    -0.377 OA
HETATM   25  H2  UNL     1      -1.012   8.750  15.058  1.00  0.00     0.211 HD
ENDBRANCH   3  24
BRANCH  13  26
HETATM   26  O2  UNL     1     -11.764   8.835  16.191  1.00  0.00    -0.271 OA
BRANCH  26  27
HETATM   27  C13 UNL     1     -13.174   8.983  16.060  1.00  0.00     0.303 C 
BRANCH  27  28
HETATM   28  C14 UNL     1     -13.793   9.199  17.430  1.00  0.00     0.243 C 
HETATM   29  O3  UNL     1     -14.947   9.587  17.592  1.00  0.00    -0.271 OA
HETATM   30  N2  UNL     1     -12.968   8.887  18.488  1.00  0.00    -0.356 N 
HETATM   31  H16 UNL     1     -12.016   8.604  18.273  1.00  0.00     0.162 HD
BRANCH  30  32
HETATM   32  C15 UNL     1     -13.427   8.840  19.872  1.00  0.00     0.159 C 
BRANCH  32  33
HETATM   33  C16 UNL     1     -12.316   8.529  20.903  1.00  0.00     0.170 C 
BRANCH  33  34
HETATM   34  O4  UNL     1     -11.366   9.594  20.992  1.00  0.00    -0.389 OA
HETATM   35  H20 UNL     1     -11.227   9.938  20.082  1.00  0.00     0.210 HD
ENDBRANCH  33  34
BRANCH  33  36
HETATM   36  C17 UNL     1     -12.920   8.312  22.270  1.00  0.00    -0.013 A 
HETATM   37  C18 UNL     1     -12.145   8.240  23.430  1.00  0.00     0.013 A 
HETATM   38  C19 UNL     1     -12.760   8.088  24.670  1.00  0.00     0.025 A 
HETATM   39  C20 UNL     1     -14.148   8.025  24.727  1.00  0.00     0.005 A 
HETATM   40  C21 UNL     1     -14.837   7.851  26.049  1.00  0.00     0.068 C 
HETATM   41  N3  UNL     1     -14.927   8.094  23.622  1.00  0.00    -0.369 N 
HETATM   42  C22 UNL     1     -14.300   8.228  22.429  1.00  0.00     0.097 A 
ATOM     43  H3  UNL     1     -15.943   8.047  23.685  1.00  0.00     0.165 HD
ENDBRANCH  33  36
ENDBRANCH  32  33
ENDBRANCH  30  32
ENDBRANCH  27  28
ENDBRANCH  26  27
ENDBRANCH  13  26
TORSDOF 8
ENDMDL
MODEL 2
REMARK minimizedAffinity -7.38501501
REMARK CNNscore 0.425711751
REMARK CNNaffinity 6.53031206
REMARK  8 active torsions:
REMARK  status: ('A' for Active; 'I' for Inactive)
REMARK    1  A    between atoms: C3_3  and  O1_4 
REMARK    2  A    between atoms: N1_14  and  O2_16 
REMARK    3  A    between atoms: O2_16  and  C13_17 
REMARK    4  A    between atoms: C13_17  and  C14_18 
REMARK       I    between atoms: C14_18  and  N2_20 
REMARK    5  A    between atoms: N2_20  and  C15_21 
REMARK    6  A    between atoms: C15_21  and  C16_22 
REMARK    7  A    between atoms: C16_22  and  O4_23 
REMARK    8  A    between atoms: C16_22  and  C17_24 
ROOT
HETATM    1  C1  UNL     1      -5.040  17.115  18.574  1.00  0.00     0.015 C 
HETATM    2  C2  UNL     1      -5.475  16.109  19.066  1.00  0.00    -0.078 C 
HETATM    3  C3  UNL     1      -6.005  14.859  19.642  1.00  0.00     0.128 C 
HETATM    4  C4  UNL     1      -4.902  14.066  20.353  1.00  0.00     0.052 C 
HETATM    5  C5  UNL     1      -5.685  13.120  21.249  1.00  0.00     0.010 C 
HETATM    6  C6  UNL     1      -6.743  14.038  21.871  1.00  0.00     0.002 C 
HETATM    7  C7  UNL     1      -7.891  13.257  22.543  1.00  0.00    -0.004 C 
HETATM    8  C8  UNL     1      -8.573  14.085  23.634  1.00  0.00     0.010 C 
HETATM    9  C9  UNL     1      -9.529  13.232  24.467  1.00  0.00     0.035 C 
HETATM   10  C10 UNL     1     -10.276  12.183  23.674  1.00  0.00    -0.069 C 
HETATM   11  C11 UNL     1     -10.828  11.145  24.329  1.00  0.00     0.030 C 
HETATM   12  C12 UNL     1     -11.691  10.156  23.636  1.00  0.00     0.032 C 
HETATM   13  N1  UNL     1     -12.054   9.096  24.301  1.00  0.00    -0.271 N 
ATOM     14  H1  UNL     1     -11.737   8.878  25.246  1.00  0.00     0.194 HD
HETATM   15  C23 UNL     1     -12.122  10.485  22.223  1.00  0.00     0.060 C 
HETATM   16  C24 UNL     1     -10.951  11.108  21.474  1.00  0.00     0.020 C 
HETATM   17  C25 UNL     1     -10.369  12.385  22.162  1.00  0.00    -0.016 C 
HETATM   18  C26 UNL     1     -11.358  13.549  21.910  1.00  0.00     0.020 C 
HETATM   19  C27 UNL     1      -8.918  12.624  21.560  1.00  0.00     0.002 C 
HETATM   20  C28 UNL     1      -8.919  13.282  20.164  1.00  0.00     0.007 C 
HETATM   21  C29 UNL     1      -8.558  14.764  20.193  1.00  0.00     0.014 C 
HETATM   22  C30 UNL     1      -7.136  15.044  20.736  1.00  0.00     0.003 C 
HETATM   23  C31 UNL     1      -7.133  16.472  21.338  1.00  0.00     0.020 C 
ENDROOT
BRANCH   3  24
HETATM   24  O1  UNL     1      -6.462  14.053  18.555  1.00  0.00    -0.377 OA
HETATM   25  H2  UNL     1      -5.752  14.045  17.890  1.00  0.00     0.211 HD
ENDBRANCH   3  24
BRANCH  13  26
HETATM   26  O2  UNL     1     -12.932   8.289  23.565  1.00  0.00    -0.271 OA
BRANCH  26  27
HETATM   27  C13 UNL     1     -12.392   6.974  23.483  1.00  0.00     0.303 C 
BRANCH  27  28
HETATM   28  C14 UNL     1     -13.501   5.988  23.162  1.00  0.00     0.243 C 
HETATM   29  O3  UNL     1     -14.155   6.028  22.123  1.00  0.00    -0.271 OA
HETATM   30  N2  UNL     1     -13.694   5.011  24.114  1.00  0.00    -0.356 N 
HETATM   31  H16 UNL     1     -13.135   5.065  24.962  1.00  0.00     0.162 HD
BRANCH  30  32
HETATM   32  C15 UNL     1     -14.571   3.863  23.914  1.00  0.00     0.159 C 
BRANCH  32  33
HETATM   33  C16 UNL     1     -13.906   2.494  24.194  1.00  0.00     0.170 C 
BRANCH  33  34
HETATM   34  O4  UNL     1     -12.767   2.281  23.356  1.00  0.00    -0.389 OA
HETATM   35  H20 UNL     1     -12.985   2.644  22.469  1.00  0.00     0.210 HD
ENDBRANCH  33  34
BRANCH  33  36
HETATM   36  C17 UNL     1     -13.459   2.418  25.635  1.00  0.00    -0.013 A 
HETATM   37  C18 UNL     1     -12.300   1.745  26.026  1.00  0.00     0.013 A 
HETATM   38  C19 UNL     1     -11.910   1.748  27.363  1.00  0.00     0.025 A 
HETATM   39  C20 UNL     1     -12.686   2.441  28.286  1.00  0.00     0.005 A 
HETATM   40  C21 UNL     1     -12.295   2.453  29.735  1.00  0.00     0.068 C 
HETATM   41  N3  UNL     1     -13.814   3.104  27.938  1.00  0.00    -0.369 N 
HETATM   42  C22 UNL     1     -14.175   3.071  26.634  1.00  0.00     0.097 A 
ATOM     43  H3  UNL     1     -14.369   3.607  28.630  1.00  0.00     0.165 HD
ENDBRANCH  33  36
ENDBRANCH  32  33
ENDBRANCH  30  32
ENDBRANCH  27  28
ENDBRANCH  26  27
ENDBRANCH  13  26
TORSDOF 8
ENDMDL
MODEL 3
REMARK minimizedAffinity -9.38820457
REMARK CNNscore 0.401832014
REMARK CNNaffinity 7.19923973
REMARK  8 active torsions:
REMARK  status: ('A' for Active; 'I' for Inactive)
REMARK    1  A    between atoms: C3_3  and  O1_4 
REMARK    2  A    between atoms: N1_14  and  O2_16 
REMARK    3  A    between atoms: O2_16  and  C13_17 
REMARK    4  A    between atoms: C13_17  and  C14_18 
REMARK       I    between atoms: C14_18  and  N2_20 
REMARK    5  A    between atoms: N2_20  and  C15_21 
REMARK    6  A    between atoms: C15_21  and  C16_22 
REMARK    7  A    between atoms: C16_22  and  O4_23 
REMARK    8  A    between atoms: C16_22  and  C17_24 
ROOT
HETATM    1  C1  UNL     1       0.643   7.771  15.570  1.00  0.00     0.015 C 
HETATM    2  C2  UNL     1      -0.464   7.973  15.147  1.00  0.00    -0.078 C 
HETATM    3  C3  UNL     1      -1.820   8.249  14.639  1.00  0.00     0.128 C 
HETATM    4  C4  UNL     1      -1.783   8.686  13.170  1.00  0.00     0.052 C 
HETATM    5  C5  UNL     1      -3.215   8.462  12.710  1.00  0.00     0.010 C 
HETATM    6  C6  UNL     1      -3.541   7.077  13.280  1.00  0.00     0.002 C 
HETATM    7  C7  UNL     1      -5.053   6.766  13.264  1.00  0.00    -0.004 C 
HETATM    8  C8  UNL     1      -5.317   5.259  13.240  1.00  0.00     0.010 C 
HETATM    9  C9  UNL     1      -6.790   4.955  12.967  1.00  0.00     0.035 C 
HETATM   10  C10 UNL     1      -7.754   5.927  13.609  1.00  0.00    -0.069 C 
HETATM   11  C11 UNL     1      -9.012   6.002  13.137  1.00  0.00     0.030 C 
HETATM   12  C12 UNL     1     -10.048   6.830  13.805  1.00  0.00     0.032 C 
HETATM   13  N1  UNL     1     -11.192   6.977  13.199  1.00  0.00    -0.271 N 
ATOM     14  H1  UNL     1     -11.397   6.607  12.271  1.00  0.00     0.194 HD
HETATM   15  C23 UNL     1      -9.707   7.395  15.168  1.00  0.00     0.060 C 
HETATM   16  C24 UNL     1      -8.260   7.871  15.165  1.00  0.00     0.020 C 
HETATM   17  C25 UNL     1      -7.231   6.759  14.781  1.00  0.00    -0.016 C 
HETATM   18  C26 UNL     1      -7.085   5.809  15.994  1.00  0.00     0.020 C 
HETATM   19  C27 UNL     1      -5.883   7.489  14.363  1.00  0.00     0.002 C 
HETATM   20  C28 UNL     1      -5.035   7.970  15.559  1.00  0.00     0.007 C 
HETATM   21  C29 UNL     1      -3.826   7.081  15.840  1.00  0.00     0.014 C 
HETATM   22  C30 UNL     1      -2.818   7.018  14.668  1.00  0.00     0.003 C 
HETATM   23  C31 UNL     1      -2.068   5.666  14.762  1.00  0.00     0.020 C 
ENDROOT
BRANCH   3  24
HETATM   24  O1  UNL     1      -2.335   9.351  15.388  1.00  0.00    -0.377 OA
HETATM   25  H2  UNL     1      -1.645  10.037  15.394  1.00  0.00     0.211 HD
ENDBRANCH   3  24
BRANCH  13  26
HETATM   26  O2  UNL     1     -12.106   7.705  13.972  1.00  0.00    -0.271 OA
BRANCH  26  27
HETATM   27  C13 UNL     1     -13.424   7.425  13.513  1.00  0.00     0.303 C 
BRANCH  27  28
HETATM   28  C14 UNL     1     -14.198   6.699  14.600  1.00  0.00     0.243 C 
HETATM   29  O3  UNL     1     -14.541   7.234  15.651  1.00  0.00    -0.271 OA
HETATM   30  N2  UNL     1     -14.525   5.395  14.298  1.00  0.00    -0.356 N 
HETATM   31  H16 UNL     1     -14.177   5.015  13.422  1.00  0.00     0.162 HD
BRANCH  30  32
HETATM   32  C15 UNL     1     -15.423   4.588  15.116  1.00  0.00     0.159 C 
BRANCH  32  33
HETATM   33  C16 UNL     1     -16.685   4.086  14.373  1.00  0.00     0.170 C 
BRANCH  33  34
HETATM   34  O4  UNL     1     -17.025   4.938  13.277  1.00  0.00    -0.389 OA
HETATM   35  H20 UNL     1     -16.856   5.864  13.563  1.00  0.00     0.210 HD
ENDBRANCH  33  34
BRANCH  33  36
HETATM   36  C17 UNL     1     -16.454   2.691  13.839  1.00  0.00    -0.013 A 
HETATM   37  C18 UNL     1     -17.161   2.180  12.749  1.00  0.00     0.013 A 
HETATM   38  C19 UNL     1     -16.872   0.904  12.268  1.00  0.00     0.025 A 
HETATM   39  C20 UNL     1     -15.866   0.168  12.884  1.00  0.00     0.005 A 
HETATM   40  C21 UNL     1     -15.541  -1.213  12.393  1.00  0.00     0.068 C 
HETATM   41  N3  UNL     1     -15.163   0.637  13.941  1.00  0.00    -0.369 N 
HETATM   42  C22 UNL     1     -15.475   1.873  14.395  1.00  0.00     0.097 A 
ATOM     43  H3  UNL     1     -14.427   0.081  14.378  1.00  0.00     0.165 HD
ENDBRANCH  33  36
ENDBRANCH  32  33
ENDBRANCH  30  32
ENDBRANCH  27  28
ENDBRANCH  26  27
ENDBRANCH  13  26
TORSDOF 8
ENDMDL
MODEL 4
REMARK minimizedAffinity -8.53913021
REMARK CNNscore 0.385944188
REMARK CNNaffinity 6.92741585
REMARK  8 active torsions:
REMARK  status: ('A' for Active; 'I' for Inactive)
REMARK    1  A    between atoms: C3_3  and  O1_4 
REMARK    2  A    between atoms: N1_14  and  O2_16 
REMARK    3  A    between atoms: O2_16  and  C13_17 
REMARK    4  A    between atoms: C13_17  and  C14_18 
REMARK       I    between atoms: C14_18  and  N2_20 
REMARK    5  A    between atoms: N2_20  and  C15_21 
REMARK    6  A    between atoms: C15_21  and  C16_22 
REMARK    7  A    between atoms: C16_22  and  O4_23 
REMARK    8  A    between atoms: C16_22  and  C17_24 
ROOT
HETATM    1  C1  UNL     1       1.029   8.308  15.342  1.00  0.00     0.015 C 
HETATM    2  C2  UNL     1      -0.097   8.428  14.939  1.00  0.00    -0.078 C 
HETATM    3  C3  UNL     1      -1.478   8.604  14.455  1.00  0.00     0.128 C 
HETATM    4  C4  UNL     1      -1.501   8.969  12.967  1.00  0.00     0.052 C 
HETATM    5  C5  UNL     1      -2.928   8.645  12.556  1.00  0.00     0.010 C 
HETATM    6  C6  UNL     1      -3.163   7.274  13.199  1.00  0.00     0.002 C 
HETATM    7  C7  UNL     1      -4.654   6.880  13.238  1.00  0.00    -0.004 C 
HETATM    8  C8  UNL     1      -4.834   5.361  13.292  1.00  0.00     0.010 C 
HETATM    9  C9  UNL     1      -6.294   4.964  13.073  1.00  0.00     0.035 C 
HETATM   10  C10 UNL     1      -7.295   5.912  13.694  1.00  0.00    -0.069 C 
HETATM   11  C11 UNL     1      -8.566   5.894  13.252  1.00  0.00     0.030 C 
HETATM   12  C12 UNL     1      -9.631   6.695  13.908  1.00  0.00     0.032 C 
HETATM   13  N1  UNL     1     -10.795   6.750  13.326  1.00  0.00    -0.271 N 
ATOM     14  H1  UNL     1     -11.002   6.324  12.422  1.00  0.00     0.194 HD
HETATM   15  C23 UNL     1      -9.290   7.344  15.232  1.00  0.00     0.060 C 
HETATM   16  C24 UNL     1      -7.872   7.898  15.169  1.00  0.00     0.020 C 
HETATM   17  C25 UNL     1      -6.792   6.827  14.810  1.00  0.00    -0.016 C 
HETATM   18  C26 UNL     1      -6.564   5.947  16.063  1.00  0.00     0.020 C 
HETATM   19  C27 UNL     1      -5.497   7.609  14.323  1.00  0.00     0.002 C 
HETATM   20  C28 UNL     1      -4.649   8.194  15.471  1.00  0.00     0.007 C 
HETATM   21  C29 UNL     1      -3.386   7.387  15.762  1.00  0.00     0.014 C 
HETATM   22  C30 UNL     1      -2.404   7.323  14.568  1.00  0.00     0.003 C 
HETATM   23  C31 UNL     1      -1.578   6.020  14.706  1.00  0.00     0.020 C 
ENDROOT
BRANCH   3  24
HETATM   24  O1  UNL     1      -2.036   9.711  15.164  1.00  0.00    -0.377 OA
HETATM   25  H2  UNL     1      -1.386  10.433  15.119  1.00  0.00     0.211 HD
ENDBRANCH   3  24
BRANCH  13  26
HETATM   26  O2  UNL     1     -11.730   7.463  14.087  1.00  0.00    -0.271 OA
BRANCH  26  27
HETATM   27  C13 UNL     1     -12.922   6.691  14.196  1.00  0.00     0.303 C 
BRANCH  27  28
HETATM   28  C14 UNL     1     -13.972   7.480  14.959  1.00  0.00     0.243 C 
HETATM   29  O3  UNL     1     -14.608   8.406  14.462  1.00  0.00    -0.271 OA
HETATM   30  N2  UNL     1     -14.187   7.051  16.250  1.00  0.00    -0.356 N 
HETATM   31  H16 UNL     1     -13.597   6.300  16.599  1.00  0.00     0.162 HD
BRANCH  30  32
HETATM   32  C15 UNL     1     -15.277   7.544  17.084  1.00  0.00     0.159 C 
BRANCH  32  33
HETATM   33  C16 UNL     1     -14.850   8.597  18.134  1.00  0.00     0.170 C 
BRANCH  33  34
HETATM   34  O4  UNL     1     -15.876   9.569  18.352  1.00  0.00    -0.389 OA
HETATM   35  H20 UNL     1     -16.288   9.760  17.480  1.00  0.00     0.210 HD
ENDBRANCH  33  34
BRANCH  33  36
HETATM   36  C17 UNL     1     -14.543   7.924  19.451  1.00  0.00    -0.013 A 
HETATM   37  C18 UNL     1     -15.231   6.792  19.893  1.00  0.00     0.013 A 
HETATM   38  C19 UNL     1     -14.872   6.183  21.093  1.00  0.00     0.025 A 
HETATM   39  C20 UNL     1     -13.817   6.716  21.826  1.00  0.00     0.005 A 
HETATM   40  C21 UNL     1     -13.416   6.087  23.128  1.00  0.00     0.068 C 
HETATM   41  N3  UNL     1     -13.131   7.812  21.424  1.00  0.00    -0.369 N 
HETATM   42  C22 UNL     1     -13.511   8.389  20.260  1.00  0.00     0.097 A 
ATOM     43  H3  UNL     1     -12.359   8.186  21.975  1.00  0.00     0.165 HD
ENDBRANCH  33  36
ENDBRANCH  32  33
ENDBRANCH  30  32
ENDBRANCH  27  28
ENDBRANCH  26  27
ENDBRANCH  13  26
TORSDOF 8
ENDMDL
MODEL 5
REMARK minimizedAffinity -10.7625351
REMARK CNNscore 0.332772255
REMARK CNNaffinity 7.31601095
REMARK  8 active torsions:
REMARK  status: ('A' for Active; 'I' for Inactive)
REMARK    1  A    between atoms: C3_3  and  O1_4 
REMARK    2  A    between atoms: N1_14  and  O2_16 
REMARK    3  A    between atoms: O2_16  and  C13_17 
REMARK    4  A    between atoms: C13_17  and  C14_18 
REMARK       I    between atoms: C14_18  and  N2_20 
REMARK    5  A    between atoms: N2_20  and  C15_21 
REMARK    6  A    between atoms: C15_21  and  C16_22 
REMARK    7  A    between atoms: C16_22  and  O4_23 
REMARK    8  A    between atoms: C16_22  and  C17_24 
ROOT
HETATM    1  C1  UNL     1       4.990   7.774  10.279  1.00  0.00     0.015 C 
HETATM    2  C2  UNL     1       3.857   7.458  10.520  1.00  0.00    -0.078 C 
HETATM    3  C3  UNL     1       2.458   7.074  10.785  1.00  0.00     0.128 C 
HETATM    4  C4  UNL     1       2.287   5.551  10.756  1.00  0.00     0.052 C 
HETATM    5  C5  UNL     1       0.973   5.339  11.492  1.00  0.00     0.010 C 
HETATM    6  C6  UNL     1       1.118   6.254  12.713  1.00  0.00     0.002 C 
HETATM    7  C7  UNL     1      -0.223   6.501  13.436  1.00  0.00    -0.004 C 
HETATM    8  C8  UNL     1      -0.011   6.864  14.907  1.00  0.00     0.010 C 
HETATM    9  C9  UNL     1      -1.330   6.857  15.679  1.00  0.00     0.035 C 
HETATM   10  C10 UNL     1      -2.514   7.370  14.891  1.00  0.00    -0.069 C 
HETATM   11  C11 UNL     1      -3.755   7.054  15.305  1.00  0.00     0.030 C 
HETATM   12  C12 UNL     1      -4.962   7.635  14.663  1.00  0.00     0.032 C 
HETATM   13  N1  UNL     1      -6.124   7.160  15.013  1.00  0.00    -0.271 N 
ATOM     14  H1  UNL     1      -6.250   6.378  15.655  1.00  0.00     0.194 HD
HETATM   15  C23 UNL     1      -4.746   8.773  13.688  1.00  0.00     0.060 C 
HETATM   16  C24 UNL     1      -3.518   8.477  12.837  1.00  0.00     0.020 C 
HETATM   17  C25 UNL     1      -2.217   8.238  13.668  1.00  0.00    -0.016 C 
HETATM   18  C26 UNL     1      -1.726   9.612  14.185  1.00  0.00     0.020 C 
HETATM   19  C27 UNL     1      -1.181   7.495  12.719  1.00  0.00     0.002 C 
HETATM   20  C28 UNL     1      -0.465   8.428  11.721  1.00  0.00     0.007 C 
HETATM   21  C29 UNL     1       0.971   8.756  12.122  1.00  0.00     0.014 C 
HETATM   22  C30 UNL     1       1.891   7.515  12.198  1.00  0.00     0.003 C 
HETATM   23  C31 UNL     1       3.024   7.828  13.206  1.00  0.00     0.020 C 
ENDROOT
BRANCH   3  24
HETATM   24  O1  UNL     1       1.665   7.602   9.721  1.00  0.00    -0.377 OA
HETATM   25  H2  UNL     1       2.110   7.360   8.890  1.00  0.00     0.211 HD
ENDBRANCH   3  24
BRANCH  13  26
HETATM   26  O2  UNL     1      -7.179   7.849  14.401  1.00  0.00    -0.271 OA
BRANCH  26  27
HETATM   27  C13 UNL     1      -8.412   7.309  14.863  1.00  0.00     0.303 C 
BRANCH  27  28
HETATM   28  C14 UNL     1      -8.902   6.252  13.889  1.00  0.00     0.243 C 
HETATM   29  O3  UNL     1      -9.838   6.435  13.115  1.00  0.00    -0.271 OA
HETATM   30  N2  UNL     1      -8.187   5.074  13.912  1.00  0.00    -0.356 N 
HETATM   31  H16 UNL     1      -7.448   4.988  14.605  1.00  0.00     0.162 HD
BRANCH  30  32
HETATM   32  C15 UNL     1      -8.370   4.010  12.932  1.00  0.00     0.159 C 
BRANCH  32  33
HETATM   33  C16 UNL     1      -7.395   2.820  13.093  1.00  0.00     0.170 C 
BRANCH  33  34
HETATM   34  O4  UNL     1      -7.920   1.626  12.507  1.00  0.00    -0.389 OA
HETATM   35  H20 UNL     1      -8.885   1.608  12.694  1.00  0.00     0.210 HD
ENDBRANCH  33  34
BRANCH  33  36
HETATM   36  C17 UNL     1      -6.074   3.136  12.431  1.00  0.00    -0.013 A 
HETATM   37  C18 UNL     1      -5.192   4.093  12.938  1.00  0.00     0.013 A 
HETATM   38  C19 UNL     1      -3.965   4.308  12.314  1.00  0.00     0.025 A 
HETATM   39  C20 UNL     1      -3.639   3.547  11.197  1.00  0.00     0.005 A 
HETATM   40  C21 UNL     1      -2.328   3.766  10.499  1.00  0.00     0.068 C 
HETATM   41  N3  UNL     1      -4.471   2.612  10.683  1.00  0.00    -0.369 N 
HETATM   42  C22 UNL     1      -5.662   2.434  11.302  1.00  0.00     0.097 A 
ATOM     43  H3  UNL     1      -4.212   2.063   9.863  1.00  0.00     0.165 HD
ENDBRANCH  33  36
ENDBRANCH  32  33
ENDBRANCH  30  32
ENDBRANCH  27  28
ENDBRANCH  26  27
ENDBRANCH  13  26
TORSDOF 8
ENDMDL
MODEL 6
REMARK minimizedAffinity -8.05165195
REMARK CNNscore 0.327195585
REMARK CNNaffinity 6.95809031
REMARK  8 active torsions:
REMARK  status: ('A' for Active; 'I' for Inactive)
REMARK    1  A    between atoms: C3_3  and  O1_4 
REMARK    2  A    between atoms: N1_14  and  O2_16 
REMARK    3  A    between atoms: O2_16  and  C13_17 
REMARK    4  A    between atoms: C13_17  and  C14_18 
REMARK       I    between atoms: C14_18  and  N2_20 
REMARK    5  A    between atoms: N2_20  and  C15_21 
REMARK    6  A    between atoms: C15_21  and  C16_22 
REMARK    7  A    between atoms: C16_22  and  O4_23 
REMARK    8  A    between atoms: C16_22  and  C17_24 
ROOT
HETATM    1  C1  UNL     1     -10.622   7.052  13.387  1.00  0.00     0.015 C 
HETATM    2  C2  UNL     1      -9.586   7.048  13.996  1.00  0.00    -0.078 C 
HETATM    3  C3  UNL     1      -8.326   7.067  14.761  1.00  0.00     0.128 C 
HETATM    4  C4  UNL     1      -8.371   6.074  15.927  1.00  0.00     0.052 C 
HETATM    5  C5  UNL     1      -6.902   5.889  16.276  1.00  0.00     0.010 C 
HETATM    6  C6  UNL     1      -6.248   5.708  14.902  1.00  0.00     0.002 C 
HETATM    7  C7  UNL     1      -4.713   5.861  14.947  1.00  0.00    -0.004 C 
HETATM    8  C8  UNL     1      -4.039   5.113  13.795  1.00  0.00     0.010 C 
HETATM    9  C9  UNL     1      -2.523   5.049  13.982  1.00  0.00     0.035 C 
HETATM   10  C10 UNL     1      -1.920   6.296  14.590  1.00  0.00    -0.069 C 
HETATM   11  C11 UNL     1      -0.700   6.218  15.153  1.00  0.00     0.030 C 
HETATM   12  C12 UNL     1       0.011   7.425  15.644  1.00  0.00     0.032 C 
HETATM   13  N1  UNL     1       1.111   7.250  16.319  1.00  0.00    -0.271 N 
ATOM     14  H1  UNL     1       1.482   6.336  16.578  1.00  0.00     0.194 HD
HETATM   15  C23 UNL     1      -0.577   8.771  15.273  1.00  0.00     0.060 C 
HETATM   16  C24 UNL     1      -2.095   8.702  15.384  1.00  0.00     0.020 C 
HETATM   17  C25 UNL     1      -2.741   7.582  14.507  1.00  0.00    -0.016 C 
HETATM   18  C26 UNL     1      -2.709   8.057  13.034  1.00  0.00     0.020 C 
HETATM   19  C27 UNL     1      -4.203   7.326  15.073  1.00  0.00     0.002 C 
HETATM   20  C28 UNL     1      -5.240   8.379  14.632  1.00  0.00     0.007 C 
HETATM   21  C29 UNL     1      -6.172   7.885  13.528  1.00  0.00     0.014 C 
HETATM   22  C30 UNL     1      -7.030   6.666  13.941  1.00  0.00     0.003 C 
HETATM   23  C31 UNL     1      -7.379   5.876  12.655  1.00  0.00     0.020 C 
ENDROOT
BRANCH   3  24
HETATM   24  O1  UNL     1      -8.196   8.371  15.329  1.00  0.00    -0.377 OA
HETATM   25  H2  UNL     1      -9.048   8.583  15.748  1.00  0.00     0.211 HD
ENDBRANCH   3  24
BRANCH  13  26
HETATM   26  O2  UNL     1       1.725   8.466  16.647  1.00  0.00    -0.271 OA
BRANCH  26  27
HETATM   27  C13 UNL     1       0.819   9.529  16.373  1.00  0.00     0.303 C 
BRANCH  27  28
HETATM   28  C14 UNL     1       1.591  10.826  16.206  1.00  0.00     0.243 C 
HETATM   29  O3  UNL     1       1.125  11.926  16.492  1.00  0.00    -0.271 OA
HETATM   30  N2  UNL     1       2.879  10.672  15.744  1.00  0.00    -0.356 N 
HETATM   31  H16 UNL     1       3.180   9.733  15.499  1.00  0.00     0.162 HD
BRANCH  30  32
HETATM   32  C15 UNL     1       3.846  11.763  15.696  1.00  0.00     0.159 C 
BRANCH  32  33
HETATM   33  C16 UNL     1       4.456  12.014  14.296  1.00  0.00     0.170 C 
BRANCH  33  34
HETATM   34  O4  UNL     1       5.492  12.999  14.342  1.00  0.00    -0.389 OA
HETATM   35  H20 UNL     1       5.209  13.692  14.978  1.00  0.00     0.210 HD
ENDBRANCH  33  34
BRANCH  33  36
HETATM   36  C17 UNL     1       5.038  10.734  13.745  1.00  0.00    -0.013 A 
HETATM   37  C18 UNL     1       6.020  10.005  14.420  1.00  0.00     0.013 A 
HETATM   38  C19 UNL     1       6.485   8.804  13.887  1.00  0.00     0.025 A 
HETATM   39  C20 UNL     1       5.945   8.348  12.690  1.00  0.00     0.005 A 
HETATM   40  C21 UNL     1       6.435   7.063  12.089  1.00  0.00     0.068 C 
HETATM   41  N3  UNL     1       4.992   9.031  12.014  1.00  0.00    -0.369 N 
HETATM   42  C22 UNL     1       4.569  10.200  12.548  1.00  0.00     0.097 A 
ATOM     43  H3  UNL     1       4.607   8.678  11.137  1.00  0.00     0.165 HD
ENDBRANCH  33  36
ENDBRANCH  32  33
ENDBRANCH  30  32
ENDBRANCH  27  28
ENDBRANCH  26  27
ENDBRANCH  13  26
TORSDOF 8
ENDMDL
MODEL 7
REMARK minimizedAffinity -8.05030441
REMARK CNNscore 0.301947057
REMARK CNNaffinity 7.26557493
REMARK  8 active torsions:
REMARK  status: ('A' for Active; 'I' for Inactive)
REMARK    1  A    between atoms: C3_3  and  O1_4 
REMARK    2  A    between atoms: N1_14  and  O2_16 
REMARK    3  A    between atoms: O2_16  and  C13_17 
REMARK    4  A    between atoms: C13_17  and  C14_18 
REMARK       I    between atoms: C14_18  and  N2_20 
REMARK    5  A    between atoms: N2_20  and  C15_21 
REMARK    6  A    between atoms: C15_21  and  C16_22 
REMARK    7  A    between atoms: C16_22  and  O4_23 
REMARK    8  A    between atoms: C16_22  and  C17_24 
ROOT
HETATM    1  C1  UNL     1      -3.533   5.726  13.265  1.00  0.00     0.015 C 
HETATM    2  C2  UNL     1      -4.615   5.711  13.786  1.00  0.00    -0.078 C 
HETATM    3  C3  UNL     1      -5.945   5.662  14.422  1.00  0.00     0.128 C 
HETATM    4  C4  UNL     1      -5.826   5.588  15.949  1.00  0.00     0.052 C 
HETATM    5  C5  UNL     1      -7.206   6.016  16.421  1.00  0.00     0.010 C 
HETATM    6  C6  UNL     1      -7.495   7.245  15.551  1.00  0.00     0.002 C 
HETATM    7  C7  UNL     1      -8.982   7.657  15.576  1.00  0.00    -0.004 C 
HETATM    8  C8  UNL     1      -9.160   9.141  15.248  1.00  0.00     0.010 C 
HETATM    9  C9  UNL     1     -10.590   9.606  15.522  1.00  0.00     0.035 C 
HETATM   10  C10 UNL     1     -11.651   8.579  15.190  1.00  0.00    -0.069 C 
HETATM   11  C11 UNL     1     -12.873   8.710  15.737  1.00  0.00     0.030 C 
HETATM   12  C12 UNL     1     -13.999   7.822  15.350  1.00  0.00     0.032 C 
HETATM   13  N1  UNL     1     -15.103   7.906  16.037  1.00  0.00    -0.271 N 
ATOM     14  H1  UNL     1     -15.220   8.501  16.857  1.00  0.00     0.194 HD
HETATM   15  C23 UNL     1     -13.789   6.925  14.149  1.00  0.00     0.060 C 
HETATM   16  C24 UNL     1     -12.374   6.362  14.185  1.00  0.00     0.020 C 
HETATM   17  C25 UNL     1     -11.261   7.456  14.229  1.00  0.00    -0.016 C 
HETATM   18  C26 UNL     1     -11.150   8.076  12.815  1.00  0.00     0.020 C 
HETATM   19  C27 UNL     1      -9.929   6.753  14.734  1.00  0.00     0.002 C 
HETATM   20  C28 UNL     1      -9.197   5.941  13.646  1.00  0.00     0.007 C 
HETATM   21  C29 UNL     1      -7.964   6.649  13.089  1.00  0.00     0.014 C 
HETATM   22  C30 UNL     1      -6.872   6.918  14.152  1.00  0.00     0.003 C 
HETATM   23  C31 UNL     1      -6.057   8.152  13.689  1.00  0.00     0.020 C 
ENDROOT
BRANCH   3  24
HETATM   24  O1  UNL     1      -6.573   4.452  13.994  1.00  0.00    -0.377 OA
HETATM   25  H2  UNL     1      -5.924   3.737  14.117  1.00  0.00     0.211 HD
ENDBRANCH   3  24
BRANCH  13  26
HETATM   26  O2  UNL     1     -16.109   7.082  15.517  1.00  0.00    -0.271 OA
BRANCH  26  27
HETATM   27  C13 UNL     1     -16.324   5.995  16.412  1.00  0.00     0.303 C 
BRANCH  27  28
HETATM   28  C14 UNL     1     -16.590   4.728  15.620  1.00  0.00     0.243 C 
HETATM   29  O3  UNL     1     -16.828   4.728  14.415  1.00  0.00    -0.271 OA
HETATM   30  N2  UNL     1     -16.506   3.564  16.352  1.00  0.00    -0.356 N 
HETATM   31  H16 UNL     1     -16.338   3.650  17.351  1.00  0.00     0.162 HD
BRANCH  30  32
HETATM   32  C15 UNL     1     -16.538   2.237  15.749  1.00  0.00     0.159 C 
BRANCH  32  33
HETATM   33  C16 UNL     1     -15.647   2.085  14.493  1.00  0.00     0.170 C 
BRANCH  33  34
HETATM   34  O4  UNL     1     -14.278   1.864  14.842  1.00  0.00    -0.389 OA
HETATM   35  H20 UNL     1     -14.081   2.428  15.623  1.00  0.00     0.210 HD
ENDBRANCH  33  34
BRANCH  33  36
HETATM   36  C17 UNL     1     -16.120   0.919  13.656  1.00  0.00    -0.013 A 
HETATM   37  C18 UNL     1     -16.770   1.091  12.432  1.00  0.00     0.013 A 
HETATM   38  C19 UNL     1     -17.141  -0.021  11.679  1.00  0.00     0.025 A 
HETATM   39  C20 UNL     1     -16.840  -1.290  12.164  1.00  0.00     0.005 A 
HETATM   40  C21 UNL     1     -17.238  -2.505  11.378  1.00  0.00     0.068 C 
HETATM   41  N3  UNL     1     -16.211  -1.488  13.346  1.00  0.00    -0.369 N 
HETATM   42  C22 UNL     1     -15.874  -0.389  14.061  1.00  0.00     0.097 A 
ATOM     43  H3  UNL     1     -15.998  -2.426  13.683  1.00  0.00     0.165 HD
ENDBRANCH  33  36
ENDBRANCH  32  33
ENDBRANCH  30  32
ENDBRANCH  27  28
ENDBRANCH  26  27
ENDBRANCH  13  26
TORSDOF 8
ENDMDL
MODEL 8
REMARK minimizedAffinity -9.95377731
REMARK CNNscore 0.294615597
REMARK CNNaffinity 7.32430696
REMARK  8 active torsions:
REMARK  status: ('A' for Active; 'I' for Inactive)
REMARK    1  A    between atoms: C3_3  and  O1_4 
REMARK    2  A    between atoms: N1_14  and  O2_16 
REMARK    3  A    between atoms: O2_16  and  C13_17 
REMARK    4  A    between atoms: C13_17  and  C14_18 
REMARK       I    between atoms: C14_18  and  N2_20 
REMARK    5  A    between atoms: N2_20  and  C15_21 
REMARK    6  A    between atoms: C15_21  and  C16_22 
REMARK    7  A    between atoms: C16_22  and  O4_23 
REMARK    8  A    between atoms: C16_22  and  C17_24 
ROOT
HETATM    1  C1  UNL     1       5.741   8.265  14.393  1.00  0.00     0.015 C 
HETATM    2  C2  UNL     1       4.594   8.485  14.672  1.00  0.00    -0.078 C 
HETATM    3  C3  UNL     1       3.192   8.750  15.044  1.00  0.00     0.128 C 
HETATM    4  C4  UNL     1       2.927  10.255  15.168  1.00  0.00     0.052 C 
HETATM    5  C5  UNL     1       1.412  10.345  15.077  1.00  0.00     0.010 C 
HETATM    6  C6  UNL     1       1.087   9.419  13.900  1.00  0.00     0.002 C 
HETATM    7  C7  UNL     1      -0.409   9.050  13.826  1.00  0.00    -0.004 C 
HETATM    8  C8  UNL     1      -0.826   8.673  12.402  1.00  0.00     0.010 C 
HETATM    9  C9  UNL     1      -2.345   8.559  12.278  1.00  0.00     0.035 C 
HETATM   10  C10 UNL     1      -3.025   7.970  13.493  1.00  0.00    -0.069 C 
HETATM   11  C11 UNL     1      -4.344   8.176  13.663  1.00  0.00     0.030 C 
HETATM   12  C12 UNL     1      -5.103   7.514  14.755  1.00  0.00     0.032 C 
HETATM   13  N1  UNL     1      -6.336   7.888  14.950  1.00  0.00    -0.271 N 
ATOM     14  H1  UNL     1      -6.791   8.643  14.438  1.00  0.00     0.194 HD
HETATM   15  C23 UNL     1      -4.394   6.418  15.522  1.00  0.00     0.060 C 
HETATM   16  C24 UNL     1      -2.947   6.829  15.762  1.00  0.00     0.020 C 
HETATM   17  C25 UNL     1      -2.159   7.154  14.453  1.00  0.00    -0.016 C 
HETATM   18  C26 UNL     1      -1.830   5.813  13.753  1.00  0.00     0.020 C 
HETATM   19  C27 UNL     1      -0.878   7.997  14.872  1.00  0.00     0.002 C 
HETATM   20  C28 UNL     1       0.273   7.146  15.447  1.00  0.00     0.007 C 
HETATM   21  C29 UNL     1       1.415   6.926  14.458  1.00  0.00     0.014 C 
HETATM   22  C30 UNL     1       2.107   8.235  14.010  1.00  0.00     0.003 C 
HETATM   23  C31 UNL     1       2.714   7.991  12.606  1.00  0.00     0.020 C 
ENDROOT
BRANCH   3  24
HETATM   24  O1  UNL     1       2.984   8.183  16.339  1.00  0.00    -0.377 OA
HETATM   25  H2  UNL     1       3.723   8.478  16.899  1.00  0.00     0.211 HD
ENDBRANCH   3  24
BRANCH  13  26
HETATM   26  O2  UNL     1      -6.962   7.129  15.948  1.00  0.00    -0.271 OA
BRANCH  26  27
HETATM   27  C13 UNL     1      -8.370   7.164  15.739  1.00  0.00     0.303 C 
BRANCH  27  28
HETATM   28  C14 UNL     1      -8.708   6.463  14.435  1.00  0.00     0.243 C 
HETATM   29  O3  UNL     1      -9.252   7.029  13.490  1.00  0.00    -0.271 OA
HETATM   30  N2  UNL     1      -8.320   5.143  14.375  1.00  0.00    -0.356 N 
HETATM   31  H16 UNL     1      -7.905   4.738  15.211  1.00  0.00     0.162 HD
BRANCH  30  32
HETATM   32  C15 UNL     1      -8.378   4.348  13.154  1.00  0.00     0.159 C 
BRANCH  32  33
HETATM   33  C16 UNL     1      -7.548   3.043  13.202  1.00  0.00     0.170 C 
BRANCH  33  34
HETATM   34  O4  UNL     1      -8.258   1.945  12.622  1.00  0.00    -0.389 OA
HETATM   35  H20 UNL     1      -9.201   2.037  12.883  1.00  0.00     0.210 HD
ENDBRANCH  33  34
BRANCH  33  36
HETATM   36  C17 UNL     1      -6.250   3.223  12.449  1.00  0.00    -0.013 A 
HETATM   37  C18 UNL     1      -5.330   4.223  12.771  1.00  0.00     0.013 A 
HETATM   38  C19 UNL     1      -4.127   4.311  12.074  1.00  0.00     0.025 A 
HETATM   39  C20 UNL     1      -3.862   3.384  11.073  1.00  0.00     0.005 A 
HETATM   40  C21 UNL     1      -2.578   3.462  10.299  1.00  0.00     0.068 C 
HETATM   41  N3  UNL     1      -4.733   2.403  10.739  1.00  0.00    -0.369 N 
HETATM   42  C22 UNL     1      -5.900   2.350  11.423  1.00  0.00     0.097 A 
ATOM     43  H3  UNL     1      -4.520   1.732  10.001  1.00  0.00     0.165 HD
ENDBRANCH  33  36
ENDBRANCH  32  33
ENDBRANCH  30  32
ENDBRANCH  27  28
ENDBRANCH  26  27
ENDBRANCH  13  26
TORSDOF 8
ENDMDL
MODEL 9
REMARK minimizedAffinity -8.69267368
REMARK CNNscore 0.287728757
REMARK CNNaffinity 6.99277353
REMARK  8 active torsions:
REMARK  status: ('A' for Active; 'I' for Inactive)
REMARK    1  A    between atoms: C3_3  and  O1_4 
REMARK    2  A    between atoms: N1_14  and  O2_16 
REMARK    3  A    between atoms: O2_16  and  C13_17 
REMARK    4  A    between atoms: C13_17  and  C14_18 
REMARK       I    between atoms: C14_18  and  N2_20 
REMARK    5  A    between atoms: N2_20  and  C15_21 
REMARK    6  A    between atoms: C15_21  and  C16_22 
REMARK    7  A    between atoms: C16_22  and  O4_23 
REMARK    8  A    between atoms: C16_22  and  C17_24 
ROOT
HETATM    1  C1  UNL     1       1.080   7.713  15.605  1.00  0.00     0.015 C 
HETATM    2  C2  UNL     1      -0.020   7.883  15.155  1.00  0.00    -0.078 C 
HETATM    3  C3  UNL     1      -1.371   8.120  14.613  1.00  0.00     0.128 C 
HETATM    4  C4  UNL     1      -1.311   8.533  13.138  1.00  0.00     0.052 C 
HETATM    5  C5  UNL     1      -2.728   8.270  12.650  1.00  0.00     0.010 C 
HETATM    6  C6  UNL     1      -3.036   6.887  13.236  1.00  0.00     0.002 C 
HETATM    7  C7  UNL     1      -4.539   6.542  13.193  1.00  0.00    -0.004 C 
HETATM    8  C8  UNL     1      -4.770   5.030  13.189  1.00  0.00     0.010 C 
HETATM    9  C9  UNL     1      -6.229   4.688  12.889  1.00  0.00     0.035 C 
HETATM   10  C10 UNL     1      -7.228   5.649  13.494  1.00  0.00    -0.069 C 
HETATM   11  C11 UNL     1      -8.476   5.688  12.993  1.00  0.00     0.030 C 
HETATM   12  C12 UNL     1      -9.545   6.502  13.625  1.00  0.00     0.032 C 
HETATM   13  N1  UNL     1     -10.679   6.614  12.992  1.00  0.00    -0.271 N 
ATOM     14  H1  UNL     1     -10.855   6.224  12.066  1.00  0.00     0.194 HD
HETATM   15  C23 UNL     1      -9.247   7.098  14.985  1.00  0.00     0.060 C 
HETATM   16  C24 UNL     1      -7.811   7.606  15.006  1.00  0.00     0.020 C 
HETATM   17  C25 UNL     1      -6.750   6.512  14.662  1.00  0.00    -0.016 C 
HETATM   18  C26 UNL     1      -6.610   5.585  15.894  1.00  0.00     0.020 C 
HETATM   19  C27 UNL     1      -5.409   7.265  14.262  1.00  0.00     0.002 C 
HETATM   20  C28 UNL     1      -4.598   7.785  15.467  1.00  0.00     0.007 C 
HETATM   21  C29 UNL     1      -3.377   6.927  15.789  1.00  0.00     0.014 C 
HETATM   22  C30 UNL     1      -2.342   6.868  14.640  1.00  0.00     0.003 C 
HETATM   23  C31 UNL     1      -1.565   5.534  14.774  1.00  0.00     0.020 C 
ENDROOT
BRANCH   3  24
HETATM   24  O1  UNL     1      -1.927   9.222  15.331  1.00  0.00    -0.377 OA
HETATM   25  H2  UNL     1      -1.252   9.924  15.340  1.00  0.00     0.211 HD
ENDBRANCH   3  24
BRANCH  13  26
HETATM   26  O2  UNL     1     -11.625   7.334  13.732  1.00  0.00    -0.271 OA
BRANCH  26  27
HETATM   27  C13 UNL     1     -12.748   7.610  12.902  1.00  0.00     0.303 C 
BRANCH  27  28
HETATM   28  C14 UNL     1     -12.991   9.108  12.856  1.00  0.00     0.243 C 
HETATM   29  O3  UNL     1     -13.811   9.632  12.105  1.00  0.00    -0.271 OA
HETATM   30  N2  UNL     1     -12.246   9.839  13.754  1.00  0.00    -0.356 N 
HETATM   31  H16 UNL     1     -11.566   9.335  14.318  1.00  0.00     0.162 HD
BRANCH  30  32
HETATM   32  C15 UNL     1     -12.464  11.259  14.004  1.00  0.00     0.159 C 
BRANCH  32  33
HETATM   33  C16 UNL     1     -11.397  11.919  14.909  1.00  0.00     0.170 C 
BRANCH  33  34
HETATM   34  O4  UNL     1     -11.658  13.311  15.103  1.00  0.00    -0.389 OA
HETATM   35  H20 UNL     1     -11.988  13.668  14.249  1.00  0.00     0.210 HD
ENDBRANCH  33  34
BRANCH  33  36
HETATM   36  C17 UNL     1     -11.372  11.245  16.261  1.00  0.00    -0.013 A 
HETATM   37  C18 UNL     1     -10.916  11.891  17.412  1.00  0.00     0.013 A 
HETATM   38  C19 UNL     1     -10.962  11.238  18.642  1.00  0.00     0.025 A 
HETATM   39  C20 UNL     1     -11.479   9.948  18.697  1.00  0.00     0.005 A 
HETATM   40  C21 UNL     1     -11.531   9.217  20.007  1.00  0.00     0.068 C 
HETATM   41  N3  UNL     1     -11.930   9.297  17.599  1.00  0.00    -0.369 N 
HETATM   42  C22 UNL     1     -11.860   9.951  16.417  1.00  0.00     0.097 A 
ATOM     43  H3  UNL     1     -12.307   8.351  17.661  1.00  0.00     0.165 HD
ENDBRANCH  33  36
ENDBRANCH  32  33
ENDBRANCH  30  32
ENDBRANCH  27  28
ENDBRANCH  26  27
ENDBRANCH  13  26
TORSDOF 8
ENDMDL
