MODEL 1
REMARK minimizedAffinity -7.29562759
REMARK CNNscore 0.62128222
REMARK CNNaffinity 6.36698771
REMARK  14 active torsions:
REMARK  status: ('A' for Active; 'I' for Inactive)
REMARK    1  A    between atoms: O1_2  and  C2_3 
REMARK    2  A    between atoms: C8_9  and  O2_10 
REMARK    3  A    between atoms: O2_10  and  C9_11 
REMARK    4  A    between atoms: C10_13  and  C11_14 
REMARK    5  A    between atoms: C11_14  and  O4_15 
REMARK    6  A    between atoms: C12_16  and  O5_17 
REMARK    7  A    between atoms: C13_18  and  O6_19 
REMARK    8  A    between atoms: C14_20  and  O7_21 
REMARK    9  A    between atoms: C18_25  and  C19_26 
REMARK   10  A    between atoms: C24_32  and  C25_33 
REMARK   11  A    between atoms: C25_33  and  C27_35 
REMARK   12  A    between atoms: C27_35  and  C28_36 
REMARK   13  A    between atoms: C29_37  and  C30_38 
REMARK   14  A    between atoms: C30_38  and  O9_41 
ROOT
HETATM    1  C2  UNL     1     -18.262   0.007  16.429  1.00  0.00     0.149 C 
HETATM    2  C3  UNL     1     -18.316   1.506  16.538  1.00  0.00     0.009 C 
HETATM    3  C4  UNL     1     -18.023   2.286  15.481  1.00  0.00    -0.066 C 
HETATM    4  C5  UNL     1     -17.627   1.545  14.211  1.00  0.00     0.031 C 
HETATM    5  C6  UNL     1     -17.336   2.490  13.035  1.00  0.00     0.013 C 
HETATM    6  C7  UNL     1     -18.434   3.540  12.943  1.00  0.00     0.034 C 
HETATM    7  C8  UNL     1     -18.376   4.509  14.129  1.00  0.00     0.136 C 
HETATM    8  C15 UNL     1     -18.001   3.828  15.512  1.00  0.00     0.002 C 
HETATM    9  C16 UNL     1     -16.593   4.267  15.987  1.00  0.00     0.022 C 
HETATM   10  C17 UNL     1     -18.989   4.397  16.569  1.00  0.00     0.022 C 
HETATM   11  C18 UNL     1     -16.531   0.445  14.492  1.00  0.00     0.027 C 
HETATM   12  C20 UNL     1     -16.262  -0.369  13.184  1.00  0.00     0.018 C 
HETATM   13  C21 UNL     1     -15.493  -1.698  13.297  1.00  0.00     0.011 C 
HETATM   14  C22 UNL     1     -15.522  -2.345  14.687  1.00  0.00    -0.032 C 
HETATM   15  C23 UNL     1     -14.260  -1.880  15.482  1.00  0.00     0.016 C 
HETATM   16  C24 UNL     1     -15.584  -3.905  14.679  1.00  0.00    -0.002 C 
HETATM   17  C33 UNL     1     -16.120  -4.242  16.092  1.00  0.00     0.006 C 
HETATM   18  C34 UNL     1     -16.756  -2.943  16.644  1.00  0.00     0.011 C 
HETATM   19  C35 UNL     1     -16.879  -1.996  15.430  1.00  0.00    -0.029 C 
HETATM   20  C36 UNL     1     -18.188  -2.418  14.687  1.00  0.00     0.016 C 
HETATM   21  C37 UNL     1     -16.935  -0.459  15.752  1.00  0.00     0.043 C 
ENDROOT
BRANCH   7  22
HETATM   22  O2  UNL     1     -17.403   5.520  13.798  1.00  0.00    -0.352 OA
BRANCH  22  23
HETATM   23  C9  UNL     1     -17.693   6.252  12.600  1.00  0.00     0.292 C 
HETATM   24  O3  UNL     1     -16.495   6.329  11.817  1.00  0.00    -0.348 OA
HETATM   25  C10 UNL     1     -15.614   7.407  12.141  1.00  0.00     0.179 C 
HETATM   26  C12 UNL     1     -16.282   8.771  11.877  1.00  0.00     0.180 C 
HETATM   27  C13 UNL     1     -17.814   8.718  11.998  1.00  0.00     0.183 C 
HETATM   28  C14 UNL     1     -18.290   7.637  12.964  1.00  0.00     0.204 C 
BRANCH  25  29
HETATM   29  C11 UNL     1     -15.029   7.286  13.558  1.00  0.00     0.198 C 
BRANCH  29  30
HETATM   30  O4  UNL     1     -14.230   8.421  13.869  1.00  0.00    -0.398 OA
HETATM   31  H16 UNL     1     -13.824   8.246  14.737  1.00  0.00     0.209 HD
ENDBRANCH  29  30
ENDBRANCH  25  29
BRANCH  26  32
HETATM   32  O5  UNL     1     -15.986   9.217  10.535  1.00  0.00    -0.390 OA
HETATM   33  H18 UNL     1     -15.841  10.183  10.579  1.00  0.00     0.210 HD
ENDBRANCH  26  32
BRANCH  27  34
HETATM   34  O6  UNL     1     -18.431   8.487  10.718  1.00  0.00    -0.390 OA
HETATM   35  H20 UNL     1     -17.712   8.617  10.058  1.00  0.00     0.210 HD
ENDBRANCH  27  34
BRANCH  28  36
HETATM   36  O7  UNL     1     -19.725   7.573  12.973  1.00  0.00    -0.388 OA
HETATM   37  H22 UNL     1     -20.011   8.039  12.155  1.00  0.00     0.210 HD
ENDBRANCH  28  36
ENDBRANCH  22  23
ENDBRANCH   7  22
BRANCH  11  38
HETATM   38  C19 UNL     1     -15.232   1.220  14.790  1.00  0.00     0.241 C 
HETATM   39  O8  UNL     1     -14.594   1.173  15.836  1.00  0.00    -0.306 OA
ENDBRANCH  11  38
BRANCH   1  40
HETATM   40  O1  UNL     1     -18.353  -0.567  17.740  1.00  0.00    -0.386 OA
HETATM   41  C1  UNL     1     -19.654  -1.065  18.037  1.00  0.00     0.202 C 
ENDBRANCH   1  40
BRANCH  16  42
HETATM   42  C25 UNL     1     -14.459  -4.800  14.073  1.00  0.00    -0.010 C 
HETATM   43  C26 UNL     1     -13.938  -5.787  15.135  1.00  0.00     0.010 C 
BRANCH  42  44
HETATM   44  C27 UNL     1     -13.268  -4.195  13.298  1.00  0.00     0.031 C 
BRANCH  44  45
HETATM   45  C28 UNL     1     -13.524  -3.673  11.913  1.00  0.00    -0.027 C 
HETATM   46  C29 UNL     1     -14.422  -4.234  11.083  1.00  0.00     0.006 C 
BRANCH  46  47
HETATM   47  C30 UNL     1     -14.811  -3.768   9.704  1.00  0.00     0.068 C 
HETATM   48  C31 UNL     1     -13.588  -3.190   8.987  1.00  0.00     0.050 C 
HETATM   49  C32 UNL     1     -15.475  -4.824   8.807  1.00  0.00     0.050 C 
BRANCH  47  50
HETATM   50  O9  UNL     1     -15.737  -2.697   9.898  1.00  0.00    -0.387 OA
HETATM   51  H52 UNL     1     -16.559  -3.092  10.240  1.00  0.00     0.211 HD
ENDBRANCH  47  50
ENDBRANCH  46  47
ENDBRANCH  44  45
ENDBRANCH  42  44
ENDBRANCH  16  42
TORSDOF 14
ENDMDL
MODEL 2
REMARK minimizedAffinity -7.13341379
REMARK CNNscore 0.499768436
REMARK CNNaffinity 6.29304743
REMARK  14 active torsions:
REMARK  status: ('A' for Active; 'I' for Inactive)
REMARK    1  A    between atoms: O1_2  and  C2_3 
REMARK    2  A    between atoms: C8_9  and  O2_10 
REMARK    3  A    between atoms: O2_10  and  C9_11 
REMARK    4  A    between atoms: C10_13  and  C11_14 
REMARK    5  A    between atoms: C11_14  and  O4_15 
REMARK    6  A    between atoms: C12_16  and  O5_17 
REMARK    7  A    between atoms: C13_18  and  O6_19 
REMARK    8  A    between atoms: C14_20  and  O7_21 
REMARK    9  A    between atoms: C18_25  and  C19_26 
REMARK   10  A    between atoms: C24_32  and  C25_33 
REMARK   11  A    between atoms: C25_33  and  C27_35 
REMARK   12  A    between atoms: C27_35  and  C28_36 
REMARK   13  A    between atoms: C29_37  and  C30_38 
REMARK   14  A    between atoms: C30_38  and  O9_41 
ROOT
HETATM    1  C2  UNL     1     -18.223  -0.164  16.351  1.00  0.00     0.149 C 
HETATM    2  C3  UNL     1     -18.325   1.332  16.462  1.00  0.00     0.009 C 
HETATM    3  C4  UNL     1     -18.024   2.123  15.415  1.00  0.00    -0.066 C 
HETATM    4  C5  UNL     1     -17.567   1.397  14.156  1.00  0.00     0.031 C 
HETATM    5  C6  UNL     1     -17.270   2.354  12.991  1.00  0.00     0.013 C 
HETATM    6  C7  UNL     1     -18.395   3.371  12.867  1.00  0.00     0.034 C 
HETATM    7  C8  UNL     1     -18.402   4.338  14.057  1.00  0.00     0.136 C 
HETATM    8  C15 UNL     1     -18.049   3.665  15.449  1.00  0.00     0.002 C 
HETATM    9  C16 UNL     1     -16.669   4.144  15.967  1.00  0.00     0.022 C 
HETATM   10  C17 UNL     1     -19.085   4.201  16.477  1.00  0.00     0.022 C 
HETATM   11  C18 UNL     1     -16.448   0.331  14.468  1.00  0.00     0.027 C 
HETATM   12  C20 UNL     1     -16.115  -0.473  13.168  1.00  0.00     0.018 C 
HETATM   13  C21 UNL     1     -15.310  -1.778  13.302  1.00  0.00     0.011 C 
HETATM   14  C22 UNL     1     -15.362  -2.429  14.690  1.00  0.00    -0.032 C 
HETATM   15  C23 UNL     1     -14.139  -1.928  15.523  1.00  0.00     0.016 C 
HETATM   16  C24 UNL     1     -15.377  -3.990  14.677  1.00  0.00    -0.002 C 
HETATM   17  C33 UNL     1     -15.944  -4.346  16.072  1.00  0.00     0.006 C 
HETATM   18  C34 UNL     1     -16.636  -3.069  16.607  1.00  0.00     0.011 C 
HETATM   19  C35 UNL     1     -16.751  -2.123  15.391  1.00  0.00    -0.029 C 
HETATM   20  C36 UNL     1     -18.023  -2.581  14.608  1.00  0.00     0.016 C 
HETATM   21  C37 UNL     1     -16.862  -0.589  15.714  1.00  0.00     0.043 C 
ENDROOT
BRANCH   7  22
HETATM   22  O2  UNL     1     -17.450   5.379  13.756  1.00  0.00    -0.352 OA
BRANCH  22  23
HETATM   23  C9  UNL     1     -17.759   6.144  12.584  1.00  0.00     0.292 C 
HETATM   24  O3  UNL     1     -16.572   6.249  11.789  1.00  0.00    -0.348 OA
HETATM   25  C10 UNL     1     -15.690   7.321  12.133  1.00  0.00     0.179 C 
HETATM   26  C12 UNL     1     -16.367   8.689  11.918  1.00  0.00     0.180 C 
HETATM   27  C13 UNL     1     -17.897   8.626  12.057  1.00  0.00     0.183 C 
HETATM   28  C14 UNL     1     -18.356   7.515  12.997  1.00  0.00     0.204 C 
BRANCH  25  29
HETATM   29  C11 UNL     1     -15.087   7.161  13.538  1.00  0.00     0.198 C 
BRANCH  29  30
HETATM   30  O4  UNL     1     -14.378   8.335  13.916  1.00  0.00    -0.398 OA
HETATM   31  H16 UNL     1     -13.953   8.140  14.770  1.00  0.00     0.209 HD
ENDBRANCH  29  30
ENDBRANCH  25  29
BRANCH  26  32
HETATM   32  O5  UNL     1     -16.091   9.176  10.585  1.00  0.00    -0.390 OA
HETATM   33  H18 UNL     1     -15.949  10.141  10.656  1.00  0.00     0.210 HD
ENDBRANCH  26  32
BRANCH  27  34
HETATM   34  O6  UNL     1     -18.530   8.430  10.778  1.00  0.00    -0.390 OA
HETATM   35  H20 UNL     1     -17.820   8.583  10.113  1.00  0.00     0.210 HD
ENDBRANCH  27  34
BRANCH  28  36
HETATM   36  O7  UNL     1     -19.791   7.445  13.022  1.00  0.00    -0.388 OA
HETATM   37  H22 UNL     1     -20.090   7.933  12.222  1.00  0.00     0.210 HD
ENDBRANCH  28  36
ENDBRANCH  22  23
ENDBRANCH   7  22
BRANCH  11  38
HETATM   38  C19 UNL     1     -15.183   1.143  14.807  1.00  0.00     0.241 C 
HETATM   39  O8  UNL     1     -14.578   1.116  15.873  1.00  0.00    -0.306 OA
ENDBRANCH  11  38
BRANCH   1  40
HETATM   40  O1  UNL     1     -18.336  -0.744  17.658  1.00  0.00    -0.386 OA
HETATM   41  C1  UNL     1     -19.642  -1.244  17.931  1.00  0.00     0.202 C 
ENDBRANCH   1  40
BRANCH  16  42
HETATM   42  C25 UNL     1     -14.208  -4.850  14.104  1.00  0.00    -0.010 C 
HETATM   43  C26 UNL     1     -14.724  -6.243  13.700  1.00  0.00     0.010 C 
BRANCH  42  44
HETATM   44  C27 UNL     1     -12.862  -4.991  14.849  1.00  0.00     0.031 C 
BRANCH  44  45
HETATM   45  C28 UNL     1     -12.324  -6.377  15.070  1.00  0.00    -0.027 C 
HETATM   46  C29 UNL     1     -11.861  -6.791  16.263  1.00  0.00     0.006 C 
BRANCH  46  47
HETATM   47  C30 UNL     1     -11.357  -8.164  16.623  1.00  0.00     0.068 C 
HETATM   48  C31 UNL     1     -12.333  -8.838  17.591  1.00  0.00     0.050 C 
HETATM   49  C32 UNL     1     -11.082  -9.105  15.440  1.00  0.00     0.050 C 
BRANCH  47  50
HETATM   50  O9  UNL     1     -10.131  -7.960  17.328  1.00  0.00    -0.387 OA
HETATM   51  H52 UNL     1      -9.479  -7.647  16.676  1.00  0.00     0.211 HD
ENDBRANCH  47  50
ENDBRANCH  46  47
ENDBRANCH  44  45
ENDBRANCH  42  44
ENDBRANCH  16  42
TORSDOF 14
ENDMDL
MODEL 3
REMARK minimizedAffinity -7.50782537
REMARK CNNscore 0.365377009
REMARK CNNaffinity 7.07746649
REMARK  14 active torsions:
REMARK  status: ('A' for Active; 'I' for Inactive)
REMARK    1  A    between atoms: O1_2  and  C2_3 
REMARK    2  A    between atoms: C8_9  and  O2_10 
REMARK    3  A    between atoms: O2_10  and  C9_11 
REMARK    4  A    between atoms: C10_13  and  C11_14 
REMARK    5  A    between atoms: C11_14  and  O4_15 
REMARK    6  A    between atoms: C12_16  and  O5_17 
REMARK    7  A    between atoms: C13_18  and  O6_19 
REMARK    8  A    between atoms: C14_20  and  O7_21 
REMARK    9  A    between atoms: C18_25  and  C19_26 
REMARK   10  A    between atoms: C24_32  and  C25_33 
REMARK   11  A    between atoms: C25_33  and  C27_35 
REMARK   12  A    between atoms: C27_35  and  C28_36 
REMARK   13  A    between atoms: C29_37  and  C30_38 
REMARK   14  A    between atoms: C30_38  and  O9_41 
ROOT
HETATM    1  C2  UNL     1      -5.765  -9.999   2.712  1.00  0.00     0.149 C 
HETATM    2  C3  UNL     1      -6.927  -9.796   3.646  1.00  0.00     0.009 C 
HETATM    3  C4  UNL     1      -6.753  -9.825   4.980  1.00  0.00    -0.066 C 
HETATM    4  C5  UNL     1      -5.328 -10.091   5.449  1.00  0.00     0.031 C 
HETATM    5  C6  UNL     1      -5.192 -10.080   6.979  1.00  0.00     0.013 C 
HETATM    6  C7  UNL     1      -5.923  -8.872   7.547  1.00  0.00     0.034 C 
HETATM    7  C8  UNL     1      -7.440  -9.012   7.380  1.00  0.00     0.136 C 
HETATM    8  C15 UNL     1      -7.889  -9.679   6.013  1.00  0.00     0.002 C 
HETATM    9  C16 UNL     1      -8.490 -11.088   6.250  1.00  0.00     0.022 C 
HETATM   10  C17 UNL     1      -9.060  -8.817   5.462  1.00  0.00     0.022 C 
HETATM   11  C18 UNL     1      -4.693 -11.334   4.714  1.00  0.00     0.027 C 
HETATM   12  C20 UNL     1      -3.193 -11.478   5.135  1.00  0.00     0.018 C 
HETATM   13  C21 UNL     1      -2.285 -12.399   4.299  1.00  0.00     0.011 C 
HETATM   14  C22 UNL     1      -2.777 -12.668   2.872  1.00  0.00    -0.032 C 
HETATM   15  C23 UNL     1      -3.623 -13.981   2.872  1.00  0.00     0.016 C 
HETATM   16  C24 UNL     1      -1.645 -12.780   1.803  1.00  0.00    -0.002 C 
HETATM   17  C33 UNL     1      -2.392 -12.521   0.472  1.00  0.00     0.006 C 
HETATM   18  C34 UNL     1      -3.731 -11.841   0.843  1.00  0.00     0.011 C 
HETATM   19  C35 UNL     1      -3.584 -11.418   2.321  1.00  0.00    -0.029 C 
HETATM   20  C36 UNL     1      -2.807 -10.062   2.305  1.00  0.00     0.016 C 
HETATM   21  C37 UNL     1      -4.920 -11.243   3.130  1.00  0.00     0.043 C 
ENDROOT
BRANCH   7  22
HETATM   22  O2  UNL     1      -7.913  -9.799   8.492  1.00  0.00    -0.352 OA
BRANCH  22  23
HETATM   23  C9  UNL     1      -7.085  -9.733   9.660  1.00  0.00     0.292 C 
HETATM   24  O3  UNL     1      -6.980 -11.050  10.214  1.00  0.00    -0.348 OA
HETATM   25  C10 UNL     1      -8.032 -11.430  11.105  1.00  0.00     0.179 C 
HETATM   26  C12 UNL     1      -8.051 -10.534  12.359  1.00  0.00     0.180 C 
HETATM   27  C13 UNL     1      -7.479  -9.130  12.097  1.00  0.00     0.183 C 
HETATM   28  C14 UNL     1      -7.658  -8.684  10.648  1.00  0.00     0.204 C 
BRANCH  25  29
HETATM   29  C11 UNL     1      -9.397 -11.516  10.404  1.00  0.00     0.198 C 
BRANCH  29  30
HETATM   30  O4  UNL     1      -9.303 -12.294   9.216  1.00  0.00    -0.398 OA
HETATM   31  H16 UNL     1     -10.171 -12.241   8.779  1.00  0.00     0.209 HD
ENDBRANCH  29  30
ENDBRANCH  25  29
BRANCH  26  32
HETATM   32  O5  UNL     1      -7.244 -11.122  13.403  1.00  0.00    -0.390 OA
HETATM   33  H18 UNL     1      -7.711 -10.966  14.248  1.00  0.00     0.210 HD
ENDBRANCH  26  32
BRANCH  27  34
HETATM   34  O6  UNL     1      -6.078  -9.068  12.422  1.00  0.00    -0.390 OA
HETATM   35  H20 UNL     1      -5.891  -9.899  12.916  1.00  0.00     0.210 HD
ENDBRANCH  27  34
BRANCH  28  36
HETATM   36  O7  UNL     1      -7.032  -7.408  10.440  1.00  0.00    -0.388 OA
HETATM   37  H22 UNL     1      -6.416  -7.293  11.198  1.00  0.00     0.210 HD
ENDBRANCH  28  36
ENDBRANCH  22  23
ENDBRANCH   7  22
BRANCH  11  38
HETATM   38  C19 UNL     1      -5.418 -12.569   5.284  1.00  0.00     0.241 C 
HETATM   39  O8  UNL     1      -4.959 -13.353   6.107  1.00  0.00    -0.306 OA
ENDBRANCH  11  38
BRANCH   1  40
HETATM   40  O1  UNL     1      -6.256 -10.186   1.378  1.00  0.00    -0.386 OA
HETATM   41  C1  UNL     1      -7.533  -9.589   1.169  1.00  0.00     0.202 C 
ENDBRANCH   1  40
BRANCH  16  42
HETATM   42  C25 UNL     1      -0.544 -13.885   1.839  1.00  0.00    -0.010 C 
HETATM   43  C26 UNL     1       0.001 -14.044   3.271  1.00  0.00     0.010 C 
BRANCH  42  44
HETATM   44  C27 UNL     1       0.629 -13.896   0.834  1.00  0.00     0.031 C 
BRANCH  44  45
HETATM   45  C28 UNL     1       1.823 -13.036   1.139  1.00  0.00    -0.027 C 
HETATM   46  C29 UNL     1       2.307 -12.136   0.265  1.00  0.00     0.006 C 
BRANCH  46  47
HETATM   47  C30 UNL     1       3.451 -11.179   0.476  1.00  0.00     0.068 C 
HETATM   48  C31 UNL     1       3.625 -10.897   1.970  1.00  0.00     0.050 C 
HETATM   49  C32 UNL     1       4.800 -11.609  -0.122  1.00  0.00     0.050 C 
BRANCH  47  50
HETATM   50  O9  UNL     1       3.057  -9.953  -0.145  1.00  0.00    -0.387 OA
HETATM   51  H52 UNL     1       3.068 -10.107  -1.107  1.00  0.00     0.211 HD
ENDBRANCH  47  50
ENDBRANCH  46  47
ENDBRANCH  44  45
ENDBRANCH  42  44
ENDBRANCH  16  42
TORSDOF 14
ENDMDL
MODEL 4
REMARK minimizedAffinity -7.62472486
REMARK CNNscore 0.269321203
REMARK CNNaffinity 6.90165854
REMARK  14 active torsions:
REMARK  status: ('A' for Active; 'I' for Inactive)
REMARK    1  A    between atoms: O1_2  and  C2_3 
REMARK    2  A    between atoms: C8_9  and  O2_10 
REMARK    3  A    between atoms: O2_10  and  C9_11 
REMARK    4  A    between atoms: C10_13  and  C11_14 
REMARK    5  A    between atoms: C11_14  and  O4_15 
REMARK    6  A    between atoms: C12_16  and  O5_17 
REMARK    7  A    between atoms: C13_18  and  O6_19 
REMARK    8  A    between atoms: C14_20  and  O7_21 
REMARK    9  A    between atoms: C18_25  and  C19_26 
REMARK   10  A    between atoms: C24_32  and  C25_33 
REMARK   11  A    between atoms: C25_33  and  C27_35 
REMARK   12  A    between atoms: C27_35  and  C28_36 
REMARK   13  A    between atoms: C29_37  and  C30_38 
REMARK   14  A    between atoms: C30_38  and  O9_41 
ROOT
HETATM    1  C2  UNL     1      -3.188   7.950  15.100  1.00  0.00     0.149 C 
HETATM    2  C3  UNL     1      -2.614   7.083  14.014  1.00  0.00     0.009 C 
HETATM    3  C4  UNL     1      -1.284   7.013  13.818  1.00  0.00    -0.066 C 
HETATM    4  C5  UNL     1      -0.439   7.873  14.748  1.00  0.00     0.031 C 
HETATM    5  C6  UNL     1       1.068   7.724  14.493  1.00  0.00     0.013 C 
HETATM    6  C7  UNL     1       1.419   6.249  14.361  1.00  0.00     0.034 C 
HETATM    7  C8  UNL     1       0.835   5.653  13.075  1.00  0.00     0.136 C 
HETATM    8  C15 UNL     1      -0.607   6.194  12.699  1.00  0.00     0.002 C 
HETATM    9  C16 UNL     1      -0.558   7.084  11.432  1.00  0.00     0.022 C 
HETATM   10  C17 UNL     1      -1.457   4.954  12.300  1.00  0.00     0.022 C 
HETATM   11  C18 UNL     1      -0.977   9.354  14.825  1.00  0.00     0.027 C 
HETATM   12  C20 UNL     1      -0.156  10.153  15.891  1.00  0.00     0.018 C 
HETATM   13  C21 UNL     1      -0.713  11.502  16.380  1.00  0.00     0.011 C 
HETATM   14  C22 UNL     1      -2.223  11.687  16.185  1.00  0.00    -0.032 C 
HETATM   15  C23 UNL     1      -2.467  12.408  14.821  1.00  0.00     0.016 C 
HETATM   16  C24 UNL     1      -2.935  12.479  17.326  1.00  0.00    -0.002 C 
HETATM   17  C33 UNL     1      -4.419  12.071  17.163  1.00  0.00     0.006 C 
HETATM   18  C34 UNL     1      -4.431  10.782  16.308  1.00  0.00     0.011 C 
HETATM   19  C35 UNL     1      -2.967  10.289  16.283  1.00  0.00    -0.029 C 
HETATM   20  C36 UNL     1      -2.756   9.500  17.616  1.00  0.00     0.016 C 
HETATM   21  C37 UNL     1      -2.561   9.379  15.069  1.00  0.00     0.043 C 
ENDROOT
BRANCH   7  22
HETATM   22  O2  UNL     1       1.766   5.951  12.015  1.00  0.00    -0.352 OA
BRANCH  22  23
HETATM   23  C9  UNL     1       1.213   6.724  10.941  1.00  0.00     0.292 C 
HETATM   24  O3  UNL     1       1.083   5.876   9.795  1.00  0.00    -0.348 OA
HETATM   25  C10 UNL     1       2.250   5.759   8.976  1.00  0.00     0.179 C 
HETATM   26  C12 UNL     1       2.630   7.118   8.353  1.00  0.00     0.180 C 
HETATM   27  C13 UNL     1       2.174   8.313   9.207  1.00  0.00     0.183 C 
HETATM   28  C14 UNL     1       2.093   7.978  10.693  1.00  0.00     0.204 C 
BRANCH  25  29
HETATM   29  C11 UNL     1       3.419   5.083   9.709  1.00  0.00     0.198 C 
BRANCH  29  30
HETATM   30  O4  UNL     1       3.039   3.796  10.181  1.00  0.00    -0.398 OA
HETATM   31  H16 UNL     1       3.787   3.458  10.704  1.00  0.00     0.209 HD
ENDBRANCH  29  30
ENDBRANCH  25  29
BRANCH  26  32
HETATM   32  O5  UNL     1       2.000   7.265   7.061  1.00  0.00    -0.390 OA
HETATM   33  H18 UNL     1       2.648   7.705   6.475  1.00  0.00     0.210 HD
ENDBRANCH  26  32
BRANCH  27  34
HETATM   34  O6  UNL     1       0.887   8.799   8.779  1.00  0.00    -0.390 OA
HETATM   35  H20 UNL     1       0.718   8.356   7.917  1.00  0.00     0.210 HD
ENDBRANCH  27  34
BRANCH  28  36
HETATM   36  O7  UNL     1       1.581   9.100  11.430  1.00  0.00    -0.388 OA
HETATM   37  H22 UNL     1       1.155   9.679  10.759  1.00  0.00     0.210 HD
ENDBRANCH  28  36
ENDBRANCH  22  23
ENDBRANCH   7  22
BRANCH  11  38
HETATM   38  C19 UNL     1      -0.641   9.989  13.461  1.00  0.00     0.241 C 
HETATM   39  O8  UNL     1      -1.395  10.055  12.496  1.00  0.00    -0.306 OA
ENDBRANCH  11  38
BRANCH   1  40
HETATM   40  O1  UNL     1      -4.608   8.052  14.924  1.00  0.00    -0.386 OA
HETATM   41  C1  UNL     1      -4.999   8.034  13.554  1.00  0.00     0.202 C 
ENDBRANCH   1  40
BRANCH  16  42
HETATM   42  C25 UNL     1      -2.602  13.964  17.669  1.00  0.00    -0.010 C 
HETATM   43  C26 UNL     1      -1.792  14.604  16.526  1.00  0.00     0.010 C 
BRANCH  42  44
HETATM   44  C27 UNL     1      -1.986  14.365  19.028  1.00  0.00     0.031 C 
BRANCH  44  45
HETATM   45  C28 UNL     1      -2.917  14.835  20.110  1.00  0.00    -0.027 C 
HETATM   46  C29 UNL     1      -4.137  14.301  20.296  1.00  0.00     0.006 C 
BRANCH  46  47
HETATM   47  C30 UNL     1      -5.130  14.641  21.376  1.00  0.00     0.068 C 
HETATM   48  C31 UNL     1      -5.898  13.383  21.791  1.00  0.00     0.050 C 
HETATM   49  C32 UNL     1      -4.550  15.318  22.627  1.00  0.00     0.050 C 
BRANCH  47  50
HETATM   50  O9  UNL     1      -6.071  15.535  20.777  1.00  0.00    -0.387 OA
HETATM   51  H52 UNL     1      -5.604  16.378  20.629  1.00  0.00     0.211 HD
ENDBRANCH  47  50
ENDBRANCH  46  47
ENDBRANCH  44  45
ENDBRANCH  42  44
ENDBRANCH  16  42
TORSDOF 14
ENDMDL
MODEL 5
REMARK minimizedAffinity -10.1133642
REMARK CNNscore 0.234223366
REMARK CNNaffinity 6.93284559
REMARK  14 active torsions:
REMARK  status: ('A' for Active; 'I' for Inactive)
REMARK    1  A    between atoms: O1_2  and  C2_3 
REMARK    2  A    between atoms: C8_9  and  O2_10 
REMARK    3  A    between atoms: O2_10  and  C9_11 
REMARK    4  A    between atoms: C10_13  and  C11_14 
REMARK    5  A    between atoms: C11_14  and  O4_15 
REMARK    6  A    between atoms: C12_16  and  O5_17 
REMARK    7  A    between atoms: C13_18  and  O6_19 
REMARK    8  A    between atoms: C14_20  and  O7_21 
REMARK    9  A    between atoms: C18_25  and  C19_26 
REMARK   10  A    between atoms: C24_32  and  C25_33 
REMARK   11  A    between atoms: C25_33  and  C27_35 
REMARK   12  A    between atoms: C27_35  and  C28_36 
REMARK   13  A    between atoms: C29_37  and  C30_38 
REMARK   14  A    between atoms: C30_38  and  O9_41 
ROOT
HETATM    1  C2  UNL     1      -1.682   5.100  12.437  1.00  0.00     0.149 C 
HETATM    2  C3  UNL     1      -0.425   5.501  11.715  1.00  0.00     0.009 C 
HETATM    3  C4  UNL     1       0.406   6.422  12.237  1.00  0.00    -0.066 C 
HETATM    4  C5  UNL     1      -0.030   7.018  13.570  1.00  0.00     0.031 C 
HETATM    5  C6  UNL     1       0.976   8.036  14.125  1.00  0.00     0.013 C 
HETATM    6  C7  UNL     1       2.386   7.472  14.015  1.00  0.00     0.034 C 
HETATM    7  C8  UNL     1       2.832   7.375  12.552  1.00  0.00     0.136 C 
HETATM    8  C15 UNL     1       1.688   6.934  11.547  1.00  0.00     0.002 C 
HETATM    9  C16 UNL     1       1.282   8.103  10.614  1.00  0.00     0.022 C 
HETATM   10  C17 UNL     1       2.307   5.856  10.613  1.00  0.00     0.022 C 
HETATM   11  C18 UNL     1      -1.534   7.490  13.536  1.00  0.00     0.027 C 
HETATM   12  C20 UNL     1      -1.964   7.967  14.963  1.00  0.00     0.018 C 
HETATM   13  C21 UNL     1      -3.466   8.149  15.250  1.00  0.00     0.011 C 
HETATM   14  C22 UNL     1      -4.401   7.369  14.318  1.00  0.00    -0.032 C 
HETATM   15  C23 UNL     1      -4.810   8.295  13.129  1.00  0.00     0.016 C 
HETATM   16  C24 UNL     1      -5.685   6.808  15.005  1.00  0.00    -0.002 C 
HETATM   17  C33 UNL     1      -6.137   5.684  14.041  1.00  0.00     0.006 C 
HETATM   18  C34 UNL     1      -4.914   5.346  13.155  1.00  0.00     0.011 C 
HETATM   19  C35 UNL     1      -3.707   6.025  13.840  1.00  0.00    -0.029 C 
HETATM   20  C36 UNL     1      -3.255   5.052  14.976  1.00  0.00     0.016 C 
HETATM   21  C37 UNL     1      -2.480   6.354  12.916  1.00  0.00     0.043 C 
ENDROOT
BRANCH   7  22
HETATM   22  O2  UNL     1       3.341   8.673  12.182  1.00  0.00    -0.352 OA
BRANCH  22  23
HETATM   23  C9  UNL     1       4.616   8.995  12.752  1.00  0.00     0.292 C 
HETATM   24  O3  UNL     1       5.590   9.004  11.703  1.00  0.00    -0.348 OA
HETATM   25  C10 UNL     1       6.167   7.735  11.384  1.00  0.00     0.179 C 
HETATM   26  C12 UNL     1       6.959   7.167  12.579  1.00  0.00     0.180 C 
HETATM   27  C13 UNL     1       6.430   7.666  13.934  1.00  0.00     0.183 C 
HETATM   28  C14 UNL     1       4.942   8.001  13.898  1.00  0.00     0.204 C 
BRANCH  25  29
HETATM   29  C11 UNL     1       5.137   6.744  10.818  1.00  0.00     0.198 C 
BRANCH  29  30
HETATM   30  O4  UNL     1       5.758   5.505  10.495  1.00  0.00    -0.398 OA
HETATM   31  H16 UNL     1       5.078   4.956  10.067  1.00  0.00     0.209 HD
ENDBRANCH  29  30
ENDBRANCH  25  29
BRANCH  26  32
HETATM   32  O5  UNL     1       8.342   7.575  12.497  1.00  0.00    -0.390 OA
HETATM   33  H18 UNL     1       8.883   6.815  12.789  1.00  0.00     0.210 HD
ENDBRANCH  26  32
BRANCH  27  34
HETATM   34  O6  UNL     1       7.148   8.833  14.378  1.00  0.00    -0.390 OA
HETATM   35  H20 UNL     1       7.930   8.896  13.783  1.00  0.00     0.210 HD
ENDBRANCH  27  34
BRANCH  28  36
HETATM   36  O7  UNL     1       4.522   8.542  15.161  1.00  0.00    -0.388 OA
HETATM   37  H22 UNL     1       5.350   8.816  15.615  1.00  0.00     0.210 HD
ENDBRANCH  28  36
ENDBRANCH  22  23
ENDBRANCH   7  22
BRANCH  11  38
HETATM   38  C19 UNL     1      -1.555   8.744  12.640  1.00  0.00     0.241 C 
HETATM   39  O8  UNL     1      -1.638   9.903  13.031  1.00  0.00    -0.306 OA
ENDBRANCH  11  38
BRANCH   1  40
HETATM   40  O1  UNL     1      -2.505   4.321  11.559  1.00  0.00    -0.386 OA
HETATM   41  C1  UNL     1      -2.067   2.971  11.442  1.00  0.00     0.202 C 
ENDBRANCH   1  40
BRANCH  16  42
HETATM   42  C25 UNL     1      -6.774   7.719  15.652  1.00  0.00    -0.010 C 
HETATM   43  C26 UNL     1      -7.579   6.923  16.697  1.00  0.00     0.010 C 
BRANCH  42  44
HETATM   44  C27 UNL     1      -7.736   8.570  14.794  1.00  0.00     0.031 C 
BRANCH  44  45
HETATM   45  C28 UNL     1      -9.210   8.439  15.054  1.00  0.00    -0.027 C 
HETATM   46  C29 UNL     1     -10.057   7.899  14.159  1.00  0.00     0.006 C 
BRANCH  46  47
HETATM   47  C30 UNL     1     -11.534   7.657  14.326  1.00  0.00     0.068 C 
HETATM   48  C31 UNL     1     -12.078   8.525  15.464  1.00  0.00     0.050 C 
HETATM   49  C32 UNL     1     -12.391   7.872  13.068  1.00  0.00     0.050 C 
BRANCH  47  50
HETATM   50  O9  UNL     1     -11.666   6.293  14.731  1.00  0.00    -0.387 OA
HETATM   51  H52 UNL     1     -11.436   5.746  13.959  1.00  0.00     0.211 HD
ENDBRANCH  47  50
ENDBRANCH  46  47
ENDBRANCH  44  45
ENDBRANCH  42  44
ENDBRANCH  16  42
TORSDOF 14
ENDMDL
MODEL 6
REMARK minimizedAffinity -8.16270924
REMARK CNNscore 0.221893817
REMARK CNNaffinity 7.23011017
REMARK  14 active torsions:
REMARK  status: ('A' for Active; 'I' for Inactive)
REMARK    1  A    between atoms: O1_2  and  C2_3 
REMARK    2  A    between atoms: C8_9  and  O2_10 
REMARK    3  A    between atoms: O2_10  and  C9_11 
REMARK    4  A    between atoms: C10_13  and  C11_14 
REMARK    5  A    between atoms: C11_14  and  O4_15 
REMARK    6  A    between atoms: C12_16  and  O5_17 
REMARK    7  A    between atoms: C13_18  and  O6_19 
REMARK    8  A    between atoms: C14_20  and  O7_21 
REMARK    9  A    between atoms: C18_25  and  C19_26 
REMARK   10  A    between atoms: C24_32  and  C25_33 
REMARK   11  A    between atoms: C25_33  and  C27_35 
REMARK   12  A    between atoms: C27_35  and  C28_36 
REMARK   13  A    between atoms: C29_37  and  C30_38 
REMARK   14  A    between atoms: C30_38  and  O9_41 
ROOT
HETATM    1  C2  UNL     1      -3.764   3.961  12.359  1.00  0.00     0.149 C 
HETATM    2  C3  UNL     1      -5.167   3.676  12.820  1.00  0.00     0.009 C 
HETATM    3  C4  UNL     1      -6.036   4.679  13.045  1.00  0.00    -0.066 C 
HETATM    4  C5  UNL     1      -5.490   6.083  12.819  1.00  0.00     0.031 C 
HETATM    5  C6  UNL     1      -6.539   7.178  13.062  1.00  0.00     0.013 C 
HETATM    6  C7  UNL     1      -7.843   6.795  12.378  1.00  0.00     0.034 C 
HETATM    7  C8  UNL     1      -8.498   5.591  13.066  1.00  0.00     0.136 C 
HETATM    8  C15 UNL     1      -7.475   4.488  13.567  1.00  0.00     0.002 C 
HETATM    9  C16 UNL     1      -7.410   4.448  15.115  1.00  0.00     0.022 C 
HETATM   10  C17 UNL     1      -8.063   3.112  13.143  1.00  0.00     0.022 C 
HETATM   11  C18 UNL     1      -4.101   6.293  13.537  1.00  0.00     0.027 C 
HETATM   12  C20 UNL     1      -3.527   7.700  13.162  1.00  0.00     0.018 C 
HETATM   13  C21 UNL     1      -2.045   7.987  13.465  1.00  0.00     0.011 C 
HETATM   14  C22 UNL     1      -1.162   6.742  13.613  1.00  0.00    -0.032 C 
HETATM   15  C23 UNL     1      -1.097   6.352  15.124  1.00  0.00     0.016 C 
HETATM   16  C24 UNL     1       0.287   6.901  13.055  1.00  0.00    -0.002 C 
HETATM   17  C33 UNL     1       0.746   5.438  12.849  1.00  0.00     0.006 C 
HETATM   18  C34 UNL     1      -0.536   4.571  12.839  1.00  0.00     0.011 C 
HETATM   19  C35 UNL     1      -1.708   5.567  12.697  1.00  0.00    -0.029 C 
HETATM   20  C36 UNL     1      -1.816   5.890  11.172  1.00  0.00     0.016 C 
HETATM   21  C37 UNL     1      -3.103   5.078  13.227  1.00  0.00     0.043 C 
ENDROOT
BRANCH   7  22
HETATM   22  O2  UNL     1      -9.254   6.106  14.181  1.00  0.00    -0.352 OA
BRANCH  22  23
HETATM   23  C9  UNL     1     -10.321   6.991  13.816  1.00  0.00     0.292 C 
HETATM   24  O3  UNL     1      -9.842   8.338  13.912  1.00  0.00    -0.348 OA
HETATM   25  C10 UNL     1      -9.927   8.933  15.209  1.00  0.00     0.179 C 
HETATM   26  C12 UNL     1     -11.394   9.059  15.669  1.00  0.00     0.180 C 
HETATM   27  C13 UNL     1     -12.308   7.993  15.042  1.00  0.00     0.183 C 
HETATM   28  C14 UNL     1     -11.562   6.706  14.701  1.00  0.00     0.204 C 
BRANCH  25  29
HETATM   29  C11 UNL     1      -9.031   8.231  16.241  1.00  0.00     0.198 C 
BRANCH  29  30
HETATM   30  O4  UNL     1      -9.755   7.962  17.436  1.00  0.00    -0.398 OA
HETATM   31  H16 UNL     1      -9.117   7.597  18.073  1.00  0.00     0.209 HD
ENDBRANCH  29  30
ENDBRANCH  25  29
BRANCH  26  32
HETATM   32  O5  UNL     1     -11.927  10.344  15.280  1.00  0.00    -0.390 OA
HETATM   33  H18 UNL     1     -12.496  10.653  16.013  1.00  0.00     0.210 HD
ENDBRANCH  26  32
BRANCH  27  34
HETATM   34  O6  UNL     1     -12.938   8.484  13.844  1.00  0.00    -0.390 OA
HETATM   35  H20 UNL     1     -12.768   9.454  13.842  1.00  0.00     0.210 HD
ENDBRANCH  27  34
BRANCH  28  36
HETATM   36  O7  UNL     1     -12.441   5.781  14.041  1.00  0.00    -0.388 OA
HETATM   37  H22 UNL     1     -13.203   6.321  13.732  1.00  0.00     0.210 HD
ENDBRANCH  28  36
ENDBRANCH  22  23
ENDBRANCH   7  22
BRANCH  11  38
HETATM   38  C19 UNL     1      -4.418   6.347  15.045  1.00  0.00     0.241 C 
HETATM   39  O8  UNL     1      -5.378   6.915  15.555  1.00  0.00    -0.306 OA
ENDBRANCH  11  38
BRANCH   1  40
HETATM   40  O1  UNL     1      -2.982   2.763  12.452  1.00  0.00    -0.386 OA
HETATM   41  C1  UNL     1      -3.483   1.710  11.634  1.00  0.00     0.202 C 
ENDBRANCH   1  40
BRANCH  16  42
HETATM   42  C25 UNL     1       1.311   7.933  13.622  1.00  0.00    -0.010 C 
HETATM   43  C26 UNL     1       0.571   9.058  14.371  1.00  0.00     0.010 C 
BRANCH  42  44
HETATM   44  C27 UNL     1       2.424   8.542  12.741  1.00  0.00     0.031 C 
BRANCH  44  45
HETATM   45  C28 UNL     1       2.213   8.552  11.253  1.00  0.00    -0.027 C 
HETATM   46  C29 UNL     1       2.615   7.544  10.459  1.00  0.00     0.006 C 
BRANCH  46  47
HETATM   47  C30 UNL     1       2.409   7.411   8.972  1.00  0.00     0.068 C 
HETATM   48  C31 UNL     1       3.141   8.540   8.242  1.00  0.00     0.050 C 
HETATM   49  C32 UNL     1       2.816   6.061   8.361  1.00  0.00     0.050 C 
BRANCH  47  50
HETATM   50  O9  UNL     1       1.009   7.599   8.752  1.00  0.00    -0.387 OA
HETATM   51  H52 UNL     1       0.558   6.814   9.112  1.00  0.00     0.211 HD
ENDBRANCH  47  50
ENDBRANCH  46  47
ENDBRANCH  44  45
ENDBRANCH  42  44
ENDBRANCH  16  42
TORSDOF 14
ENDMDL
MODEL 7
REMARK minimizedAffinity -8.05360794
REMARK CNNscore 0.206031531
REMARK CNNaffinity 6.8020668
REMARK  14 active torsions:
REMARK  status: ('A' for Active; 'I' for Inactive)
REMARK    1  A    between atoms: O1_2  and  C2_3 
REMARK    2  A    between atoms: C8_9  and  O2_10 
REMARK    3  A    between atoms: O2_10  and  C9_11 
REMARK    4  A    between atoms: C10_13  and  C11_14 
REMARK    5  A    between atoms: C11_14  and  O4_15 
REMARK    6  A    between atoms: C12_16  and  O5_17 
REMARK    7  A    between atoms: C13_18  and  O6_19 
REMARK    8  A    between atoms: C14_20  and  O7_21 
REMARK    9  A    between atoms: C18_25  and  C19_26 
REMARK   10  A    between atoms: C24_32  and  C25_33 
REMARK   11  A    between atoms: C25_33  and  C27_35 
REMARK   12  A    between atoms: C27_35  and  C28_36 
REMARK   13  A    between atoms: C29_37  and  C30_38 
REMARK   14  A    between atoms: C30_38  and  O9_41 
ROOT
HETATM    1  C2  UNL     1      -4.219   4.055  12.608  1.00  0.00     0.149 C 
HETATM    2  C3  UNL     1      -2.802   4.282  12.159  1.00  0.00     0.009 C 
HETATM    3  C4  UNL     1      -1.971   5.070  12.866  1.00  0.00    -0.066 C 
HETATM    4  C5  UNL     1      -2.575   5.709  14.110  1.00  0.00     0.031 C 
HETATM    5  C6  UNL     1      -1.569   6.569  14.887  1.00  0.00     0.013 C 
HETATM    6  C7  UNL     1      -0.256   5.813  15.032  1.00  0.00     0.034 C 
HETATM    7  C8  UNL     1       0.452   5.667  13.680  1.00  0.00     0.136 C 
HETATM    8  C15 UNL     1      -0.521   5.402  12.457  1.00  0.00     0.002 C 
HETATM    9  C16 UNL     1      -0.571   6.626  11.507  1.00  0.00     0.022 C 
HETATM   10  C17 UNL     1       0.117   4.257  11.621  1.00  0.00     0.022 C 
HETATM   11  C18 UNL     1      -3.965   6.389  13.803  1.00  0.00     0.027 C 
HETATM   12  C20 UNL     1      -4.598   6.908  15.136  1.00  0.00     0.018 C 
HETATM   13  C21 UNL     1      -6.087   7.298  15.133  1.00  0.00     0.011 C 
HETATM   14  C22 UNL     1      -6.918   6.667  14.010  1.00  0.00    -0.032 C 
HETATM   15  C23 UNL     1      -6.955   7.654  12.799  1.00  0.00     0.016 C 
HETATM   16  C24 UNL     1      -8.377   6.287  14.413  1.00  0.00    -0.002 C 
HETATM   17  C33 UNL     1      -8.779   5.248  13.339  1.00  0.00     0.006 C 
HETATM   18  C34 UNL     1      -7.464   4.749  12.694  1.00  0.00     0.011 C 
HETATM   19  C35 UNL     1      -6.335   5.243  13.625  1.00  0.00    -0.029 C 
HETATM   20  C36 UNL     1      -6.252   4.206  14.791  1.00  0.00     0.016 C 
HETATM   21  C37 UNL     1      -4.916   5.405  12.970  1.00  0.00     0.043 C 
ENDROOT
BRANCH   7  22
HETATM   22  O2  UNL     1       1.197   6.883  13.464  1.00  0.00    -0.352 OA
BRANCH  22  23
HETATM   23  C9  UNL     1       1.424   7.658  14.649  1.00  0.00     0.292 C 
HETATM   24  O3  UNL     1       1.023   9.008  14.389  1.00  0.00    -0.348 OA
HETATM   25  C10 UNL     1       2.012   9.840  13.777  1.00  0.00     0.179 C 
HETATM   26  C12 UNL     1       3.236  10.019  14.698  1.00  0.00     0.180 C 
HETATM   27  C13 UNL     1       3.441   8.832  15.654  1.00  0.00     0.183 C 
HETATM   28  C14 UNL     1       2.907   7.520  15.086  1.00  0.00     0.204 C 
BRANCH  25  29
HETATM   29  C11 UNL     1       2.385   9.369  12.363  1.00  0.00     0.198 C 
BRANCH  29  30
HETATM   30  O4  UNL     1       1.220   9.221  11.559  1.00  0.00    -0.398 OA
HETATM   31  H16 UNL     1       1.513   8.843  10.711  1.00  0.00     0.209 HD
ENDBRANCH  29  30
ENDBRANCH  25  29
BRANCH  26  32
HETATM   32  O5  UNL     1       3.068  11.193  15.523  1.00  0.00    -0.390 OA
HETATM   33  H18 UNL     1       3.944  11.624  15.589  1.00  0.00     0.210 HD
ENDBRANCH  26  32
BRANCH  27  34
HETATM   34  O6  UNL     1       2.807   9.069  16.925  1.00  0.00    -0.390 OA
HETATM   35  H20 UNL     1       2.566  10.024  16.918  1.00  0.00     0.210 HD
ENDBRANCH  27  34
BRANCH  28  36
HETATM   36  O7  UNL     1       3.045   6.466  16.052  1.00  0.00    -0.388 OA
HETATM   37  H22 UNL     1       3.182   6.919  16.914  1.00  0.00     0.210 HD
ENDBRANCH  28  36
ENDBRANCH  22  23
ENDBRANCH   7  22
BRANCH  11  38
HETATM   38  C19 UNL     1      -3.637   7.642  12.967  1.00  0.00     0.241 C 
HETATM   39  O8  UNL     1      -3.653   8.799  13.374  1.00  0.00    -0.306 OA
ENDBRANCH  11  38
BRANCH   1  40
HETATM   40  O1  UNL     1      -4.952   3.409  11.559  1.00  0.00    -0.386 OA
HETATM   41  C1  UNL     1      -4.282   3.463  10.302  1.00  0.00     0.202 C 
ENDBRANCH   1  40
BRANCH  16  42
HETATM   42  C25 UNL     1      -9.437   7.337  14.871  1.00  0.00    -0.010 C 
HETATM   43  C26 UNL     1     -10.551   7.461  13.814  1.00  0.00     0.010 C 
BRANCH  42  44
HETATM   44  C27 UNL     1      -9.028   8.744  15.360  1.00  0.00     0.031 C 
BRANCH  44  45
HETATM   45  C28 UNL     1      -9.928   9.897  15.015  1.00  0.00    -0.027 C 
HETATM   46  C29 UNL     1      -9.584  11.177  15.246  1.00  0.00     0.006 C 
BRANCH  46  47
HETATM   47  C30 UNL     1     -10.368  12.413  14.891  1.00  0.00     0.068 C 
HETATM   48  C31 UNL     1     -11.117  12.926  16.124  1.00  0.00     0.050 C 
HETATM   49  C32 UNL     1      -9.556  13.563  14.273  1.00  0.00     0.050 C 
BRANCH  47  50
HETATM   50  O9  UNL     1     -11.350  11.997  13.939  1.00  0.00    -0.387 OA
HETATM   51  H52 UNL     1     -10.874  11.789  13.115  1.00  0.00     0.211 HD
ENDBRANCH  47  50
ENDBRANCH  46  47
ENDBRANCH  44  45
ENDBRANCH  42  44
ENDBRANCH  16  42
TORSDOF 14
ENDMDL
MODEL 8
REMARK minimizedAffinity -9.54425049
REMARK CNNscore 0.197122619
REMARK CNNaffinity 6.90024376
REMARK  14 active torsions:
REMARK  status: ('A' for Active; 'I' for Inactive)
REMARK    1  A    between atoms: O1_2  and  C2_3 
REMARK    2  A    between atoms: C8_9  and  O2_10 
REMARK    3  A    between atoms: O2_10  and  C9_11 
REMARK    4  A    between atoms: C10_13  and  C11_14 
REMARK    5  A    between atoms: C11_14  and  O4_15 
REMARK    6  A    between atoms: C12_16  and  O5_17 
REMARK    7  A    between atoms: C13_18  and  O6_19 
REMARK    8  A    between atoms: C14_20  and  O7_21 
REMARK    9  A    between atoms: C18_25  and  C19_26 
REMARK   10  A    between atoms: C24_32  and  C25_33 
REMARK   11  A    between atoms: C25_33  and  C27_35 
REMARK   12  A    between atoms: C27_35  and  C28_36 
REMARK   13  A    between atoms: C29_37  and  C30_38 
REMARK   14  A    between atoms: C30_38  and  O9_41 
ROOT
HETATM    1  C2  UNL     1      -1.409   5.367  12.546  1.00  0.00     0.149 C 
HETATM    2  C3  UNL     1      -0.078   5.839  12.030  1.00  0.00     0.009 C 
HETATM    3  C4  UNL     1       0.691   6.668  12.761  1.00  0.00    -0.066 C 
HETATM    4  C5  UNL     1       0.107   7.088  14.104  1.00  0.00     0.031 C 
HETATM    5  C6  UNL     1       1.045   8.006  14.901  1.00  0.00     0.013 C 
HETATM    6  C7  UNL     1       2.457   7.438  14.877  1.00  0.00     0.034 C 
HETATM    7  C8  UNL     1       3.067   7.528  13.473  1.00  0.00     0.136 C 
HETATM    8  C15 UNL     1       2.043   7.244  12.296  1.00  0.00     0.002 C 
HETATM    9  C16 UNL     1       1.749   8.534  11.488  1.00  0.00     0.022 C 
HETATM   10  C17 UNL     1       2.764   6.290  11.301  1.00  0.00     0.022 C 
HETATM   11  C18 UNL     1      -1.383   7.586  13.964  1.00  0.00     0.027 C 
HETATM   12  C20 UNL     1      -1.972   7.876  15.385  1.00  0.00     0.018 C 
HETATM   13  C21 UNL     1      -3.496   8.044  15.522  1.00  0.00     0.011 C 
HETATM   14  C22 UNL     1      -4.320   7.411  14.395  1.00  0.00    -0.032 C 
HETATM   15  C23 UNL     1      -4.590   8.494  13.303  1.00  0.00     0.016 C 
HETATM   16  C24 UNL     1      -5.676   6.786  14.851  1.00  0.00    -0.002 C 
HETATM   17  C33 UNL     1      -6.017   5.809  13.700  1.00  0.00     0.006 C 
HETATM   18  C34 UNL     1      -4.701   5.571  12.920  1.00  0.00     0.011 C 
HETATM   19  C35 UNL     1      -3.579   6.131  13.822  1.00  0.00    -0.029 C 
HETATM   20  C36 UNL     1      -3.261   5.008  14.861  1.00  0.00     0.016 C 
HETATM   21  C37 UNL     1      -2.254   6.559  13.095  1.00  0.00     0.043 C 
ENDROOT
BRANCH   7  22
HETATM   22  O2  UNL     1       3.617   8.855  13.340  1.00  0.00    -0.352 OA
BRANCH  22  23
HETATM   23  C9  UNL     1       4.890   9.035  13.973  1.00  0.00     0.292 C 
HETATM   24  O3  UNL     1       5.573  10.109  13.316  1.00  0.00    -0.348 OA
HETATM   25  C10 UNL     1       6.317   9.747  12.150  1.00  0.00     0.179 C 
HETATM   26  C12 UNL     1       7.464   8.779  12.500  1.00  0.00     0.180 C 
HETATM   27  C13 UNL     1       7.168   7.931  13.749  1.00  0.00     0.183 C 
HETATM   28  C14 UNL     1       5.675   7.697  13.959  1.00  0.00     0.204 C 
BRANCH  25  29
HETATM   29  C11 UNL     1       5.419   9.233  11.013  1.00  0.00     0.198 C 
BRANCH  29  30
HETATM   30  O4  UNL     1       5.597  10.017   9.839  1.00  0.00    -0.398 OA
HETATM   31  H16 UNL     1       4.947   9.698   9.190  1.00  0.00     0.209 HD
ENDBRANCH  29  30
ENDBRANCH  25  29
BRANCH  26  32
HETATM   32  O5  UNL     1       8.672   9.521  12.779  1.00  0.00    -0.390 OA
HETATM   33  H18 UNL     1       9.415   9.013  12.395  1.00  0.00     0.210 HD
ENDBRANCH  26  32
BRANCH  27  34
HETATM   34  O6  UNL     1       7.704   8.545  14.936  1.00  0.00    -0.390 OA
HETATM   35  H20 UNL     1       8.296   9.261  14.611  1.00  0.00     0.210 HD
ENDBRANCH  27  34
BRANCH  28  36
HETATM   36  O7  UNL     1       5.451   6.976  15.182  1.00  0.00    -0.388 OA
HETATM   37  H22 UNL     1       6.284   7.072  15.697  1.00  0.00     0.210 HD
ENDBRANCH  28  36
ENDBRANCH  22  23
ENDBRANCH   7  22
BRANCH  11  38
HETATM   38  C19 UNL     1      -1.300   8.949  13.248  1.00  0.00     0.241 C 
HETATM   39  O8  UNL     1      -1.614   9.166  12.083  1.00  0.00    -0.306 OA
ENDBRANCH  11  38
BRANCH   1  40
HETATM   40  O1  UNL     1      -2.129   4.726  11.483  1.00  0.00    -0.386 OA
HETATM   41  C1  UNL     1      -1.868   3.328  11.403  1.00  0.00     0.202 C 
ENDBRANCH   1  40
BRANCH  16  42
HETATM   42  C25 UNL     1      -6.829   7.622  15.488  1.00  0.00    -0.010 C 
HETATM   43  C26 UNL     1      -7.423   6.872  16.696  1.00  0.00     0.010 C 
BRANCH  42  44
HETATM   44  C27 UNL     1      -7.972   8.213  14.633  1.00  0.00     0.031 C 
BRANCH  44  45
HETATM   45  C28 UNL     1      -9.331   7.582  14.744  1.00  0.00    -0.027 C 
HETATM   46  C29 UNL     1     -10.447   8.186  14.298  1.00  0.00     0.006 C 
BRANCH  46  47
HETATM   47  C30 UNL     1     -11.849   7.634  14.296  1.00  0.00     0.068 C 
HETATM   48  C31 UNL     1     -12.717   8.416  15.285  1.00  0.00     0.050 C 
HETATM   49  C32 UNL     1     -12.547   7.592  12.928  1.00  0.00     0.050 C 
BRANCH  47  50
HETATM   50  O9  UNL     1     -11.744   6.296  14.787  1.00  0.00    -0.387 OA
HETATM   51  H52 UNL     1     -11.298   5.775  14.095  1.00  0.00     0.211 HD
ENDBRANCH  47  50
ENDBRANCH  46  47
ENDBRANCH  44  45
ENDBRANCH  42  44
ENDBRANCH  16  42
TORSDOF 14
ENDMDL
MODEL 9
REMARK minimizedAffinity -7.55945778
REMARK CNNscore 0.188419521
REMARK CNNaffinity 5.01417542
REMARK  14 active torsions:
REMARK  status: ('A' for Active; 'I' for Inactive)
REMARK    1  A    between atoms: O1_2  and  C2_3 
REMARK    2  A    between atoms: C8_9  and  O2_10 
REMARK    3  A    between atoms: O2_10  and  C9_11 
REMARK    4  A    between atoms: C10_13  and  C11_14 
REMARK    5  A    between atoms: C11_14  and  O4_15 
REMARK    6  A    between atoms: C12_16  and  O5_17 
REMARK    7  A    between atoms: C13_18  and  O6_19 
REMARK    8  A    between atoms: C14_20  and  O7_21 
REMARK    9  A    between atoms: C18_25  and  C19_26 
REMARK   10  A    between atoms: C24_32  and  C25_33 
REMARK   11  A    between atoms: C25_33  and  C27_35 
REMARK   12  A    between atoms: C27_35  and  C28_36 
REMARK   13  A    between atoms: C29_37  and  C30_38 
REMARK   14  A    between atoms: C30_38  and  O9_41 
ROOT
HETATM    1  C2  UNL     1       2.159  14.560  21.546  1.00  0.00     0.149 C 
HETATM    2  C3  UNL     1       1.006  14.593  20.582  1.00  0.00     0.009 C 
HETATM    3  C4  UNL     1       0.657  13.496  19.885  1.00  0.00    -0.066 C 
HETATM    4  C5  UNL     1       1.515  12.262  20.135  1.00  0.00     0.031 C 
HETATM    5  C6  UNL     1       1.046  11.038  19.335  1.00  0.00     0.013 C 
HETATM    6  C7  UNL     1      -0.465  10.899  19.454  1.00  0.00     0.034 C 
HETATM    7  C8  UNL     1      -1.186  12.035  18.718  1.00  0.00     0.136 C 
HETATM    8  C15 UNL     1      -0.475  13.447  18.839  1.00  0.00     0.002 C 
HETATM    9  C16 UNL     1       0.124  13.890  17.480  1.00  0.00     0.022 C 
HETATM   10  C17 UNL     1      -1.593  14.481  19.153  1.00  0.00     0.022 C 
HETATM   11  C18 UNL     1       3.055  12.591  20.042  1.00  0.00     0.027 C 
HETATM   12  C20 UNL     1       3.884  11.324  20.437  1.00  0.00     0.018 C 
HETATM   13  C21 UNL     1       5.382  11.500  20.747  1.00  0.00     0.011 C 
HETATM   14  C22 UNL     1       5.797  12.921  21.145  1.00  0.00    -0.032 C 
HETATM   15  C23 UNL     1       6.267  13.682  19.865  1.00  0.00     0.016 C 
HETATM   16  C24 UNL     1       6.914  12.993  22.232  1.00  0.00    -0.002 C 
HETATM   17  C33 UNL     1       6.760  14.425  22.800  1.00  0.00     0.006 C 
HETATM   18  C34 UNL     1       5.352  14.914  22.386  1.00  0.00     0.011 C 
HETATM   19  C35 UNL     1       4.605  13.655  21.893  1.00  0.00    -0.029 C 
HETATM   20  C36 UNL     1       4.069  12.943  23.177  1.00  0.00     0.016 C 
HETATM   21  C37 UNL     1       3.416  13.898  20.896  1.00  0.00     0.043 C 
ENDROOT
BRANCH   7  22
HETATM   22  O2  UNL     1      -1.276  11.645  17.333  1.00  0.00    -0.352 OA
BRANCH  22  23
HETATM   23  C9  UNL     1      -1.613  10.267  17.125  1.00  0.00     0.292 C 
HETATM   24  O3  UNL     1      -0.881   9.790  15.990  1.00  0.00    -0.348 OA
HETATM   25  C10 UNL     1      -1.490  10.026  14.718  1.00  0.00     0.179 C 
HETATM   26  C12 UNL     1      -2.832   9.278  14.596  1.00  0.00     0.180 C 
HETATM   27  C13 UNL     1      -3.513   9.050  15.956  1.00  0.00     0.183 C 
HETATM   28  C14 UNL     1      -3.151  10.121  16.981  1.00  0.00     0.204 C 
BRANCH  25  29
HETATM   29  C11 UNL     1      -1.601  11.522  14.385  1.00  0.00     0.198 C 
BRANCH  29  30
HETATM   30  O4  UNL     1      -0.322  12.144  14.437  1.00  0.00    -0.398 OA
HETATM   31  H16 UNL     1      -0.470  13.097  14.302  1.00  0.00     0.209 HD
ENDBRANCH  29  30
ENDBRANCH  25  29
BRANCH  26  32
HETATM   32  O5  UNL     1      -2.622   7.972  14.013  1.00  0.00    -0.390 OA
HETATM   33  H18 UNL     1      -3.374   7.803  13.411  1.00  0.00     0.210 HD
ENDBRANCH  26  32
BRANCH  27  34
HETATM   34  O6  UNL     1      -3.170   7.763  16.503  1.00  0.00    -0.390 OA
HETATM   35  H20 UNL     1      -2.736   7.276  15.765  1.00  0.00     0.210 HD
ENDBRANCH  27  34
BRANCH  28  36
HETATM   36  O7  UNL     1      -3.743   9.813  18.254  1.00  0.00    -0.388 OA
HETATM   37  H22 UNL     1      -3.984   8.861  18.205  1.00  0.00     0.210 HD
ENDBRANCH  28  36
ENDBRANCH  22  23
ENDBRANCH   7  22
BRANCH  11  38
HETATM   38  C19 UNL     1       3.337  12.840  18.548  1.00  0.00     0.241 C 
HETATM   39  O8  UNL     1       3.877  12.051  17.779  1.00  0.00    -0.306 OA
ENDBRANCH  11  38
BRANCH   1  40
HETATM   40  O1  UNL     1       2.482  15.899  21.945  1.00  0.00    -0.386 OA
HETATM   41  C1  UNL     1       2.494  16.814  20.853  1.00  0.00     0.202 C 
ENDBRANCH   1  40
BRANCH  16  42
HETATM   42  C25 UNL     1       8.352  12.426  22.017  1.00  0.00    -0.010 C 
HETATM   43  C26 UNL     1       8.841  11.721  23.296  1.00  0.00     0.010 C 
BRANCH  42  44
HETATM   44  C27 UNL     1       9.490  13.294  21.437  1.00  0.00     0.031 C 
BRANCH  44  45
HETATM   45  C28 UNL     1      10.391  12.674  20.406  1.00  0.00    -0.027 C 
HETATM   46  C29 UNL     1       9.981  11.691  19.585  1.00  0.00     0.006 C 
BRANCH  46  47
HETATM   47  C30 UNL     1      10.765  11.035  18.479  1.00  0.00     0.068 C 
HETATM   48  C31 UNL     1       9.875  10.039  17.730  1.00  0.00     0.050 C 
HETATM   49  C32 UNL     1      11.420  11.991  17.469  1.00  0.00     0.050 C 
BRANCH  47  50
HETATM   50  O9  UNL     1      11.797  10.283  19.120  1.00  0.00    -0.387 OA
HETATM   51  H52 UNL     1      12.428  10.928  19.490  1.00  0.00     0.211 HD
ENDBRANCH  47  50
ENDBRANCH  46  47
ENDBRANCH  44  45
ENDBRANCH  42  44
ENDBRANCH  16  42
TORSDOF 14
ENDMDL
