MODEL 1
REMARK minimizedAffinity -6.93288136
REMARK CNNscore 0.79456687
REMARK CNNaffinity 6.56026506
REMARK  4 active torsions:
REMARK  status: ('A' for Active; 'I' for Inactive)
REMARK    1  A    between atoms: C7_11  and  O3_12 
REMARK    2  A    between atoms: C10_16  and  C11_17 
REMARK    3  A    between atoms: C21_28  and  C22_29 
REMARK    4  A    between atoms: C28_37  and  O8_38 
ROOT
HETATM    1  C1  UNL     1     -11.475  19.598   3.606  1.00  0.00     0.040 C 
HETATM    2  C2  UNL     1     -11.758  18.711   2.400  1.00  0.00     0.124 C 
HETATM    3  C3  UNL     1     -12.024  17.238   2.732  1.00  0.00     0.081 C 
HETATM    4  C4  UNL     1     -10.758  16.393   2.883  1.00  0.00     0.162 C 
HETATM    5  N1  UNL     1     -10.116  16.609   4.186  1.00  0.00    -0.336 N 
HETATM    6  C5  UNL     1      -9.527  15.503   4.765  1.00  0.00     0.229 C 
HETATM    7  O1  UNL     1      -8.677  15.599   5.637  1.00  0.00    -0.273 OA
HETATM    8  C6  UNL     1     -10.026  14.193   4.208  1.00  0.00     0.198 C 
HETATM    9  S1  UNL     1     -11.227  14.645   3.004  1.00  0.00    -0.021 S 
HETATM   10  O2  UNL     1     -11.089  13.867   1.799  1.00  0.00    -0.270 OA
HETATM   11  C7  UNL     1      -9.785  16.627   1.676  1.00  0.00     0.251 C 
HETATM   12  O4  UNL     1      -8.567  15.891   1.913  1.00  0.00    -0.340 OA
HETATM   13  C8  UNL     1      -7.401  16.718   1.778  1.00  0.00     0.156 C 
HETATM   14  C9  UNL     1      -6.149  15.908   2.134  1.00  0.00     0.056 C 
HETATM   15  C10 UNL     1      -4.839  16.735   2.006  1.00  0.00     0.043 C 
HETATM   16  C12 UNL     1      -4.996  18.123   2.650  1.00  0.00    -0.065 C 
HETATM   17  C13 UNL     1      -4.007  18.704   3.350  1.00  0.00    -0.022 C 
HETATM   18  C14 UNL     1      -2.658  18.107   3.587  1.00  0.00     0.035 C 
HETATM   19  C15 UNL     1      -2.371  16.821   2.777  1.00  0.00     0.030 C 
HETATM   20  C16 UNL     1      -3.649  15.946   2.690  1.00  0.00     0.012 C 
HETATM   21  C17 UNL     1      -3.367  14.565   2.062  1.00  0.00     0.007 C 
HETATM   22  C18 UNL     1      -2.188  13.854   2.719  1.00  0.00     0.013 C 
HETATM   23  C19 UNL     1      -0.875  14.687   2.685  1.00  0.00    -0.005 C 
HETATM   24  C20 UNL     1      -0.372  14.778   1.230  1.00  0.00     0.019 C 
HETATM   25  C21 UNL     1       0.162  14.018   3.656  1.00  0.00     0.028 C 
HETATM   26  C26 UNL     1      -0.257  14.542   5.049  1.00  0.00     0.013 C 
HETATM   27  C27 UNL     1      -1.135  15.781   4.832  1.00  0.00     0.040 C 
HETATM   28  C28 UNL     1      -1.115  16.083   3.323  1.00  0.00     0.070 C 
HETATM   29  C29 UNL     1      -6.308  18.862   2.469  1.00  0.00     0.069 C 
HETATM   30  C30 UNL     1      -7.506  17.948   2.702  1.00  0.00     0.158 C 
HETATM   31  O9  UNL     1      -8.733  18.688   2.557  1.00  0.00    -0.347 OA
HETATM   32  C31 UNL     1      -9.557  18.172   1.518  1.00  0.00     0.326 C 
HETATM   33  O10 UNL     1     -10.784  18.882   1.378  1.00  0.00    -0.351 OA
HETATM   34  H7  UNL     1      -9.686  17.500   4.426  1.00  0.00     0.164 HD
HETATM   35  H10 UNL     1     -12.474  14.516   3.509  1.00  0.00     0.128 HD
ENDROOT
BRANCH  11  36
HETATM   36  O3  UNL     1     -10.384  16.112   0.482  1.00  0.00    -0.359 OA
HETATM   37  H11 UNL     1     -10.014  16.597  -0.278  1.00  0.00     0.213 HD
ENDBRANCH  11  36
BRANCH  15  38
HETATM   38  C11 UNL     1      -4.586  16.935   0.494  1.00  0.00     0.245 C 
HETATM   39  O5  UNL     1      -4.561  16.023  -0.339  1.00  0.00    -0.306 OA
ENDBRANCH  15  38
BRANCH  28  40
HETATM   40  O8  UNL     1       0.022  16.915   3.064  1.00  0.00    -0.389 OA
HETATM   41  H36 UNL     1      -0.044  17.731   3.590  1.00  0.00     0.210 HD
ENDBRANCH  28  40
BRANCH  25  42
HETATM   42  C22 UNL     1       1.631  14.220   3.369  1.00  0.00    -0.045 A 
HETATM   43  C23 UNL     1       2.387  13.698   2.399  1.00  0.00     0.087 A 
HETATM   44  C24 UNL     1       3.741  14.224   2.567  1.00  0.00     0.283 A 
HETATM   45  O6  UNL     1       4.693  13.932   1.869  1.00  0.00    -0.260 OA
HETATM   46  O7  UNL     1       3.757  15.080   3.625  1.00  0.00    -0.314 OA
HETATM   47  C25 UNL     1       2.449  15.154   4.185  1.00  0.00     0.213 A 
ENDBRANCH  25  42
TORSDOF 4
ENDMDL
MODEL 2
REMARK minimizedAffinity -7.90856457
REMARK CNNscore 0.561506748
REMARK CNNaffinity 6.48522329
REMARK  4 active torsions:
REMARK  status: ('A' for Active; 'I' for Inactive)
REMARK    1  A    between atoms: C7_11  and  O3_12 
REMARK    2  A    between atoms: C10_16  and  C11_17 
REMARK    3  A    between atoms: C21_28  and  C22_29 
REMARK    4  A    between atoms: C28_37  and  O8_38 
ROOT
HETATM    1  C1  UNL     1     -17.525  12.489  -3.889  1.00  0.00     0.040 C 
HETATM    2  C2  UNL     1     -16.323  11.968  -4.666  1.00  0.00     0.124 C 
HETATM    3  C3  UNL     1     -15.773  10.624  -4.176  1.00  0.00     0.081 C 
HETATM    4  C4  UNL     1     -14.793  10.739  -3.007  1.00  0.00     0.162 C 
HETATM    5  N1  UNL     1     -15.493  10.958  -1.734  1.00  0.00    -0.336 N 
HETATM    6  C5  UNL     1     -14.941  10.351  -0.624  1.00  0.00     0.229 C 
HETATM    7  O1  UNL     1     -15.191  10.721   0.513  1.00  0.00    -0.273 OA
HETATM    8  C6  UNL     1     -14.009   9.214  -0.960  1.00  0.00     0.198 C 
HETATM    9  S1  UNL     1     -14.029   9.120  -2.716  1.00  0.00    -0.021 S 
HETATM   10  O2  UNL     1     -12.704   8.939  -3.253  1.00  0.00    -0.270 OA
HETATM   11  C7  UNL     1     -13.702  11.826  -3.300  1.00  0.00     0.251 C 
HETATM   12  O4  UNL     1     -12.866  11.970  -2.133  1.00  0.00    -0.340 OA
HETATM   13  C8  UNL     1     -12.752  13.339  -1.715  1.00  0.00     0.156 C 
HETATM   14  C9  UNL     1     -11.935  13.418  -0.421  1.00  0.00     0.056 C 
HETATM   15  C10 UNL     1     -11.760  14.875   0.093  1.00  0.00     0.043 C 
HETATM   16  C12 UNL     1     -13.091  15.643   0.044  1.00  0.00    -0.065 C 
HETATM   17  C13 UNL     1     -13.459  16.502   1.009  1.00  0.00    -0.022 C 
HETATM   18  C14 UNL     1     -12.648  16.832   2.219  1.00  0.00     0.035 C 
HETATM   19  C15 UNL     1     -11.209  16.263   2.206  1.00  0.00     0.030 C 
HETATM   20  C16 UNL     1     -11.198  14.846   1.574  1.00  0.00     0.012 C 
HETATM   21  C17 UNL     1      -9.825  14.157   1.712  1.00  0.00     0.007 C 
HETATM   22  C18 UNL     1      -9.298  14.187   3.144  1.00  0.00     0.013 C 
HETATM   23  C19 UNL     1      -9.187  15.626   3.725  1.00  0.00    -0.005 C 
HETATM   24  C20 UNL     1      -8.058  16.380   2.996  1.00  0.00     0.019 C 
HETATM   25  C21 UNL     1      -8.957  15.518   5.274  1.00  0.00     0.028 C 
HETATM   26  C26 UNL     1     -10.379  15.288   5.836  1.00  0.00     0.013 C 
HETATM   27  C27 UNL     1     -11.379  15.722   4.758  1.00  0.00     0.040 C 
HETATM   28  C28 UNL     1     -10.558  16.349   3.616  1.00  0.00     0.070 C 
HETATM   29  C29 UNL     1     -14.008  15.428  -1.145  1.00  0.00     0.069 C 
HETATM   30  C30 UNL     1     -14.149  13.949  -1.487  1.00  0.00     0.158 C 
HETATM   31  O9  UNL     1     -15.052  13.778  -2.596  1.00  0.00    -0.347 OA
HETATM   32  C31 UNL     1     -14.428  13.155  -3.713  1.00  0.00     0.326 C 
HETATM   33  O10 UNL     1     -15.316  12.962  -4.809  1.00  0.00    -0.351 OA
HETATM   34  H7  UNL     1     -15.995  11.823  -1.546  1.00  0.00     0.164 HD
HETATM   35  H10 UNL     1     -14.845   8.123  -3.128  1.00  0.00     0.128 HD
ENDROOT
BRANCH  11  36
HETATM   36  O3  UNL     1     -12.874  11.382  -4.381  1.00  0.00    -0.359 OA
HETATM   37  H11 UNL     1     -12.500  12.168  -4.820  1.00  0.00     0.213 HD
ENDBRANCH  11  36
BRANCH  15  38
HETATM   38  C11 UNL     1     -10.771  15.571  -0.870  1.00  0.00     0.245 C 
HETATM   39  O5  UNL     1      -9.686  16.054  -0.532  1.00  0.00    -0.306 OA
ENDBRANCH  15  38
BRANCH  28  40
HETATM   40  O8  UNL     1     -10.378  17.736   3.926  1.00  0.00    -0.389 OA
HETATM   41  H36 UNL     1     -11.246  18.165   4.018  1.00  0.00     0.210 HD
ENDBRANCH  28  40
BRANCH  25  42
HETATM   42  C22 UNL     1      -8.229  16.649   5.961  1.00  0.00    -0.045 A 
HETATM   43  C23 UNL     1      -6.980  17.089   5.783  1.00  0.00     0.087 A 
HETATM   44  C24 UNL     1      -6.776  18.214   6.693  1.00  0.00     0.283 A 
HETATM   45  O6  UNL     1      -5.737  18.835   6.812  1.00  0.00    -0.260 OA
HETATM   46  O7  UNL     1      -7.929  18.444   7.382  1.00  0.00    -0.314 OA
HETATM   47  C25 UNL     1      -8.915  17.505   6.963  1.00  0.00     0.213 A 
ENDBRANCH  25  42
TORSDOF 4
ENDMDL
MODEL 3
REMARK minimizedAffinity -8.8365202
REMARK CNNscore 0.514991164
REMARK CNNaffinity 6.39598274
REMARK  4 active torsions:
REMARK  status: ('A' for Active; 'I' for Inactive)
REMARK    1  A    between atoms: C7_11  and  O3_12 
REMARK    2  A    between atoms: C10_16  and  C11_17 
REMARK    3  A    between atoms: C21_28  and  C22_29 
REMARK    4  A    between atoms: C28_37  and  O8_38 
ROOT
HETATM    1  C1  UNL     1      18.102   6.324  10.599  1.00  0.00     0.040 C 
HETATM    2  C2  UNL     1      16.887   6.184   9.690  1.00  0.00     0.124 C 
HETATM    3  C3  UNL     1      15.590   5.789  10.406  1.00  0.00     0.081 C 
HETATM    4  C4  UNL     1      15.430   4.283  10.622  1.00  0.00     0.162 C 
HETATM    5  N1  UNL     1      16.240   3.811  11.753  1.00  0.00    -0.336 N 
HETATM    6  C5  UNL     1      15.686   2.806  12.520  1.00  0.00     0.229 C 
HETATM    7  O1  UNL     1      16.362   2.090  13.243  1.00  0.00    -0.273 OA
HETATM    8  C6  UNL     1      14.191   2.684  12.365  1.00  0.00     0.198 C 
HETATM    9  S1  UNL     1      13.752   3.950  11.226  1.00  0.00    -0.021 S 
HETATM   10  O2  UNL     1      12.808   3.477  10.245  1.00  0.00    -0.270 OA
HETATM   11  C7  UNL     1      15.712   3.496   9.296  1.00  0.00     0.251 C 
HETATM   12  O4  UNL     1      15.650   2.082   9.575  1.00  0.00    -0.340 OA
HETATM   13  C8  UNL     1      16.818   1.388   9.111  1.00  0.00     0.156 C 
HETATM   14  C9  UNL     1      16.738  -0.088   9.519  1.00  0.00     0.056 C 
HETATM   15  C10 UNL     1      17.968  -0.912   9.046  1.00  0.00     0.043 C 
HETATM   16  C12 UNL     1      19.280  -0.163   9.336  1.00  0.00    -0.065 C 
HETATM   17  C13 UNL     1      20.387  -0.796   9.758  1.00  0.00    -0.022 C 
HETATM   18  C14 UNL     1      20.500  -2.268   9.986  1.00  0.00     0.035 C 
HETATM   19  C15 UNL     1      19.286  -3.092   9.496  1.00  0.00     0.030 C 
HETATM   20  C16 UNL     1      17.969  -2.320   9.770  1.00  0.00     0.012 C 
HETATM   21  C17 UNL     1      16.720  -3.178   9.478  1.00  0.00     0.007 C 
HETATM   22  C18 UNL     1      16.777  -4.542  10.159  1.00  0.00     0.013 C 
HETATM   23  C19 UNL     1      18.039  -5.365   9.775  1.00  0.00    -0.005 C 
HETATM   24  C20 UNL     1      17.934  -5.793   8.297  1.00  0.00     0.019 C 
HETATM   25  C21 UNL     1      18.159  -6.580  10.762  1.00  0.00     0.028 C 
HETATM   26  C26 UNL     1      18.815  -5.962  12.018  1.00  0.00     0.013 C 
HETATM   27  C27 UNL     1      19.462  -4.636  11.597  1.00  0.00     0.040 C 
HETATM   28  C28 UNL     1      19.322  -4.538  10.067  1.00  0.00     0.070 C 
HETATM   29  C29 UNL     1      19.321   1.338   9.122  1.00  0.00     0.069 C 
HETATM   30  C30 UNL     1      18.091   2.024   9.705  1.00  0.00     0.158 C 
HETATM   31  O9  UNL     1      18.178   3.449   9.516  1.00  0.00    -0.347 OA
HETATM   32  C31 UNL     1      17.103   3.959   8.735  1.00  0.00     0.326 C 
HETATM   33  O10 UNL     1      17.166   5.370   8.558  1.00  0.00    -0.351 OA
HETATM   34  H7  UNL     1      17.257   3.811  11.715  1.00  0.00     0.164 HD
HETATM   35  H10 UNL     1      13.255   5.024  11.880  1.00  0.00     0.128 HD
ENDROOT
BRANCH  11  36
HETATM   36  O3  UNL     1      14.690   3.801   8.341  1.00  0.00    -0.359 OA
HETATM   37  H11 UNL     1      15.059   3.672   7.448  1.00  0.00     0.213 HD
ENDBRANCH  11  36
BRANCH  15  38
HETATM   38  C11 UNL     1      17.836  -1.067   7.513  1.00  0.00     0.245 C 
HETATM   39  O5  UNL     1      16.763  -1.114   6.904  1.00  0.00    -0.306 OA
ENDBRANCH  15  38
BRANCH  28  40
HETATM   40  O8  UNL     1      20.449  -5.205   9.487  1.00  0.00    -0.389 OA
HETATM   41  H36 UNL     1      21.270  -4.788   9.797  1.00  0.00     0.210 HD
ENDBRANCH  28  40
BRANCH  25  42
HETATM   42  C22 UNL     1      18.871  -7.820  10.275  1.00  0.00    -0.045 A 
HETATM   43  C23 UNL     1      19.963  -8.418  10.758  1.00  0.00     0.087 A 
HETATM   44  C24 UNL     1      20.228  -9.588   9.924  1.00  0.00     0.283 A 
HETATM   45  O6  UNL     1      21.168 -10.347  10.066  1.00  0.00    -0.260 OA
HETATM   46  O7  UNL     1      19.263  -9.681   8.967  1.00  0.00    -0.314 OA
HETATM   47  C25 UNL     1      18.343  -8.605   9.129  1.00  0.00     0.213 A 
ENDBRANCH  25  42
TORSDOF 4
ENDMDL
MODEL 4
REMARK minimizedAffinity -7.8878808
REMARK CNNscore 0.360655397
REMARK CNNaffinity 6.22745705
REMARK  4 active torsions:
REMARK  status: ('A' for Active; 'I' for Inactive)
REMARK    1  A    between atoms: C7_11  and  O3_12 
REMARK    2  A    between atoms: C10_16  and  C11_17 
REMARK    3  A    between atoms: C21_28  and  C22_29 
REMARK    4  A    between atoms: C28_37  and  O8_38 
ROOT
HETATM    1  C1  UNL     1     -11.338   9.612  18.564  1.00  0.00     0.040 C 
HETATM    2  C2  UNL     1     -12.388  10.586  19.083  1.00  0.00     0.124 C 
HETATM    3  C3  UNL     1     -11.986  11.351  20.349  1.00  0.00     0.081 C 
HETATM    4  C4  UNL     1     -12.248  10.590  21.650  1.00  0.00     0.162 C 
HETATM    5  N1  UNL     1     -11.218   9.571  21.895  1.00  0.00    -0.336 N 
HETATM    6  C5  UNL     1     -10.857   9.377  23.213  1.00  0.00     0.229 C 
HETATM    7  O1  UNL     1     -10.303   8.357  23.593  1.00  0.00    -0.273 OA
HETATM    8  C6  UNL     1     -11.223  10.530  24.115  1.00  0.00     0.198 C 
HETATM    9  S1  UNL     1     -11.980  11.709  23.052  1.00  0.00    -0.021 S 
HETATM   10  O2  UNL     1     -13.165  12.275  23.646  1.00  0.00    -0.270 OA
HETATM   11  C7  UNL     1     -13.703  10.006  21.671  1.00  0.00     0.251 C 
HETATM   12  O4  UNL     1     -13.866   9.214  22.865  1.00  0.00    -0.340 OA
HETATM   13  C8  UNL     1     -14.368   7.900  22.578  1.00  0.00     0.156 C 
HETATM   14  C9  UNL     1     -14.430   7.076  23.869  1.00  0.00     0.056 C 
HETATM   15  C10 UNL     1     -14.972   5.637  23.640  1.00  0.00     0.043 C 
HETATM   16  C12 UNL     1     -14.314   4.987  22.412  1.00  0.00    -0.065 C 
HETATM   17  C13 UNL     1     -13.967   3.689  22.388  1.00  0.00    -0.022 C 
HETATM   18  C14 UNL     1     -14.174   2.724  23.510  1.00  0.00     0.035 C 
HETATM   19  C15 UNL     1     -15.031   3.267  24.678  1.00  0.00     0.030 C 
HETATM   20  C16 UNL     1     -14.704   4.762  24.933  1.00  0.00     0.012 C 
HETATM   21  C17 UNL     1     -15.387   5.298  26.208  1.00  0.00     0.007 C 
HETATM   22  C18 UNL     1     -15.140   4.407  27.421  1.00  0.00     0.013 C 
HETATM   23  C19 UNL     1     -15.594   2.935  27.202  1.00  0.00    -0.005 C 
HETATM   24  C20 UNL     1     -17.133   2.887  27.127  1.00  0.00     0.019 C 
HETATM   25  C21 UNL     1     -15.005   2.057  28.362  1.00  0.00     0.028 C 
HETATM   26  C26 UNL     1     -13.552   1.786  27.908  1.00  0.00     0.013 C 
HETATM   27  C27 UNL     1     -13.478   2.065  26.402  1.00  0.00     0.040 C 
HETATM   28  C28 UNL     1     -14.915   2.354  25.931  1.00  0.00     0.070 C 
HETATM   29  C29 UNL     1     -14.067   5.842  21.184  1.00  0.00     0.069 C 
HETATM   30  C30 UNL     1     -13.461   7.192  21.551  1.00  0.00     0.158 C 
HETATM   31  O9  UNL     1     -13.207   7.964  20.362  1.00  0.00    -0.347 OA
HETATM   32  C31 UNL     1     -13.927   9.192  20.349  1.00  0.00     0.326 C 
HETATM   33  O10 UNL     1     -13.669   9.974  19.187  1.00  0.00    -0.351 OA
HETATM   34  H7  UNL     1     -11.130   8.751  21.300  1.00  0.00     0.164 HD
HETATM   35  H10 UNL     1     -11.103  12.685  22.727  1.00  0.00     0.128 HD
ENDROOT
BRANCH  11  36
HETATM   36  O3  UNL     1     -14.642  11.086  21.729  1.00  0.00    -0.359 OA
HETATM   37  H11 UNL     1     -15.481  10.780  21.337  1.00  0.00     0.213 HD
ENDBRANCH  11  36
BRANCH  15  38
HETATM   38  C11 UNL     1     -16.486   5.772  23.357  1.00  0.00     0.245 C 
HETATM   39  O5  UNL     1     -17.092   5.155  22.476  1.00  0.00    -0.306 OA
ENDBRANCH  15  38
BRANCH  28  40
HETATM   40  O8  UNL     1     -15.525   1.098  25.610  1.00  0.00    -0.389 OA
HETATM   41  H36 UNL     1     -15.007   0.651  24.919  1.00  0.00     0.210 HD
ENDBRANCH  28  40
BRANCH  25  42
HETATM   42  C22 UNL     1     -15.747   0.797  28.741  1.00  0.00    -0.045 A 
HETATM   43  C23 UNL     1     -15.802  -0.380  28.112  1.00  0.00     0.087 A 
HETATM   44  C24 UNL     1     -16.653  -1.264  28.906  1.00  0.00     0.283 A 
HETATM   45  O6  UNL     1     -16.941  -2.407  28.608  1.00  0.00    -0.260 OA
HETATM   46  O7  UNL     1     -17.070  -0.598  30.019  1.00  0.00    -0.314 OA
HETATM   47  C25 UNL     1     -16.523   0.717  30.006  1.00  0.00     0.213 A 
ENDBRANCH  25  42
TORSDOF 4
ENDMDL
MODEL 5
REMARK minimizedAffinity -7.79053783
REMARK CNNscore 0.325800985
REMARK CNNaffinity 5.75048494
REMARK  4 active torsions:
REMARK  status: ('A' for Active; 'I' for Inactive)
REMARK    1  A    between atoms: C7_11  and  O3_12 
REMARK    2  A    between atoms: C10_16  and  C11_17 
REMARK    3  A    between atoms: C21_28  and  C22_29 
REMARK    4  A    between atoms: C28_37  and  O8_38 
ROOT
HETATM    1  C1  UNL     1       1.507  16.580  20.842  1.00  0.00     0.040 C 
HETATM    2  C2  UNL     1       2.771  16.330  20.030  1.00  0.00     0.124 C 
HETATM    3  C3  UNL     1       2.771  16.957  18.631  1.00  0.00     0.081 C 
HETATM    4  C4  UNL     1       2.082  16.104  17.564  1.00  0.00     0.162 C 
HETATM    5  N1  UNL     1       0.620  16.209  17.650  1.00  0.00    -0.336 N 
HETATM    6  C5  UNL     1      -0.063  16.188  16.451  1.00  0.00     0.229 C 
HETATM    7  O1  UNL     1      -1.252  15.913  16.383  1.00  0.00    -0.273 OA
HETATM    8  C6  UNL     1       0.799  16.523  15.260  1.00  0.00     0.198 C 
HETATM    9  S1  UNL     1       2.394  16.835  15.933  1.00  0.00    -0.021 S 
HETATM   10  O2  UNL     1       3.432  16.214  15.149  1.00  0.00    -0.270 OA
HETATM   11  C7  UNL     1       2.593  14.623  17.618  1.00  0.00     0.251 C 
HETATM   12  O4  UNL     1       1.843  13.839  16.668  1.00  0.00    -0.340 OA
HETATM   13  C8  UNL     1       1.280  12.660  17.263  1.00  0.00     0.156 C 
HETATM   14  C9  UNL     1       0.420  11.921  16.233  1.00  0.00     0.056 C 
HETATM   15  C10 UNL     1      -0.223  10.624  16.802  1.00  0.00     0.043 C 
HETATM   16  C12 UNL     1      -0.832  10.873  18.192  1.00  0.00    -0.065 C 
HETATM   17  C13 UNL     1      -1.994  10.317  18.574  1.00  0.00    -0.022 C 
HETATM   18  C14 UNL     1      -2.823   9.400  17.736  1.00  0.00     0.035 C 
HETATM   19  C15 UNL     1      -2.149   8.939  16.422  1.00  0.00     0.030 C 
HETATM   20  C16 UNL     1      -1.334  10.104  15.801  1.00  0.00     0.012 C 
HETATM   21  C17 UNL     1      -0.802   9.757  14.395  1.00  0.00     0.007 C 
HETATM   22  C18 UNL     1      -1.893   9.220  13.474  1.00  0.00     0.013 C 
HETATM   23  C19 UNL     1      -2.617   7.969  14.048  1.00  0.00    -0.005 C 
HETATM   24  C20 UNL     1      -1.641   6.776  14.050  1.00  0.00     0.019 C 
HETATM   25  C21 UNL     1      -3.908   7.708  13.193  1.00  0.00     0.028 C 
HETATM   26  C26 UNL     1      -4.937   8.702  13.779  1.00  0.00     0.013 C 
HETATM   27  C27 UNL     1      -4.429   9.133  15.161  1.00  0.00     0.040 C 
HETATM   28  C28 UNL     1      -3.181   8.284  15.461  1.00  0.00     0.070 C 
HETATM   29  C29 UNL     1      -0.083  11.765  19.163  1.00  0.00     0.069 C 
HETATM   30  C30 UNL     1       0.421  13.035  18.487  1.00  0.00     0.158 C 
HETATM   31  O9  UNL     1       1.096  13.875  19.443  1.00  0.00    -0.347 OA
HETATM   32  C31 UNL     1       2.456  14.108  19.095  1.00  0.00     0.326 C 
HETATM   33  O10 UNL     1       3.130  14.953  20.022  1.00  0.00    -0.351 OA
HETATM   34  H7  UNL     1       0.106  15.833  18.444  1.00  0.00     0.164 HD
HETATM   35  H10 UNL     1       2.612  18.165  16.037  1.00  0.00     0.128 HD
ENDROOT
BRANCH  11  36
HETATM   36  O3  UNL     1       3.971  14.586  17.229  1.00  0.00    -0.359 OA
HETATM   37  H11 UNL     1       4.383  13.804  17.641  1.00  0.00     0.213 HD
ENDBRANCH  11  36
BRANCH  15  38
HETATM   38  C11 UNL     1       0.921   9.595  16.958  1.00  0.00     0.245 C 
HETATM   39  O5  UNL     1       1.876   9.720  17.730  1.00  0.00    -0.306 OA
ENDBRANCH  15  38
BRANCH  28  40
HETATM   40  O8  UNL     1      -3.624   7.064  16.068  1.00  0.00    -0.389 OA
HETATM   41  H36 UNL     1      -4.121   7.265  16.879  1.00  0.00     0.210 HD
ENDBRANCH  28  40
BRANCH  25  42
HETATM   42  C22 UNL     1      -4.433   6.293  13.119  1.00  0.00    -0.045 A 
HETATM   43  C23 UNL     1      -3.884   5.212  12.559  1.00  0.00     0.087 A 
HETATM   44  C24 UNL     1      -4.800   4.093  12.776  1.00  0.00     0.283 A 
HETATM   45  O6  UNL     1      -4.624   2.960  12.371  1.00  0.00    -0.260 OA
HETATM   46  O7  UNL     1      -5.872   4.529  13.493  1.00  0.00    -0.314 OA
HETATM   47  C25 UNL     1      -5.712   5.917  13.773  1.00  0.00     0.213 A 
ENDBRANCH  25  42
TORSDOF 4
ENDMDL
MODEL 6
REMARK minimizedAffinity -8.75690174
REMARK CNNscore 0.269458443
REMARK CNNaffinity 6.43652582
REMARK  4 active torsions:
REMARK  status: ('A' for Active; 'I' for Inactive)
REMARK    1  A    between atoms: C7_11  and  O3_12 
REMARK    2  A    between atoms: C10_16  and  C11_17 
REMARK    3  A    between atoms: C21_28  and  C22_29 
REMARK    4  A    between atoms: C28_37  and  O8_38 
ROOT
HETATM    1  C1  UNL     1     -18.511  10.102  15.195  1.00  0.00     0.040 C 
HETATM    2  C2  UNL     1     -18.639   9.381  13.860  1.00  0.00     0.124 C 
HETATM    3  C3  UNL     1     -18.749   7.855  13.960  1.00  0.00     0.081 C 
HETATM    4  C4  UNL     1     -17.402   7.137  14.062  1.00  0.00     0.162 C 
HETATM    5  N1  UNL     1     -16.846   7.222  15.419  1.00  0.00    -0.336 N 
HETATM    6  C5  UNL     1     -16.159   6.112  15.866  1.00  0.00     0.229 C 
HETATM    7  O1  UNL     1     -15.364   6.166  16.792  1.00  0.00    -0.273 OA
HETATM    8  C6  UNL     1     -16.481   4.854  15.098  1.00  0.00     0.198 C 
HETATM    9  S1  UNL     1     -17.673   5.350  13.903  1.00  0.00    -0.021 S 
HETATM   10  O2  UNL     1     -17.396   4.780  12.609  1.00  0.00    -0.270 OA
HETATM   11  C7  UNL     1     -16.412   7.651  12.961  1.00  0.00     0.251 C 
HETATM   12  O4  UNL     1     -15.129   7.022  13.162  1.00  0.00    -0.340 OA
HETATM   13  C8  UNL     1     -14.060   7.979  13.217  1.00  0.00     0.156 C 
HETATM   14  C9  UNL     1     -12.741   7.264  13.526  1.00  0.00     0.056 C 
HETATM   15  C10 UNL     1     -11.529   8.236  13.596  1.00  0.00     0.043 C 
HETATM   16  C12 UNL     1     -11.871   9.487  14.421  1.00  0.00    -0.065 C 
HETATM   17  C13 UNL     1     -10.986  10.058  15.256  1.00  0.00    -0.022 C 
HETATM   18  C14 UNL     1      -9.589   9.581  15.483  1.00  0.00     0.035 C 
HETATM   19  C15 UNL     1      -9.122   8.467  14.515  1.00  0.00     0.030 C 
HETATM   20  C16 UNL     1     -10.287   7.484  14.228  1.00  0.00     0.012 C 
HETATM   21  C17 UNL     1      -9.823   6.251  13.425  1.00  0.00     0.007 C 
HETATM   22  C18 UNL     1      -8.599   5.580  14.042  1.00  0.00     0.013 C 
HETATM   23  C19 UNL     1      -7.390   6.544  14.205  1.00  0.00    -0.005 C 
HETATM   24  C20 UNL     1      -6.838   6.904  12.811  1.00  0.00     0.019 C 
HETATM   25  C21 UNL     1      -6.326   5.852  15.129  1.00  0.00     0.028 C 
HETATM   26  C26 UNL     1      -6.861   6.113  16.556  1.00  0.00     0.013 C 
HETATM   27  C27 UNL     1      -7.865   7.270  16.469  1.00  0.00     0.040 C 
HETATM   28  C28 UNL     1      -7.815   7.795  15.022  1.00  0.00     0.070 C 
HETATM   29  C29 UNL     1     -13.250  10.100  14.272  1.00  0.00     0.069 C 
HETATM   30  C30 UNL     1     -14.344   9.039  14.300  1.00  0.00     0.158 C 
HETATM   31  O9  UNL     1     -15.640   9.657  14.191  1.00  0.00    -0.347 OA
HETATM   32  C31 UNL     1     -16.356   9.217  13.041  1.00  0.00     0.326 C 
HETATM   33  O10 UNL     1     -17.648   9.806  12.933  1.00  0.00    -0.351 OA
HETATM   34  H7  UNL     1     -16.531   8.108  15.809  1.00  0.00     0.164 HD
HETATM   35  H10 UNL     1     -18.918   5.015  14.309  1.00  0.00     0.128 HD
ENDROOT
BRANCH  11  36
HETATM   36  O3  UNL     1     -16.896   7.259  11.672  1.00  0.00    -0.359 OA
HETATM   37  H11 UNL     1     -16.552   7.890  11.013  1.00  0.00     0.213 HD
ENDBRANCH  11  36
BRANCH  15  38
HETATM   38  C11 UNL     1     -11.237   8.685  12.145  1.00  0.00     0.245 C 
HETATM   39  O5  UNL     1     -11.843   9.583  11.554  1.00  0.00    -0.306 OA
ENDBRANCH  15  38
BRANCH  28  40
HETATM   40  O8  UNL     1      -6.770   8.773  14.954  1.00  0.00    -0.389 OA
HETATM   41  H36 UNL     1      -6.951   9.489  15.586  1.00  0.00     0.210 HD
ENDBRANCH  28  40
BRANCH  25  42
HETATM   42  C22 UNL     1      -4.878   6.249  14.962  1.00  0.00    -0.045 A 
HETATM   43  C23 UNL     1      -4.169   7.174  15.615  1.00  0.00     0.087 A 
HETATM   44  C24 UNL     1      -2.813   7.151  15.073  1.00  0.00     0.283 A 
HETATM   45  O6  UNL     1      -1.910   7.887  15.423  1.00  0.00    -0.260 OA
HETATM   46  O7  UNL     1      -2.731   6.184  14.118  1.00  0.00    -0.314 OA
HETATM   47  C25 UNL     1      -3.998   5.544  13.995  1.00  0.00     0.213 A 
ENDBRANCH  25  42
TORSDOF 4
ENDMDL
MODEL 7
REMARK minimizedAffinity -8.61888599
REMARK CNNscore 0.234927431
REMARK CNNaffinity 5.8038497
REMARK  4 active torsions:
REMARK  status: ('A' for Active; 'I' for Inactive)
REMARK    1  A    between atoms: C7_11  and  O3_12 
REMARK    2  A    between atoms: C10_16  and  C11_17 
REMARK    3  A    between atoms: C21_28  and  C22_29 
REMARK    4  A    between atoms: C28_37  and  O8_38 
ROOT
HETATM    1  C1  UNL     1       5.010  14.778  17.597  1.00  0.00     0.040 C 
HETATM    2  C2  UNL     1       5.899  13.985  16.647  1.00  0.00     0.124 C 
HETATM    3  C3  UNL     1       5.758  14.362  15.168  1.00  0.00     0.081 C 
HETATM    4  C4  UNL     1       4.602  13.660  14.452  1.00  0.00     0.162 C 
HETATM    5  N1  UNL     1       3.311  14.283  14.772  1.00  0.00    -0.336 N 
HETATM    6  C5  UNL     1       2.388  14.329  13.747  1.00  0.00     0.229 C 
HETATM    7  O1  UNL     1       1.193  14.482  13.952  1.00  0.00    -0.273 OA
HETATM    8  C6  UNL     1       2.998  14.163  12.377  1.00  0.00     0.198 C 
HETATM    9  S1  UNL     1       4.723  13.989  12.673  1.00  0.00    -0.021 S 
HETATM   10  O2  UNL     1       5.295  12.937  11.871  1.00  0.00    -0.270 OA
HETATM   11  C7  UNL     1       4.624  12.118  14.736  1.00  0.00     0.251 C 
HETATM   12  O4  UNL     1       3.462  11.518  14.128  1.00  0.00    -0.340 OA
HETATM   13  C8  UNL     1       2.721  10.712  15.057  1.00  0.00     0.156 C 
HETATM   14  C9  UNL     1       1.452  10.181  14.382  1.00  0.00     0.056 C 
HETATM   15  C10 UNL     1       0.595   9.289  15.325  1.00  0.00     0.043 C 
HETATM   16  C12 UNL     1       0.446   9.935  16.712  1.00  0.00    -0.065 C 
HETATM   17  C13 UNL     1      -0.702   9.884  17.407  1.00  0.00    -0.022 C 
HETATM   18  C14 UNL     1      -1.952   9.205  16.950  1.00  0.00     0.035 C 
HETATM   19  C15 UNL     1      -1.791   8.351  15.670  1.00  0.00     0.030 C 
HETATM   20  C16 UNL     1      -0.830   9.053  14.675  1.00  0.00     0.012 C 
HETATM   21  C17 UNL     1      -0.787   8.341  13.307  1.00  0.00     0.007 C 
HETATM   22  C18 UNL     1      -2.179   8.093  12.734  1.00  0.00     0.013 C 
HETATM   23  C19 UNL     1      -3.096   7.274  13.686  1.00  0.00    -0.005 C 
HETATM   24  C20 UNL     1      -2.569   5.828  13.775  1.00  0.00     0.019 C 
HETATM   25  C21 UNL     1      -4.569   7.361  13.151  1.00  0.00     0.028 C 
HETATM   26  C26 UNL     1      -5.065   8.727  13.680  1.00  0.00     0.013 C 
HETATM   27  C27 UNL     1      -4.132   9.148  14.822  1.00  0.00     0.040 C 
HETATM   28  C28 UNL     1      -3.175   7.968  15.073  1.00  0.00     0.070 C 
HETATM   29  C29 UNL     1       1.647  10.639  17.317  1.00  0.00     0.069 C 
HETATM   30  C30 UNL     1       2.342  11.539  16.302  1.00  0.00     0.158 C 
HETATM   31  O9  UNL     1       3.454  12.217  16.917  1.00  0.00    -0.347 OA
HETATM   32  C31 UNL     1       4.693  11.904  16.290  1.00  0.00     0.326 C 
HETATM   33  O10 UNL     1       5.799  12.585  16.876  1.00  0.00    -0.351 OA
HETATM   34  H7  UNL     1       2.913  14.231  15.706  1.00  0.00     0.164 HD
HETATM   35  H10 UNL     1       5.363  15.158  12.443  1.00  0.00     0.128 HD
ENDROOT
BRANCH  11  36
HETATM   36  O3  UNL     1       5.785  11.544  14.127  1.00  0.00    -0.359 OA
HETATM   37  H11 UNL     1       6.020  10.736  14.620  1.00  0.00     0.213 HD
ENDBRANCH  11  36
BRANCH  15  38
HETATM   38  C11 UNL     1       1.363   7.958  15.496  1.00  0.00     0.245 C 
HETATM   39  O5  UNL     1       1.833   7.553  16.564  1.00  0.00    -0.306 OA
ENDBRANCH  15  38
BRANCH  28  40
HETATM   40  O8  UNL     1      -3.816   7.083  16.000  1.00  0.00    -0.389 OA
HETATM   41  H36 UNL     1      -4.016   7.562  16.823  1.00  0.00     0.210 HD
ENDBRANCH  28  40
BRANCH  25  42
HETATM   42  C22 UNL     1      -5.510   6.226  13.482  1.00  0.00    -0.045 A 
HETATM   43  C23 UNL     1      -5.511   4.966  13.037  1.00  0.00     0.087 A 
HETATM   44  C24 UNL     1      -6.630   4.277  13.675  1.00  0.00     0.283 A 
HETATM   45  O6  UNL     1      -6.941   3.118  13.474  1.00  0.00    -0.260 OA
HETATM   46  O7  UNL     1      -7.262   5.139  14.519  1.00  0.00    -0.314 OA
HETATM   47  C25 UNL     1      -6.602   6.401  14.474  1.00  0.00     0.213 A 
ENDBRANCH  25  42
TORSDOF 4
ENDMDL
MODEL 8
REMARK minimizedAffinity -7.26341105
REMARK CNNscore 0.230163321
REMARK CNNaffinity 5.32134199
REMARK  4 active torsions:
REMARK  status: ('A' for Active; 'I' for Inactive)
REMARK    1  A    between atoms: C7_11  and  O3_12 
REMARK    2  A    between atoms: C10_16  and  C11_17 
REMARK    3  A    between atoms: C21_28  and  C22_29 
REMARK    4  A    between atoms: C28_37  and  O8_38 
ROOT
HETATM    1  C1  UNL     1      17.761   2.466  13.617  1.00  0.00     0.040 C 
HETATM    2  C2  UNL     1      18.394   3.651  12.899  1.00  0.00     0.124 C 
HETATM    3  C3  UNL     1      17.396   4.672  12.340  1.00  0.00     0.081 C 
HETATM    4  C4  UNL     1      16.839   4.311  10.961  1.00  0.00     0.162 C 
HETATM    5  N1  UNL     1      15.792   3.285  11.054  1.00  0.00    -0.336 N 
HETATM    6  C5  UNL     1      14.744   3.403  10.164  1.00  0.00     0.229 C 
HETATM    7  O1  UNL     1      14.015   2.464   9.887  1.00  0.00    -0.273 OA
HETATM    8  C6  UNL     1      14.608   4.785   9.574  1.00  0.00     0.198 C 
HETATM    9  S1  UNL     1      15.896   5.721  10.319  1.00  0.00    -0.021 S 
HETATM   10  O2  UNL     1      16.575   6.551   9.355  1.00  0.00    -0.270 OA
HETATM   11  C7  UNL     1      17.995   3.919   9.978  1.00  0.00     0.251 C 
HETATM   12  O4  UNL     1      17.416   3.489   8.729  1.00  0.00    -0.340 OA
HETATM   13  C8  UNL     1      17.916   2.210   8.312  1.00  0.00     0.156 C 
HETATM   14  C9  UNL     1      17.197   1.765   7.035  1.00  0.00     0.056 C 
HETATM   15  C10 UNL     1      17.690   0.385   6.514  1.00  0.00     0.043 C 
HETATM   16  C12 UNL     1      17.797  -0.632   7.662  1.00  0.00    -0.065 C 
HETATM   17  C13 UNL     1      17.449  -1.921   7.511  1.00  0.00    -0.022 C 
HETATM   18  C14 UNL     1      16.936  -2.530   6.247  1.00  0.00     0.035 C 
HETATM   19  C15 UNL     1      17.021  -1.609   5.007  1.00  0.00     0.030 C 
HETATM   20  C16 UNL     1      16.693  -0.145   5.403  1.00  0.00     0.012 C 
HETATM   21  C17 UNL     1      16.574   0.778   4.173  1.00  0.00     0.007 C 
HETATM   22  C18 UNL     1      15.639   0.214   3.108  1.00  0.00     0.013 C 
HETATM   23  C19 UNL     1      16.052  -1.204   2.620  1.00  0.00    -0.005 C 
HETATM   24  C20 UNL     1      17.363  -1.100   1.815  1.00  0.00     0.019 C 
HETATM   25  C21 UNL     1      14.865  -1.809   1.790  1.00  0.00     0.028 C 
HETATM   26  C26 UNL     1      13.903  -2.348   2.874  1.00  0.00     0.013 C 
HETATM   27  C27 UNL     1      14.702  -2.483   4.176  1.00  0.00     0.040 C 
HETATM   28  C28 UNL     1      16.170  -2.169   3.832  1.00  0.00     0.070 C 
HETATM   29  C29 UNL     1      18.330  -0.161   9.001  1.00  0.00     0.069 C 
HETATM   30  C30 UNL     1      17.702   1.162   9.423  1.00  0.00     0.158 C 
HETATM   31  O9  UNL     1      18.203   1.563  10.712  1.00  0.00    -0.347 OA
HETATM   32  C31 UNL     1      18.875   2.817  10.667  1.00  0.00     0.326 C 
HETATM   33  O10 UNL     1      19.358   3.234  11.940  1.00  0.00    -0.351 OA
HETATM   34  H7  UNL     1      16.006   2.333  11.342  1.00  0.00     0.164 HD
HETATM   35  H10 UNL     1      15.410   6.475  11.330  1.00  0.00     0.128 HD
ENDROOT
BRANCH  11  36
HETATM   36  O3  UNL     1      18.801   5.073   9.715  1.00  0.00    -0.359 OA
HETATM   37  H11 UNL     1      19.696   4.771   9.474  1.00  0.00     0.213 HD
ENDBRANCH  11  36
BRANCH  15  38
HETATM   38  C11 UNL     1      19.107   0.609   5.938  1.00  0.00     0.245 C 
HETATM   39  O5  UNL     1      19.513   1.678   5.472  1.00  0.00    -0.306 OA
ENDBRANCH  15  38
BRANCH  28  40
HETATM   40  O8  UNL     1      16.782  -3.390   3.398  1.00  0.00    -0.389 OA
HETATM   41  H36 UNL     1      16.716  -4.056   4.103  1.00  0.00     0.210 HD
ENDBRANCH  28  40
BRANCH  25  42
HETATM   42  C22 UNL     1      15.193  -2.835   0.731  1.00  0.00    -0.045 A 
HETATM   43  C23 UNL     1      16.032  -2.749  -0.305  1.00  0.00     0.087 A 
HETATM   44  C24 UNL     1      15.984  -4.026  -1.015  1.00  0.00     0.283 A 
HETATM   45  O6  UNL     1      16.607  -4.284  -2.028  1.00  0.00    -0.260 OA
HETATM   46  O7  UNL     1      15.132  -4.866  -0.365  1.00  0.00    -0.314 OA
HETATM   47  C25 UNL     1      14.597  -4.195   0.773  1.00  0.00     0.213 A 
ENDBRANCH  25  42
TORSDOF 4
ENDMDL
MODEL 9
REMARK minimizedAffinity -8.0675478
REMARK CNNscore 0.224825233
REMARK CNNaffinity 5.49552584
REMARK  4 active torsions:
REMARK  status: ('A' for Active; 'I' for Inactive)
REMARK    1  A    between atoms: C7_11  and  O3_12 
REMARK    2  A    between atoms: C10_16  and  C11_17 
REMARK    3  A    between atoms: C21_28  and  C22_29 
REMARK    4  A    between atoms: C28_37  and  O8_38 
ROOT
HETATM    1  C1  UNL     1      -2.456   9.517  13.964  1.00  0.00     0.040 C 
HETATM    2  C2  UNL     1      -3.317   9.301  15.202  1.00  0.00     0.124 C 
HETATM    3  C3  UNL     1      -4.090  10.538  15.673  1.00  0.00     0.081 C 
HETATM    4  C4  UNL     1      -3.280  11.476  16.570  1.00  0.00     0.162 C 
HETATM    5  N1  UNL     1      -2.355  12.307  15.788  1.00  0.00    -0.336 N 
HETATM    6  C5  UNL     1      -2.166  13.598  16.239  1.00  0.00     0.229 C 
HETATM    7  O1  UNL     1      -1.194  14.264  15.919  1.00  0.00    -0.273 OA
HETATM    8  C6  UNL     1      -3.261  14.081  17.157  1.00  0.00     0.198 C 
HETATM    9  S1  UNL     1      -4.389  12.735  17.260  1.00  0.00    -0.021 S 
HETATM   10  O2  UNL     1      -4.831  12.517  18.614  1.00  0.00    -0.270 OA
HETATM   11  C7  UNL     1      -2.566  10.676  17.713  1.00  0.00     0.251 C 
HETATM   12  O4  UNL     1      -1.736  11.584  18.466  1.00  0.00    -0.340 OA
HETATM   13  C8  UNL     1      -0.388  11.107  18.594  1.00  0.00     0.156 C 
HETATM   14  C9  UNL     1       0.465  12.154  19.318  1.00  0.00     0.056 C 
HETATM   15  C10 UNL     1       1.943  11.706  19.501  1.00  0.00     0.043 C 
HETATM   16  C12 UNL     1       2.504  11.106  18.201  1.00  0.00    -0.065 C 
HETATM   17  C13 UNL     1       3.763  11.333  17.792  1.00  0.00    -0.022 C 
HETATM   18  C14 UNL     1       4.766  12.163  18.524  1.00  0.00     0.035 C 
HETATM   19  C15 UNL     1       4.329  12.603  19.942  1.00  0.00     0.030 C 
HETATM   20  C16 UNL     1       2.816  12.947  19.953  1.00  0.00     0.012 C 
HETATM   21  C17 UNL     1       2.372  13.574  21.291  1.00  0.00     0.007 C 
HETATM   22  C18 UNL     1       3.263  14.739  21.714  1.00  0.00     0.013 C 
HETATM   23  C19 UNL     1       4.765  14.350  21.828  1.00  0.00    -0.005 C 
HETATM   24  C20 UNL     1       4.953  13.403  23.030  1.00  0.00     0.019 C 
HETATM   25  C21 UNL     1       5.610  15.668  21.943  1.00  0.00     0.028 C 
HETATM   26  C26 UNL     1       5.737  16.145  20.477  1.00  0.00     0.013 C 
HETATM   27  C27 UNL     1       5.421  14.949  19.572  1.00  0.00     0.040 C 
HETATM   28  C28 UNL     1       5.254  13.726  20.492  1.00  0.00     0.070 C 
HETATM   29  C29 UNL     1       1.603  10.216  17.365  1.00  0.00     0.069 C 
HETATM   30  C30 UNL     1       0.212  10.817  17.203  1.00  0.00     0.158 C 
HETATM   31  O9  UNL     1      -0.605   9.966  16.377  1.00  0.00    -0.347 OA
HETATM   32  C31 UNL     1      -1.762   9.496  17.061  1.00  0.00     0.326 C 
HETATM   33  O10 UNL     1      -2.590   8.669  16.248  1.00  0.00    -0.351 OA
HETATM   34  H7  UNL     1      -1.559  11.901  15.301  1.00  0.00     0.164 HD
HETATM   35  H10 UNL     1      -5.448  12.942  16.445  1.00  0.00     0.128 HD
ENDROOT
BRANCH  11  36
HETATM   36  O3  UNL     1      -3.553  10.142  18.602  1.00  0.00    -0.359 OA
HETATM   37  H11 UNL     1      -3.181   9.350  19.031  1.00  0.00     0.213 HD
ENDBRANCH  11  36
BRANCH  15  38
HETATM   38  C11 UNL     1       1.940  10.597  20.578  1.00  0.00     0.245 C 
HETATM   39  O5  UNL     1       2.606   9.559  20.516  1.00  0.00    -0.306 OA
ENDBRANCH  15  38
BRANCH  28  40
HETATM   40  O8  UNL     1       6.554  13.156  20.692  1.00  0.00    -0.389 OA
HETATM   41  H36 UNL     1       6.936  12.907  19.834  1.00  0.00     0.210 HD
ENDBRANCH  28  40
BRANCH  25  42
HETATM   42  C22 UNL     1       6.941  15.594  22.655  1.00  0.00    -0.045 A 
HETATM   43  C23 UNL     1       7.208  15.636  23.963  1.00  0.00     0.087 A 
HETATM   44  C24 UNL     1       8.656  15.517  24.119  1.00  0.00     0.283 A 
HETATM   45  O6  UNL     1       9.247  15.546  25.182  1.00  0.00    -0.260 OA
HETATM   46  O7  UNL     1       9.226  15.376  22.890  1.00  0.00    -0.314 OA
HETATM   47  C25 UNL     1       8.204  15.394  21.898  1.00  0.00     0.213 A 
ENDBRANCH  25  42
TORSDOF 4
ENDMDL
