MODEL 1
REMARK minimizedAffinity -7.9460125
REMARK CNNscore 0.635945499
REMARK CNNaffinity 7.41169691
REMARK  19 active torsions:
REMARK  status: ('A' for Active; 'I' for Inactive)
REMARK    1  A    between atoms: C2_2  and  C3_3 
REMARK    2  A    between atoms: C3_3  and  C5_5 
REMARK    3  A    between atoms: C5_5  and  N1_6 
REMARK    4  A    between atoms: C5_5  and  C37_46 
REMARK       I    between atoms: N1_6  and  C6_7 
REMARK    5  A    between atoms: C6_7  and  C7_9 
REMARK    6  A    between atoms: C7_9  and  C8_10 
REMARK    7  A    between atoms: C8_10  and  C9_11 
REMARK    8  A    between atoms: C9_11  and  C10_12 
REMARK    9  A    between atoms: C10_12  and  C11_13 
REMARK   10  A    between atoms: C11_13  and  N2_14 
REMARK       I    between atoms: N2_14  and  C12_15 
REMARK   11  A    between atoms: C12_15  and  C13_17 
REMARK   12  A    between atoms: C13_17  and  C14_18 
REMARK   13  A    between atoms: C14_18  and  C15_19 
REMARK   14  A    between atoms: C15_19  and  O4_21 
REMARK   15  A    between atoms: O4_21  and  C16_22 
REMARK   16  A    between atoms: C16_22  and  C17_23 
REMARK   17  A    between atoms: C17_23  and  C18_25 
REMARK   18  A    between atoms: C18_25  and  O6_26 
REMARK   19  A    between atoms: C37_46  and  O9_48 
ROOT
HETATM    1  C15 UNL     1      -9.063   7.396  15.939  1.00  0.00     0.259 C 
HETATM    2  O3  UNL     1      -9.330   7.896  17.022  1.00  0.00    -0.265 OA
ENDROOT
BRANCH   1   3
HETATM    3  C14 UNL     1      -9.549   7.893  14.598  1.00  0.00     0.120 C 
BRANCH   3   4
HETATM    4  C13 UNL     1     -10.160   6.763  13.780  1.00  0.00     0.112 C 
BRANCH   4   5
HETATM    5  C12 UNL     1     -11.644   6.973  13.545  1.00  0.00     0.217 C 
HETATM    6  N2  UNL     1     -12.429   6.101  14.274  1.00  0.00    -0.361 N 
HETATM    7  H22 UNL     1     -11.979   5.253  14.592  1.00  0.00     0.162 HD
HETATM    8  O2  UNL     1     -12.090   7.863  12.825  1.00  0.00    -0.274 OA
BRANCH   6   9
HETATM    9  C11 UNL     1     -13.867   6.071  14.092  1.00  0.00     0.122 C 
BRANCH   9  10
HETATM   10  C10 UNL     1     -14.525   4.892  14.811  1.00  0.00     0.020 C 
BRANCH  10  11
HETATM   11  C9  UNL     1     -16.016   4.704  14.508  1.00  0.00     0.002 C 
BRANCH  11  12
HETATM   12  C8  UNL     1     -16.404   3.289  14.070  1.00  0.00     0.009 C 
BRANCH  12  13
HETATM   13  C7  UNL     1     -15.519   2.222  14.716  1.00  0.00     0.103 C 
BRANCH  13  14
HETATM   14  C6  UNL     1     -15.650   0.858  14.059  1.00  0.00     0.218 C 
HETATM   15  N1  UNL     1     -15.330  -0.176  14.912  1.00  0.00    -0.346 N 
HETATM   16  H11 UNL     1     -14.720   0.060  15.686  1.00  0.00     0.163 HD
HETATM   17  O1  UNL     1     -15.988   0.698  12.894  1.00  0.00    -0.274 OA
BRANCH  15  18
HETATM   18  C5  UNL     1     -15.203  -1.551  14.417  1.00  0.00     0.186 C 
BRANCH  18  19
HETATM   19  C3  UNL     1     -16.480  -2.010  13.671  1.00  0.00     0.014 C 
HETATM   20  C4  UNL     1     -16.196  -3.120  12.649  1.00  0.00     0.012 C 
BRANCH  19  21
HETATM   21  C2  UNL     1     -17.566  -2.431  14.687  1.00  0.00     0.002 C 
HETATM   22  C1  UNL     1     -18.752  -1.478  14.739  1.00  0.00     0.005 C 
ENDBRANCH  19  21
ENDBRANCH  18  19
BRANCH  18  23
HETATM   23  C37 UNL     1     -14.871  -2.517  15.563  1.00  0.00     0.163 C 
HETATM   24  O8  UNL     1     -15.509  -2.663  16.594  1.00  0.00    -0.648 OA
BRANCH  23  25
HETATM   25  O9  UNL     1     -13.714  -3.197  15.390  1.00  0.00    -0.775 OA
HETATM   26  H56 UNL     1     -13.661  -3.761  16.193  1.00  0.00     0.167 HD
ENDBRANCH  23  25
ENDBRANCH  18  23
ENDBRANCH  15  18
ENDBRANCH  13  14
ENDBRANCH  12  13
ENDBRANCH  11  12
ENDBRANCH  10  11
ENDBRANCH   9  10
ENDBRANCH   6   9
ENDBRANCH   4   5
ENDBRANCH   3   4
ENDBRANCH   1   3
BRANCH   1  27
HETATM   27  O4  UNL     1      -8.236   6.327  15.753  1.00  0.00    -0.314 OA
BRANCH  27  28
HETATM   28  C16 UNL     1      -6.979   6.453  16.420  1.00  0.00     0.260 C 
BRANCH  28  29
HETATM   29  C17 UNL     1      -6.023   7.260  15.553  1.00  0.00     0.185 C 
HETATM   30  O5  UNL     1      -5.759   8.433  15.840  1.00  0.00    -0.292 OA
BRANCH  29  31
HETATM   31  C18 UNL     1      -5.454   6.567  14.276  1.00  0.00     0.128 C 
HETATM   32  C19 UNL     1      -5.644   7.519  13.081  1.00  0.00     0.047 C 
HETATM   33  C20 UNL     1      -4.298   8.216  12.852  1.00  0.00     0.009 C 
HETATM   34  C21 UNL     1      -3.343   7.707  13.948  1.00  0.00     0.002 C 
HETATM   35  C22 UNL     1      -1.818   7.749  13.655  1.00  0.00    -0.004 C 
HETATM   36  C35 UNL     1      -3.908   6.314  14.295  1.00  0.00    -0.002 C 
HETATM   37  C23 UNL     1      -1.399   9.023  12.888  1.00  0.00     0.010 C 
HETATM   38  C32 UNL     1      -1.221   6.423  13.081  1.00  0.00     0.002 C 
HETATM   39  C24 UNL     1      -1.086   8.781  11.416  1.00  0.00     0.035 C 
HETATM   40  C25 UNL     1      -0.044   7.712  11.206  1.00  0.00    -0.068 C 
HETATM   41  C26 UNL     1       0.683   7.711  10.072  1.00  0.00     0.053 C 
HETATM   42  C30 UNL     1       0.122   6.650  12.289  1.00  0.00    -0.016 C 
HETATM   43  C27 UNL     1       1.701   6.669   9.789  1.00  0.00     0.149 C 
HETATM   44  O7  UNL     1       2.396   6.766   8.776  1.00  0.00    -0.293 OA
HETATM   45  C28 UNL     1       1.876   5.535  10.772  1.00  0.00     0.084 C 
HETATM   46  C29 UNL     1       0.617   5.339  11.614  1.00  0.00     0.022 C 
HETATM   47  C31 UNL     1       1.218   7.104  13.296  1.00  0.00     0.020 C 
HETATM   48  C33 UNL     1      -2.300   5.630  12.335  1.00  0.00     0.007 C 
HETATM   49  C34 UNL     1      -3.499   5.263  13.216  1.00  0.00     0.013 C 
HETATM   50  C36 UNL     1      -3.425   5.827  15.674  1.00  0.00     0.019 C 
BRANCH  31  51
HETATM   51  O6  UNL     1      -6.168   5.364  14.006  1.00  0.00    -0.381 OA
HETATM   52  H29 UNL     1      -5.911   4.715  14.685  1.00  0.00     0.211 HD
ENDBRANCH  31  51
ENDBRANCH  29  31
ENDBRANCH  28  29
ENDBRANCH  27  28
ENDBRANCH   1  27
TORSDOF 19
ENDMDL
MODEL 2
REMARK minimizedAffinity -8.35765648
REMARK CNNscore 0.589354932
REMARK CNNaffinity 7.39961195
REMARK  19 active torsions:
REMARK  status: ('A' for Active; 'I' for Inactive)
REMARK    1  A    between atoms: C2_2  and  C3_3 
REMARK    2  A    between atoms: C3_3  and  C5_5 
REMARK    3  A    between atoms: C5_5  and  N1_6 
REMARK    4  A    between atoms: C5_5  and  C37_46 
REMARK       I    between atoms: N1_6  and  C6_7 
REMARK    5  A    between atoms: C6_7  and  C7_9 
REMARK    6  A    between atoms: C7_9  and  C8_10 
REMARK    7  A    between atoms: C8_10  and  C9_11 
REMARK    8  A    between atoms: C9_11  and  C10_12 
REMARK    9  A    between atoms: C10_12  and  C11_13 
REMARK   10  A    between atoms: C11_13  and  N2_14 
REMARK       I    between atoms: N2_14  and  C12_15 
REMARK   11  A    between atoms: C12_15  and  C13_17 
REMARK   12  A    between atoms: C13_17  and  C14_18 
REMARK   13  A    between atoms: C14_18  and  C15_19 
REMARK   14  A    between atoms: C15_19  and  O4_21 
REMARK   15  A    between atoms: O4_21  and  C16_22 
REMARK   16  A    between atoms: C16_22  and  C17_23 
REMARK   17  A    between atoms: C17_23  and  C18_25 
REMARK   18  A    between atoms: C18_25  and  O6_26 
REMARK   19  A    between atoms: C37_46  and  O9_48 
ROOT
HETATM    1  C15 UNL     1      -4.206   3.379  12.267  1.00  0.00     0.259 C 
HETATM    2  O3  UNL     1      -3.327   2.532  12.190  1.00  0.00    -0.265 OA
ENDROOT
BRANCH   1   3
HETATM    3  C14 UNL     1      -5.534   3.335  11.549  1.00  0.00     0.120 C 
BRANCH   3   4
HETATM    4  C13 UNL     1      -6.519   2.421  12.268  1.00  0.00     0.112 C 
BRANCH   4   5
HETATM    5  C12 UNL     1      -7.566   3.208  13.033  1.00  0.00     0.217 C 
HETATM    6  N2  UNL     1      -7.012   4.094  13.936  1.00  0.00    -0.361 N 
HETATM    7  H22 UNL     1      -6.064   3.902  14.229  1.00  0.00     0.162 HD
HETATM    8  O2  UNL     1      -8.771   3.101  12.824  1.00  0.00    -0.274 OA
BRANCH   6   9
HETATM    9  C11 UNL     1      -7.855   4.850  14.842  1.00  0.00     0.122 C 
BRANCH   9  10
HETATM   10  C10 UNL     1      -7.322   6.260  15.101  1.00  0.00     0.020 C 
BRANCH  10  11
HETATM   11  C9  UNL     1      -7.882   6.941  16.355  1.00  0.00     0.002 C 
BRANCH  11  12
HETATM   12  C8  UNL     1      -9.278   7.547  16.182  1.00  0.00     0.009 C 
BRANCH  12  13
HETATM   13  C7  UNL     1      -9.314   8.609  15.082  1.00  0.00     0.103 C 
BRANCH  13  14
HETATM   14  C6  UNL     1     -10.454   8.412  14.098  1.00  0.00     0.218 C 
HETATM   15  N1  UNL     1     -11.583   9.123  14.443  1.00  0.00    -0.346 N 
HETATM   16  H11 UNL     1     -11.672   9.366  15.423  1.00  0.00     0.163 HD
HETATM   17  O1  UNL     1     -10.383   7.687  13.114  1.00  0.00    -0.274 OA
BRANCH  15  18
HETATM   18  C5  UNL     1     -12.852   8.916  13.736  1.00  0.00     0.186 C 
BRANCH  18  19
HETATM   19  C3  UNL     1     -13.146   7.412  13.519  1.00  0.00     0.014 C 
HETATM   20  C4  UNL     1     -12.484   6.524  14.582  1.00  0.00     0.012 C 
BRANCH  19  21
HETATM   21  C2  UNL     1     -14.671   7.175  13.443  1.00  0.00     0.002 C 
HETATM   22  C1  UNL     1     -15.258   7.424  12.060  1.00  0.00     0.005 C 
ENDBRANCH  19  21
ENDBRANCH  18  19
BRANCH  18  23
HETATM   23  C37 UNL     1     -12.862   9.668  12.397  1.00  0.00     0.163 C 
HETATM   24  O8  UNL     1     -13.735  10.423  12.000  1.00  0.00    -0.648 OA
BRANCH  23  25
HETATM   25  O9  UNL     1     -11.812   9.375  11.596  1.00  0.00    -0.775 OA
HETATM   26  H56 UNL     1     -11.970   9.936  10.805  1.00  0.00     0.167 HD
ENDBRANCH  23  25
ENDBRANCH  18  23
ENDBRANCH  15  18
ENDBRANCH  13  14
ENDBRANCH  12  13
ENDBRANCH  11  12
ENDBRANCH  10  11
ENDBRANCH   9  10
ENDBRANCH   6   9
ENDBRANCH   4   5
ENDBRANCH   3   4
ENDBRANCH   1   3
BRANCH   1  27
HETATM   27  O4  UNL     1      -4.156   4.489  13.058  1.00  0.00    -0.314 OA
BRANCH  27  28
HETATM   28  C16 UNL     1      -3.518   5.606  12.435  1.00  0.00     0.260 C 
BRANCH  28  29
HETATM   29  C17 UNL     1      -3.323   6.714  13.460  1.00  0.00     0.185 C 
HETATM   30  O5  UNL     1      -4.284   7.398  13.829  1.00  0.00    -0.292 OA
BRANCH  29  31
HETATM   31  C18 UNL     1      -1.870   6.981  13.962  1.00  0.00     0.128 C 
HETATM   32  C19 UNL     1      -1.173   5.624  14.177  1.00  0.00     0.047 C 
HETATM   33  C20 UNL     1      -0.303   5.373  12.940  1.00  0.00     0.009 C 
HETATM   34  C21 UNL     1      -0.536   6.559  11.986  1.00  0.00     0.002 C 
HETATM   35  C22 UNL     1       0.587   6.901  10.969  1.00  0.00    -0.004 C 
HETATM   36  C35 UNL     1      -0.938   7.708  12.935  1.00  0.00    -0.002 C 
HETATM   37  C23 UNL     1       1.254   5.639  10.378  1.00  0.00     0.010 C 
HETATM   38  C32 UNL     1       1.592   8.001  11.444  1.00  0.00     0.002 C 
HETATM   39  C24 UNL     1       2.643   5.358  10.937  1.00  0.00     0.035 C 
HETATM   40  C25 UNL     1       3.583   6.527  10.789  1.00  0.00    -0.068 C 
HETATM   41  C26 UNL     1       4.912   6.311  10.768  1.00  0.00     0.053 C 
HETATM   42  C30 UNL     1       2.978   7.926  10.698  1.00  0.00    -0.016 C 
HETATM   43  C27 UNL     1       5.891   7.419  10.658  1.00  0.00     0.149 C 
HETATM   44  O7  UNL     1       7.090   7.156  10.557  1.00  0.00    -0.293 OA
HETATM   45  C28 UNL     1       5.381   8.843  10.642  1.00  0.00     0.084 C 
HETATM   46  C29 UNL     1       4.001   8.939  11.287  1.00  0.00     0.022 C 
HETATM   47  C31 UNL     1       2.754   8.297   9.203  1.00  0.00     0.020 C 
HETATM   48  C33 UNL     1       1.668   8.030  12.974  1.00  0.00     0.007 C 
HETATM   49  C34 UNL     1       0.317   8.307  13.643  1.00  0.00     0.013 C 
HETATM   50  C36 UNL     1      -1.677   8.835  12.189  1.00  0.00     0.019 C 
BRANCH  31  51
HETATM   51  O6  UNL     1      -1.896   7.671  15.209  1.00  0.00    -0.381 OA
HETATM   52  H29 UNL     1      -2.188   8.582  15.030  1.00  0.00     0.211 HD
ENDBRANCH  31  51
ENDBRANCH  29  31
ENDBRANCH  28  29
ENDBRANCH  27  28
ENDBRANCH   1  27
TORSDOF 19
ENDMDL
MODEL 3
REMARK minimizedAffinity -8.18531322
REMARK CNNscore 0.414367616
REMARK CNNaffinity 8.09720421
REMARK  19 active torsions:
REMARK  status: ('A' for Active; 'I' for Inactive)
REMARK    1  A    between atoms: C2_2  and  C3_3 
REMARK    2  A    between atoms: C3_3  and  C5_5 
REMARK    3  A    between atoms: C5_5  and  N1_6 
REMARK    4  A    between atoms: C5_5  and  C37_46 
REMARK       I    between atoms: N1_6  and  C6_7 
REMARK    5  A    between atoms: C6_7  and  C7_9 
REMARK    6  A    between atoms: C7_9  and  C8_10 
REMARK    7  A    between atoms: C8_10  and  C9_11 
REMARK    8  A    between atoms: C9_11  and  C10_12 
REMARK    9  A    between atoms: C10_12  and  C11_13 
REMARK   10  A    between atoms: C11_13  and  N2_14 
REMARK       I    between atoms: N2_14  and  C12_15 
REMARK   11  A    between atoms: C12_15  and  C13_17 
REMARK   12  A    between atoms: C13_17  and  C14_18 
REMARK   13  A    between atoms: C14_18  and  C15_19 
REMARK   14  A    between atoms: C15_19  and  O4_21 
REMARK   15  A    between atoms: O4_21  and  C16_22 
REMARK   16  A    between atoms: C16_22  and  C17_23 
REMARK   17  A    between atoms: C17_23  and  C18_25 
REMARK   18  A    between atoms: C18_25  and  O6_26 
REMARK   19  A    between atoms: C37_46  and  O9_48 
ROOT
HETATM    1  C15 UNL     1      -5.725   2.087  11.584  1.00  0.00     0.259 C 
HETATM    2  O3  UNL     1      -6.308   1.025  11.415  1.00  0.00    -0.265 OA
ENDROOT
BRANCH   1   3
HETATM    3  C14 UNL     1      -4.241   2.308  11.426  1.00  0.00     0.120 C 
BRANCH   3   4
HETATM    4  C13 UNL     1      -3.877   3.773  11.632  1.00  0.00     0.112 C 
BRANCH   4   5
HETATM    5  C12 UNL     1      -2.445   3.940  12.104  1.00  0.00     0.217 C 
HETATM    6  N2  UNL     1      -2.305   4.946  13.040  1.00  0.00    -0.361 N 
HETATM    7  H22 UNL     1      -3.035   5.645  13.058  1.00  0.00     0.162 HD
HETATM    8  O2  UNL     1      -1.526   3.216  11.730  1.00  0.00    -0.274 OA
BRANCH   6   9
HETATM    9  C11 UNL     1      -0.993   5.332  13.521  1.00  0.00     0.122 C 
BRANCH   9  10
HETATM   10  C10 UNL     1      -1.057   6.114  14.834  1.00  0.00     0.020 C 
BRANCH  10  11
HETATM   11  C9  UNL     1       0.059   7.150  15.022  1.00  0.00     0.002 C 
BRANCH  11  12
HETATM   12  C8  UNL     1       0.592   7.755  13.720  1.00  0.00     0.009 C 
BRANCH  12  13
HETATM   13  C7  UNL     1       2.103   7.986  13.768  1.00  0.00     0.103 C 
BRANCH  13  14
HETATM   14  C6  UNL     1       2.735   8.095  12.390  1.00  0.00     0.218 C 
HETATM   15  N1  UNL     1       2.227   7.176  11.498  1.00  0.00    -0.346 N 
HETATM   16  H11 UNL     1       1.814   6.344  11.904  1.00  0.00     0.163 HD
HETATM   17  O1  UNL     1       3.613   8.901  12.110  1.00  0.00    -0.274 OA
BRANCH  15  18
HETATM   18  C5  UNL     1       2.840   6.986  10.179  1.00  0.00     0.186 C 
BRANCH  18  19
HETATM   19  C3  UNL     1       1.782   7.005   9.049  1.00  0.00     0.014 C 
HETATM   20  C4  UNL     1       0.461   7.650   9.492  1.00  0.00     0.012 C 
BRANCH  19  21
HETATM   21  C2  UNL     1       2.360   7.693   7.791  1.00  0.00     0.002 C 
HETATM   22  C1  UNL     1       1.797   7.147   6.486  1.00  0.00     0.005 C 
ENDBRANCH  19  21
ENDBRANCH  18  19
BRANCH  18  23
HETATM   23  C37 UNL     1       3.653   5.685  10.135  1.00  0.00     0.163 C 
HETATM   24  O8  UNL     1       4.870   5.595  10.075  1.00  0.00    -0.648 OA
BRANCH  23  25
HETATM   25  O9  UNL     1       2.895   4.565  10.093  1.00  0.00    -0.775 OA
HETATM   26  H56 UNL     1       3.561   3.843  10.076  1.00  0.00     0.167 HD
ENDBRANCH  23  25
ENDBRANCH  18  23
ENDBRANCH  15  18
ENDBRANCH  13  14
ENDBRANCH  12  13
ENDBRANCH  11  12
ENDBRANCH  10  11
ENDBRANCH   9  10
ENDBRANCH   6   9
ENDBRANCH   4   5
ENDBRANCH   3   4
ENDBRANCH   1   3
BRANCH   1  27
HETATM   27  O4  UNL     1      -6.329   3.269  11.898  1.00  0.00    -0.314 OA
BRANCH  27  28
HETATM   28  C16 UNL     1      -7.495   3.118  12.709  1.00  0.00     0.260 C 
BRANCH  28  29
HETATM   29  C17 UNL     1      -7.381   4.015  13.933  1.00  0.00     0.185 C 
HETATM   30  O5  UNL     1      -7.429   3.530  15.069  1.00  0.00    -0.292 OA
BRANCH  29  31
HETATM   31  C18 UNL     1      -7.268   5.552  13.689  1.00  0.00     0.128 C 
HETATM   32  C19 UNL     1      -8.123   5.914  12.462  1.00  0.00     0.047 C 
HETATM   33  C20 UNL     1      -9.449   6.471  12.995  1.00  0.00     0.009 C 
HETATM   34  C21 UNL     1      -9.380   6.384  14.531  1.00  0.00     0.002 C 
HETATM   35  C22 UNL     1     -10.258   7.368  15.352  1.00  0.00    -0.004 C 
HETATM   36  C35 UNL     1      -7.867   6.448  14.826  1.00  0.00    -0.002 C 
HETATM   37  C23 UNL     1     -11.649   7.588  14.717  1.00  0.00     0.010 C 
HETATM   38  C32 UNL     1      -9.534   8.680  15.797  1.00  0.00     0.002 C 
HETATM   39  C24 UNL     1     -11.804   8.938  14.027  1.00  0.00     0.035 C 
HETATM   40  C25 UNL     1     -11.483  10.100  14.932  1.00  0.00    -0.068 C 
HETATM   41  C26 UNL     1     -12.014  11.310  14.669  1.00  0.00     0.053 C 
HETATM   42  C30 UNL     1     -10.537   9.857  16.104  1.00  0.00    -0.016 C 
HETATM   43  C27 UNL     1     -11.714  12.501  15.500  1.00  0.00     0.149 C 
HETATM   44  O7  UNL     1     -12.294  13.562  15.264  1.00  0.00    -0.293 OA
HETATM   45  C28 UNL     1     -10.724  12.367  16.635  1.00  0.00     0.084 C 
HETATM   46  C29 UNL     1      -9.785  11.184  16.408  1.00  0.00     0.022 C 
HETATM   47  C31 UNL     1     -11.363   9.483  17.368  1.00  0.00     0.020 C 
HETATM   48  C33 UNL     1      -8.398   9.019  14.826  1.00  0.00     0.007 C 
HETATM   49  C34 UNL     1      -7.342   7.914  14.719  1.00  0.00     0.013 C 
HETATM   50  C36 UNL     1      -7.532   5.898  16.225  1.00  0.00     0.019 C 
BRANCH  31  51
HETATM   51  O6  UNL     1      -5.916   5.910  13.412  1.00  0.00    -0.381 OA
HETATM   52  H29 UNL     1      -5.418   5.829  14.244  1.00  0.00     0.211 HD
ENDBRANCH  31  51
ENDBRANCH  29  31
ENDBRANCH  28  29
ENDBRANCH  27  28
ENDBRANCH   1  27
TORSDOF 19
ENDMDL
MODEL 4
REMARK minimizedAffinity -7.60788774
REMARK CNNscore 0.33583349
REMARK CNNaffinity 7.11735916
REMARK  19 active torsions:
REMARK  status: ('A' for Active; 'I' for Inactive)
REMARK    1  A    between atoms: C2_2  and  C3_3 
REMARK    2  A    between atoms: C3_3  and  C5_5 
REMARK    3  A    between atoms: C5_5  and  N1_6 
REMARK    4  A    between atoms: C5_5  and  C37_46 
REMARK       I    between atoms: N1_6  and  C6_7 
REMARK    5  A    between atoms: C6_7  and  C7_9 
REMARK    6  A    between atoms: C7_9  and  C8_10 
REMARK    7  A    between atoms: C8_10  and  C9_11 
REMARK    8  A    between atoms: C9_11  and  C10_12 
REMARK    9  A    between atoms: C10_12  and  C11_13 
REMARK   10  A    between atoms: C11_13  and  N2_14 
REMARK       I    between atoms: N2_14  and  C12_15 
REMARK   11  A    between atoms: C12_15  and  C13_17 
REMARK   12  A    between atoms: C13_17  and  C14_18 
REMARK   13  A    between atoms: C14_18  and  C15_19 
REMARK   14  A    between atoms: C15_19  and  O4_21 
REMARK   15  A    between atoms: O4_21  and  C16_22 
REMARK   16  A    between atoms: C16_22  and  C17_23 
REMARK   17  A    between atoms: C17_23  and  C18_25 
REMARK   18  A    between atoms: C18_25  and  O6_26 
REMARK   19  A    between atoms: C37_46  and  O9_48 
ROOT
HETATM    1  C15 UNL     1      -3.391   3.087  12.140  1.00  0.00     0.259 C 
HETATM    2  O3  UNL     1      -3.304   1.904  11.843  1.00  0.00    -0.265 OA
ENDROOT
BRANCH   1   3
HETATM    3  C14 UNL     1      -4.630   3.773  12.664  1.00  0.00     0.120 C 
BRANCH   3   4
HETATM    4  C13 UNL     1      -5.893   3.059  12.200  1.00  0.00     0.112 C 
BRANCH   4   5
HETATM    5  C12 UNL     1      -7.114   3.503  12.983  1.00  0.00     0.217 C 
HETATM    6  N2  UNL     1      -6.901   4.673  13.686  1.00  0.00    -0.361 N 
HETATM    7  H22 UNL     1      -5.938   4.910  13.879  1.00  0.00     0.162 HD
HETATM    8  O2  UNL     1      -8.189   2.910  12.944  1.00  0.00    -0.274 OA
BRANCH   6   9
HETATM    9  C11 UNL     1      -7.913   5.190  14.586  1.00  0.00     0.122 C 
BRANCH   9  10
HETATM   10  C10 UNL     1      -7.339   5.595  15.944  1.00  0.00     0.020 C 
BRANCH  10  11
HETATM   11  C9  UNL     1      -7.502   7.079  16.296  1.00  0.00     0.002 C 
BRANCH  11  12
HETATM   12  C8  UNL     1      -8.329   7.885  15.290  1.00  0.00     0.009 C 
BRANCH  12  13
HETATM   13  C7  UNL     1      -9.168   8.969  15.970  1.00  0.00     0.103 C 
BRANCH  13  14
HETATM   14  C6  UNL     1     -10.485   9.237  15.263  1.00  0.00     0.218 C 
HETATM   15  N1  UNL     1     -11.452   8.304  15.568  1.00  0.00    -0.346 N 
HETATM   16  H11 UNL     1     -11.115   7.403  15.886  1.00  0.00     0.163 HD
HETATM   17  O1  UNL     1     -10.662  10.171  14.492  1.00  0.00    -0.274 OA
BRANCH  15  18
HETATM   18  C5  UNL     1     -12.726   8.270  14.841  1.00  0.00     0.186 C 
BRANCH  18  19
HETATM   19  C3  UNL     1     -12.545   7.750  13.394  1.00  0.00     0.014 C 
HETATM   20  C4  UNL     1     -11.201   7.037  13.191  1.00  0.00     0.012 C 
BRANCH  19  21
HETATM   21  C2  UNL     1     -13.737   6.849  13.001  1.00  0.00     0.002 C 
HETATM   22  C1  UNL     1     -14.349   6.103  14.178  1.00  0.00     0.005 C 
ENDBRANCH  19  21
ENDBRANCH  18  19
BRANCH  18  23
HETATM   23  C37 UNL     1     -13.392   9.654  14.838  1.00  0.00     0.163 C 
HETATM   24  O8  UNL     1     -13.920  10.204  15.792  1.00  0.00    -0.648 OA
BRANCH  23  25
HETATM   25  O9  UNL     1     -13.426  10.244  13.621  1.00  0.00    -0.775 OA
HETATM   26  H56 UNL     1     -13.868  11.103  13.800  1.00  0.00     0.167 HD
ENDBRANCH  23  25
ENDBRANCH  18  23
ENDBRANCH  15  18
ENDBRANCH  13  14
ENDBRANCH  12  13
ENDBRANCH  11  12
ENDBRANCH  10  11
ENDBRANCH   9  10
ENDBRANCH   6   9
ENDBRANCH   4   5
ENDBRANCH   3   4
ENDBRANCH   1   3
BRANCH   1  27
HETATM   27  O4  UNL     1      -2.364   3.983  12.092  1.00  0.00    -0.314 OA
BRANCH  27  28
HETATM   28  C16 UNL     1      -2.717   5.285  12.564  1.00  0.00     0.260 C 
BRANCH  28  29
HETATM   29  C17 UNL     1      -1.452   6.080  12.853  1.00  0.00     0.185 C 
HETATM   30  O5  UNL     1      -0.628   6.289  11.955  1.00  0.00    -0.292 OA
BRANCH  29  31
HETATM   31  C18 UNL     1      -1.221   6.555  14.321  1.00  0.00     0.128 C 
HETATM   32  C19 UNL     1       0.098   7.347  14.375  1.00  0.00     0.047 C 
HETATM   33  C20 UNL     1      -0.279   8.834  14.346  1.00  0.00     0.009 C 
HETATM   34  C21 UNL     1      -1.812   8.901  14.223  1.00  0.00     0.002 C 
HETATM   35  C22 UNL     1      -2.525  10.177  14.749  1.00  0.00    -0.004 C 
HETATM   36  C35 UNL     1      -2.280   7.575  14.860  1.00  0.00    -0.002 C 
HETATM   37  C23 UNL     1      -1.733  11.466  14.437  1.00  0.00     0.010 C 
HETATM   38  C32 UNL     1      -3.049  10.079  16.218  1.00  0.00     0.002 C 
HETATM   39  C24 UNL     1      -1.028  12.064  15.648  1.00  0.00     0.035 C 
HETATM   40  C25 UNL     1      -1.963  12.325  16.801  1.00  0.00    -0.068 C 
HETATM   41  C26 UNL     1      -1.639  13.258  17.718  1.00  0.00     0.053 C 
HETATM   42  C30 UNL     1      -3.237  11.490  16.895  1.00  0.00    -0.016 C 
HETATM   43  C27 UNL     1      -2.498  13.540  18.894  1.00  0.00     0.149 C 
HETATM   44  O7  UNL     1      -2.195  14.462  19.653  1.00  0.00    -0.293 OA
HETATM   45  C28 UNL     1      -3.740  12.705  19.107  1.00  0.00     0.084 C 
HETATM   46  C29 UNL     1      -3.624  11.359  18.396  1.00  0.00     0.022 C 
HETATM   47  C31 UNL     1      -4.397  12.233  16.172  1.00  0.00     0.020 C 
HETATM   48  C33 UNL     1      -2.216   9.071  17.017  1.00  0.00     0.007 C 
HETATM   49  C34 UNL     1      -2.233   7.661  16.418  1.00  0.00     0.013 C 
HETATM   50  C36 UNL     1      -3.709   7.203  14.423  1.00  0.00     0.019 C 
BRANCH  31  51
HETATM   51  O6  UNL     1      -1.101   5.431  15.191  1.00  0.00    -0.381 OA
HETATM   52  H29 UNL     1      -1.986   5.034  15.274  1.00  0.00     0.211 HD
ENDBRANCH  31  51
ENDBRANCH  29  31
ENDBRANCH  28  29
ENDBRANCH  27  28
ENDBRANCH   1  27
TORSDOF 19
ENDMDL
MODEL 5
REMARK minimizedAffinity -8.14273548
REMARK CNNscore 0.324958265
REMARK CNNaffinity 7.09342623
REMARK  19 active torsions:
REMARK  status: ('A' for Active; 'I' for Inactive)
REMARK    1  A    between atoms: C2_2  and  C3_3 
REMARK    2  A    between atoms: C3_3  and  C5_5 
REMARK    3  A    between atoms: C5_5  and  N1_6 
REMARK    4  A    between atoms: C5_5  and  C37_46 
REMARK       I    between atoms: N1_6  and  C6_7 
REMARK    5  A    between atoms: C6_7  and  C7_9 
REMARK    6  A    between atoms: C7_9  and  C8_10 
REMARK    7  A    between atoms: C8_10  and  C9_11 
REMARK    8  A    between atoms: C9_11  and  C10_12 
REMARK    9  A    between atoms: C10_12  and  C11_13 
REMARK   10  A    between atoms: C11_13  and  N2_14 
REMARK       I    between atoms: N2_14  and  C12_15 
REMARK   11  A    between atoms: C12_15  and  C13_17 
REMARK   12  A    between atoms: C13_17  and  C14_18 
REMARK   13  A    between atoms: C14_18  and  C15_19 
REMARK   14  A    between atoms: C15_19  and  O4_21 
REMARK   15  A    between atoms: O4_21  and  C16_22 
REMARK   16  A    between atoms: C16_22  and  C17_23 
REMARK   17  A    between atoms: C17_23  and  C18_25 
REMARK   18  A    between atoms: C18_25  and  O6_26 
REMARK   19  A    between atoms: C37_46  and  O9_48 
ROOT
HETATM    1  C15 UNL     1       1.925   5.670  11.192  1.00  0.00     0.259 C 
HETATM    2  O3  UNL     1       1.317   4.627  10.998  1.00  0.00    -0.265 OA
ENDROOT
BRANCH   1   3
HETATM    3  C14 UNL     1       2.712   6.434  10.154  1.00  0.00     0.120 C 
BRANCH   3   4
HETATM    4  C13 UNL     1       4.206   6.168  10.291  1.00  0.00     0.112 C 
BRANCH   4   5
HETATM    5  C12 UNL     1       4.915   7.289  11.028  1.00  0.00     0.217 C 
HETATM    6  N2  UNL     1       5.193   6.970  12.343  1.00  0.00    -0.361 N 
HETATM    7  H22 UNL     1       4.637   6.232  12.752  1.00  0.00     0.162 HD
HETATM    8  O2  UNL     1       5.253   8.339  10.489  1.00  0.00    -0.274 OA
BRANCH   6   9
HETATM    9  C11 UNL     1       5.762   7.957  13.239  1.00  0.00     0.122 C 
BRANCH   9  10
HETATM   10  C10 UNL     1       7.286   8.035  13.136  1.00  0.00     0.020 C 
BRANCH  10  11
HETATM   11  C9  UNL     1       8.045   7.347  14.276  1.00  0.00     0.002 C 
BRANCH  11  12
HETATM   12  C8  UNL     1       7.967   8.072  15.623  1.00  0.00     0.009 C 
BRANCH  12  13
HETATM   13  C7  UNL     1       9.262   8.817  15.953  1.00  0.00     0.103 C 
BRANCH  13  14
HETATM   14  C6  UNL     1       9.123   9.766  17.131  1.00  0.00     0.218 C 
HETATM   15  N1  UNL     1      10.237  10.555  17.313  1.00  0.00    -0.346 N 
HETATM   16  H11 UNL     1      11.105  10.192  16.936  1.00  0.00     0.163 HD
HETATM   17  O1  UNL     1       8.133   9.811  17.850  1.00  0.00    -0.274 OA
BRANCH  15  18
HETATM   18  C5  UNL     1      10.382  11.393  18.508  1.00  0.00     0.186 C 
BRANCH  18  19
HETATM   19  C3  UNL     1      10.457  12.897  18.146  1.00  0.00     0.014 C 
HETATM   20  C4  UNL     1      10.203  13.806  19.357  1.00  0.00     0.012 C 
BRANCH  19  21
HETATM   21  C2  UNL     1      11.808  13.212  17.466  1.00  0.00     0.002 C 
HETATM   22  C1  UNL     1      12.655  14.219  18.233  1.00  0.00     0.005 C 
ENDBRANCH  19  21
ENDBRANCH  18  19
BRANCH  18  23
HETATM   23  C37 UNL     1      11.611  10.973  19.327  1.00  0.00     0.163 C 
HETATM   24  O8  UNL     1      11.812  11.219  20.506  1.00  0.00    -0.648 OA
BRANCH  23  25
HETATM   25  O9  UNL     1      12.558  10.331  18.605  1.00  0.00    -0.775 OA
HETATM   26  H56 UNL     1      13.253  10.133  19.271  1.00  0.00     0.167 HD
ENDBRANCH  23  25
ENDBRANCH  18  23
ENDBRANCH  15  18
ENDBRANCH  13  14
ENDBRANCH  12  13
ENDBRANCH  11  12
ENDBRANCH  10  11
ENDBRANCH   9  10
ENDBRANCH   6   9
ENDBRANCH   4   5
ENDBRANCH   3   4
ENDBRANCH   1   3
BRANCH   1  27
HETATM   27  O4  UNL     1       1.955   6.351  12.374  1.00  0.00    -0.314 OA
BRANCH  27  28
HETATM   28  C16 UNL     1       0.879   6.017  13.253  1.00  0.00     0.260 C 
BRANCH  28  29
HETATM   29  C17 UNL     1       0.421   7.267  13.991  1.00  0.00     0.185 C 
HETATM   30  O5  UNL     1       1.034   7.661  14.989  1.00  0.00    -0.292 OA
BRANCH  29  31
HETATM   31  C18 UNL     1      -0.870   7.974  13.474  1.00  0.00     0.128 C 
HETATM   32  C19 UNL     1      -1.318   7.278  12.175  1.00  0.00     0.047 C 
HETATM   33  C20 UNL     1      -2.447   6.313  12.558  1.00  0.00     0.009 C 
HETATM   34  C21 UNL     1      -2.616   6.412  14.086  1.00  0.00     0.002 C 
HETATM   35  C22 UNL     1      -3.999   6.040  14.686  1.00  0.00    -0.004 C 
HETATM   36  C35 UNL     1      -2.119   7.837  14.409  1.00  0.00    -0.002 C 
HETATM   37  C23 UNL     1      -4.642   4.826  13.980  1.00  0.00     0.010 C 
HETATM   38  C32 UNL     1      -4.968   7.248  14.905  1.00  0.00     0.002 C 
HETATM   39  C24 UNL     1      -5.792   5.192  13.050  1.00  0.00     0.035 C 
HETATM   40  C25 UNL     1      -6.870   5.992  13.736  1.00  0.00    -0.068 C 
HETATM   41  C26 UNL     1      -8.123   5.977  13.241  1.00  0.00     0.053 C 
HETATM   42  C30 UNL     1      -6.482   6.816  14.961  1.00  0.00    -0.016 C 
HETATM   43  C27 UNL     1      -9.221   6.768  13.848  1.00  0.00     0.149 C 
HETATM   44  O7  UNL     1     -10.364   6.649  13.405  1.00  0.00    -0.293 OA
HETATM   45  C28 UNL     1      -8.907   7.673  15.017  1.00  0.00     0.084 C 
HETATM   46  C29 UNL     1      -7.427   8.048  15.039  1.00  0.00     0.022 C 
HETATM   47  C31 UNL     1      -6.705   5.968  16.247  1.00  0.00     0.020 C 
HETATM   48  C33 UNL     1      -4.641   8.379  13.922  1.00  0.00     0.007 C 
HETATM   49  C34 UNL     1      -3.206   8.898  14.051  1.00  0.00     0.013 C 
HETATM   50  C36 UNL     1      -1.741   7.988  15.894  1.00  0.00     0.019 C 
BRANCH  31  51
HETATM   51  O6  UNL     1      -0.599   9.342  13.176  1.00  0.00    -0.381 OA
HETATM   52  H29 UNL     1      -0.476   9.804  14.024  1.00  0.00     0.211 HD
ENDBRANCH  31  51
ENDBRANCH  29  31
ENDBRANCH  28  29
ENDBRANCH  27  28
ENDBRANCH   1  27
TORSDOF 19
ENDMDL
MODEL 6
REMARK minimizedAffinity -7.79013824
REMARK CNNscore 0.300370336
REMARK CNNaffinity 6.61126137
REMARK  19 active torsions:
REMARK  status: ('A' for Active; 'I' for Inactive)
REMARK    1  A    between atoms: C2_2  and  C3_3 
REMARK    2  A    between atoms: C3_3  and  C5_5 
REMARK    3  A    between atoms: C5_5  and  N1_6 
REMARK    4  A    between atoms: C5_5  and  C37_46 
REMARK       I    between atoms: N1_6  and  C6_7 
REMARK    5  A    between atoms: C6_7  and  C7_9 
REMARK    6  A    between atoms: C7_9  and  C8_10 
REMARK    7  A    between atoms: C8_10  and  C9_11 
REMARK    8  A    between atoms: C9_11  and  C10_12 
REMARK    9  A    between atoms: C10_12  and  C11_13 
REMARK   10  A    between atoms: C11_13  and  N2_14 
REMARK       I    between atoms: N2_14  and  C12_15 
REMARK   11  A    between atoms: C12_15  and  C13_17 
REMARK   12  A    between atoms: C13_17  and  C14_18 
REMARK   13  A    between atoms: C14_18  and  C15_19 
REMARK   14  A    between atoms: C15_19  and  O4_21 
REMARK   15  A    between atoms: O4_21  and  C16_22 
REMARK   16  A    between atoms: C16_22  and  C17_23 
REMARK   17  A    between atoms: C17_23  and  C18_25 
REMARK   18  A    between atoms: C18_25  and  O6_26 
REMARK   19  A    between atoms: C37_46  and  O9_48 
ROOT
HETATM    1  C15 UNL     1       2.877   6.322   9.285  1.00  0.00     0.259 C 
HETATM    2  O3  UNL     1       2.701   5.484   8.412  1.00  0.00    -0.265 OA
ENDROOT
BRANCH   1   3
HETATM    3  C14 UNL     1       1.846   6.771  10.292  1.00  0.00     0.120 C 
BRANCH   3   4
HETATM    4  C13 UNL     1       1.417   5.621  11.193  1.00  0.00     0.112 C 
BRANCH   4   5
HETATM    5  C12 UNL     1      -0.017   5.774  11.663  1.00  0.00     0.217 C 
HETATM    6  N2  UNL     1      -0.476   4.664  12.345  1.00  0.00    -0.361 N 
HETATM    7  H22 UNL     1       0.017   3.798  12.175  1.00  0.00     0.162 HD
HETATM    8  O2  UNL     1      -0.671   6.801  11.500  1.00  0.00    -0.274 OA
BRANCH   6   9
HETATM    9  C11 UNL     1      -1.860   4.576  12.769  1.00  0.00     0.122 C 
BRANCH   9  10
HETATM   10  C10 UNL     1      -2.727   3.790  11.784  1.00  0.00     0.020 C 
BRANCH  10  11
HETATM   11  C9  UNL     1      -4.127   3.435  12.300  1.00  0.00     0.002 C 
BRANCH  11  12
HETATM   12  C8  UNL     1      -5.171   3.207  11.203  1.00  0.00     0.009 C 
BRANCH  12  13
HETATM   13  C7  UNL     1      -6.340   2.349  11.688  1.00  0.00     0.103 C 
BRANCH  13  14
HETATM   14  C6  UNL     1      -7.249   3.075  12.666  1.00  0.00     0.218 C 
HETATM   15  N1  UNL     1      -7.223   4.443  12.500  1.00  0.00    -0.346 N 
HETATM   16  H11 UNL     1      -6.393   4.821  12.060  1.00  0.00     0.163 HD
HETATM   17  O1  UNL     1      -7.918   2.506  13.519  1.00  0.00    -0.274 OA
BRANCH  15  18
HETATM   18  C5  UNL     1      -7.875   5.333  13.467  1.00  0.00     0.186 C 
BRANCH  18  19
HETATM   19  C3  UNL     1      -8.847   6.318  12.773  1.00  0.00     0.014 C 
HETATM   20  C4  UNL     1      -9.136   5.929  11.317  1.00  0.00     0.012 C 
BRANCH  19  21
HETATM   21  C2  UNL     1     -10.146   6.451  13.599  1.00  0.00     0.002 C 
HETATM   22  C1  UNL     1     -10.400   7.863  14.109  1.00  0.00     0.005 C 
ENDBRANCH  19  21
ENDBRANCH  18  19
BRANCH  18  23
HETATM   23  C37 UNL     1      -6.833   6.097  14.297  1.00  0.00     0.163 C 
HETATM   24  O8  UNL     1      -6.975   6.501  15.440  1.00  0.00    -0.648 OA
BRANCH  23  25
HETATM   25  O9  UNL     1      -5.693   6.378  13.623  1.00  0.00    -0.775 OA
HETATM   26  H56 UNL     1      -5.148   6.850  14.290  1.00  0.00     0.167 HD
ENDBRANCH  23  25
ENDBRANCH  18  23
ENDBRANCH  15  18
ENDBRANCH  13  14
ENDBRANCH  12  13
ENDBRANCH  11  12
ENDBRANCH  10  11
ENDBRANCH   9  10
ENDBRANCH   6   9
ENDBRANCH   4   5
ENDBRANCH   3   4
ENDBRANCH   1   3
BRANCH   1  27
HETATM   27  O4  UNL     1       4.057   6.961   9.529  1.00  0.00    -0.314 OA
BRANCH  27  28
HETATM   28  C16 UNL     1       4.877   6.299  10.494  1.00  0.00     0.260 C 
BRANCH  28  29
HETATM   29  C17 UNL     1       5.948   7.260  10.993  1.00  0.00     0.185 C 
HETATM   30  O5  UNL     1       7.049   7.309  10.435  1.00  0.00    -0.292 OA
BRANCH  29  31
HETATM   31  C18 UNL     1       5.614   8.114  12.255  1.00  0.00     0.128 C 
HETATM   32  C19 UNL     1       5.590   7.183  13.481  1.00  0.00     0.047 C 
HETATM   33  C20 UNL     1       6.943   7.344  14.185  1.00  0.00     0.009 C 
HETATM   34  C21 UNL     1       7.769   8.330  13.338  1.00  0.00     0.002 C 
HETATM   35  C22 UNL     1       8.891   9.133  14.051  1.00  0.00    -0.004 C 
HETATM   36  C35 UNL     1       6.694   9.184  12.633  1.00  0.00    -0.002 C 
HETATM   37  C23 UNL     1       9.653   8.285  15.093  1.00  0.00     0.010 C 
HETATM   38  C32 UNL     1       8.466  10.550  14.556  1.00  0.00     0.002 C 
HETATM   39  C24 UNL     1       9.297   8.617  16.537  1.00  0.00     0.035 C 
HETATM   40  C25 UNL     1       9.475  10.078  16.864  1.00  0.00    -0.068 C 
HETATM   41  C26 UNL     1       9.680  10.450  18.142  1.00  0.00     0.053 C 
HETATM   42  C30 UNL     1       9.385  11.085  15.720  1.00  0.00    -0.016 C 
HETATM   43  C27 UNL     1       9.829  11.872  18.536  1.00  0.00     0.149 C 
HETATM   44  O7  UNL     1      10.100  12.148  19.705  1.00  0.00    -0.293 OA
HETATM   45  C28 UNL     1       9.675  12.941  17.478  1.00  0.00     0.084 C 
HETATM   46  C29 UNL     1       8.856  12.430  16.295  1.00  0.00     0.022 C 
HETATM   47  C31 UNL     1      10.807  11.345  15.146  1.00  0.00     0.020 C 
HETATM   48  C33 UNL     1       6.960  10.588  14.836  1.00  0.00     0.007 C 
HETATM   49  C34 UNL     1       6.107  10.252  13.607  1.00  0.00     0.013 C 
HETATM   50  C36 UNL     1       7.255   9.897  11.388  1.00  0.00     0.019 C 
BRANCH  31  51
HETATM   51  O6  UNL     1       4.326   8.710  12.123  1.00  0.00    -0.381 OA
HETATM   52  H29 UNL     1       4.398   9.412  11.452  1.00  0.00     0.211 HD
ENDBRANCH  31  51
ENDBRANCH  29  31
ENDBRANCH  28  29
ENDBRANCH  27  28
ENDBRANCH   1  27
TORSDOF 19
ENDMDL
MODEL 7
REMARK minimizedAffinity -7.82229471
REMARK CNNscore 0.292542875
REMARK CNNaffinity 6.74082184
REMARK  19 active torsions:
REMARK  status: ('A' for Active; 'I' for Inactive)
REMARK    1  A    between atoms: C2_2  and  C3_3 
REMARK    2  A    between atoms: C3_3  and  C5_5 
REMARK    3  A    between atoms: C5_5  and  N1_6 
REMARK    4  A    between atoms: C5_5  and  C37_46 
REMARK       I    between atoms: N1_6  and  C6_7 
REMARK    5  A    between atoms: C6_7  and  C7_9 
REMARK    6  A    between atoms: C7_9  and  C8_10 
REMARK    7  A    between atoms: C8_10  and  C9_11 
REMARK    8  A    between atoms: C9_11  and  C10_12 
REMARK    9  A    between atoms: C10_12  and  C11_13 
REMARK   10  A    between atoms: C11_13  and  N2_14 
REMARK       I    between atoms: N2_14  and  C12_15 
REMARK   11  A    between atoms: C12_15  and  C13_17 
REMARK   12  A    between atoms: C13_17  and  C14_18 
REMARK   13  A    between atoms: C14_18  and  C15_19 
REMARK   14  A    between atoms: C15_19  and  O4_21 
REMARK   15  A    between atoms: O4_21  and  C16_22 
REMARK   16  A    between atoms: C16_22  and  C17_23 
REMARK   17  A    between atoms: C17_23  and  C18_25 
REMARK   18  A    between atoms: C18_25  and  O6_26 
REMARK   19  A    between atoms: C37_46  and  O9_48 
ROOT
HETATM    1  C15 UNL     1       4.428   8.165  14.334  1.00  0.00     0.259 C 
HETATM    2  O3  UNL     1       4.405   7.838  15.512  1.00  0.00    -0.265 OA
ENDROOT
BRANCH   1   3
HETATM    3  C14 UNL     1       5.663   8.535  13.550  1.00  0.00     0.120 C 
BRANCH   3   4
HETATM    4  C13 UNL     1       6.632   7.362  13.461  1.00  0.00     0.112 C 
BRANCH   4   5
HETATM    5  C12 UNL     1       8.026   7.744  13.921  1.00  0.00     0.217 C 
HETATM    6  N2  UNL     1       8.225   7.516  15.268  1.00  0.00    -0.361 N 
HETATM    7  H22 UNL     1       7.393   7.457  15.840  1.00  0.00     0.162 HD
HETATM    8  O2  UNL     1       8.896   8.156  13.157  1.00  0.00    -0.274 OA
BRANCH   6   9
HETATM    9  C11 UNL     1       9.455   7.928  15.915  1.00  0.00     0.122 C 
BRANCH   9  10
HETATM   10  C10 UNL     1       9.220   8.953  17.025  1.00  0.00     0.020 C 
BRANCH  10  11
HETATM   11  C9  UNL     1       8.743  10.328  16.543  1.00  0.00     0.002 C 
BRANCH  11  12
HETATM   12  C8  UNL     1       8.047  11.173  17.614  1.00  0.00     0.009 C 
BRANCH  12  13
HETATM   13  C7  UNL     1       8.741  12.519  17.828  1.00  0.00     0.103 C 
BRANCH  13  14
HETATM   14  C6  UNL     1       8.518  13.093  19.217  1.00  0.00     0.218 C 
HETATM   15  N1  UNL     1       8.395  12.117  20.182  1.00  0.00    -0.346 N 
HETATM   16  H11 UNL     1       8.097  11.205  19.855  1.00  0.00     0.163 HD
HETATM   17  O1  UNL     1       8.440  14.292  19.450  1.00  0.00    -0.274 OA
BRANCH  15  18
HETATM   18  C5  UNL     1       7.981  12.454  21.548  1.00  0.00     0.186 C 
BRANCH  18  19
HETATM   19  C3  UNL     1       6.672  13.281  21.561  1.00  0.00     0.014 C 
HETATM   20  C4  UNL     1       5.667  12.806  20.502  1.00  0.00     0.012 C 
BRANCH  19  21
HETATM   21  C2  UNL     1       6.055  13.277  22.978  1.00  0.00     0.002 C 
HETATM   22  C1  UNL     1       4.543  13.106  22.983  1.00  0.00     0.005 C 
ENDBRANCH  19  21
ENDBRANCH  18  19
BRANCH  18  23
HETATM   23  C37 UNL     1       9.098  13.200  22.291  1.00  0.00     0.163 C 
HETATM   24  O8  UNL     1       9.804  14.086  21.834  1.00  0.00    -0.648 OA
BRANCH  23  25
HETATM   25  O9  UNL     1       9.321  12.745  23.546  1.00  0.00    -0.775 OA
HETATM   26  H56 UNL     1      10.045  13.326  23.870  1.00  0.00     0.167 HD
ENDBRANCH  23  25
ENDBRANCH  18  23
ENDBRANCH  15  18
ENDBRANCH  13  14
ENDBRANCH  12  13
ENDBRANCH  11  12
ENDBRANCH  10  11
ENDBRANCH   9  10
ENDBRANCH   6   9
ENDBRANCH   4   5
ENDBRANCH   3   4
ENDBRANCH   1   3
BRANCH   1  27
HETATM   27  O4  UNL     1       3.340   8.204  13.512  1.00  0.00    -0.314 OA
BRANCH  27  28
HETATM   28  C16 UNL     1       2.109   8.424  14.202  1.00  0.00     0.260 C 
BRANCH  28  29
HETATM   29  C17 UNL     1       1.072   7.418  13.721  1.00  0.00     0.185 C 
HETATM   30  O5  UNL     1       1.309   6.206  13.771  1.00  0.00    -0.292 OA
BRANCH  29  31
HETATM   31  C18 UNL     1      -0.251   7.984  13.118  1.00  0.00     0.128 C 
HETATM   32  C19 UNL     1      -0.637   7.125  11.900  1.00  0.00     0.047 C 
HETATM   33  C20 UNL     1      -1.711   6.139  12.377  1.00  0.00     0.009 C 
HETATM   34  C21 UNL     1      -1.909   6.394  13.883  1.00  0.00     0.002 C 
HETATM   35  C22 UNL     1      -3.277   6.006  14.508  1.00  0.00    -0.004 C 
HETATM   36  C35 UNL     1      -1.504   7.873  14.051  1.00  0.00    -0.002 C 
HETATM   37  C23 UNL     1      -3.835   4.684  13.935  1.00  0.00     0.010 C 
HETATM   38  C32 UNL     1      -4.320   7.169  14.584  1.00  0.00     0.002 C 
HETATM   39  C24 UNL     1      -4.990   4.875  12.960  1.00  0.00     0.035 C 
HETATM   40  C25 UNL     1      -6.125   5.677  13.545  1.00  0.00    -0.068 C 
HETATM   41  C26 UNL     1      -7.366   5.532  13.043  1.00  0.00     0.053 C 
HETATM   42  C30 UNL     1      -5.806   6.653  14.675  1.00  0.00    -0.016 C 
HETATM   43  C27 UNL     1      -8.519   6.315  13.550  1.00  0.00     0.149 C 
HETATM   44  O7  UNL     1      -9.646   6.079  13.113  1.00  0.00    -0.293 OA
HETATM   45  C28 UNL     1      -8.278   7.360  14.615  1.00  0.00     0.084 C 
HETATM   46  C29 UNL     1      -6.824   7.826  14.609  1.00  0.00     0.022 C 
HETATM   47  C31 UNL     1      -5.997   5.939  16.044  1.00  0.00     0.020 C 
HETATM   48  C33 UNL     1      -4.047   8.203  13.486  1.00  0.00     0.007 C 
HETATM   49  C34 UNL     1      -2.647   8.821  13.570  1.00  0.00     0.013 C 
HETATM   50  C36 UNL     1      -1.159   8.209  15.515  1.00  0.00     0.019 C 
BRANCH  31  51
HETATM   51  O6  UNL     1      -0.059   9.325  12.674  1.00  0.00    -0.381 OA
HETATM   52  H29 UNL     1       0.023   9.884  13.467  1.00  0.00     0.211 HD
ENDBRANCH  31  51
ENDBRANCH  29  31
ENDBRANCH  28  29
ENDBRANCH  27  28
ENDBRANCH   1  27
TORSDOF 19
ENDMDL
MODEL 8
REMARK minimizedAffinity -8.033885
REMARK CNNscore 0.285980463
REMARK CNNaffinity 7.68231821
REMARK  19 active torsions:
REMARK  status: ('A' for Active; 'I' for Inactive)
REMARK    1  A    between atoms: C2_2  and  C3_3 
REMARK    2  A    between atoms: C3_3  and  C5_5 
REMARK    3  A    between atoms: C5_5  and  N1_6 
REMARK    4  A    between atoms: C5_5  and  C37_46 
REMARK       I    between atoms: N1_6  and  C6_7 
REMARK    5  A    between atoms: C6_7  and  C7_9 
REMARK    6  A    between atoms: C7_9  and  C8_10 
REMARK    7  A    between atoms: C8_10  and  C9_11 
REMARK    8  A    between atoms: C9_11  and  C10_12 
REMARK    9  A    between atoms: C10_12  and  C11_13 
REMARK   10  A    between atoms: C11_13  and  N2_14 
REMARK       I    between atoms: N2_14  and  C12_15 
REMARK   11  A    between atoms: C12_15  and  C13_17 
REMARK   12  A    between atoms: C13_17  and  C14_18 
REMARK   13  A    between atoms: C14_18  and  C15_19 
REMARK   14  A    between atoms: C15_19  and  O4_21 
REMARK   15  A    between atoms: O4_21  and  C16_22 
REMARK   16  A    between atoms: C16_22  and  C17_23 
REMARK   17  A    between atoms: C17_23  and  C18_25 
REMARK   18  A    between atoms: C18_25  and  O6_26 
REMARK   19  A    between atoms: C37_46  and  O9_48 
ROOT
HETATM    1  C15 UNL     1      -7.289   4.415  13.726  1.00  0.00     0.259 C 
HETATM    2  O3  UNL     1      -6.661   3.986  14.683  1.00  0.00    -0.265 OA
ENDROOT
BRANCH   1   3
HETATM    3  C14 UNL     1      -7.746   3.601  12.539  1.00  0.00     0.120 C 
BRANCH   3   4
HETATM    4  C13 UNL     1      -6.767   2.475  12.233  1.00  0.00     0.112 C 
BRANCH   4   5
HETATM    5  C12 UNL     1      -5.589   2.957  11.407  1.00  0.00     0.217 C 
HETATM    6  N2  UNL     1      -4.459   3.178  12.169  1.00  0.00    -0.361 N 
HETATM    7  H22 UNL     1      -4.607   3.326  13.158  1.00  0.00     0.162 HD
HETATM    8  O2  UNL     1      -5.630   3.078  10.186  1.00  0.00    -0.274 OA
BRANCH   6   9
HETATM    9  C11 UNL     1      -3.268   3.753  11.575  1.00  0.00     0.122 C 
BRANCH   9  10
HETATM   10  C10 UNL     1      -2.131   2.738  11.440  1.00  0.00     0.020 C 
BRANCH  10  11
HETATM   11  C9  UNL     1      -0.746   3.265  11.835  1.00  0.00     0.002 C 
BRANCH  11  12
HETATM   12  C8  UNL     1      -0.743   4.691  12.394  1.00  0.00     0.009 C 
BRANCH  12  13
HETATM   13  C7  UNL     1       0.675   5.218  12.624  1.00  0.00     0.103 C 
BRANCH  13  14
HETATM   14  C6  UNL     1       1.378   5.623  11.339  1.00  0.00     0.218 C 
HETATM   15  N1  UNL     1       2.006   6.845  11.440  1.00  0.00    -0.346 N 
HETATM   16  H11 UNL     1       1.646   7.473  12.150  1.00  0.00     0.163 HD
HETATM   17  O1  UNL     1       1.371   4.944  10.321  1.00  0.00    -0.274 OA
BRANCH  15  18
HETATM   18  C5  UNL     1       2.571   7.503  10.257  1.00  0.00     0.186 C 
BRANCH  18  19
HETATM   19  C3  UNL     1       1.594   7.458   9.057  1.00  0.00     0.014 C 
HETATM   20  C4  UNL     1       0.306   8.251   9.317  1.00  0.00     0.012 C 
BRANCH  19  21
HETATM   21  C2  UNL     1       2.310   7.934   7.772  1.00  0.00     0.002 C 
HETATM   22  C1  UNL     1       1.966   7.106   6.542  1.00  0.00     0.005 C 
ENDBRANCH  19  21
ENDBRANCH  18  19
BRANCH  18  23
HETATM   23  C37 UNL     1       3.923   6.882   9.877  1.00  0.00     0.163 C 
HETATM   24  O8  UNL     1       5.019   7.405  10.003  1.00  0.00    -0.648 OA
BRANCH  23  25
HETATM   25  O9  UNL     1       3.823   5.666   9.291  1.00  0.00    -0.775 OA
HETATM   26  H56 UNL     1       4.759   5.419   9.125  1.00  0.00     0.167 HD
ENDBRANCH  23  25
ENDBRANCH  18  23
ENDBRANCH  15  18
ENDBRANCH  13  14
ENDBRANCH  12  13
ENDBRANCH  11  12
ENDBRANCH  10  11
ENDBRANCH   9  10
ENDBRANCH   6   9
ENDBRANCH   4   5
ENDBRANCH   3   4
ENDBRANCH   1   3
BRANCH   1  27
HETATM   27  O4  UNL     1      -7.728   5.699  13.590  1.00  0.00    -0.314 OA
BRANCH  27  28
HETATM   28  C16 UNL     1      -6.704   6.616  13.202  1.00  0.00     0.260 C 
BRANCH  28  29
HETATM   29  C17 UNL     1      -6.258   7.420  14.415  1.00  0.00     0.185 C 
HETATM   30  O5  UNL     1      -6.939   8.368  14.820  1.00  0.00    -0.292 OA
BRANCH  29  31
HETATM   31  C18 UNL     1      -4.894   7.036  15.070  1.00  0.00     0.128 C 
HETATM   32  C19 UNL     1      -4.072   6.233  14.046  1.00  0.00     0.047 C 
HETATM   33  C20 UNL     1      -3.072   7.211  13.417  1.00  0.00     0.009 C 
HETATM   34  C21 UNL     1      -3.351   8.591  14.039  1.00  0.00     0.002 C 
HETATM   35  C22 UNL     1      -2.187   9.619  14.070  1.00  0.00    -0.004 C 
HETATM   36  C35 UNL     1      -3.962   8.247  15.414  1.00  0.00    -0.002 C 
HETATM   37  C23 UNL     1      -1.333   9.583  12.783  1.00  0.00     0.010 C 
HETATM   38  C32 UNL     1      -1.359   9.636  15.396  1.00  0.00     0.002 C 
HETATM   39  C24 UNL     1       0.024   8.914  12.963  1.00  0.00     0.035 C 
HETATM   40  C25 UNL     1       0.836   9.523  14.078  1.00  0.00    -0.068 C 
HETATM   41  C26 UNL     1       2.177   9.406  14.060  1.00  0.00     0.053 C 
HETATM   42  C30 UNL     1       0.088  10.231  15.205  1.00  0.00    -0.016 C 
HETATM   43  C27 UNL     1       3.032   9.954  15.142  1.00  0.00     0.149 C 
HETATM   44  O7  UNL     1       4.257   9.893  15.031  1.00  0.00    -0.293 OA
HETATM   45  C28 UNL     1       2.369  10.602  16.337  1.00  0.00     0.084 C 
HETATM   46  C29 UNL     1       0.934  10.106  16.504  1.00  0.00     0.022 C 
HETATM   47  C31 UNL     1      -0.041  11.745  14.870  1.00  0.00     0.020 C 
HETATM   48  C33 UNL     1      -1.423   8.267  16.083  1.00  0.00     0.007 C 
HETATM   49  C34 UNL     1      -2.851   7.829  16.426  1.00  0.00     0.013 C 
HETATM   50  C36 UNL     1      -4.754   9.431  16.001  1.00  0.00     0.019 C 
BRANCH  31  51
HETATM   51  O6  UNL     1      -5.109   6.213  16.214  1.00  0.00    -0.381 OA
HETATM   52  H29 UNL     1      -5.484   6.778  16.912  1.00  0.00     0.211 HD
ENDBRANCH  31  51
ENDBRANCH  29  31
ENDBRANCH  28  29
ENDBRANCH  27  28
ENDBRANCH   1  27
TORSDOF 19
ENDMDL
MODEL 9
REMARK minimizedAffinity -7.62715101
REMARK CNNscore 0.279282868
REMARK CNNaffinity 7.1957984
REMARK  19 active torsions:
REMARK  status: ('A' for Active; 'I' for Inactive)
REMARK    1  A    between atoms: C2_2  and  C3_3 
REMARK    2  A    between atoms: C3_3  and  C5_5 
REMARK    3  A    between atoms: C5_5  and  N1_6 
REMARK    4  A    between atoms: C5_5  and  C37_46 
REMARK       I    between atoms: N1_6  and  C6_7 
REMARK    5  A    between atoms: C6_7  and  C7_9 
REMARK    6  A    between atoms: C7_9  and  C8_10 
REMARK    7  A    between atoms: C8_10  and  C9_11 
REMARK    8  A    between atoms: C9_11  and  C10_12 
REMARK    9  A    between atoms: C10_12  and  C11_13 
REMARK   10  A    between atoms: C11_13  and  N2_14 
REMARK       I    between atoms: N2_14  and  C12_15 
REMARK   11  A    between atoms: C12_15  and  C13_17 
REMARK   12  A    between atoms: C13_17  and  C14_18 
REMARK   13  A    between atoms: C14_18  and  C15_19 
REMARK   14  A    between atoms: C15_19  and  O4_21 
REMARK   15  A    between atoms: O4_21  and  C16_22 
REMARK   16  A    between atoms: C16_22  and  C17_23 
REMARK   17  A    between atoms: C17_23  and  C18_25 
REMARK   18  A    between atoms: C18_25  and  O6_26 
REMARK   19  A    between atoms: C37_46  and  O9_48 
ROOT
HETATM    1  C15 UNL     1       3.434   6.686  10.270  1.00  0.00     0.259 C 
HETATM    2  O3  UNL     1       2.781   6.815   9.245  1.00  0.00    -0.265 OA
ENDROOT
BRANCH   1   3
HETATM    3  C14 UNL     1       4.903   6.343  10.339  1.00  0.00     0.120 C 
BRANCH   3   4
HETATM    4  C13 UNL     1       5.734   7.556  10.738  1.00  0.00     0.112 C 
BRANCH   4   5
HETATM    5  C12 UNL     1       6.574   7.287  11.971  1.00  0.00     0.217 C 
HETATM    6  N2  UNL     1       5.872   7.470  13.146  1.00  0.00    -0.361 N 
HETATM    7  H22 UNL     1       5.048   8.053  13.089  1.00  0.00     0.162 HD
HETATM    8  O2  UNL     1       7.736   6.893  11.919  1.00  0.00    -0.274 OA
BRANCH   6   9
HETATM    9  C11 UNL     1       6.539   7.373  14.430  1.00  0.00     0.122 C 
BRANCH   9  10
HETATM   10  C10 UNL     1       7.447   8.571  14.710  1.00  0.00     0.020 C 
BRANCH  10  11
HETATM   11  C9  UNL     1       6.741   9.932  14.702  1.00  0.00     0.002 C 
BRANCH  11  12
HETATM   12  C8  UNL     1       7.271  10.932  15.734  1.00  0.00     0.009 C 
BRANCH  12  13
HETATM   13  C7  UNL     1       7.394  10.312  17.127  1.00  0.00     0.103 C 
BRANCH  13  14
HETATM   14  C6  UNL     1       8.792  10.427  17.711  1.00  0.00     0.218 C 
HETATM   15  N1  UNL     1       9.152  11.731  17.976  1.00  0.00    -0.346 N 
HETATM   16  H11 UNL     1       8.664  12.443  17.445  1.00  0.00     0.163 HD
HETATM   17  O1  UNL     1       9.524   9.467  17.910  1.00  0.00    -0.274 OA
BRANCH  15  18
HETATM   18  C5  UNL     1      10.527  12.072  18.356  1.00  0.00     0.186 C 
BRANCH  18  19
HETATM   19  C3  UNL     1      11.525  11.786  17.208  1.00  0.00     0.014 C 
HETATM   20  C4  UNL     1      11.242  12.631  15.959  1.00  0.00     0.012 C 
BRANCH  19  21
HETATM   21  C2  UNL     1      12.976  11.971  17.708  1.00  0.00     0.002 C 
HETATM   22  C1  UNL     1      13.653  13.220  17.161  1.00  0.00     0.005 C 
ENDBRANCH  19  21
ENDBRANCH  18  19
BRANCH  18  23
HETATM   23  C37 UNL     1      10.944  11.327  19.633  1.00  0.00     0.163 C 
HETATM   24  O8  UNL     1      11.938  10.632  19.771  1.00  0.00    -0.648 OA
BRANCH  23  25
HETATM   25  O9  UNL     1      10.053  11.433  20.646  1.00  0.00    -0.775 OA
HETATM   26  H56 UNL     1      10.471  10.916  21.368  1.00  0.00     0.167 HD
ENDBRANCH  23  25
ENDBRANCH  18  23
ENDBRANCH  15  18
ENDBRANCH  13  14
ENDBRANCH  12  13
ENDBRANCH  11  12
ENDBRANCH  10  11
ENDBRANCH   9  10
ENDBRANCH   6   9
ENDBRANCH   4   5
ENDBRANCH   3   4
ENDBRANCH   1   3
BRANCH   1  27
HETATM   27  O4  UNL     1       2.954   6.878  11.533  1.00  0.00    -0.314 OA
BRANCH  27  28
HETATM   28  C16 UNL     1       1.905   5.976  11.889  1.00  0.00     0.260 C 
BRANCH  28  29
HETATM   29  C17 UNL     1       0.619   6.758  12.115  1.00  0.00     0.185 C 
HETATM   30  O5  UNL     1       0.226   7.569  11.270  1.00  0.00    -0.292 OA
BRANCH  29  31
HETATM   31  C18 UNL     1      -0.129   6.536  13.466  1.00  0.00     0.128 C 
HETATM   32  C19 UNL     1      -0.293   7.900  14.162  1.00  0.00     0.047 C 
HETATM   33  C20 UNL     1      -1.723   8.373  13.874  1.00  0.00     0.009 C 
HETATM   34  C21 UNL     1      -2.370   7.307  12.970  1.00  0.00     0.002 C 
HETATM   35  C22 UNL     1      -3.918   7.183  12.990  1.00  0.00    -0.004 C 
HETATM   36  C35 UNL     1      -1.601   6.019  13.330  1.00  0.00    -0.002 C 
HETATM   37  C23 UNL     1      -4.619   8.558  13.076  1.00  0.00     0.010 C 
HETATM   38  C32 UNL     1      -4.479   6.107  13.976  1.00  0.00     0.002 C 
HETATM   39  C24 UNL     1      -5.205   8.864  14.449  1.00  0.00     0.035 C 
HETATM   40  C25 UNL     1      -6.150   7.796  14.936  1.00  0.00    -0.068 C 
HETATM   41  C26 UNL     1      -7.094   8.110  15.844  1.00  0.00     0.053 C 
HETATM   42  C30 UNL     1      -5.974   6.381  14.391  1.00  0.00    -0.016 C 
HETATM   43  C27 UNL     1      -8.033   7.100  16.388  1.00  0.00     0.149 C 
HETATM   44  O7  UNL     1      -8.931   7.461  17.151  1.00  0.00    -0.293 OA
HETATM   45  C28 UNL     1      -7.879   5.657  15.962  1.00  0.00     0.084 C 
HETATM   46  C29 UNL     1      -6.459   5.377  15.476  1.00  0.00     0.022 C 
HETATM   47  C31 UNL     1      -6.877   6.192  13.138  1.00  0.00     0.020 C 
HETATM   48  C33 UNL     1      -3.502   5.886  15.136  1.00  0.00     0.007 C 
HETATM   49  C34 UNL     1      -2.114   5.425  14.679  1.00  0.00     0.013 C 
HETATM   50  C36 UNL     1      -1.732   4.947  12.231  1.00  0.00     0.019 C 
BRANCH  31  51
HETATM   51  O6  UNL     1       0.636   5.689  14.322  1.00  0.00    -0.381 OA
HETATM   52  H29 UNL     1       0.595   4.790  13.951  1.00  0.00     0.211 HD
ENDBRANCH  31  51
ENDBRANCH  29  31
ENDBRANCH  28  29
ENDBRANCH  27  28
ENDBRANCH   1  27
TORSDOF 19
ENDMDL
