MODEL 1
REMARK minimizedAffinity -8.57575226
REMARK CNNscore 0.483873725
REMARK CNNaffinity 7.38298225
REMARK  18 active torsions:
REMARK  status: ('A' for Active; 'I' for Inactive)
REMARK    1  A    between atoms: C19_20  and  O2_21 
REMARK    2  A    between atoms: C19_20  and  C20_22 
REMARK    3  A    between atoms: C20_22  and  C21_24 
REMARK    4  A    between atoms: C21_24  and  O4_25 
REMARK    5  A    between atoms: O4_25  and  C22_26 
REMARK    6  A    between atoms: C22_26  and  C23_28 
REMARK    7  A    between atoms: C23_28  and  C24_29 
REMARK    8  A    between atoms: C24_29  and  C25_30 
REMARK       I    between atoms: C25_30  and  N1_32 
REMARK    9  A    between atoms: N1_32  and  C26_33 
REMARK   10  A    between atoms: C26_33  and  C27_34 
REMARK   11  A    between atoms: C27_34  and  C28_35 
REMARK   12  A    between atoms: C28_35  and  C29_36 
REMARK   13  A    between atoms: C29_36  and  C30_37 
REMARK   14  A    between atoms: C30_37  and  C31_38 
REMARK       I    between atoms: C31_38  and  N2_40 
REMARK   15  A    between atoms: N2_40  and  C32_41 
REMARK   16  A    between atoms: C32_41  and  C33_42 
REMARK   17  A    between atoms: C36_45  and  C37_46 
REMARK   18  A    between atoms: C37_46  and  O9_48 
ROOT
HETATM    1  C22 UNL     1      -3.643  52.270 -12.313  1.00  0.00     0.259 C 
HETATM    2  O5  UNL     1      -4.443  53.170 -12.092  1.00  0.00    -0.265 OA
ENDROOT
BRANCH   1   3
HETATM    3  O4  UNL     1      -3.200  51.387 -11.376  1.00  0.00    -0.314 OA
BRANCH   3   4
HETATM    4  C21 UNL     1      -3.436  51.796 -10.023  1.00  0.00     0.260 C 
BRANCH   4   5
HETATM    5  C20 UNL     1      -2.137  52.038  -9.250  1.00  0.00     0.185 C 
HETATM    6  O3  UNL     1      -1.878  51.409  -8.222  1.00  0.00    -0.292 OA
BRANCH   5   7
HETATM    7  C19 UNL     1      -1.207  53.151  -9.786  1.00  0.00     0.128 C 
HETATM    8  C14 UNL     1      -0.082  53.657  -8.801  1.00  0.00    -0.002 C 
HETATM    9  C13 UNL     1       1.258  52.932  -8.984  1.00  0.00     0.013 C 
HETATM   10  C15 UNL     1      -0.533  53.529  -7.327  1.00  0.00     0.019 C 
HETATM   11  C16 UNL     1       0.061  55.185  -9.130  1.00  0.00     0.002 C 
HETATM   12  C12 UNL     1       2.452  53.586  -8.284  1.00  0.00     0.007 C 
HETATM   13  C11 UNL     1       2.418  55.128  -8.167  1.00  0.00     0.002 C 
HETATM   14  C2  UNL     1       3.849  55.782  -8.152  1.00  0.00    -0.016 C 
HETATM   15  C10 UNL     1       1.497  55.751  -9.254  1.00  0.00    -0.004 C 
HETATM   16  C1  UNL     1       3.724  57.282  -7.751  1.00  0.00     0.020 C 
HETATM   17  C3  UNL     1       4.784  55.159  -7.069  1.00  0.00     0.022 C 
HETATM   18  C7  UNL     1       4.429  55.686  -9.560  1.00  0.00    -0.068 C 
HETATM   19  C4  UNL     1       5.679  54.018  -7.524  1.00  0.00     0.084 C 
HETATM   20  C5  UNL     1       6.363  54.344  -8.827  1.00  0.00     0.149 C 
HETATM   21  O1  UNL     1       7.494  53.947  -9.095  1.00  0.00    -0.293 OA
HETATM   22  C6  UNL     1       5.589  55.074  -9.855  1.00  0.00     0.053 C 
HETATM   23  C8  UNL     1       3.573  56.271 -10.661  1.00  0.00     0.035 C 
HETATM   24  C9  UNL     1       2.153  55.687 -10.648  1.00  0.00     0.010 C 
HETATM   25  C17 UNL     1      -0.878  55.459 -10.308  1.00  0.00     0.009 C 
HETATM   26  C18 UNL     1      -1.987  54.435 -10.116  1.00  0.00     0.047 C 
BRANCH   7  27
HETATM   27  O2  UNL     1      -0.629  52.683 -11.014  1.00  0.00    -0.381 OA
HETATM   28  H27 UNL     1      -1.311  52.716 -11.708  1.00  0.00     0.211 HD
ENDBRANCH   7  27
ENDBRANCH   5   7
ENDBRANCH   4   5
ENDBRANCH   3   4
ENDBRANCH   1   3
BRANCH   1  29
HETATM   29  C23 UNL     1      -3.111  51.954 -13.684  1.00  0.00     0.120 C 
BRANCH  29  30
HETATM   30  C24 UNL     1      -1.772  51.225 -13.662  1.00  0.00     0.112 C 
BRANCH  30  31
HETATM   31  C25 UNL     1      -1.832  49.950 -14.481  1.00  0.00     0.217 C 
HETATM   32  O6  UNL     1      -2.741  49.130 -14.387  1.00  0.00    -0.274 OA
HETATM   33  N1  UNL     1      -0.775  49.810 -15.354  1.00  0.00    -0.361 N 
HETATM   34  H34 UNL     1      -0.125  50.578 -15.469  1.00  0.00     0.162 HD
BRANCH  33  35
HETATM   35  C26 UNL     1      -0.706  48.708 -16.293  1.00  0.00     0.122 C 
BRANCH  35  36
HETATM   36  C27 UNL     1      -0.859  49.129 -17.758  1.00  0.00     0.020 C 
BRANCH  36  37
HETATM   37  C28 UNL     1      -2.097  49.985 -18.055  1.00  0.00     0.002 C 
BRANCH  37  38
HETATM   38  C29 UNL     1      -1.789  51.448 -18.383  1.00  0.00     0.009 C 
BRANCH  38  39
HETATM   39  C30 UNL     1      -0.288  51.738 -18.419  1.00  0.00     0.103 C 
BRANCH  39  40
HETATM   40  C31 UNL     1       0.105  52.789 -19.444  1.00  0.00     0.217 C 
HETATM   41  O7  UNL     1      -0.019  53.997 -19.271  1.00  0.00    -0.274 OA
HETATM   42  N2  UNL     1       0.623  52.230 -20.597  1.00  0.00    -0.357 N 
HETATM   43  H45 UNL     1       0.864  51.249 -20.597  1.00  0.00     0.162 HD
BRANCH  42  44
HETATM   44  C32 UNL     1       1.128  53.049 -21.674  1.00  0.00     0.161 C 
BRANCH  44  45
HETATM   45  C33 UNL     1       0.347  52.829 -22.943  1.00  0.00    -0.040 A 
HETATM   46  C34 UNL     1      -0.920  52.228 -22.916  1.00  0.00     0.010 A 
HETATM   47  C35 UNL     1      -1.628  52.018 -24.104  1.00  0.00     0.019 A 
HETATM   48  C36 UNL     1      -1.077  52.401 -25.332  1.00  0.00     0.037 A 
HETATM   49  C38 UNL     1       0.191  52.990 -25.366  1.00  0.00     0.019 A 
HETATM   50  C39 UNL     1       0.899  53.195 -24.179  1.00  0.00     0.010 A 
BRANCH  48  51
HETATM   51  C37 UNL     1      -1.867  52.161 -26.564  1.00  0.00     0.176 C 
HETATM   52  O8  UNL     1      -1.513  51.497 -27.520  1.00  0.00    -0.646 OA
BRANCH  51  53
HETATM   53  O9  UNL     1      -3.072  52.761 -26.537  1.00  0.00    -0.773 OA
HETATM   54  H50 UNL     1      -3.481  52.505 -27.393  1.00  0.00     0.167 HD
ENDBRANCH  51  53
ENDBRANCH  48  51
ENDBRANCH  44  45
ENDBRANCH  42  44
ENDBRANCH  39  40
ENDBRANCH  38  39
ENDBRANCH  37  38
ENDBRANCH  36  37
ENDBRANCH  35  36
ENDBRANCH  33  35
ENDBRANCH  30  31
ENDBRANCH  29  30
ENDBRANCH   1  29
TORSDOF 18
ENDMDL
MODEL 2
REMARK minimizedAffinity -8.72613621
REMARK CNNscore 0.483871341
REMARK CNNaffinity 7.24551916
REMARK  18 active torsions:
REMARK  status: ('A' for Active; 'I' for Inactive)
REMARK    1  A    between atoms: C19_20  and  O2_21 
REMARK    2  A    between atoms: C19_20  and  C20_22 
REMARK    3  A    between atoms: C20_22  and  C21_24 
REMARK    4  A    between atoms: C21_24  and  O4_25 
REMARK    5  A    between atoms: O4_25  and  C22_26 
REMARK    6  A    between atoms: C22_26  and  C23_28 
REMARK    7  A    between atoms: C23_28  and  C24_29 
REMARK    8  A    between atoms: C24_29  and  C25_30 
REMARK       I    between atoms: C25_30  and  N1_32 
REMARK    9  A    between atoms: N1_32  and  C26_33 
REMARK   10  A    between atoms: C26_33  and  C27_34 
REMARK   11  A    between atoms: C27_34  and  C28_35 
REMARK   12  A    between atoms: C28_35  and  C29_36 
REMARK   13  A    between atoms: C29_36  and  C30_37 
REMARK   14  A    between atoms: C30_37  and  C31_38 
REMARK       I    between atoms: C31_38  and  N2_40 
REMARK   15  A    between atoms: N2_40  and  C32_41 
REMARK   16  A    between atoms: C32_41  and  C33_42 
REMARK   17  A    between atoms: C36_45  and  C37_46 
REMARK   18  A    between atoms: C37_46  and  O9_48 
ROOT
HETATM    1  C22 UNL     1      -8.414  46.540 -24.594  1.00  0.00     0.259 C 
HETATM    2  O5  UNL     1      -9.445  46.290 -23.983  1.00  0.00    -0.265 OA
ENDROOT
BRANCH   1   3
HETATM    3  O4  UNL     1      -7.207  46.768 -24.007  1.00  0.00    -0.314 OA
BRANCH   3   4
HETATM    4  C21 UNL     1      -6.364  47.677 -24.726  1.00  0.00     0.260 C 
BRANCH   4   5
HETATM    5  C20 UNL     1      -6.246  49.037 -24.033  1.00  0.00     0.185 C 
HETATM    6  O3  UNL     1      -7.234  49.756 -23.863  1.00  0.00    -0.292 OA
BRANCH   5   7
HETATM    7  C19 UNL     1      -4.825  49.487 -23.622  1.00  0.00     0.128 C 
HETATM    8  C14 UNL     1      -3.820  49.790 -24.800  1.00  0.00    -0.002 C 
HETATM    9  C13 UNL     1      -3.792  51.269 -25.211  1.00  0.00     0.013 C 
HETATM   10  C15 UNL     1      -4.137  48.923 -26.041  1.00  0.00     0.019 C 
HETATM   11  C16 UNL     1      -2.424  49.340 -24.242  1.00  0.00     0.002 C 
HETATM   12  C12 UNL     1      -2.626  51.670 -26.119  1.00  0.00     0.007 C 
HETATM   13  C11 UNL     1      -1.301  50.900 -25.912  1.00  0.00     0.002 C 
HETATM   14  C2  UNL     1      -0.025  51.752 -26.264  1.00  0.00    -0.016 C 
HETATM   15  C10 UNL     1      -1.225  50.290 -24.485  1.00  0.00    -0.004 C 
HETATM   16  C1  UNL     1       1.222  50.820 -26.300  1.00  0.00     0.020 C 
HETATM   17  C3  UNL     1      -0.094  52.376 -27.693  1.00  0.00     0.022 C 
HETATM   18  C7  UNL     1       0.162  52.800 -25.171  1.00  0.00    -0.068 C 
HETATM   19  C4  UNL     1      -0.650  53.788 -27.789  1.00  0.00     0.084 C 
HETATM   20  C5  UNL     1      -0.044  54.687 -26.742  1.00  0.00     0.149 C 
HETATM   21  O1  UNL     1       0.166  55.881 -26.942  1.00  0.00    -0.293 OA
HETATM   22  C6  UNL     1       0.198  54.124 -25.397  1.00  0.00     0.053 C 
HETATM   23  C8  UNL     1       0.236  52.264 -23.759  1.00  0.00     0.035 C 
HETATM   24  C9  UNL     1      -0.972  51.377 -23.422  1.00  0.00     0.010 C 
HETATM   25  C17 UNL     1      -2.662  48.907 -22.793  1.00  0.00     0.009 C 
HETATM   26  C18 UNL     1      -4.098  48.404 -22.810  1.00  0.00     0.047 C 
BRANCH   7  27
HETATM   27  O2  UNL     1      -4.962  50.633 -22.768  1.00  0.00    -0.381 OA
HETATM   28  H27 UNL     1      -5.277  50.332 -21.897  1.00  0.00     0.211 HD
ENDBRANCH   7  27
ENDBRANCH   5   7
ENDBRANCH   4   5
ENDBRANCH   3   4
ENDBRANCH   1   3
BRANCH   1  29
HETATM   29  C23 UNL     1      -8.319  46.532 -26.096  1.00  0.00     0.120 C 
BRANCH  29  30
HETATM   30  C24 UNL     1      -9.081  47.674 -26.759  1.00  0.00     0.112 C 
BRANCH  30  31
HETATM   31  C25 UNL     1      -9.249  47.426 -28.245  1.00  0.00     0.217 C 
HETATM   32  O6  UNL     1      -9.231  46.307 -28.749  1.00  0.00    -0.274 OA
HETATM   33  N1  UNL     1      -9.440  48.579 -28.974  1.00  0.00    -0.361 N 
HETATM   34  H34 UNL     1      -9.565  49.457 -28.485  1.00  0.00     0.162 HD
BRANCH  33  35
HETATM   35  C26 UNL     1      -9.720  48.542 -30.396  1.00  0.00     0.122 C 
BRANCH  35  36
HETATM   36  C27 UNL     1      -8.487  48.758 -31.278  1.00  0.00     0.020 C 
BRANCH  36  37
HETATM   37  C28 UNL     1      -8.043  47.526 -32.077  1.00  0.00     0.002 C 
BRANCH  37  38
HETATM   38  C29 UNL     1      -7.066  46.611 -31.336  1.00  0.00     0.009 C 
BRANCH  38  39
HETATM   39  C30 UNL     1      -6.744  45.337 -32.119  1.00  0.00     0.103 C 
BRANCH  39  40
HETATM   40  C31 UNL     1      -5.255  45.075 -32.272  1.00  0.00     0.217 C 
HETATM   41  O7  UNL     1      -4.379  45.825 -31.850  1.00  0.00    -0.274 OA
HETATM   42  N2  UNL     1      -4.995  43.893 -32.937  1.00  0.00    -0.357 N 
HETATM   43  H45 UNL     1      -5.753  43.244 -33.091  1.00  0.00     0.162 HD
BRANCH  42  44
HETATM   44  C32 UNL     1      -3.646  43.413 -33.128  1.00  0.00     0.161 C 
BRANCH  44  45
HETATM   45  C33 UNL     1      -3.635  42.054 -33.778  1.00  0.00    -0.040 A 
HETATM   46  C34 UNL     1      -3.175  40.926 -33.085  1.00  0.00     0.010 A 
HETATM   47  C35 UNL     1      -3.158  39.673 -33.707  1.00  0.00     0.019 A 
HETATM   48  C36 UNL     1      -3.596  39.534 -35.029  1.00  0.00     0.037 A 
HETATM   49  C38 UNL     1      -4.046  40.658 -35.729  1.00  0.00     0.019 A 
HETATM   50  C39 UNL     1      -4.057  41.910 -35.108  1.00  0.00     0.010 A 
BRANCH  48  51
HETATM   51  C37 UNL     1      -3.564  38.185 -35.644  1.00  0.00     0.176 C 
HETATM   52  O8  UNL     1      -2.847  37.263 -35.302  1.00  0.00    -0.646 OA
BRANCH  51  53
HETATM   53  O9  UNL     1      -4.440  38.051 -36.657  1.00  0.00    -0.773 OA
HETATM   54  H50 UNL     1      -4.321  37.121 -36.949  1.00  0.00     0.167 HD
ENDBRANCH  51  53
ENDBRANCH  48  51
ENDBRANCH  44  45
ENDBRANCH  42  44
ENDBRANCH  39  40
ENDBRANCH  38  39
ENDBRANCH  37  38
ENDBRANCH  36  37
ENDBRANCH  35  36
ENDBRANCH  33  35
ENDBRANCH  30  31
ENDBRANCH  29  30
ENDBRANCH   1  29
TORSDOF 18
ENDMDL
MODEL 3
REMARK minimizedAffinity -8.19143009
REMARK CNNscore 0.47190997
REMARK CNNaffinity 6.40408325
REMARK  18 active torsions:
REMARK  status: ('A' for Active; 'I' for Inactive)
REMARK    1  A    between atoms: C19_20  and  O2_21 
REMARK    2  A    between atoms: C19_20  and  C20_22 
REMARK    3  A    between atoms: C20_22  and  C21_24 
REMARK    4  A    between atoms: C21_24  and  O4_25 
REMARK    5  A    between atoms: O4_25  and  C22_26 
REMARK    6  A    between atoms: C22_26  and  C23_28 
REMARK    7  A    between atoms: C23_28  and  C24_29 
REMARK    8  A    between atoms: C24_29  and  C25_30 
REMARK       I    between atoms: C25_30  and  N1_32 
REMARK    9  A    between atoms: N1_32  and  C26_33 
REMARK   10  A    between atoms: C26_33  and  C27_34 
REMARK   11  A    between atoms: C27_34  and  C28_35 
REMARK   12  A    between atoms: C28_35  and  C29_36 
REMARK   13  A    between atoms: C29_36  and  C30_37 
REMARK   14  A    between atoms: C30_37  and  C31_38 
REMARK       I    between atoms: C31_38  and  N2_40 
REMARK   15  A    between atoms: N2_40  and  C32_41 
REMARK   16  A    between atoms: C32_41  and  C33_42 
REMARK   17  A    between atoms: C36_45  and  C37_46 
REMARK   18  A    between atoms: C37_46  and  O9_48 
ROOT
HETATM    1  C22 UNL     1      10.072  63.325 -33.241  1.00  0.00     0.259 C 
HETATM    2  O5  UNL     1      10.162  62.718 -32.181  1.00  0.00    -0.265 OA
ENDROOT
BRANCH   1   3
HETATM    3  O4  UNL     1       9.024  64.123 -33.584  1.00  0.00    -0.314 OA
BRANCH   3   4
HETATM    4  C21 UNL     1       7.871  63.412 -34.052  1.00  0.00     0.260 C 
BRANCH   4   5
HETATM    5  C20 UNL     1       7.457  63.835 -35.464  1.00  0.00     0.185 C 
HETATM    6  O3  UNL     1       8.277  63.885 -36.384  1.00  0.00    -0.292 OA
BRANCH   5   7
HETATM    7  C19 UNL     1       5.982  64.259 -35.658  1.00  0.00     0.128 C 
HETATM    8  C14 UNL     1       5.741  65.699 -36.256  1.00  0.00    -0.002 C 
HETATM    9  C13 UNL     1       5.580  65.706 -37.782  1.00  0.00     0.013 C 
HETATM   10  C15 UNL     1       6.883  66.665 -35.861  1.00  0.00     0.019 C 
HETATM   11  C16 UNL     1       4.428  66.194 -35.554  1.00  0.00     0.002 C 
HETATM   12  C12 UNL     1       5.039  67.010 -38.374  1.00  0.00     0.007 C 
HETATM   13  C11 UNL     1       4.051  67.806 -37.488  1.00  0.00     0.002 C 
HETATM   14  C2  UNL     1       3.010  68.645 -38.318  1.00  0.00    -0.016 C 
HETATM   15  C10 UNL     1       3.364  66.881 -36.446  1.00  0.00    -0.004 C 
HETATM   16  C1  UNL     1       2.256  69.618 -37.364  1.00  0.00     0.020 C 
HETATM   17  C3  UNL     1       3.689  69.572 -39.374  1.00  0.00     0.022 C 
HETATM   18  C7  UNL     1       2.009  67.676 -38.941  1.00  0.00    -0.068 C 
HETATM   19  C4  UNL     1       3.842  69.004 -40.776  1.00  0.00     0.084 C 
HETATM   20  C5  UNL     1       2.566  68.353 -41.245  1.00  0.00     0.149 C 
HETATM   21  O1  UNL     1       2.213  68.367 -42.421  1.00  0.00    -0.293 OA
HETATM   22  C6  UNL     1       1.778  67.579 -40.261  1.00  0.00     0.053 C 
HETATM   23  C8  UNL     1       1.313  66.745 -37.973  1.00  0.00     0.035 C 
HETATM   24  C9  UNL     1       2.317  65.966 -37.111  1.00  0.00     0.010 C 
HETATM   25  C17 UNL     1       3.937  65.027 -34.693  1.00  0.00     0.009 C 
HETATM   26  C18 UNL     1       5.222  64.301 -34.322  1.00  0.00     0.047 C 
BRANCH   7  27
HETATM   27  O2  UNL     1       5.346  63.262 -36.473  1.00  0.00    -0.381 OA
HETATM   28  H27 UNL     1       5.200  62.468 -35.929  1.00  0.00     0.211 HD
ENDBRANCH   7  27
ENDBRANCH   5   7
ENDBRANCH   4   5
ENDBRANCH   3   4
ENDBRANCH   1   3
BRANCH   1  29
HETATM   29  C23 UNL     1      11.164  63.350 -34.275  1.00  0.00     0.120 C 
BRANCH  29  30
HETATM   30  C24 UNL     1      10.901  62.424 -35.458  1.00  0.00     0.112 C 
BRANCH  30  31
HETATM   31  C25 UNL     1      12.104  62.363 -36.380  1.00  0.00     0.217 C 
HETATM   32  O6  UNL     1      12.031  62.049 -37.564  1.00  0.00    -0.274 OA
HETATM   33  N1  UNL     1      13.285  62.710 -35.761  1.00  0.00    -0.361 N 
HETATM   34  H34 UNL     1      13.259  63.075 -34.817  1.00  0.00     0.162 HD
BRANCH  33  35
HETATM   35  C26 UNL     1      14.529  62.809 -36.499  1.00  0.00     0.122 C 
BRANCH  35  36
HETATM   36  C27 UNL     1      15.429  61.578 -36.368  1.00  0.00     0.020 C 
BRANCH  36  37
HETATM   37  C28 UNL     1      15.120  60.446 -37.358  1.00  0.00     0.002 C 
BRANCH  37  38
HETATM   38  C29 UNL     1      15.689  59.084 -36.956  1.00  0.00     0.009 C 
BRANCH  38  39
HETATM   39  C30 UNL     1      15.304  57.974 -37.936  1.00  0.00     0.103 C 
BRANCH  39  40
HETATM   40  C31 UNL     1      16.498  57.236 -38.520  1.00  0.00     0.217 C 
HETATM   41  O7  UNL     1      17.429  57.786 -39.099  1.00  0.00    -0.274 OA
HETATM   42  N2  UNL     1      16.419  55.871 -38.321  1.00  0.00    -0.357 N 
HETATM   43  H45 UNL     1      15.724  55.511 -37.682  1.00  0.00     0.162 HD
BRANCH  42  44
HETATM   44  C32 UNL     1      17.483  54.985 -38.730  1.00  0.00     0.161 C 
BRANCH  44  45
HETATM   45  C33 UNL     1      17.069  53.541 -38.614  1.00  0.00    -0.040 A 
HETATM   46  C34 UNL     1      16.848  52.953 -37.360  1.00  0.00     0.010 A 
HETATM   47  C35 UNL     1      16.477  51.607 -37.267  1.00  0.00     0.019 A 
HETATM   48  C36 UNL     1      16.327  50.833 -38.424  1.00  0.00     0.037 A 
HETATM   49  C38 UNL     1      16.556  51.412 -39.676  1.00  0.00     0.019 A 
HETATM   50  C39 UNL     1      16.932  52.755 -39.767  1.00  0.00     0.010 A 
BRANCH  48  51
HETATM   51  C37 UNL     1      15.927  49.413 -38.275  1.00  0.00     0.176 C 
HETATM   52  O8  UNL     1      16.215  48.508 -39.036  1.00  0.00    -0.646 OA
BRANCH  51  53
HETATM   53  O9  UNL     1      15.190  49.190 -37.171  1.00  0.00    -0.773 OA
HETATM   54  H50 UNL     1      15.017  48.224 -37.195  1.00  0.00     0.167 HD
ENDBRANCH  51  53
ENDBRANCH  48  51
ENDBRANCH  44  45
ENDBRANCH  42  44
ENDBRANCH  39  40
ENDBRANCH  38  39
ENDBRANCH  37  38
ENDBRANCH  36  37
ENDBRANCH  35  36
ENDBRANCH  33  35
ENDBRANCH  30  31
ENDBRANCH  29  30
ENDBRANCH   1  29
TORSDOF 18
ENDMDL
MODEL 4
REMARK minimizedAffinity -8.53431129
REMARK CNNscore 0.344948351
REMARK CNNaffinity 6.80624437
REMARK  18 active torsions:
REMARK  status: ('A' for Active; 'I' for Inactive)
REMARK    1  A    between atoms: C19_20  and  O2_21 
REMARK    2  A    between atoms: C19_20  and  C20_22 
REMARK    3  A    between atoms: C20_22  and  C21_24 
REMARK    4  A    between atoms: C21_24  and  O4_25 
REMARK    5  A    between atoms: O4_25  and  C22_26 
REMARK    6  A    between atoms: C22_26  and  C23_28 
REMARK    7  A    between atoms: C23_28  and  C24_29 
REMARK    8  A    between atoms: C24_29  and  C25_30 
REMARK       I    between atoms: C25_30  and  N1_32 
REMARK    9  A    between atoms: N1_32  and  C26_33 
REMARK   10  A    between atoms: C26_33  and  C27_34 
REMARK   11  A    between atoms: C27_34  and  C28_35 
REMARK   12  A    between atoms: C28_35  and  C29_36 
REMARK   13  A    between atoms: C29_36  and  C30_37 
REMARK   14  A    between atoms: C30_37  and  C31_38 
REMARK       I    between atoms: C31_38  and  N2_40 
REMARK   15  A    between atoms: N2_40  and  C32_41 
REMARK   16  A    between atoms: C32_41  and  C33_42 
REMARK   17  A    between atoms: C36_45  and  C37_46 
REMARK   18  A    between atoms: C37_46  and  O9_48 
ROOT
HETATM    1  C22 UNL     1      -3.544  51.566 -12.188  1.00  0.00     0.259 C 
HETATM    2  O5  UNL     1      -3.879  52.679 -12.572  1.00  0.00    -0.265 OA
ENDROOT
BRANCH   1   3
HETATM    3  O4  UNL     1      -3.871  51.039 -10.977  1.00  0.00    -0.314 OA
BRANCH   3   4
HETATM    4  C21 UNL     1      -3.574  51.891  -9.864  1.00  0.00     0.260 C 
BRANCH   4   5
HETATM    5  C20 UNL     1      -2.098  51.832  -9.460  1.00  0.00     0.185 C 
HETATM    6  O3  UNL     1      -1.672  50.936  -8.727  1.00  0.00    -0.292 OA
BRANCH   5   7
HETATM    7  C19 UNL     1      -1.193  52.982  -9.959  1.00  0.00     0.128 C 
HETATM    8  C14 UNL     1      -0.096  53.498  -8.949  1.00  0.00    -0.002 C 
HETATM    9  C13 UNL     1       1.267  52.814  -9.130  1.00  0.00     0.013 C 
HETATM   10  C15 UNL     1      -0.562  53.326  -7.484  1.00  0.00     0.019 C 
HETATM   11  C16 UNL     1       0.008  55.035  -9.244  1.00  0.00     0.002 C 
HETATM   12  C12 UNL     1       2.433  53.486  -8.401  1.00  0.00     0.007 C 
HETATM   13  C11 UNL     1       2.353  55.024  -8.252  1.00  0.00     0.002 C 
HETATM   14  C2  UNL     1       3.765  55.718  -8.204  1.00  0.00    -0.016 C 
HETATM   15  C10 UNL     1       1.429  55.644  -9.337  1.00  0.00    -0.004 C 
HETATM   16  C1  UNL     1       3.593  57.205  -7.773  1.00  0.00     0.020 C 
HETATM   17  C3  UNL     1       4.703  55.098  -7.122  1.00  0.00     0.022 C 
HETATM   18  C7  UNL     1       4.366  55.668  -9.606  1.00  0.00    -0.068 C 
HETATM   19  C4  UNL     1       5.636  53.992  -7.589  1.00  0.00     0.084 C 
HETATM   20  C5  UNL     1       6.327  54.365  -8.876  1.00  0.00     0.149 C 
HETATM   21  O1  UNL     1       7.473  54.007  -9.137  1.00  0.00    -0.293 OA
HETATM   22  C6  UNL     1       5.546  55.095  -9.898  1.00  0.00     0.053 C 
HETATM   23  C8  UNL     1       3.507  56.252 -10.705  1.00  0.00     0.035 C 
HETATM   24  C9  UNL     1       2.104  55.629 -10.724  1.00  0.00     0.010 C 
HETATM   25  C17 UNL     1      -0.923  55.308 -10.428  1.00  0.00     0.009 C 
HETATM   26  C18 UNL     1      -2.005  54.249 -10.273  1.00  0.00     0.047 C 
BRANCH   7  27
HETATM   27  O2  UNL     1      -0.587  52.556 -11.189  1.00  0.00    -0.381 OA
HETATM   28  H27 UNL     1      -1.260  52.584 -11.891  1.00  0.00     0.211 HD
ENDBRANCH   7  27
ENDBRANCH   5   7
ENDBRANCH   4   5
ENDBRANCH   3   4
ENDBRANCH   1   3
BRANCH   1  29
HETATM   29  C23 UNL     1      -2.803  50.581 -13.051  1.00  0.00     0.120 C 
BRANCH  29  30
HETATM   30  C24 UNL     1      -2.224  51.199 -14.319  1.00  0.00     0.112 C 
BRANCH  30  31
HETATM   31  C25 UNL     1      -2.487  50.317 -15.524  1.00  0.00     0.217 C 
HETATM   32  O6  UNL     1      -2.880  49.157 -15.438  1.00  0.00    -0.274 OA
HETATM   33  N1  UNL     1      -2.257  50.950 -16.725  1.00  0.00    -0.361 N 
HETATM   34  H34 UNL     1      -2.052  51.941 -16.730  1.00  0.00     0.162 HD
BRANCH  33  35
HETATM   35  C26 UNL     1      -2.547  50.306 -17.992  1.00  0.00     0.122 C 
BRANCH  35  36
HETATM   36  C27 UNL     1      -2.969  51.275 -19.100  1.00  0.00     0.020 C 
BRANCH  36  37
HETATM   37  C28 UNL     1      -3.298  50.611 -20.444  1.00  0.00     0.002 C 
BRANCH  37  38
HETATM   38  C29 UNL     1      -3.424  51.588 -21.615  1.00  0.00     0.009 C 
BRANCH  38  39
HETATM   39  C30 UNL     1      -2.065  51.999 -22.186  1.00  0.00     0.103 C 
BRANCH  39  40
HETATM   40  C31 UNL     1      -1.489  50.994 -23.171  1.00  0.00     0.217 C 
HETATM   41  O7  UNL     1      -1.350  49.799 -22.931  1.00  0.00    -0.274 OA
HETATM   42  N2  UNL     1      -1.142  51.578 -24.373  1.00  0.00    -0.357 N 
HETATM   43  H45 UNL     1      -1.452  52.521 -24.565  1.00  0.00     0.162 HD
BRANCH  42  44
HETATM   44  C32 UNL     1      -0.643  50.795 -25.479  1.00  0.00     0.161 C 
BRANCH  44  45
HETATM   45  C33 UNL     1      -1.769  50.181 -26.269  1.00  0.00    -0.040 A 
HETATM   46  C34 UNL     1      -2.248  48.898 -25.967  1.00  0.00     0.010 A 
HETATM   47  C35 UNL     1      -3.286  48.336 -26.718  1.00  0.00     0.019 A 
HETATM   48  C36 UNL     1      -3.854  49.048 -27.782  1.00  0.00     0.037 A 
HETATM   49  C38 UNL     1      -3.373  50.323 -28.094  1.00  0.00     0.019 A 
HETATM   50  C39 UNL     1      -2.333  50.881 -27.347  1.00  0.00     0.010 A 
BRANCH  48  51
HETATM   51  C37 UNL     1      -4.955  48.412 -28.546  1.00  0.00     0.176 C 
HETATM   52  O8  UNL     1      -4.921  48.106 -29.724  1.00  0.00    -0.646 OA
BRANCH  51  53
HETATM   53  O9  UNL     1      -6.047  48.180 -27.794  1.00  0.00    -0.773 OA
HETATM   54  H50 UNL     1      -6.673  47.750 -28.416  1.00  0.00     0.167 HD
ENDBRANCH  51  53
ENDBRANCH  48  51
ENDBRANCH  44  45
ENDBRANCH  42  44
ENDBRANCH  39  40
ENDBRANCH  38  39
ENDBRANCH  37  38
ENDBRANCH  36  37
ENDBRANCH  35  36
ENDBRANCH  33  35
ENDBRANCH  30  31
ENDBRANCH  29  30
ENDBRANCH   1  29
TORSDOF 18
ENDMDL
MODEL 5
REMARK minimizedAffinity -8.20075989
REMARK CNNscore 0.308578163
REMARK CNNaffinity 7.00536585
REMARK  18 active torsions:
REMARK  status: ('A' for Active; 'I' for Inactive)
REMARK    1  A    between atoms: C19_20  and  O2_21 
REMARK    2  A    between atoms: C19_20  and  C20_22 
REMARK    3  A    between atoms: C20_22  and  C21_24 
REMARK    4  A    between atoms: C21_24  and  O4_25 
REMARK    5  A    between atoms: O4_25  and  C22_26 
REMARK    6  A    between atoms: C22_26  and  C23_28 
REMARK    7  A    between atoms: C23_28  and  C24_29 
REMARK    8  A    between atoms: C24_29  and  C25_30 
REMARK       I    between atoms: C25_30  and  N1_32 
REMARK    9  A    between atoms: N1_32  and  C26_33 
REMARK   10  A    between atoms: C26_33  and  C27_34 
REMARK   11  A    between atoms: C27_34  and  C28_35 
REMARK   12  A    between atoms: C28_35  and  C29_36 
REMARK   13  A    between atoms: C29_36  and  C30_37 
REMARK   14  A    between atoms: C30_37  and  C31_38 
REMARK       I    between atoms: C31_38  and  N2_40 
REMARK   15  A    between atoms: N2_40  and  C32_41 
REMARK   16  A    between atoms: C32_41  and  C33_42 
REMARK   17  A    between atoms: C36_45  and  C37_46 
REMARK   18  A    between atoms: C37_46  and  O9_48 
ROOT
HETATM    1  C22 UNL     1       0.274  53.371 -24.106  1.00  0.00     0.259 C 
HETATM    2  O5  UNL     1       1.041  54.293 -24.357  1.00  0.00    -0.265 OA
ENDROOT
BRANCH   1   3
HETATM    3  O4  UNL     1      -0.709  52.940 -24.943  1.00  0.00    -0.314 OA
BRANCH   3   4
HETATM    4  C21 UNL     1      -1.651  52.048 -24.333  1.00  0.00     0.260 C 
BRANCH   4   5
HETATM    5  C20 UNL     1      -1.918  50.806 -25.188  1.00  0.00     0.185 C 
HETATM    6  O3  UNL     1      -1.064  50.367 -25.962  1.00  0.00    -0.292 OA
BRANCH   5   7
HETATM    7  C19 UNL     1      -3.327  50.178 -25.081  1.00  0.00     0.128 C 
HETATM    8  C14 UNL     1      -3.591  49.264 -23.821  1.00  0.00    -0.002 C 
HETATM    9  C13 UNL     1      -4.219  50.020 -22.642  1.00  0.00     0.013 C 
HETATM   10  C15 UNL     1      -2.289  48.576 -23.349  1.00  0.00     0.019 C 
HETATM   11  C16 UNL     1      -4.560  48.149 -24.350  1.00  0.00     0.002 C 
HETATM   12  C12 UNL     1      -4.779  49.134 -21.526  1.00  0.00     0.007 C 
HETATM   13  C11 UNL     1      -5.352  47.765 -21.960  1.00  0.00     0.002 C 
HETATM   14  C2  UNL     1      -6.507  47.249 -21.024  1.00  0.00    -0.016 C 
HETATM   15  C10 UNL     1      -5.772  47.783 -23.456  1.00  0.00    -0.004 C 
HETATM   16  C1  UNL     1      -6.820  45.762 -21.364  1.00  0.00     0.020 C 
HETATM   17  C3  UNL     1      -6.099  47.234 -19.518  1.00  0.00     0.022 C 
HETATM   18  C7  UNL     1      -7.748  48.096 -21.290  1.00  0.00    -0.068 C 
HETATM   19  C4  UNL     1      -6.451  48.471 -18.708  1.00  0.00     0.084 C 
HETATM   20  C5  UNL     1      -7.871  48.909 -18.967  1.00  0.00     0.149 C 
HETATM   21  O1  UNL     1      -8.570  49.424 -18.097  1.00  0.00    -0.293 OA
HETATM   22  C6  UNL     1      -8.388  48.809 -20.348  1.00  0.00     0.053 C 
HETATM   23  C8  UNL     1      -8.200  48.156 -22.732  1.00  0.00     0.035 C 
HETATM   24  C9  UNL     1      -7.064  48.597 -23.667  1.00  0.00     0.010 C 
HETATM   25  C17 UNL     1      -4.877  48.510 -25.803  1.00  0.00     0.009 C 
HETATM   26  C18 UNL     1      -3.623  49.240 -26.263  1.00  0.00     0.047 C 
BRANCH   7  27
HETATM   27  O2  UNL     1      -4.285  51.245 -25.139  1.00  0.00    -0.381 OA
HETATM   28  H27 UNL     1      -4.337  51.563 -26.058  1.00  0.00     0.211 HD
ENDBRANCH   7  27
ENDBRANCH   5   7
ENDBRANCH   4   5
ENDBRANCH   3   4
ENDBRANCH   1   3
BRANCH   1  29
HETATM   29  C23 UNL     1       0.380  52.518 -22.871  1.00  0.00     0.120 C 
BRANCH  29  30
HETATM   30  C24 UNL     1       0.940  53.263 -21.665  1.00  0.00     0.112 C 
BRANCH  30  31
HETATM   31  C25 UNL     1       0.402  52.686 -20.370  1.00  0.00     0.217 C 
HETATM   32  O6  UNL     1      -0.539  51.898 -20.323  1.00  0.00    -0.274 OA
HETATM   33  N1  UNL     1       1.082  53.119 -19.254  1.00  0.00    -0.361 N 
HETATM   34  H34 UNL     1       1.922  53.672 -19.371  1.00  0.00     0.162 HD
BRANCH  33  35
HETATM   35  C26 UNL     1       0.781  52.603 -17.933  1.00  0.00     0.122 C 
BRANCH  35  36
HETATM   36  C27 UNL     1       2.011  52.435 -17.036  1.00  0.00     0.020 C 
BRANCH  36  37
HETATM   37  C28 UNL     1       1.731  52.541 -15.531  1.00  0.00     0.002 C 
BRANCH  37  38
HETATM   38  C29 UNL     1       0.498  51.765 -15.063  1.00  0.00     0.009 C 
BRANCH  38  39
HETATM   39  C30 UNL     1       0.333  51.786 -13.542  1.00  0.00     0.103 C 
BRANCH  39  40
HETATM   40  C31 UNL     1      -1.075  52.136 -13.087  1.00  0.00     0.217 C 
HETATM   41  O7  UNL     1      -2.090  51.848 -13.713  1.00  0.00    -0.274 OA
HETATM   42  N2  UNL     1      -1.084  52.814 -11.884  1.00  0.00    -0.357 N 
HETATM   43  H45 UNL     1      -0.233  52.855 -11.341  1.00  0.00     0.162 HD
BRANCH  42  44
HETATM   44  C32 UNL     1      -2.319  53.179 -11.231  1.00  0.00     0.161 C 
BRANCH  44  45
HETATM   45  C33 UNL     1      -3.013  51.973 -10.656  1.00  0.00    -0.040 A 
HETATM   46  C34 UNL     1      -4.351  51.692 -10.969  1.00  0.00     0.010 A 
HETATM   47  C35 UNL     1      -4.987  50.575 -10.417  1.00  0.00     0.019 A 
HETATM   48  C36 UNL     1      -4.295  49.728  -9.543  1.00  0.00     0.037 A 
HETATM   49  C38 UNL     1      -2.964  50.009  -9.219  1.00  0.00     0.019 A 
HETATM   50  C39 UNL     1      -2.332  51.128  -9.767  1.00  0.00     0.010 A 
BRANCH  48  51
HETATM   51  C37 UNL     1      -5.009  48.553  -8.986  1.00  0.00     0.176 C 
HETATM   52  O8  UNL     1      -5.897  47.932  -9.540  1.00  0.00    -0.646 OA
BRANCH  51  53
HETATM   53  O9  UNL     1      -4.570  48.206  -7.762  1.00  0.00    -0.773 OA
HETATM   54  H50 UNL     1      -5.112  47.420  -7.533  1.00  0.00     0.167 HD
ENDBRANCH  51  53
ENDBRANCH  48  51
ENDBRANCH  44  45
ENDBRANCH  42  44
ENDBRANCH  39  40
ENDBRANCH  38  39
ENDBRANCH  37  38
ENDBRANCH  36  37
ENDBRANCH  35  36
ENDBRANCH  33  35
ENDBRANCH  30  31
ENDBRANCH  29  30
ENDBRANCH   1  29
TORSDOF 18
ENDMDL
MODEL 6
REMARK minimizedAffinity -8.2524271
REMARK CNNscore 0.289598495
REMARK CNNaffinity 6.44896317
REMARK  18 active torsions:
REMARK  status: ('A' for Active; 'I' for Inactive)
REMARK    1  A    between atoms: C19_20  and  O2_21 
REMARK    2  A    between atoms: C19_20  and  C20_22 
REMARK    3  A    between atoms: C20_22  and  C21_24 
REMARK    4  A    between atoms: C21_24  and  O4_25 
REMARK    5  A    between atoms: O4_25  and  C22_26 
REMARK    6  A    between atoms: C22_26  and  C23_28 
REMARK    7  A    between atoms: C23_28  and  C24_29 
REMARK    8  A    between atoms: C24_29  and  C25_30 
REMARK       I    between atoms: C25_30  and  N1_32 
REMARK    9  A    between atoms: N1_32  and  C26_33 
REMARK   10  A    between atoms: C26_33  and  C27_34 
REMARK   11  A    between atoms: C27_34  and  C28_35 
REMARK   12  A    between atoms: C28_35  and  C29_36 
REMARK   13  A    between atoms: C29_36  and  C30_37 
REMARK   14  A    between atoms: C30_37  and  C31_38 
REMARK       I    between atoms: C31_38  and  N2_40 
REMARK   15  A    between atoms: N2_40  and  C32_41 
REMARK   16  A    between atoms: C32_41  and  C33_42 
REMARK   17  A    between atoms: C36_45  and  C37_46 
REMARK   18  A    between atoms: C37_46  and  O9_48 
ROOT
HETATM    1  C22 UNL     1      -9.973  45.559 -28.561  1.00  0.00     0.259 C 
HETATM    2  O5  UNL     1      -9.318  46.256 -29.326  1.00  0.00    -0.265 OA
ENDROOT
BRANCH   1   3
HETATM    3  O4  UNL     1     -10.897  44.641 -28.956  1.00  0.00    -0.314 OA
BRANCH   3   4
HETATM    4  C21 UNL     1     -11.440  44.876 -30.261  1.00  0.00     0.260 C 
BRANCH   4   5
HETATM    5  C20 UNL     1     -10.817  43.971 -31.326  1.00  0.00     0.185 C 
HETATM    6  O3  UNL     1     -10.879  42.742 -31.238  1.00  0.00    -0.292 OA
BRANCH   5   7
HETATM    7  C19 UNL     1     -10.052  44.671 -32.473  1.00  0.00     0.128 C 
HETATM    8  C14 UNL     1     -10.756  44.674 -33.885  1.00  0.00    -0.002 C 
HETATM    9  C13 UNL     1     -11.596  45.933 -34.144  1.00  0.00     0.013 C 
HETATM   10  C15 UNL     1     -11.647  43.422 -34.065  1.00  0.00     0.019 C 
HETATM   11  C16 UNL     1      -9.571  44.573 -34.908  1.00  0.00     0.002 C 
HETATM   12  C12 UNL     1     -12.040  46.131 -35.596  1.00  0.00     0.007 C 
HETATM   13  C11 UNL     1     -11.074  45.608 -36.685  1.00  0.00     0.002 C 
HETATM   14  C2  UNL     1     -11.153  46.423 -38.029  1.00  0.00    -0.016 C 
HETATM   15  C10 UNL     1      -9.621  45.507 -36.143  1.00  0.00    -0.004 C 
HETATM   16  C1  UNL     1     -10.370  45.661 -39.139  1.00  0.00     0.020 C 
HETATM   17  C3  UNL     1     -12.609  46.536 -38.579  1.00  0.00     0.022 C 
HETATM   18  C7  UNL     1     -10.501  47.783 -37.798  1.00  0.00    -0.068 C 
HETATM   19  C4  UNL     1     -13.391  47.776 -38.174  1.00  0.00     0.084 C 
HETATM   20  C5  UNL     1     -12.561  49.024 -38.338  1.00  0.00     0.149 C 
HETATM   21  O1  UNL     1     -13.052  50.102 -38.664  1.00  0.00    -0.293 OA
HETATM   22  C6  UNL     1     -11.127  48.958 -37.983  1.00  0.00     0.053 C 
HETATM   23  C8  UNL     1      -9.087  47.747 -37.264  1.00  0.00     0.035 C 
HETATM   24  C9  UNL     1      -8.982  46.902 -35.986  1.00  0.00     0.010 C 
HETATM   25  C17 UNL     1      -8.285  44.615 -34.080  1.00  0.00     0.009 C 
HETATM   26  C18 UNL     1      -8.702  43.991 -32.756  1.00  0.00     0.047 C 
BRANCH   7  27
HETATM   27  O2  UNL     1      -9.766  46.013 -32.050  1.00  0.00    -0.381 OA
HETATM   28  H27 UNL     1      -9.048  45.983 -31.393  1.00  0.00     0.211 HD
ENDBRANCH   7  27
ENDBRANCH   5   7
ENDBRANCH   4   5
ENDBRANCH   3   4
ENDBRANCH   1   3
BRANCH   1  29
HETATM   29  C23 UNL     1      -9.772  45.553 -27.070  1.00  0.00     0.120 C 
BRANCH  29  30
HETATM   30  C24 UNL     1      -8.309  45.644 -26.653  1.00  0.00     0.112 C 
BRANCH  30  31
HETATM   31  C25 UNL     1      -7.726  47.000 -27.003  1.00  0.00     0.217 C 
HETATM   32  O6  UNL     1      -8.114  48.050 -26.500  1.00  0.00    -0.274 OA
HETATM   33  N1  UNL     1      -6.708  46.935 -27.928  1.00  0.00    -0.361 N 
HETATM   34  H34 UNL     1      -6.356  46.030 -28.212  1.00  0.00     0.162 HD
BRANCH  33  35
HETATM   35  C26 UNL     1      -5.958  48.114 -28.316  1.00  0.00     0.122 C 
BRANCH  35  36
HETATM   36  C27 UNL     1      -4.506  48.115 -27.828  1.00  0.00     0.020 C 
BRANCH  36  37
HETATM   37  C28 UNL     1      -4.327  48.457 -26.342  1.00  0.00     0.002 C 
BRANCH  37  38
HETATM   38  C29 UNL     1      -3.416  49.658 -26.077  1.00  0.00     0.009 C 
BRANCH  38  39
HETATM   39  C30 UNL     1      -1.961  49.388 -26.462  1.00  0.00     0.103 C 
BRANCH  39  40
HETATM   40  C31 UNL     1      -1.047  50.587 -26.270  1.00  0.00     0.217 C 
HETATM   41  O7  UNL     1      -0.387  51.099 -27.169  1.00  0.00    -0.274 OA
HETATM   42  N2  UNL     1      -1.044  51.042 -24.966  1.00  0.00    -0.357 N 
HETATM   43  H45 UNL     1      -1.744  50.691 -24.326  1.00  0.00     0.162 HD
BRANCH  42  44
HETATM   44  C32 UNL     1      -0.301  52.217 -24.575  1.00  0.00     0.161 C 
BRANCH  44  45
HETATM   45  C33 UNL     1      -0.101  52.269 -23.083  1.00  0.00    -0.040 A 
HETATM   46  C34 UNL     1       0.673  53.278 -22.493  1.00  0.00     0.010 A 
HETATM   47  C35 UNL     1       0.861  53.306 -21.107  1.00  0.00     0.019 A 
HETATM   48  C36 UNL     1       0.281  52.323 -20.296  1.00  0.00     0.037 A 
HETATM   49  C38 UNL     1      -0.483  51.308 -20.880  1.00  0.00     0.019 A 
HETATM   50  C39 UNL     1      -0.665  51.279 -22.265  1.00  0.00     0.010 A 
BRANCH  48  51
HETATM   51  C37 UNL     1       0.505  52.397 -18.831  1.00  0.00     0.176 C 
HETATM   52  O8  UNL     1      -0.167  51.846 -17.979  1.00  0.00    -0.646 OA
BRANCH  51  53
HETATM   53  O9  UNL     1       1.569  53.153 -18.503  1.00  0.00    -0.773 OA
HETATM   54  H50 UNL     1       1.603  53.097 -17.523  1.00  0.00     0.167 HD
ENDBRANCH  51  53
ENDBRANCH  48  51
ENDBRANCH  44  45
ENDBRANCH  42  44
ENDBRANCH  39  40
ENDBRANCH  38  39
ENDBRANCH  37  38
ENDBRANCH  36  37
ENDBRANCH  35  36
ENDBRANCH  33  35
ENDBRANCH  30  31
ENDBRANCH  29  30
ENDBRANCH   1  29
TORSDOF 18
ENDMDL
MODEL 7
REMARK minimizedAffinity -8.78202724
REMARK CNNscore 0.261521578
REMARK CNNaffinity 6.68553162
REMARK  18 active torsions:
REMARK  status: ('A' for Active; 'I' for Inactive)
REMARK    1  A    between atoms: C19_20  and  O2_21 
REMARK    2  A    between atoms: C19_20  and  C20_22 
REMARK    3  A    between atoms: C20_22  and  C21_24 
REMARK    4  A    between atoms: C21_24  and  O4_25 
REMARK    5  A    between atoms: O4_25  and  C22_26 
REMARK    6  A    between atoms: C22_26  and  C23_28 
REMARK    7  A    between atoms: C23_28  and  C24_29 
REMARK    8  A    between atoms: C24_29  and  C25_30 
REMARK       I    between atoms: C25_30  and  N1_32 
REMARK    9  A    between atoms: N1_32  and  C26_33 
REMARK   10  A    between atoms: C26_33  and  C27_34 
REMARK   11  A    between atoms: C27_34  and  C28_35 
REMARK   12  A    between atoms: C28_35  and  C29_36 
REMARK   13  A    between atoms: C29_36  and  C30_37 
REMARK   14  A    between atoms: C30_37  and  C31_38 
REMARK       I    between atoms: C31_38  and  N2_40 
REMARK   15  A    between atoms: N2_40  and  C32_41 
REMARK   16  A    between atoms: C32_41  and  C33_42 
REMARK   17  A    between atoms: C36_45  and  C37_46 
REMARK   18  A    between atoms: C37_46  and  O9_48 
ROOT
HETATM    1  C22 UNL     1       0.327  50.567 -15.980  1.00  0.00     0.259 C 
HETATM    2  O5  UNL     1       0.644  51.444 -16.773  1.00  0.00    -0.265 OA
ENDROOT
BRANCH   1   3
HETATM    3  O4  UNL     1      -0.161  49.348 -16.335  1.00  0.00    -0.314 OA
BRANCH   3   4
HETATM    4  C21 UNL     1      -0.366  49.183 -17.743  1.00  0.00     0.260 C 
BRANCH   4   5
HETATM    5  C20 UNL     1      -1.846  49.035 -18.106  1.00  0.00     0.185 C 
HETATM    6  O3  UNL     1      -2.717  48.994 -17.234  1.00  0.00    -0.292 OA
BRANCH   5   7
HETATM    7  C19 UNL     1      -2.181  48.872 -19.607  1.00  0.00     0.128 C 
HETATM    8  C14 UNL     1      -2.084  50.175 -20.491  1.00  0.00    -0.002 C 
HETATM    9  C13 UNL     1      -0.720  50.348 -21.172  1.00  0.00     0.013 C 
HETATM   10  C15 UNL     1      -2.401  51.439 -19.657  1.00  0.00     0.019 C 
HETATM   11  C16 UNL     1      -3.223  50.004 -21.557  1.00  0.00     0.002 C 
HETATM   12  C12 UNL     1      -0.673  51.410 -22.274  1.00  0.00     0.007 C 
HETATM   13  C11 UNL     1      -1.974  51.613 -23.086  1.00  0.00     0.002 C 
HETATM   14  C2  UNL     1      -1.717  52.092 -24.563  1.00  0.00    -0.016 C 
HETATM   15  C10 UNL     1      -2.874  50.347 -23.027  1.00  0.00    -0.004 C 
HETATM   16  C1  UNL     1      -3.066  52.537 -25.201  1.00  0.00     0.020 C 
HETATM   17  C3  UNL     1      -0.809  53.359 -24.634  1.00  0.00     0.022 C 
HETATM   18  C7  UNL     1      -1.152  50.915 -25.352  1.00  0.00    -0.068 C 
HETATM   19  C4  UNL     1       0.682  53.114 -24.811  1.00  0.00     0.084 C 
HETATM   20  C5  UNL     1       0.944  52.094 -25.890  1.00  0.00     0.149 C 
HETATM   21  O1  UNL     1       1.932  52.147 -26.619  1.00  0.00    -0.293 OA
HETATM   22  C6  UNL     1       0.032  50.935 -25.989  1.00  0.00     0.053 C 
HETATM   23  C8  UNL     1      -1.983  49.652 -25.325  1.00  0.00     0.035 C 
HETATM   24  C9  UNL     1      -2.296  49.207 -23.889  1.00  0.00     0.010 C 
HETATM   25  C17 UNL     1      -3.836  48.623 -21.312  1.00  0.00     0.009 C 
HETATM   26  C18 UNL     1      -3.633  48.411 -19.818  1.00  0.00     0.047 C 
BRANCH   7  27
HETATM   27  O2  UNL     1      -1.332  47.841 -20.133  1.00  0.00    -0.381 OA
HETATM   28  H27 UNL     1      -1.659  46.980 -19.816  1.00  0.00     0.211 HD
ENDBRANCH   7  27
ENDBRANCH   5   7
ENDBRANCH   4   5
ENDBRANCH   3   4
ENDBRANCH   1   3
BRANCH   1  29
HETATM   29  C23 UNL     1       0.529  50.684 -14.493  1.00  0.00     0.120 C 
BRANCH  29  30
HETATM   30  C24 UNL     1      -0.122  51.922 -13.887  1.00  0.00     0.112 C 
BRANCH  30  31
HETATM   31  C25 UNL     1      -1.436  51.573 -13.215  1.00  0.00     0.217 C 
HETATM   32  O6  UNL     1      -1.753  50.427 -12.909  1.00  0.00    -0.274 OA
HETATM   33  N1  UNL     1      -2.231  52.670 -12.966  1.00  0.00    -0.361 N 
HETATM   34  H34 UNL     1      -1.859  53.597 -13.132  1.00  0.00     0.162 HD
BRANCH  33  35
HETATM   35  C26 UNL     1      -3.481  52.554 -12.240  1.00  0.00     0.122 C 
BRANCH  35  36
HETATM   36  C27 UNL     1      -3.362  52.857 -10.744  1.00  0.00     0.020 C 
BRANCH  36  37
HETATM   37  C28 UNL     1      -2.782  54.239 -10.412  1.00  0.00     0.002 C 
BRANCH  37  38
HETATM   38  C29 UNL     1      -1.396  54.202  -9.763  1.00  0.00     0.009 C 
BRANCH  38  39
HETATM   39  C30 UNL     1      -0.276  54.534 -10.750  1.00  0.00     0.103 C 
BRANCH  39  40
HETATM   40  C31 UNL     1       0.918  55.222 -10.108  1.00  0.00     0.217 C 
HETATM   41  O7  UNL     1       0.913  55.687  -8.973  1.00  0.00    -0.274 OA
HETATM   42  N2  UNL     1       2.014  55.262 -10.946  1.00  0.00    -0.357 N 
HETATM   43  H45 UNL     1       2.005  54.703 -11.789  1.00  0.00     0.162 HD
BRANCH  42  44
HETATM   44  C32 UNL     1       3.280  55.805 -10.512  1.00  0.00     0.161 C 
BRANCH  44  45
HETATM   45  C33 UNL     1       4.226  54.714 -10.082  1.00  0.00    -0.040 A 
HETATM   46  C34 UNL     1       5.568  54.997  -9.790  1.00  0.00     0.010 A 
HETATM   47  C35 UNL     1       6.438  53.972  -9.404  1.00  0.00     0.019 A 
HETATM   48  C36 UNL     1       5.979  52.653  -9.310  1.00  0.00     0.037 A 
HETATM   49  C38 UNL     1       4.644  52.364  -9.611  1.00  0.00     0.019 A 
HETATM   50  C39 UNL     1       3.778  53.388 -10.001  1.00  0.00     0.010 A 
BRANCH  48  51
HETATM   51  C37 UNL     1       6.938  51.601  -8.893  1.00  0.00     0.176 C 
HETATM   52  O8  UNL     1       7.412  50.742  -9.614  1.00  0.00    -0.646 OA
BRANCH  51  53
HETATM   53  O9  UNL     1       7.266  51.680  -7.590  1.00  0.00    -0.773 OA
HETATM   54  H50 UNL     1       7.907  50.946  -7.464  1.00  0.00     0.167 HD
ENDBRANCH  51  53
ENDBRANCH  48  51
ENDBRANCH  44  45
ENDBRANCH  42  44
ENDBRANCH  39  40
ENDBRANCH  38  39
ENDBRANCH  37  38
ENDBRANCH  36  37
ENDBRANCH  35  36
ENDBRANCH  33  35
ENDBRANCH  30  31
ENDBRANCH  29  30
ENDBRANCH   1  29
TORSDOF 18
ENDMDL
MODEL 8
REMARK minimizedAffinity -8.20515442
REMARK CNNscore 0.256563812
REMARK CNNaffinity 6.36554098
REMARK  18 active torsions:
REMARK  status: ('A' for Active; 'I' for Inactive)
REMARK    1  A    between atoms: C19_20  and  O2_21 
REMARK    2  A    between atoms: C19_20  and  C20_22 
REMARK    3  A    between atoms: C20_22  and  C21_24 
REMARK    4  A    between atoms: C21_24  and  O4_25 
REMARK    5  A    between atoms: O4_25  and  C22_26 
REMARK    6  A    between atoms: C22_26  and  C23_28 
REMARK    7  A    between atoms: C23_28  and  C24_29 
REMARK    8  A    between atoms: C24_29  and  C25_30 
REMARK       I    between atoms: C25_30  and  N1_32 
REMARK    9  A    between atoms: N1_32  and  C26_33 
REMARK   10  A    between atoms: C26_33  and  C27_34 
REMARK   11  A    between atoms: C27_34  and  C28_35 
REMARK   12  A    between atoms: C28_35  and  C29_36 
REMARK   13  A    between atoms: C29_36  and  C30_37 
REMARK   14  A    between atoms: C30_37  and  C31_38 
REMARK       I    between atoms: C31_38  and  N2_40 
REMARK   15  A    between atoms: N2_40  and  C32_41 
REMARK   16  A    between atoms: C32_41  and  C33_42 
REMARK   17  A    between atoms: C36_45  and  C37_46 
REMARK   18  A    between atoms: C37_46  and  O9_48 
ROOT
HETATM    1  C22 UNL     1      -0.704  50.367 -18.339  1.00  0.00     0.259 C 
HETATM    2  O5  UNL     1      -0.428  50.862 -19.424  1.00  0.00    -0.265 OA
ENDROOT
BRANCH   1   3
HETATM    3  O4  UNL     1      -1.891  49.767 -18.046  1.00  0.00    -0.314 OA
BRANCH   3   4
HETATM    4  C21 UNL     1      -2.134  48.557 -18.775  1.00  0.00     0.260 C 
BRANCH   4   5
HETATM    5  C20 UNL     1      -3.492  48.564 -19.482  1.00  0.00     0.185 C 
HETATM    6  O3  UNL     1      -4.546  48.568 -18.841  1.00  0.00    -0.292 OA
BRANCH   5   7
HETATM    7  C19 UNL     1      -3.473  48.496 -21.027  1.00  0.00     0.128 C 
HETATM    8  C14 UNL     1      -3.093  49.830 -21.780  1.00  0.00    -0.002 C 
HETATM    9  C13 UNL     1      -1.598  49.936 -22.113  1.00  0.00     0.013 C 
HETATM   10  C15 UNL     1      -3.522  51.073 -20.965  1.00  0.00     0.019 C 
HETATM   11  C16 UNL     1      -3.955  49.792 -23.090  1.00  0.00     0.002 C 
HETATM   12  C12 UNL     1      -1.230  51.043 -23.105  1.00  0.00     0.007 C 
HETATM   13  C11 UNL     1      -2.288  51.377 -24.183  1.00  0.00     0.002 C 
HETATM   14  C2  UNL     1      -1.661  51.906 -25.526  1.00  0.00    -0.016 C 
HETATM   15  C10 UNL     1      -3.249  50.178 -24.414  1.00  0.00    -0.004 C 
HETATM   16  C1  UNL     1      -2.793  52.477 -26.431  1.00  0.00     0.020 C 
HETATM   17  C3  UNL     1      -0.689  53.106 -25.304  1.00  0.00     0.022 C 
HETATM   18  C7  UNL     1      -0.996  50.730 -26.234  1.00  0.00    -0.068 C 
HETATM   19  C4  UNL     1       0.784  52.763 -25.145  1.00  0.00     0.084 C 
HETATM   20  C5  UNL     1       1.234  51.779 -26.195  1.00  0.00     0.149 C 
HETATM   21  O1  UNL     1       2.367  51.795 -26.669  1.00  0.00    -0.293 OA
HETATM   22  C6  UNL     1       0.304  50.695 -26.576  1.00  0.00     0.053 C 
HETATM   23  C8  UNL     1      -1.883  49.530 -26.481  1.00  0.00     0.035 C 
HETATM   24  C9  UNL     1      -2.552  49.041 -25.188  1.00  0.00     0.010 C 
HETATM   25  C17 UNL     1      -4.689  48.449 -23.082  1.00  0.00     0.009 C 
HETATM   26  C18 UNL     1      -4.858  48.152 -21.599  1.00  0.00     0.047 C 
BRANCH   7  27
HETATM   27  O2  UNL     1      -2.585  47.433 -21.405  1.00  0.00    -0.381 OA
HETATM   28  H27 UNL     1      -3.028  46.584 -21.227  1.00  0.00     0.211 HD
ENDBRANCH   7  27
ENDBRANCH   5   7
ENDBRANCH   4   5
ENDBRANCH   3   4
ENDBRANCH   1   3
BRANCH   1  29
HETATM   29  C23 UNL     1       0.275  50.265 -17.201  1.00  0.00     0.120 C 
BRANCH  29  30
HETATM   30  C24 UNL     1       0.397  51.550 -16.388  1.00  0.00     0.112 C 
BRANCH  30  31
HETATM   31  C25 UNL     1       0.648  51.246 -14.924  1.00  0.00     0.217 C 
HETATM   32  O6  UNL     1       0.631  50.110 -14.458  1.00  0.00    -0.274 OA
HETATM   33  N1  UNL     1       0.914  52.368 -14.170  1.00  0.00    -0.361 N 
HETATM   34  H34 UNL     1       1.032  53.259 -14.637  1.00  0.00     0.162 HD
BRANCH  33  35
HETATM   35  C26 UNL     1       1.278  52.274 -12.770  1.00  0.00     0.122 C 
BRANCH  35  36
HETATM   36  C27 UNL     1       0.135  52.609 -11.807  1.00  0.00     0.020 C 
BRANCH  36  37
HETATM   37  C28 UNL     1       0.205  54.012 -11.189  1.00  0.00     0.002 C 
BRANCH  37  38
HETATM   38  C29 UNL     1       1.405  54.236 -10.266  1.00  0.00     0.009 C 
BRANCH  38  39
HETATM   39  C30 UNL     1       2.342  55.332 -10.777  1.00  0.00     0.103 C 
BRANCH  39  40
HETATM   40  C31 UNL     1       3.410  55.737  -9.774  1.00  0.00     0.217 C 
HETATM   41  O7  UNL     1       3.591  56.889  -9.391  1.00  0.00    -0.274 OA
HETATM   42  N2  UNL     1       4.155  54.659  -9.337  1.00  0.00    -0.357 N 
HETATM   43  H45 UNL     1       3.834  53.725  -9.553  1.00  0.00     0.162 HD
BRANCH  42  44
HETATM   44  C32 UNL     1       5.176  54.805  -8.327  1.00  0.00     0.161 C 
BRANCH  44  45
HETATM   45  C33 UNL     1       5.946  53.525  -8.136  1.00  0.00    -0.040 A 
HETATM   46  C34 UNL     1       6.254  53.052  -6.852  1.00  0.00     0.010 A 
HETATM   47  C35 UNL     1       6.981  51.868  -6.691  1.00  0.00     0.019 A 
HETATM   48  C36 UNL     1       7.412  51.145  -7.810  1.00  0.00     0.037 A 
HETATM   49  C38 UNL     1       7.116  51.617  -9.092  1.00  0.00     0.019 A 
HETATM   50  C39 UNL     1       6.395  52.803  -9.252  1.00  0.00     0.010 A 
BRANCH  48  51
HETATM   51  C37 UNL     1       8.176  49.893  -7.588  1.00  0.00     0.176 C 
HETATM   52  O8  UNL     1       8.032  49.127  -6.653  1.00  0.00    -0.646 OA
BRANCH  51  53
HETATM   53  O9  UNL     1       9.079  49.654  -8.556  1.00  0.00    -0.773 OA
HETATM   54  H50 UNL     1       9.488  48.801  -8.290  1.00  0.00     0.167 HD
ENDBRANCH  51  53
ENDBRANCH  48  51
ENDBRANCH  44  45
ENDBRANCH  42  44
ENDBRANCH  39  40
ENDBRANCH  38  39
ENDBRANCH  37  38
ENDBRANCH  36  37
ENDBRANCH  35  36
ENDBRANCH  33  35
ENDBRANCH  30  31
ENDBRANCH  29  30
ENDBRANCH   1  29
TORSDOF 18
ENDMDL
MODEL 9
REMARK minimizedAffinity -8.73635769
REMARK CNNscore 0.255097061
REMARK CNNaffinity 6.71627045
REMARK  18 active torsions:
REMARK  status: ('A' for Active; 'I' for Inactive)
REMARK    1  A    between atoms: C19_20  and  O2_21 
REMARK    2  A    between atoms: C19_20  and  C20_22 
REMARK    3  A    between atoms: C20_22  and  C21_24 
REMARK    4  A    between atoms: C21_24  and  O4_25 
REMARK    5  A    between atoms: O4_25  and  C22_26 
REMARK    6  A    between atoms: C22_26  and  C23_28 
REMARK    7  A    between atoms: C23_28  and  C24_29 
REMARK    8  A    between atoms: C24_29  and  C25_30 
REMARK       I    between atoms: C25_30  and  N1_32 
REMARK    9  A    between atoms: N1_32  and  C26_33 
REMARK   10  A    between atoms: C26_33  and  C27_34 
REMARK   11  A    between atoms: C27_34  and  C28_35 
REMARK   12  A    between atoms: C28_35  and  C29_36 
REMARK   13  A    between atoms: C29_36  and  C30_37 
REMARK   14  A    between atoms: C30_37  and  C31_38 
REMARK       I    between atoms: C31_38  and  N2_40 
REMARK   15  A    between atoms: N2_40  and  C32_41 
REMARK   16  A    between atoms: C32_41  and  C33_42 
REMARK   17  A    between atoms: C36_45  and  C37_46 
REMARK   18  A    between atoms: C37_46  and  O9_48 
ROOT
HETATM    1  C22 UNL     1      -8.821  47.398 -23.790  1.00  0.00     0.259 C 
HETATM    2  O5  UNL     1      -9.824  46.834 -23.370  1.00  0.00    -0.265 OA
ENDROOT
BRANCH   1   3
HETATM    3  O4  UNL     1      -7.600  47.344 -23.190  1.00  0.00    -0.314 OA
BRANCH   3   4
HETATM    4  C21 UNL     1      -6.571  48.061 -23.884  1.00  0.00     0.260 C 
BRANCH   4   5
HETATM    5  C20 UNL     1      -6.303  49.438 -23.270  1.00  0.00     0.185 C 
HETATM    6  O3  UNL     1      -7.223  50.227 -23.042  1.00  0.00    -0.292 OA
BRANCH   5   7
HETATM    7  C19 UNL     1      -4.823  49.810 -23.018  1.00  0.00     0.128 C 
HETATM    8  C14 UNL     1      -3.931  50.041 -24.299  1.00  0.00    -0.002 C 
HETATM    9  C13 UNL     1      -3.863  51.511 -24.736  1.00  0.00     0.013 C 
HETATM   10  C15 UNL     1      -4.425  49.179 -25.485  1.00  0.00     0.019 C 
HETATM   11  C16 UNL     1      -2.512  49.517 -23.881  1.00  0.00     0.002 C 
HETATM   12  C12 UNL     1      -2.778  51.833 -25.767  1.00  0.00     0.007 C 
HETATM   13  C11 UNL     1      -1.484  50.990 -25.686  1.00  0.00     0.002 C 
HETATM   14  C2  UNL     1      -0.206  51.763 -26.183  1.00  0.00    -0.016 C 
HETATM   15  C10 UNL     1      -1.293  50.392 -24.264  1.00  0.00    -0.004 C 
HETATM   16  C1  UNL     1       0.976  50.760 -26.332  1.00  0.00     0.020 C 
HETATM   17  C3  UNL     1      -0.389  52.373 -27.608  1.00  0.00     0.022 C 
HETATM   18  C7  UNL     1       0.153  52.810 -25.134  1.00  0.00    -0.068 C 
HETATM   19  C4  UNL     1      -0.872  53.813 -27.670  1.00  0.00     0.084 C 
HETATM   20  C5  UNL     1      -0.109  54.688 -26.708  1.00  0.00     0.149 C 
HETATM   21  O1  UNL     1       0.146  55.866 -26.950  1.00  0.00    -0.293 OA
HETATM   22  C6  UNL     1       0.241  54.128 -25.385  1.00  0.00     0.053 C 
HETATM   23  C8  UNL     1       0.345  52.287 -23.728  1.00  0.00     0.035 C 
HETATM   24  C9  UNL     1      -0.869  51.476 -23.252  1.00  0.00     0.010 C 
HETATM   25  C17 UNL     1      -2.621  49.115 -22.408  1.00  0.00     0.009 C 
HETATM   26  C18 UNL     1      -4.077  48.695 -22.267  1.00  0.00     0.047 C 
BRANCH   7  27
HETATM   27  O2  UNL     1      -4.804  50.971 -22.174  1.00  0.00    -0.381 OA
HETATM   28  H27 UNL     1      -5.043  50.699 -21.270  1.00  0.00     0.211 HD
ENDBRANCH   7  27
ENDBRANCH   5   7
ENDBRANCH   4   5
ENDBRANCH   3   4
ENDBRANCH   1   3
BRANCH   1  29
HETATM   29  C23 UNL     1      -8.778  48.152 -25.091  1.00  0.00     0.120 C 
BRANCH  29  30
HETATM   30  C24 UNL     1      -8.332  47.300 -26.273  1.00  0.00     0.112 C 
BRANCH  30  31
HETATM   31  C25 UNL     1      -9.311  47.412 -27.426  1.00  0.00     0.217 C 
HETATM   32  O6  UNL     1      -9.040  47.079 -28.576  1.00  0.00    -0.274 OA
HETATM   33  N1  UNL     1     -10.540  47.908 -27.053  1.00  0.00    -0.361 N 
HETATM   34  H34 UNL     1     -10.738  48.049 -26.070  1.00  0.00     0.162 HD
BRANCH  33  35
HETATM   35  C26 UNL     1     -11.642  47.996 -27.992  1.00  0.00     0.122 C 
BRANCH  35  36
HETATM   36  C27 UNL     1     -12.172  46.637 -28.457  1.00  0.00     0.020 C 
BRANCH  36  37
HETATM   37  C28 UNL     1     -13.048  45.904 -27.433  1.00  0.00     0.002 C 
BRANCH  37  38
HETATM   38  C29 UNL     1     -14.066  46.796 -26.719  1.00  0.00     0.009 C 
BRANCH  38  39
HETATM   39  C30 UNL     1     -14.262  46.407 -25.253  1.00  0.00     0.103 C 
BRANCH  39  40
HETATM   40  C31 UNL     1     -15.473  47.059 -24.606  1.00  0.00     0.217 C 
HETATM   41  O7  UNL     1     -15.407  47.980 -23.797  1.00  0.00    -0.274 OA
HETATM   42  N2  UNL     1     -16.662  46.501 -25.034  1.00  0.00    -0.357 N 
HETATM   43  H45 UNL     1     -16.649  45.878 -25.830  1.00  0.00     0.162 HD
BRANCH  42  44
HETATM   44  C32 UNL     1     -17.939  47.018 -24.602  1.00  0.00     0.161 C 
BRANCH  44  45
HETATM   45  C33 UNL     1     -18.735  45.970 -23.870  1.00  0.00    -0.040 A 
HETATM   46  C34 UNL     1     -19.493  45.020 -24.569  1.00  0.00     0.010 A 
HETATM   47  C35 UNL     1     -20.239  44.060 -23.875  1.00  0.00     0.019 A 
HETATM   48  C36 UNL     1     -20.238  44.042 -22.475  1.00  0.00     0.037 A 
HETATM   49  C38 UNL     1     -19.492  44.993 -21.773  1.00  0.00     0.019 A 
HETATM   50  C39 UNL     1     -18.753  45.954 -22.467  1.00  0.00     0.010 A 
BRANCH  48  51
HETATM   51  C37 UNL     1     -21.040  43.003 -21.784  1.00  0.00     0.176 C 
HETATM   52  O8  UNL     1     -20.608  42.164 -21.015  1.00  0.00    -0.646 OA
BRANCH  51  53
HETATM   53  O9  UNL     1     -22.351  43.069 -22.083  1.00  0.00    -0.773 OA
HETATM   54  H50 UNL     1     -22.750  42.346 -21.551  1.00  0.00     0.167 HD
ENDBRANCH  51  53
ENDBRANCH  48  51
ENDBRANCH  44  45
ENDBRANCH  42  44
ENDBRANCH  39  40
ENDBRANCH  38  39
ENDBRANCH  37  38
ENDBRANCH  36  37
ENDBRANCH  35  36
ENDBRANCH  33  35
ENDBRANCH  30  31
ENDBRANCH  29  30
ENDBRANCH   1  29
TORSDOF 18
ENDMDL
