MODEL 1
REMARK minimizedAffinity -8.85838127
REMARK  8 active torsions:
REMARK  status: ('A' for Active; 'I' for Inactive)
REMARK    1  A    between atoms: C2_2  and  C3_3 
REMARK    2  A    between atoms: C2_2  and  C28_31 
REMARK    3  A    between atoms: C3_3  and  C4_4 
REMARK    4  A    between atoms: C4_4  and  O1_5 
REMARK    5  A    between atoms: C4_4  and  C5_6 
REMARK    6  A    between atoms: C5_6  and  C7_8 
REMARK    7  A    between atoms: C21_22  and  C23_24 
REMARK    8  A    between atoms: C23_24  and  O3_26 
ROOT
HETATM    1  C7  UNL     1       1.059   6.776  13.429  1.00  0.00     0.001 C 
HETATM    2  C8  UNL     1       1.262   7.643  14.715  1.00  0.00     0.007 C 
HETATM    3  C9  UNL     1      -0.130   7.917  15.312  1.00  0.00     0.015 C 
HETATM    4  C10 UNL     1      -1.040   6.870  14.653  1.00  0.00    -0.013 C 
HETATM    5  C11 UNL     1      -0.841   5.530  15.432  1.00  0.00     0.021 C 
HETATM    6  C12 UNL     1      -2.546   7.096  14.658  1.00  0.00    -0.068 C 
HETATM    7  C13 UNL     1      -3.302   6.554  13.665  1.00  0.00    -0.068 C 
HETATM    8  C14 UNL     1      -2.695   5.819  12.475  1.00  0.00     0.036 C 
HETATM    9  C15 UNL     1      -1.154   5.721  12.428  1.00  0.00     0.015 C 
HETATM   10  C16 UNL     1      -0.479   6.885  13.171  1.00  0.00    -0.029 C 
HETATM   11  C17 UNL     1      -0.810   8.204  12.415  1.00  0.00     0.016 C 
HETATM   12  C18 UNL     1      -4.815   6.738  13.670  1.00  0.00    -0.015 C 
HETATM   13  C19 UNL     1      -5.120   7.993  12.817  1.00  0.00     0.020 C 
HETATM   14  C20 UNL     1      -5.691   5.554  13.194  1.00  0.00     0.034 C 
HETATM   15  C21 UNL     1      -7.043   5.686  13.958  1.00  0.00     0.043 C 
HETATM   16  C22 UNL     1      -8.187   6.111  13.027  1.00  0.00     0.027 C 
HETATM   17  C24 UNL     1      -6.806   6.763  15.050  1.00  0.00     0.025 C 
HETATM   18  C25 UNL     1      -5.286   6.836  15.136  1.00  0.00    -0.001 C 
HETATM   19  C26 UNL     1      -4.665   8.022  15.846  1.00  0.00     0.010 C 
HETATM   20  C27 UNL     1      -3.134   7.868  15.835  1.00  0.00     0.036 C 
ENDROOT
BRANCH   1  21
HETATM   21  C5  UNL     1       2.172   7.048  12.364  1.00  0.00     0.015 C 
HETATM   22  C6  UNL     1       2.179   8.444  11.720  1.00  0.00     0.013 C 
BRANCH  21  23
HETATM   23  C4  UNL     1       2.346   5.975  11.254  1.00  0.00     0.126 C 
BRANCH  23  24
HETATM   24  C3  UNL     1       1.462   6.211  10.012  1.00  0.00     0.065 C 
BRANCH  24  25
HETATM   25  C2  UNL     1       2.265   6.293   8.719  1.00  0.00    -0.083 C 
HETATM   26  C1  UNL     1       3.115   5.306   8.388  1.00  0.00     0.015 C 
BRANCH  25  27
HETATM   27  C28 UNL     1       2.060   7.553   7.882  1.00  0.00     0.005 C 
HETATM   28  C29 UNL     1       1.860   7.188   6.409  1.00  0.00     0.014 C 
HETATM   29  C30 UNL     1       0.913   8.450   8.364  1.00  0.00     0.014 C 
ENDBRANCH  25  27
ENDBRANCH  24  25
ENDBRANCH  23  24
BRANCH  23  30
HETATM   30  O1  UNL     1       3.718   5.882  10.879  1.00  0.00    -0.395 OA
HETATM   31  H6  UNL     1       3.785   5.164  10.224  1.00  0.00     0.210 HD
ENDBRANCH  23  30
ENDBRANCH  21  23
ENDBRANCH   1  21
BRANCH  15  32
HETATM   32  C23 UNL     1      -7.410   4.335  14.571  1.00  0.00     0.148 C 
HETATM   33  O2  UNL     1      -7.291   3.241  14.043  1.00  0.00    -0.649 OA
BRANCH  32  34
HETATM   34  O3  UNL     1      -7.868   4.413  15.835  1.00  0.00    -0.776 OA
HETATM   35  H34 UNL     1      -8.037   3.480  16.084  1.00  0.00     0.167 HD
ENDBRANCH  32  34
ENDBRANCH  15  32
TORSDOF 8
ENDMDL
MODEL 2
REMARK minimizedAffinity -8.8054781
REMARK  8 active torsions:
REMARK  status: ('A' for Active; 'I' for Inactive)
REMARK    1  A    between atoms: C2_2  and  C3_3 
REMARK    2  A    between atoms: C2_2  and  C28_31 
REMARK    3  A    between atoms: C3_3  and  C4_4 
REMARK    4  A    between atoms: C4_4  and  O1_5 
REMARK    5  A    between atoms: C4_4  and  C5_6 
REMARK    6  A    between atoms: C5_6  and  C7_8 
REMARK    7  A    between atoms: C21_22  and  C23_24 
REMARK    8  A    between atoms: C23_24  and  O3_26 
ROOT
HETATM    1  C7  UNL     1      -5.908   7.108  14.408  1.00  0.00     0.001 C 
HETATM    2  C8  UNL     1      -5.887   8.520  15.081  1.00  0.00     0.007 C 
HETATM    3  C9  UNL     1      -4.478   9.106  14.881  1.00  0.00     0.015 C 
HETATM    4  C10 UNL     1      -3.870   8.262  13.752  1.00  0.00    -0.013 C 
HETATM    5  C11 UNL     1      -4.424   8.827  12.404  1.00  0.00     0.021 C 
HETATM    6  C12 UNL     1      -2.358   8.253  13.571  1.00  0.00    -0.068 C 
HETATM    7  C13 UNL     1      -1.763   7.163  13.016  1.00  0.00    -0.068 C 
HETATM    8  C14 UNL     1      -2.531   5.894  12.666  1.00  0.00     0.036 C 
HETATM    9  C15 UNL     1      -4.043   5.883  12.983  1.00  0.00     0.015 C 
HETATM   10  C16 UNL     1      -4.394   6.820  14.150  1.00  0.00    -0.029 C 
HETATM   11  C17 UNL     1      -3.719   6.269  15.439  1.00  0.00     0.016 C 
HETATM   12  C18 UNL     1      -0.255   7.147  12.793  1.00  0.00    -0.015 C 
HETATM   13  C19 UNL     1       0.379   6.491  14.044  1.00  0.00     0.020 C 
HETATM   14  C20 UNL     1       0.281   6.462  11.513  1.00  0.00     0.034 C 
HETATM   15  C21 UNL     1       1.613   7.193  11.161  1.00  0.00     0.043 C 
HETATM   16  C22 UNL     1       2.838   6.303  11.415  1.00  0.00     0.027 C 
HETATM   17  C24 UNL     1       1.658   8.447  12.075  1.00  0.00     0.025 C 
HETATM   18  C25 UNL     1       0.211   8.594  12.529  1.00  0.00    -0.001 C 
HETATM   19  C26 UNL     1      -0.082   9.500  13.707  1.00  0.00     0.010 C 
HETATM   20  C27 UNL     1      -1.599   9.516  13.964  1.00  0.00     0.036 C 
ENDROOT
BRANCH   1  21
HETATM   21  C5  UNL     1      -6.899   6.136  15.128  1.00  0.00     0.015 C 
HETATM   22  C6  UNL     1      -6.544   5.738  16.570  1.00  0.00     0.013 C 
BRANCH  21  23
HETATM   23  C4  UNL     1      -7.321   4.866  14.340  1.00  0.00     0.126 C 
BRANCH  23  24
HETATM   24  C3  UNL     1      -6.213   4.300  13.428  1.00  0.00     0.065 C 
BRANCH  24  25
HETATM   25  C2  UNL     1      -6.698   3.156  12.544  1.00  0.00    -0.083 C 
HETATM   26  C1  UNL     1      -7.994   2.797  12.554  1.00  0.00     0.015 C 
BRANCH  25  27
HETATM   27  C28 UNL     1      -5.630   2.456  11.709  1.00  0.00     0.005 C 
HETATM   28  C29 UNL     1      -6.134   1.090  11.235  1.00  0.00     0.014 C 
HETATM   29  C30 UNL     1      -5.127   3.275  10.513  1.00  0.00     0.014 C 
ENDBRANCH  25  27
ENDBRANCH  24  25
ENDBRANCH  23  24
BRANCH  23  30
HETATM   30  O1  UNL     1      -7.783   3.864  15.243  1.00  0.00    -0.395 OA
HETATM   31  H6  UNL     1      -8.085   3.113  14.701  1.00  0.00     0.210 HD
ENDBRANCH  23  30
ENDBRANCH  21  23
ENDBRANCH   1  21
BRANCH  15  32
HETATM   32  C23 UNL     1       1.604   7.575   9.682  1.00  0.00     0.148 C 
HETATM   33  O2  UNL     1       1.095   8.571   9.192  1.00  0.00    -0.649 OA
BRANCH  32  34
HETATM   34  O3  UNL     1       2.269   6.714   8.889  1.00  0.00    -0.776 OA
HETATM   35  H34 UNL     1       2.185   7.103   7.993  1.00  0.00     0.167 HD
ENDBRANCH  32  34
ENDBRANCH  15  32
TORSDOF 8
ENDMDL
MODEL 3
REMARK minimizedAffinity -8.62093353
REMARK  8 active torsions:
REMARK  status: ('A' for Active; 'I' for Inactive)
REMARK    1  A    between atoms: C2_2  and  C3_3 
REMARK    2  A    between atoms: C2_2  and  C28_31 
REMARK    3  A    between atoms: C3_3  and  C4_4 
REMARK    4  A    between atoms: C4_4  and  O1_5 
REMARK    5  A    between atoms: C4_4  and  C5_6 
REMARK    6  A    between atoms: C5_6  and  C7_8 
REMARK    7  A    between atoms: C21_22  and  C23_24 
REMARK    8  A    between atoms: C23_24  and  O3_26 
ROOT
HETATM    1  C7  UNL     1      -5.440   6.732  14.556  1.00  0.00     0.001 C 
HETATM    2  C8  UNL     1      -5.200   8.023  15.406  1.00  0.00     0.007 C 
HETATM    3  C9  UNL     1      -3.768   8.506  15.119  1.00  0.00     0.015 C 
HETATM    4  C10 UNL     1      -3.376   7.788  13.820  1.00  0.00    -0.013 C 
HETATM    5  C11 UNL     1      -4.010   8.591  12.639  1.00  0.00     0.021 C 
HETATM    6  C12 UNL     1      -1.901   7.673  13.458  1.00  0.00    -0.068 C 
HETATM    7  C13 UNL     1      -1.485   6.629  12.691  1.00  0.00    -0.068 C 
HETATM    8  C14 UNL     1      -2.413   5.497  12.268  1.00  0.00     0.036 C 
HETATM    9  C15 UNL     1      -3.875   5.571  12.762  1.00  0.00     0.015 C 
HETATM   10  C16 UNL     1      -4.000   6.354  14.079  1.00  0.00    -0.029 C 
HETATM   11  C17 UNL     1      -3.251   5.563  15.189  1.00  0.00     0.016 C 
HETATM   12  C18 UNL     1      -0.019   6.515  12.288  1.00  0.00    -0.015 C 
HETATM   13  C19 UNL     1       0.674   5.629  13.352  1.00  0.00     0.020 C 
HETATM   14  C20 UNL     1       0.302   5.982  10.871  1.00  0.00     0.034 C 
HETATM   15  C21 UNL     1       1.657   6.637  10.463  1.00  0.00     0.043 C 
HETATM   16  C22 UNL     1       2.803   5.616  10.444  1.00  0.00     0.027 C 
HETATM   17  C24 UNL     1       1.930   7.735  11.526  1.00  0.00     0.025 C 
HETATM   18  C25 UNL     1       0.563   7.939  12.168  1.00  0.00    -0.001 C 
HETATM   19  C26 UNL     1       0.494   8.684  13.486  1.00  0.00     0.010 C 
HETATM   20  C27 UNL     1      -0.977   8.794  13.924  1.00  0.00     0.036 C 
ENDROOT
BRANCH   1  21
HETATM   21  C5  UNL     1      -6.443   5.754  15.252  1.00  0.00     0.015 C 
HETATM   22  C6  UNL     1      -6.799   4.473  14.480  1.00  0.00     0.013 C 
BRANCH  21  23
HETATM   23  C4  UNL     1      -7.745   6.385  15.819  1.00  0.00     0.126 C 
BRANCH  23  24
HETATM   24  C3  UNL     1      -8.392   7.428  14.885  1.00  0.00     0.065 C 
BRANCH  24  25
HETATM   25  C2  UNL     1      -9.606   6.885  14.139  1.00  0.00    -0.083 C 
HETATM   26  C1  UNL     1      -9.442   6.174  13.010  1.00  0.00     0.015 C 
BRANCH  25  27
HETATM   27  C28 UNL     1     -10.968   7.232  14.734  1.00  0.00     0.005 C 
HETATM   28  C29 UNL     1     -11.015   8.710  15.132  1.00  0.00     0.014 C 
HETATM   29  C30 UNL     1     -12.157   6.893  13.826  1.00  0.00     0.014 C 
ENDBRANCH  25  27
ENDBRANCH  24  25
ENDBRANCH  23  24
BRANCH  23  30
HETATM   30  O1  UNL     1      -8.679   5.358  16.144  1.00  0.00    -0.395 OA
HETATM   31  H6  UNL     1      -9.452   5.797  16.544  1.00  0.00     0.210 HD
ENDBRANCH  23  30
ENDBRANCH  21  23
ENDBRANCH   1  21
BRANCH  15  32
HETATM   32  C23 UNL     1       1.528   7.232   9.062  1.00  0.00     0.148 C 
HETATM   33  O2  UNL     1       0.782   8.137   8.722  1.00  0.00    -0.649 OA
BRANCH  32  34
HETATM   34  O3  UNL     1       2.370   6.695   8.159  1.00  0.00    -0.776 OA
HETATM   35  H34 UNL     1       2.178   7.187   7.333  1.00  0.00     0.167 HD
ENDBRANCH  32  34
ENDBRANCH  15  32
TORSDOF 8
ENDMDL
MODEL 4
REMARK minimizedAffinity -8.56111145
REMARK  8 active torsions:
REMARK  status: ('A' for Active; 'I' for Inactive)
REMARK    1  A    between atoms: C2_2  and  C3_3 
REMARK    2  A    between atoms: C2_2  and  C28_31 
REMARK    3  A    between atoms: C3_3  and  C4_4 
REMARK    4  A    between atoms: C4_4  and  O1_5 
REMARK    5  A    between atoms: C4_4  and  C5_6 
REMARK    6  A    between atoms: C5_6  and  C7_8 
REMARK    7  A    between atoms: C21_22  and  C23_24 
REMARK    8  A    between atoms: C23_24  and  O3_26 
ROOT
HETATM    1  C7  UNL     1      -3.205   7.405  14.265  1.00  0.00     0.001 C 
HETATM    2  C8  UNL     1      -3.669   6.078  13.580  1.00  0.00     0.007 C 
HETATM    3  C9  UNL     1      -2.515   5.591  12.686  1.00  0.00     0.015 C 
HETATM    4  C10 UNL     1      -1.287   6.359  13.195  1.00  0.00    -0.013 C 
HETATM    5  C11 UNL     1      -0.772   5.612  14.468  1.00  0.00     0.021 C 
HETATM    6  C12 UNL     1      -0.063   6.472  12.296  1.00  0.00    -0.068 C 
HETATM    7  C13 UNL     1       0.765   7.543  12.435  1.00  0.00    -0.068 C 
HETATM    8  C14 UNL     1       0.463   8.701  13.378  1.00  0.00     0.036 C 
HETATM    9  C15 UNL     1      -0.855   8.622  14.182  1.00  0.00     0.015 C 
HETATM   10  C16 UNL     1      -1.922   7.787  13.457  1.00  0.00    -0.029 C 
HETATM   11  C17 UNL     1      -2.309   8.523  12.143  1.00  0.00     0.016 C 
HETATM   12  C18 UNL     1       2.014   7.658  11.569  1.00  0.00    -0.015 C 
HETATM   13  C19 UNL     1       1.625   8.492  10.324  1.00  0.00     0.020 C 
HETATM   14  C20 UNL     1       3.291   8.246  12.215  1.00  0.00     0.034 C 
HETATM   15  C21 UNL     1       4.492   7.594  11.464  1.00  0.00     0.043 C 
HETATM   16  C22 UNL     1       5.219   8.603  10.564  1.00  0.00     0.027 C 
HETATM   17  C24 UNL     1       3.882   6.451  10.609  1.00  0.00     0.025 C 
HETATM   18  C25 UNL     1       2.515   6.235  11.250  1.00  0.00    -0.001 C 
HETATM   19  C26 UNL     1       1.482   5.436  10.481  1.00  0.00     0.010 C 
HETATM   20  C27 UNL     1       0.203   5.324  11.328  1.00  0.00     0.036 C 
ENDROOT
BRANCH   1  21
HETATM   21  C5  UNL     1      -4.407   8.363  14.552  1.00  0.00     0.015 C 
HETATM   22  C6  UNL     1      -4.060   9.746  15.128  1.00  0.00     0.013 C 
BRANCH  21  23
HETATM   23  C4  UNL     1      -5.597   7.763  15.350  1.00  0.00     0.126 C 
BRANCH  23  24
HETATM   24  C3  UNL     1      -6.852   7.496  14.496  1.00  0.00     0.065 C 
BRANCH  24  25
HETATM   25  C2  UNL     1      -7.446   6.111  14.729  1.00  0.00    -0.083 C 
HETATM   26  C1  UNL     1      -8.066   5.829  15.889  1.00  0.00     0.015 C 
BRANCH  25  27
HETATM   27  C28 UNL     1      -7.255   5.101  13.602  1.00  0.00     0.005 C 
HETATM   28  C29 UNL     1      -7.469   3.676  14.120  1.00  0.00     0.014 C 
HETATM   29  C30 UNL     1      -8.138   5.353  12.373  1.00  0.00     0.014 C 
ENDBRANCH  25  27
ENDBRANCH  24  25
ENDBRANCH  23  24
BRANCH  23  30
HETATM   30  O1  UNL     1      -5.184   6.573  16.016  1.00  0.00    -0.395 OA
HETATM   31  H6  UNL     1      -5.943   6.266  16.544  1.00  0.00     0.210 HD
ENDBRANCH  23  30
ENDBRANCH  21  23
ENDBRANCH   1  21
BRANCH  15  32
HETATM   32  C23 UNL     1       5.496   7.059  12.484  1.00  0.00     0.148 C 
HETATM   33  O2  UNL     1       5.802   7.581  13.544  1.00  0.00    -0.649 OA
BRANCH  32  34
HETATM   34  O3  UNL     1       6.038   5.874  12.149  1.00  0.00    -0.776 OA
HETATM   35  H34 UNL     1       6.634   5.665  12.899  1.00  0.00     0.167 HD
ENDBRANCH  32  34
ENDBRANCH  15  32
TORSDOF 8
ENDMDL
MODEL 5
REMARK minimizedAffinity -8.46788692
REMARK  8 active torsions:
REMARK  status: ('A' for Active; 'I' for Inactive)
REMARK    1  A    between atoms: C2_2  and  C3_3 
REMARK    2  A    between atoms: C2_2  and  C28_31 
REMARK    3  A    between atoms: C3_3  and  C4_4 
REMARK    4  A    between atoms: C4_4  and  O1_5 
REMARK    5  A    between atoms: C4_4  and  C5_6 
REMARK    6  A    between atoms: C5_6  and  C7_8 
REMARK    7  A    between atoms: C21_22  and  C23_24 
REMARK    8  A    between atoms: C23_24  and  O3_26 
ROOT
HETATM    1  C7  UNL     1      -2.054   6.733  13.122  1.00  0.00     0.001 C 
HETATM    2  C8  UNL     1      -2.213   5.532  12.133  1.00  0.00     0.007 C 
HETATM    3  C9  UNL     1      -0.846   5.296  11.468  1.00  0.00     0.015 C 
HETATM    4  C10 UNL     1       0.151   6.031  12.376  1.00  0.00    -0.013 C 
HETATM    5  C11 UNL     1       0.448   5.092  13.590  1.00  0.00     0.021 C 
HETATM    6  C12 UNL     1       1.525   6.389  11.824  1.00  0.00    -0.068 C 
HETATM    7  C13 UNL     1       2.185   7.464  12.332  1.00  0.00    -0.068 C 
HETATM    8  C14 UNL     1       1.562   8.403  13.358  1.00  0.00     0.036 C 
HETATM    9  C15 UNL     1       0.115   8.091  13.802  1.00  0.00     0.015 C 
HETATM   10  C16 UNL     1      -0.672   7.341  12.716  1.00  0.00    -0.029 C 
HETATM   11  C17 UNL     1      -0.834   8.285  11.491  1.00  0.00     0.016 C 
HETATM   12  C18 UNL     1       3.575   7.820  11.818  1.00  0.00    -0.015 C 
HETATM   13  C19 UNL     1       3.386   8.846  10.675  1.00  0.00     0.020 C 
HETATM   14  C20 UNL     1       4.609   8.355  12.838  1.00  0.00     0.034 C 
HETATM   15  C21 UNL     1       6.008   7.933  12.293  1.00  0.00     0.043 C 
HETATM   16  C22 UNL     1       6.806   9.138  11.774  1.00  0.00     0.027 C 
HETATM   17  C24 UNL     1       5.725   6.934  11.139  1.00  0.00     0.025 C 
HETATM   18  C25 UNL     1       4.282   6.516  11.392  1.00  0.00    -0.001 C 
HETATM   19  C26 UNL     1       3.534   5.812  10.278  1.00  0.00     0.010 C 
HETATM   20  C27 UNL     1       2.118   5.462  10.767  1.00  0.00     0.036 C 
ENDROOT
BRANCH   1  21
HETATM   21  C5  UNL     1      -3.384   7.543  13.273  1.00  0.00     0.015 C 
HETATM   22  C6  UNL     1      -3.248   9.010  13.713  1.00  0.00     0.013 C 
BRANCH  21  23
HETATM   23  C4  UNL     1      -4.517   6.868  14.094  1.00  0.00     0.126 C 
BRANCH  23  24
HETATM   24  C3  UNL     1      -4.813   5.414  13.674  1.00  0.00     0.065 C 
BRANCH  24  25
HETATM   25  C2  UNL     1      -6.270   5.195  13.280  1.00  0.00    -0.083 C 
HETATM   26  C1  UNL     1      -7.208   6.087  13.641  1.00  0.00     0.015 C 
BRANCH  25  27
HETATM   27  C28 UNL     1      -6.569   3.914  12.508  1.00  0.00     0.005 C 
HETATM   28  C29 UNL     1      -5.266   3.237  12.072  1.00  0.00     0.014 C 
HETATM   29  C30 UNL     1      -7.454   2.914  13.262  1.00  0.00     0.014 C 
ENDBRANCH  25  27
ENDBRANCH  24  25
ENDBRANCH  23  24
BRANCH  23  30
HETATM   30  O1  UNL     1      -4.212   6.933  15.486  1.00  0.00    -0.395 OA
HETATM   31  H6  UNL     1      -4.972   6.549  15.959  1.00  0.00     0.210 HD
ENDBRANCH  23  30
ENDBRANCH  21  23
ENDBRANCH   1  21
BRANCH  15  32
HETATM   32  C23 UNL     1       6.812   7.281  13.416  1.00  0.00     0.148 C 
HETATM   33  O2  UNL     1       8.021   7.341  13.575  1.00  0.00    -0.649 OA
BRANCH  32  34
HETATM   34  O3  UNL     1       6.060   6.618  14.315  1.00  0.00    -0.776 OA
HETATM   35  H34 UNL     1       6.710   6.280  14.966  1.00  0.00     0.167 HD
ENDBRANCH  32  34
ENDBRANCH  15  32
TORSDOF 8
ENDMDL
MODEL 6
REMARK minimizedAffinity -8.42932987
REMARK  8 active torsions:
REMARK  status: ('A' for Active; 'I' for Inactive)
REMARK    1  A    between atoms: C2_2  and  C3_3 
REMARK    2  A    between atoms: C2_2  and  C28_31 
REMARK    3  A    between atoms: C3_3  and  C4_4 
REMARK    4  A    between atoms: C4_4  and  O1_5 
REMARK    5  A    between atoms: C4_4  and  C5_6 
REMARK    6  A    between atoms: C5_6  and  C7_8 
REMARK    7  A    between atoms: C21_22  and  C23_24 
REMARK    8  A    between atoms: C23_24  and  O3_26 
ROOT
HETATM    1  C7  UNL     1      -2.525   4.699  13.081  1.00  0.00     0.001 C 
HETATM    2  C8  UNL     1      -2.700   4.341  11.568  1.00  0.00     0.007 C 
HETATM    3  C9  UNL     1      -1.473   4.888  10.819  1.00  0.00     0.015 C 
HETATM    4  C10 UNL     1      -0.433   5.139  11.921  1.00  0.00    -0.013 C 
HETATM    5  C11 UNL     1       0.233   3.763  12.249  1.00  0.00     0.021 C 
HETATM    6  C12 UNL     1       0.736   6.072  11.633  1.00  0.00    -0.068 C 
HETATM    7  C13 UNL     1       1.319   6.743  12.662  1.00  0.00    -0.068 C 
HETATM    8  C14 UNL     1       0.781   6.692  14.088  1.00  0.00     0.036 C 
HETATM    9  C15 UNL     1      -0.487   5.842  14.326  1.00  0.00     0.015 C 
HETATM   10  C16 UNL     1      -1.356   5.736  13.063  1.00  0.00    -0.029 C 
HETATM   11  C17 UNL     1      -1.894   7.155  12.721  1.00  0.00     0.016 C 
HETATM   12  C18 UNL     1       2.512   7.654  12.401  1.00  0.00    -0.015 C 
HETATM   13  C19 UNL     1       1.951   9.080  12.176  1.00  0.00     0.020 C 
HETATM   14  C20 UNL     1       3.638   7.696  13.462  1.00  0.00     0.034 C 
HETATM   15  C21 UNL     1       4.947   8.036  12.685  1.00  0.00     0.043 C 
HETATM   16  C22 UNL     1       5.441   9.456  12.992  1.00  0.00     0.027 C 
HETATM   17  C24 UNL     1       4.590   7.902  11.180  1.00  0.00     0.025 C 
HETATM   18  C25 UNL     1       3.303   7.086  11.204  1.00  0.00    -0.001 C 
HETATM   19  C26 UNL     1       2.459   7.042   9.946  1.00  0.00     0.010 C 
HETATM   20  C27 UNL     1       1.235   6.143  10.193  1.00  0.00     0.036 C 
ENDROOT
BRANCH   1  21
HETATM   21  C5  UNL     1      -3.902   4.908  13.792  1.00  0.00     0.015 C 
HETATM   22  C6  UNL     1      -5.152   4.466  13.012  1.00  0.00     0.013 C 
BRANCH  21  23
HETATM   23  C4  UNL     1      -4.158   6.310  14.410  1.00  0.00     0.126 C 
BRANCH  23  24
HETATM   24  C3  UNL     1      -5.365   7.051  13.799  1.00  0.00     0.065 C 
BRANCH  24  25
HETATM   25  C2  UNL     1      -6.055   7.982  14.791  1.00  0.00    -0.083 C 
HETATM   26  C1  UNL     1      -5.419   9.076  15.244  1.00  0.00     0.015 C 
BRANCH  25  27
HETATM   27  C28 UNL     1      -7.454   7.567  15.236  1.00  0.00     0.005 C 
HETATM   28  C29 UNL     1      -8.065   6.586  14.232  1.00  0.00     0.014 C 
HETATM   29  C30 UNL     1      -7.517   6.979  16.652  1.00  0.00     0.014 C 
ENDBRANCH  25  27
ENDBRANCH  24  25
ENDBRANCH  23  24
BRANCH  23  30
HETATM   30  O1  UNL     1      -4.305   6.199  15.824  1.00  0.00    -0.395 OA
HETATM   31  H6  UNL     1      -4.408   7.104  16.169  1.00  0.00     0.210 HD
ENDBRANCH  23  30
ENDBRANCH  21  23
ENDBRANCH   1  21
BRANCH  15  32
HETATM   32  C23 UNL     1       6.045   7.054  13.092  1.00  0.00     0.148 C 
HETATM   33  O2  UNL     1       6.794   7.157  14.051  1.00  0.00    -0.649 OA
BRANCH  32  34
HETATM   34  O3  UNL     1       6.127   5.966  12.303  1.00  0.00    -0.776 OA
HETATM   35  H34 UNL     1       6.852   5.439  12.700  1.00  0.00     0.167 HD
ENDBRANCH  32  34
ENDBRANCH  15  32
TORSDOF 8
ENDMDL
MODEL 7
REMARK minimizedAffinity -8.42877579
REMARK  8 active torsions:
REMARK  status: ('A' for Active; 'I' for Inactive)
REMARK    1  A    between atoms: C2_2  and  C3_3 
REMARK    2  A    between atoms: C2_2  and  C28_31 
REMARK    3  A    between atoms: C3_3  and  C4_4 
REMARK    4  A    between atoms: C4_4  and  O1_5 
REMARK    5  A    between atoms: C4_4  and  C5_6 
REMARK    6  A    between atoms: C5_6  and  C7_8 
REMARK    7  A    between atoms: C21_22  and  C23_24 
REMARK    8  A    between atoms: C23_24  and  O3_26 
ROOT
HETATM    1  C7  UNL     1      -2.493   7.859  14.986  1.00  0.00     0.001 C 
HETATM    2  C8  UNL     1      -1.474   8.483  15.996  1.00  0.00     0.007 C 
HETATM    3  C9  UNL     1      -0.088   8.458  15.329  1.00  0.00     0.015 C 
HETATM    4  C10 UNL     1      -0.386   8.253  13.837  1.00  0.00    -0.013 C 
HETATM    5  C11 UNL     1      -0.775   9.648  13.248  1.00  0.00     0.021 C 
HETATM    6  C12 UNL     1       0.725   7.749  12.926  1.00  0.00    -0.068 C 
HETATM    7  C13 UNL     1       0.399   7.045  11.808  1.00  0.00    -0.068 C 
HETATM    8  C14 UNL     1      -1.033   6.637  11.480  1.00  0.00     0.036 C 
HETATM    9  C15 UNL     1      -2.125   7.049  12.493  1.00  0.00     0.015 C 
HETATM   10  C16 UNL     1      -1.565   7.198  13.916  1.00  0.00    -0.029 C 
HETATM   11  C17 UNL     1      -1.089   5.798  14.402  1.00  0.00     0.016 C 
HETATM   12  C18 UNL     1       1.494   6.561  10.864  1.00  0.00    -0.015 C 
HETATM   13  C19 UNL     1       1.867   5.125  11.304  1.00  0.00     0.020 C 
HETATM   14  C20 UNL     1       1.202   6.585   9.344  1.00  0.00     0.034 C 
HETATM   15  C21 UNL     1       2.583   6.782   8.646  1.00  0.00     0.043 C 
HETATM   16  C22 UNL     1       3.042   5.510   7.919  1.00  0.00     0.027 C 
HETATM   17  C24 UNL     1       3.579   7.146   9.779  1.00  0.00     0.025 C 
HETATM   18  C25 UNL     1       2.662   7.567  10.921  1.00  0.00    -0.001 C 
HETATM   19  C26 UNL     1       3.250   7.664  12.314  1.00  0.00     0.010 C 
HETATM   20  C27 UNL     1       2.156   8.131  13.290  1.00  0.00     0.036 C 
ENDROOT
BRANCH   1  21
HETATM   21  C5  UNL     1      -3.675   7.143  15.720  1.00  0.00     0.015 C 
HETATM   22  C6  UNL     1      -3.548   5.621  15.902  1.00  0.00     0.013 C 
BRANCH  21  23
HETATM   23  C4  UNL     1      -5.106   7.478  15.219  1.00  0.00     0.126 C 
BRANCH  23  24
HETATM   24  C3  UNL     1      -5.362   7.085  13.749  1.00  0.00     0.065 C 
BRANCH  24  25
HETATM   25  C2  UNL     1      -6.502   6.085  13.591  1.00  0.00    -0.083 C 
HETATM   26  C1  UNL     1      -7.779   6.494  13.700  1.00  0.00     0.015 C 
BRANCH  25  27
HETATM   27  C28 UNL     1      -6.093   4.636  13.347  1.00  0.00     0.005 C 
HETATM   28  C29 UNL     1      -7.156   3.914  12.514  1.00  0.00     0.014 C 
HETATM   29  C30 UNL     1      -4.713   4.471  12.696  1.00  0.00     0.014 C 
ENDBRANCH  25  27
ENDBRANCH  24  25
ENDBRANCH  23  24
BRANCH  23  30
HETATM   30  O1  UNL     1      -6.074   6.872  16.073  1.00  0.00    -0.395 OA
HETATM   31  H6  UNL     1      -6.949   7.153  15.752  1.00  0.00     0.210 HD
ENDBRANCH  23  30
ENDBRANCH  21  23
ENDBRANCH   1  21
BRANCH  15  32
HETATM   32  C23 UNL     1       2.471   7.904   7.615  1.00  0.00     0.148 C 
HETATM   33  O2  UNL     1       3.069   8.968   7.631  1.00  0.00    -0.649 OA
BRANCH  32  34
HETATM   34  O3  UNL     1       1.647   7.624   6.587  1.00  0.00    -0.776 OA
HETATM   35  H34 UNL     1       1.699   8.420   6.018  1.00  0.00     0.167 HD
ENDBRANCH  32  34
ENDBRANCH  15  32
TORSDOF 8
ENDMDL
MODEL 8
REMARK minimizedAffinity -8.19072723
REMARK  8 active torsions:
REMARK  status: ('A' for Active; 'I' for Inactive)
REMARK    1  A    between atoms: C2_2  and  C3_3 
REMARK    2  A    between atoms: C2_2  and  C28_31 
REMARK    3  A    between atoms: C3_3  and  C4_4 
REMARK    4  A    between atoms: C4_4  and  O1_5 
REMARK    5  A    between atoms: C4_4  and  C5_6 
REMARK    6  A    between atoms: C5_6  and  C7_8 
REMARK    7  A    between atoms: C21_22  and  C23_24 
REMARK    8  A    between atoms: C23_24  and  O3_26 
ROOT
HETATM    1  C7  UNL     1      -2.348   6.072  13.568  1.00  0.00     0.001 C 
HETATM    2  C8  UNL     1      -2.212   5.582  12.088  1.00  0.00     0.007 C 
HETATM    3  C9  UNL     1      -0.819   6.003  11.588  1.00  0.00     0.015 C 
HETATM    4  C10 UNL     1      -0.030   6.310  12.868  1.00  0.00    -0.013 C 
HETATM    5  C11 UNL     1       0.461   4.944  13.447  1.00  0.00     0.021 C 
HETATM    6  C12 UNL     1       1.230   7.160  12.772  1.00  0.00    -0.068 C 
HETATM    7  C13 UNL     1       1.617   7.899  13.847  1.00  0.00    -0.068 C 
HETATM    8  C14 UNL     1       0.780   8.004  15.117  1.00  0.00     0.036 C 
HETATM    9  C15 UNL     1      -0.560   7.236  15.137  1.00  0.00     0.015 C 
HETATM   10  C16 UNL     1      -1.139   7.051  13.725  1.00  0.00    -0.029 C 
HETATM   11  C17 UNL     1      -1.500   8.454  13.158  1.00  0.00     0.016 C 
HETATM   12  C18 UNL     1       2.893   8.729  13.783  1.00  0.00    -0.015 C 
HETATM   13  C19 UNL     1       2.485  10.150  13.325  1.00  0.00     0.020 C 
HETATM   14  C20 UNL     1       3.762   8.820  15.061  1.00  0.00     0.034 C 
HETATM   15  C21 UNL     1       5.227   9.029  14.569  1.00  0.00     0.043 C 
HETATM   16  C22 UNL     1       5.731  10.449  14.862  1.00  0.00     0.027 C 
HETATM   17  C24 UNL     1       5.198   8.771  13.039  1.00  0.00     0.025 C 
HETATM   18  C25 UNL     1       3.887   8.017  12.842  1.00  0.00    -0.001 C 
HETATM   19  C26 UNL     1       3.336   7.893  11.437  1.00  0.00     0.010 C 
HETATM   20  C27 UNL     1       2.034   7.075  11.479  1.00  0.00     0.036 C 
ENDROOT
BRANCH   1  21
HETATM   21  C5  UNL     1      -3.830   6.406  13.936  1.00  0.00     0.015 C 
HETATM   22  C6  UNL     1      -4.201   6.330  15.427  1.00  0.00     0.013 C 
BRANCH  21  23
HETATM   23  C4  UNL     1      -4.930   5.692  13.102  1.00  0.00     0.126 C 
BRANCH  23  24
HETATM   24  C3  UNL     1      -4.997   4.169  13.331  1.00  0.00     0.065 C 
BRANCH  24  25
HETATM   25  C2  UNL     1      -6.189   3.516  12.638  1.00  0.00    -0.083 C 
HETATM   26  C1  UNL     1      -7.395   3.508  13.233  1.00  0.00     0.015 C 
BRANCH  25  27
HETATM   27  C28 UNL     1      -5.904   2.866  11.287  1.00  0.00     0.005 C 
HETATM   28  C29 UNL     1      -4.506   3.249  10.795  1.00  0.00     0.014 C 
HETATM   29  C30 UNL     1      -6.068   1.341  11.274  1.00  0.00     0.014 C 
ENDBRANCH  25  27
ENDBRANCH  24  25
ENDBRANCH  23  24
BRANCH  23  30
HETATM   30  O1  UNL     1      -6.198   6.292  13.357  1.00  0.00    -0.395 OA
HETATM   31  H6  UNL     1      -6.841   5.849  12.774  1.00  0.00     0.210 HD
ENDBRANCH  23  30
ENDBRANCH  21  23
ENDBRANCH   1  21
BRANCH  15  32
HETATM   32  C23 UNL     1       6.146   8.042  15.288  1.00  0.00     0.148 C 
HETATM   33  O2  UNL     1       6.848   8.277  16.259  1.00  0.00    -0.649 OA
BRANCH  32  34
HETATM   34  O3  UNL     1       6.113   6.795  14.783  1.00  0.00    -0.776 OA
HETATM   35  H34 UNL     1       6.731   6.291  15.354  1.00  0.00     0.167 HD
ENDBRANCH  32  34
ENDBRANCH  15  32
TORSDOF 8
ENDMDL
MODEL 9
REMARK minimizedAffinity -8.0949831
REMARK  8 active torsions:
REMARK  status: ('A' for Active; 'I' for Inactive)
REMARK    1  A    between atoms: C2_2  and  C3_3 
REMARK    2  A    between atoms: C2_2  and  C28_31 
REMARK    3  A    between atoms: C3_3  and  C4_4 
REMARK    4  A    between atoms: C4_4  and  O1_5 
REMARK    5  A    between atoms: C4_4  and  C5_6 
REMARK    6  A    between atoms: C5_6  and  C7_8 
REMARK    7  A    between atoms: C21_22  and  C23_24 
REMARK    8  A    between atoms: C23_24  and  O3_26 
ROOT
HETATM    1  C7  UNL     1      -3.382   5.714  12.966  1.00  0.00     0.001 C 
HETATM    2  C8  UNL     1      -4.453   5.379  14.056  1.00  0.00     0.007 C 
HETATM    3  C9  UNL     1      -4.562   6.599  14.987  1.00  0.00     0.015 C 
HETATM    4  C10 UNL     1      -3.919   7.744  14.193  1.00  0.00    -0.013 C 
HETATM    5  C11 UNL     1      -4.994   8.269  13.187  1.00  0.00     0.021 C 
HETATM    6  C12 UNL     1      -3.453   8.988  14.939  1.00  0.00    -0.068 C 
HETATM    7  C13 UNL     1      -2.431   9.725  14.427  1.00  0.00    -0.068 C 
HETATM    8  C14 UNL     1      -1.648   9.300  13.190  1.00  0.00     0.036 C 
HETATM    9  C15 UNL     1      -2.057   7.965  12.530  1.00  0.00     0.015 C 
HETATM   10  C16 UNL     1      -2.687   6.992  13.539  1.00  0.00    -0.029 C 
HETATM   11  C17 UNL     1      -1.601   6.598  14.580  1.00  0.00     0.016 C 
HETATM   12  C18 UNL     1      -1.973  10.992  15.139  1.00  0.00    -0.015 C 
HETATM   13  C19 UNL     1      -0.816  10.586  16.085  1.00  0.00     0.020 C 
HETATM   14  C20 UNL     1      -1.539  12.196  14.268  1.00  0.00     0.034 C 
HETATM   15  C21 UNL     1      -1.847  13.470  15.113  1.00  0.00     0.043 C 
HETATM   16  C22 UNL     1      -0.564  14.150  15.611  1.00  0.00     0.027 C 
HETATM   17  C24 UNL     1      -2.701  12.982  16.314  1.00  0.00     0.025 C 
HETATM   18  C25 UNL     1      -3.190  11.614  15.854  1.00  0.00    -0.001 C 
HETATM   19  C26 UNL     1      -3.770  10.674  16.892  1.00  0.00     0.010 C 
HETATM   20  C27 UNL     1      -4.221   9.377  16.198  1.00  0.00     0.036 C 
ENDROOT
BRANCH   1  21
HETATM   21  C5  UNL     1      -2.638   4.432  12.468  1.00  0.00     0.015 C 
HETATM   22  C6  UNL     1      -1.539   4.642  11.414  1.00  0.00     0.013 C 
BRANCH  21  23
HETATM   23  C4  UNL     1      -3.531   3.235  12.039  1.00  0.00     0.126 C 
BRANCH  23  24
HETATM   24  C3  UNL     1      -4.884   3.652  11.427  1.00  0.00     0.065 C 
BRANCH  24  25
HETATM   25  C2  UNL     1      -6.003   2.662  11.729  1.00  0.00    -0.083 C 
HETATM   26  C1  UNL     1      -5.821   1.348  11.510  1.00  0.00     0.015 C 
BRANCH  25  27
HETATM   27  C28 UNL     1      -7.307   3.264  12.246  1.00  0.00     0.005 C 
HETATM   28  C29 UNL     1      -7.588   2.784  13.672  1.00  0.00     0.014 C 
HETATM   29  C30 UNL     1      -7.363   4.795  12.184  1.00  0.00     0.014 C 
ENDBRANCH  25  27
ENDBRANCH  24  25
ENDBRANCH  23  24
BRANCH  23  30
HETATM   30  O1  UNL     1      -2.815   2.392  11.140  1.00  0.00    -0.395 OA
HETATM   31  H6  UNL     1      -3.392   1.632  10.944  1.00  0.00     0.210 HD
ENDBRANCH  23  30
ENDBRANCH  21  23
ENDBRANCH   1  21
BRANCH  15  32
HETATM   32  C23 UNL     1      -2.612  14.474  14.252  1.00  0.00     0.148 C 
HETATM   33  O2  UNL     1      -2.540  14.595  13.039  1.00  0.00    -0.649 OA
BRANCH  32  34
HETATM   34  O3  UNL     1      -3.463  15.254  14.945  1.00  0.00    -0.776 OA
HETATM   35  H34 UNL     1      -3.879  15.818  14.259  1.00  0.00     0.167 HD
ENDBRANCH  32  34
ENDBRANCH  15  32
TORSDOF 8
ENDMDL
