MODEL 1
REMARK minimizedAffinity -8.04368782
REMARK  12 active torsions:
REMARK  status: ('A' for Active; 'I' for Inactive)
REMARK    1  A    between atoms: C2_2  and  C3_3 
REMARK    2  A    between atoms: C3_3  and  O1_4 
REMARK    3  A    between atoms: C3_3  and  C5_6 
REMARK    4  A    between atoms: C5_6  and  C7_8 
REMARK    5  A    between atoms: C8_10  and  C10_12 
REMARK    6  A    between atoms: C10_12  and  C11_13 
REMARK    7  A    between atoms: C11_13  and  C13_15 
REMARK    8  A    between atoms: C14_16  and  C15_17 
REMARK    9  A    between atoms: C16_18  and  C18_20 
REMARK   10  A    between atoms: C19_22  and  C20_23 
REMARK   11  A    between atoms: C20_23  and  C21_24 
REMARK   12  A    between atoms: C21_24  and  O5_26 
ROOT
HETATM    1  C13 UNL     1      -4.692  48.904 -25.348  1.00  0.00    -0.022 C 
HETATM    2  C14 UNL     1      -3.948  48.459 -26.373  1.00  0.00    -0.003 C 
ENDROOT
BRANCH   2   3
HETATM    3  C15 UNL     1      -4.461  48.336 -27.721  1.00  0.00     0.005 C 
HETATM    4  C16 UNL     1      -5.672  47.872 -28.097  1.00  0.00    -0.055 C 
HETATM    5  C17 UNL     1      -6.746  47.413 -27.136  1.00  0.00     0.046 C 
BRANCH   4   6
HETATM    6  C18 UNL     1      -6.126  47.780 -29.556  1.00  0.00     0.154 C 
HETATM    7  O3  UNL     1      -4.980  47.272 -30.265  1.00  0.00    -0.375 OA
HETATM    8  C19 UNL     1      -5.252  46.985 -31.636  1.00  0.00     0.132 C 
HETATM    9  C22 UNL     1      -6.161  45.752 -31.712  1.00  0.00     0.033 C 
HETATM   10  C23 UNL     1      -7.062  45.608 -30.486  1.00  0.00     0.009 C 
HETATM   11  C24 UNL     1      -7.414  46.956 -29.853  1.00  0.00     0.015 C 
HETATM   12  C25 UNL     1      -8.386  47.742 -30.749  1.00  0.00     0.012 C 
BRANCH   8  13
HETATM   13  C20 UNL     1      -3.928  46.731 -32.356  1.00  0.00     0.141 C 
BRANCH  13  14
HETATM   14  C21 UNL     1      -3.767  47.648 -33.535  1.00  0.00     0.141 C 
HETATM   15  O4  UNL     1      -4.610  47.951 -34.364  1.00  0.00    -0.650 OA
BRANCH  14  16
HETATM   16  O5  UNL     1      -2.500  48.092 -33.662  1.00  0.00    -0.776 OA
HETATM   17  H34 UNL     1      -2.528  48.662 -34.458  1.00  0.00     0.167 HD
ENDBRANCH  14  16
ENDBRANCH  13  14
ENDBRANCH   8  13
ENDBRANCH   4   6
ENDBRANCH   2   3
BRANCH   1  18
HETATM   18  C11 UNL     1      -4.213  49.050 -23.918  1.00  0.00     0.007 C 
HETATM   19  C12 UNL     1      -4.609  47.824 -23.081  1.00  0.00     0.014 C 
BRANCH  18  20
HETATM   20  C10 UNL     1      -2.693  49.305 -23.810  1.00  0.00     0.048 C 
BRANCH  20  21
HETATM   21  C8  UNL     1      -2.286  50.744 -24.058  1.00  0.00     0.085 A 
HETATM   22  C7  UNL     1      -1.354  51.014 -25.247  1.00  0.00     0.163 A 
HETATM   23  O2  UNL     1      -0.882  50.984 -23.893  1.00  0.00    -0.369 OA
HETATM   24  C9  UNL     1      -3.149  51.819 -23.470  1.00  0.00     0.049 C 
BRANCH  22  25
HETATM   25  C5  UNL     1      -1.201  52.349 -25.936  1.00  0.00     0.042 C 
HETATM   26  C6  UNL     1      -2.139  52.428 -27.144  1.00  0.00     0.015 C 
BRANCH  25  27
HETATM   27  C3  UNL     1       0.277  52.651 -26.334  1.00  0.00     0.126 C 
BRANCH  27  28
HETATM   28  C2  UNL     1       1.276  51.544 -25.943  1.00  0.00     0.028 C 
HETATM   29  C1  UNL     1       2.532  51.568 -26.810  1.00  0.00     0.007 C 
ENDBRANCH  27  28
BRANCH  27  30
HETATM   30  O1  UNL     1       0.749  53.875 -25.751  1.00  0.00    -0.390 OA
HETATM   31  C4  UNL     1       0.777  53.866 -24.330  1.00  0.00     0.202 C 
ENDBRANCH  27  30
ENDBRANCH  25  27
ENDBRANCH  22  25
ENDBRANCH  20  21
ENDBRANCH  18  20
ENDBRANCH   1  18
TORSDOF 12
ENDMDL
MODEL 2
REMARK minimizedAffinity -7.8662076
REMARK  12 active torsions:
REMARK  status: ('A' for Active; 'I' for Inactive)
REMARK    1  A    between atoms: C2_2  and  C3_3 
REMARK    2  A    between atoms: C3_3  and  O1_4 
REMARK    3  A    between atoms: C3_3  and  C5_6 
REMARK    4  A    between atoms: C5_6  and  C7_8 
REMARK    5  A    between atoms: C8_10  and  C10_12 
REMARK    6  A    between atoms: C10_12  and  C11_13 
REMARK    7  A    between atoms: C11_13  and  C13_15 
REMARK    8  A    between atoms: C14_16  and  C15_17 
REMARK    9  A    between atoms: C16_18  and  C18_20 
REMARK   10  A    between atoms: C19_22  and  C20_23 
REMARK   11  A    between atoms: C20_23  and  C21_24 
REMARK   12  A    between atoms: C21_24  and  O5_26 
ROOT
HETATM    1  C13 UNL     1      -4.562  48.319 -26.542  1.00  0.00    -0.022 C 
HETATM    2  C14 UNL     1      -4.599  48.195 -27.879  1.00  0.00    -0.003 C 
ENDROOT
BRANCH   2   3
HETATM    3  C15 UNL     1      -5.768  47.724 -28.591  1.00  0.00     0.005 C 
HETATM    4  C16 UNL     1      -6.951  47.343 -28.063  1.00  0.00    -0.055 C 
HETATM    5  C17 UNL     1      -7.276  47.373 -26.586  1.00  0.00     0.046 C 
BRANCH   4   6
HETATM    6  C18 UNL     1      -8.135  46.857 -28.904  1.00  0.00     0.154 C 
HETATM    7  O3  UNL     1      -9.289  47.075 -28.071  1.00  0.00    -0.375 OA
HETATM    8  C19 UNL     1     -10.521  46.807 -28.740  1.00  0.00     0.132 C 
HETATM    9  C22 UNL     1     -10.760  47.899 -29.791  1.00  0.00     0.033 C 
HETATM   10  C23 UNL     1      -9.459  48.487 -30.336  1.00  0.00     0.009 C 
HETATM   11  C24 UNL     1      -8.307  47.479 -30.322  1.00  0.00     0.015 C 
HETATM   12  C25 UNL     1      -8.520  46.391 -31.387  1.00  0.00     0.012 C 
BRANCH   8  13
HETATM   13  C20 UNL     1     -11.646  46.790 -27.707  1.00  0.00     0.141 C 
BRANCH  13  14
HETATM   14  C21 UNL     1     -11.650  48.050 -26.888  1.00  0.00     0.141 C 
HETATM   15  O4  UNL     1     -10.978  48.300 -25.901  1.00  0.00    -0.650 OA
BRANCH  14  16
HETATM   16  O5  UNL     1     -12.580  48.929 -27.317  1.00  0.00    -0.776 OA
HETATM   17  H34 UNL     1     -12.486  49.688 -26.705  1.00  0.00     0.167 HD
ENDBRANCH  14  16
ENDBRANCH  13  14
ENDBRANCH   8  13
ENDBRANCH   4   6
ENDBRANCH   2   3
BRANCH   1  18
HETATM   18  C11 UNL     1      -3.368  48.801 -25.742  1.00  0.00     0.007 C 
HETATM   19  C12 UNL     1      -2.256  49.309 -26.671  1.00  0.00     0.014 C 
BRANCH  18  20
HETATM   20  C10 UNL     1      -3.733  49.881 -24.699  1.00  0.00     0.048 C 
BRANCH  20  21
HETATM   21  C8  UNL     1      -2.781  51.060 -24.667  1.00  0.00     0.085 A 
HETATM   22  C7  UNL     1      -1.391  50.822 -24.062  1.00  0.00     0.163 A 
HETATM   23  O2  UNL     1      -2.437  51.489 -23.343  1.00  0.00    -0.369 OA
HETATM   24  C9  UNL     1      -3.050  52.193 -25.611  1.00  0.00     0.049 C 
BRANCH  22  25
HETATM   25  C5  UNL     1      -0.175  51.675 -24.336  1.00  0.00     0.042 C 
HETATM   26  C6  UNL     1      -0.249  52.972 -23.523  1.00  0.00     0.015 C 
BRANCH  25  27
HETATM   27  C3  UNL     1       0.028  51.959 -25.856  1.00  0.00     0.126 C 
BRANCH  27  28
HETATM   28  C2  UNL     1       0.969  50.964 -26.565  1.00  0.00     0.028 C 
HETATM   29  C1  UNL     1       2.439  51.331 -26.384  1.00  0.00     0.007 C 
ENDBRANCH  27  28
BRANCH  27  30
HETATM   30  O1  UNL     1       0.548  53.276 -26.090  1.00  0.00    -0.390 OA
HETATM   31  C4  UNL     1      -0.068  53.958 -27.175  1.00  0.00     0.202 C 
ENDBRANCH  27  30
ENDBRANCH  25  27
ENDBRANCH  22  25
ENDBRANCH  20  21
ENDBRANCH  18  20
ENDBRANCH   1  18
TORSDOF 12
ENDMDL
MODEL 3
REMARK minimizedAffinity -7.7591362
REMARK  12 active torsions:
REMARK  status: ('A' for Active; 'I' for Inactive)
REMARK    1  A    between atoms: C2_2  and  C3_3 
REMARK    2  A    between atoms: C3_3  and  O1_4 
REMARK    3  A    between atoms: C3_3  and  C5_6 
REMARK    4  A    between atoms: C5_6  and  C7_8 
REMARK    5  A    between atoms: C8_10  and  C10_12 
REMARK    6  A    between atoms: C10_12  and  C11_13 
REMARK    7  A    between atoms: C11_13  and  C13_15 
REMARK    8  A    between atoms: C14_16  and  C15_17 
REMARK    9  A    between atoms: C16_18  and  C18_20 
REMARK   10  A    between atoms: C19_22  and  C20_23 
REMARK   11  A    between atoms: C20_23  and  C21_24 
REMARK   12  A    between atoms: C21_24  and  O5_26 
ROOT
HETATM    1  C13 UNL     1      -1.510  50.509 -26.918  1.00  0.00    -0.022 C 
HETATM    2  C14 UNL     1      -2.479  49.593 -26.768  1.00  0.00    -0.003 C 
ENDROOT
BRANCH   2   3
HETATM    3  C15 UNL     1      -3.426  49.273 -27.815  1.00  0.00     0.005 C 
HETATM    4  C16 UNL     1      -4.590  48.598 -27.689  1.00  0.00    -0.055 C 
HETATM    5  C17 UNL     1      -5.131  48.068 -26.380  1.00  0.00     0.046 C 
BRANCH   4   6
HETATM    6  C18 UNL     1      -5.530  48.308 -28.861  1.00  0.00     0.154 C 
HETATM    7  O3  UNL     1      -4.729  47.563 -29.798  1.00  0.00    -0.375 OA
HETATM    8  C19 UNL     1      -5.476  47.077 -30.912  1.00  0.00     0.132 C 
HETATM    9  C22 UNL     1      -6.407  45.957 -30.432  1.00  0.00     0.033 C 
HETATM   10  C23 UNL     1      -6.826  46.124 -28.972  1.00  0.00     0.009 C 
HETATM   11  C24 UNL     1      -6.875  47.591 -28.539  1.00  0.00     0.015 C 
HETATM   12  C25 UNL     1      -8.064  48.314 -29.193  1.00  0.00     0.012 C 
BRANCH   8  13
HETATM   13  C20 UNL     1      -4.501  46.560 -31.969  1.00  0.00     0.141 C 
BRANCH  13  14
HETATM   14  C21 UNL     1      -4.354  47.543 -33.097  1.00  0.00     0.141 C 
HETATM   15  O4  UNL     1      -5.218  47.931 -33.865  1.00  0.00    -0.650 OA
BRANCH  14  16
HETATM   16  O5  UNL     1      -3.075  47.942 -33.256  1.00  0.00    -0.776 OA
HETATM   17  H34 UNL     1      -3.113  48.561 -34.013  1.00  0.00     0.167 HD
ENDBRANCH  14  16
ENDBRANCH  13  14
ENDBRANCH   8  13
ENDBRANCH   4   6
ENDBRANCH   2   3
BRANCH   1  18
HETATM   18  C11 UNL     1      -0.494  50.890 -25.859  1.00  0.00     0.007 C 
HETATM   19  C12 UNL     1       0.919  50.962 -26.457  1.00  0.00     0.014 C 
BRANCH  18  20
HETATM   20  C10 UNL     1      -0.840  52.209 -25.134  1.00  0.00     0.048 C 
BRANCH  20  21
HETATM   21  C8  UNL     1      -1.481  52.020 -23.773  1.00  0.00     0.085 A 
HETATM   22  C7  UNL     1      -0.549  51.703 -22.596  1.00  0.00     0.163 A 
HETATM   23  O2  UNL     1      -1.336  50.695 -23.245  1.00  0.00    -0.369 OA
HETATM   24  C9  UNL     1      -2.849  52.599 -23.567  1.00  0.00     0.049 C 
BRANCH  22  25
HETATM   25  C5  UNL     1      -0.891  51.928 -21.142  1.00  0.00     0.042 C 
HETATM   26  C6  UNL     1       0.070  52.950 -20.528  1.00  0.00     0.015 C 
BRANCH  25  27
HETATM   27  C3  UNL     1      -0.920  50.601 -20.322  1.00  0.00     0.126 C 
BRANCH  27  28
HETATM   28  C2  UNL     1      -0.880  49.324 -21.185  1.00  0.00     0.028 C 
HETATM   29  C1  UNL     1      -1.068  48.059 -20.352  1.00  0.00     0.007 C 
ENDBRANCH  27  28
BRANCH  27  30
HETATM   30  O1  UNL     1      -2.085  50.513 -19.488  1.00  0.00    -0.390 OA
HETATM   31  C4  UNL     1      -3.262  51.047 -20.079  1.00  0.00     0.202 C 
ENDBRANCH  27  30
ENDBRANCH  25  27
ENDBRANCH  22  25
ENDBRANCH  20  21
ENDBRANCH  18  20
ENDBRANCH   1  18
TORSDOF 12
ENDMDL
MODEL 4
REMARK minimizedAffinity -7.69075489
REMARK  12 active torsions:
REMARK  status: ('A' for Active; 'I' for Inactive)
REMARK    1  A    between atoms: C2_2  and  C3_3 
REMARK    2  A    between atoms: C3_3  and  O1_4 
REMARK    3  A    between atoms: C3_3  and  C5_6 
REMARK    4  A    between atoms: C5_6  and  C7_8 
REMARK    5  A    between atoms: C8_10  and  C10_12 
REMARK    6  A    between atoms: C10_12  and  C11_13 
REMARK    7  A    between atoms: C11_13  and  C13_15 
REMARK    8  A    between atoms: C14_16  and  C15_17 
REMARK    9  A    between atoms: C16_18  and  C18_20 
REMARK   10  A    between atoms: C19_22  and  C20_23 
REMARK   11  A    between atoms: C20_23  and  C21_24 
REMARK   12  A    between atoms: C21_24  and  O5_26 
ROOT
HETATM    1  C13 UNL     1      -3.085  49.619 -27.025  1.00  0.00    -0.022 C 
HETATM    2  C14 UNL     1      -4.063  48.708 -27.153  1.00  0.00    -0.003 C 
ENDROOT
BRANCH   2   3
HETATM    3  C15 UNL     1      -4.596  48.303 -28.436  1.00  0.00     0.005 C 
HETATM    4  C16 UNL     1      -5.802  47.747 -28.684  1.00  0.00    -0.055 C 
HETATM    5  C17 UNL     1      -6.847  47.469 -27.626  1.00  0.00     0.046 C 
BRANCH   4   6
HETATM    6  C18 UNL     1      -6.279  47.351 -30.083  1.00  0.00     0.154 C 
HETATM    7  O3  UNL     1      -5.070  47.105 -30.826  1.00  0.00    -0.375 OA
HETATM    8  C19 UNL     1      -5.312  46.586 -32.133  1.00  0.00     0.132 C 
HETATM    9  C22 UNL     1      -5.827  45.147 -32.006  1.00  0.00     0.033 C 
HETATM   10  C23 UNL     1      -6.588  44.906 -30.703  1.00  0.00     0.009 C 
HETATM   11  C24 UNL     1      -7.285  46.167 -30.187  1.00  0.00     0.015 C 
HETATM   12  C25 UNL     1      -8.485  46.529 -31.078  1.00  0.00     0.012 C 
BRANCH   8  13
HETATM   13  C20 UNL     1      -4.008  46.629 -32.928  1.00  0.00     0.141 C 
BRANCH  13  14
HETATM   14  C21 UNL     1      -3.949  47.847 -33.806  1.00  0.00     0.141 C 
HETATM   15  O4  UNL     1      -4.842  48.315 -34.493  1.00  0.00    -0.650 OA
BRANCH  14  16
HETATM   16  O5  UNL     1      -2.714  48.389 -33.838  1.00  0.00    -0.776 OA
HETATM   17  H34 UNL     1      -2.807  49.155 -34.440  1.00  0.00     0.167 HD
ENDBRANCH  14  16
ENDBRANCH  13  14
ENDBRANCH   8  13
ENDBRANCH   4   6
ENDBRANCH   2   3
BRANCH   1  18
HETATM   18  C11 UNL     1      -2.491  50.086 -25.711  1.00  0.00     0.007 C 
HETATM   19  C12 UNL     1      -3.041  49.260 -24.538  1.00  0.00     0.014 C 
BRANCH  18  20
HETATM   20  C10 UNL     1      -0.947  50.069 -25.703  1.00  0.00     0.048 C 
BRANCH  20  21
HETATM   21  C8  UNL     1      -0.314  51.347 -25.191  1.00  0.00     0.085 A 
HETATM   22  C7  UNL     1      -0.777  51.859 -23.820  1.00  0.00     0.163 A 
HETATM   23  O2  UNL     1      -1.239  52.434 -25.050  1.00  0.00    -0.369 OA
HETATM   24  C9  UNL     1       1.000  51.755 -25.785  1.00  0.00     0.049 C 
BRANCH  22  25
HETATM   25  C5  UNL     1       0.009  52.803 -22.942  1.00  0.00     0.042 C 
HETATM   26  C6  UNL     1       0.793  53.795 -23.806  1.00  0.00     0.015 C 
BRANCH  25  27
HETATM   27  C3  UNL     1       0.940  52.053 -21.939  1.00  0.00     0.126 C 
BRANCH  27  28
HETATM   28  C2  UNL     1       0.237  50.940 -21.136  1.00  0.00     0.028 C 
HETATM   29  C1  UNL     1      -0.934  51.473 -20.315  1.00  0.00     0.007 C 
ENDBRANCH  27  28
BRANCH  27  30
HETATM   30  O1  UNL     1       1.537  52.950 -20.990  1.00  0.00    -0.390 OA
HETATM   31  C4  UNL     1       0.711  54.051 -20.636  1.00  0.00     0.202 C 
ENDBRANCH  27  30
ENDBRANCH  25  27
ENDBRANCH  22  25
ENDBRANCH  20  21
ENDBRANCH  18  20
ENDBRANCH   1  18
TORSDOF 12
ENDMDL
MODEL 5
REMARK minimizedAffinity -7.65208054
REMARK  12 active torsions:
REMARK  status: ('A' for Active; 'I' for Inactive)
REMARK    1  A    between atoms: C2_2  and  C3_3 
REMARK    2  A    between atoms: C3_3  and  O1_4 
REMARK    3  A    between atoms: C3_3  and  C5_6 
REMARK    4  A    between atoms: C5_6  and  C7_8 
REMARK    5  A    between atoms: C8_10  and  C10_12 
REMARK    6  A    between atoms: C10_12  and  C11_13 
REMARK    7  A    between atoms: C11_13  and  C13_15 
REMARK    8  A    between atoms: C14_16  and  C15_17 
REMARK    9  A    between atoms: C16_18  and  C18_20 
REMARK   10  A    between atoms: C19_22  and  C20_23 
REMARK   11  A    between atoms: C20_23  and  C21_24 
REMARK   12  A    between atoms: C21_24  and  O5_26 
ROOT
HETATM    1  C13 UNL     1      -3.003  48.532 -27.040  1.00  0.00    -0.022 C 
HETATM    2  C14 UNL     1      -4.329  48.505 -27.252  1.00  0.00    -0.003 C 
ENDROOT
BRANCH   2   3
HETATM    3  C15 UNL     1      -4.921  47.941 -28.446  1.00  0.00     0.005 C 
HETATM    4  C16 UNL     1      -6.176  47.462 -28.590  1.00  0.00    -0.055 C 
HETATM    5  C17 UNL     1      -7.220  47.460 -27.495  1.00  0.00     0.046 C 
BRANCH   4   6
HETATM    6  C18 UNL     1      -6.715  46.883 -29.901  1.00  0.00     0.154 C 
HETATM    7  O3  UNL     1      -5.543  46.637 -30.701  1.00  0.00    -0.375 OA
HETATM    8  C19 UNL     1      -5.832  45.961 -31.925  1.00  0.00     0.132 C 
HETATM    9  C22 UNL     1      -6.229  44.514 -31.608  1.00  0.00     0.033 C 
HETATM   10  C23 UNL     1      -6.882  44.369 -30.234  1.00  0.00     0.009 C 
HETATM   11  C24 UNL     1      -7.635  45.630 -29.804  1.00  0.00     0.015 C 
HETATM   12  C25 UNL     1      -8.915  45.811 -30.637  1.00  0.00     0.012 C 
BRANCH   8  13
HETATM   13  C20 UNL     1      -4.591  46.004 -32.814  1.00  0.00     0.141 C 
BRANCH  13  14
HETATM   14  C21 UNL     1      -4.434  47.350 -33.462  1.00  0.00     0.141 C 
HETATM   15  O4  UNL     1      -5.241  47.939 -34.162  1.00  0.00    -0.650 OA
BRANCH  14  16
HETATM   16  O5  UNL     1      -3.207  47.872 -33.255  1.00  0.00    -0.776 OA
HETATM   17  H34 UNL     1      -3.232  48.729 -33.727  1.00  0.00     0.167 HD
ENDBRANCH  14  16
ENDBRANCH  13  14
ENDBRANCH   8  13
ENDBRANCH   4   6
ENDBRANCH   2   3
BRANCH   1  18
HETATM   18  C11 UNL     1      -2.325  49.113 -25.815  1.00  0.00     0.007 C 
HETATM   19  C12 UNL     1      -1.479  50.339 -26.187  1.00  0.00     0.014 C 
BRANCH  18  20
HETATM   20  C10 UNL     1      -3.316  49.467 -24.684  1.00  0.00     0.048 C 
BRANCH  20  21
HETATM   21  C8  UNL     1      -2.988  50.752 -23.951  1.00  0.00     0.085 A 
HETATM   22  C7  UNL     1      -1.722  50.761 -23.084  1.00  0.00     0.163 A 
HETATM   23  O2  UNL     1      -3.035  50.630 -22.522  1.00  0.00    -0.369 OA
HETATM   24  C9  UNL     1      -3.606  52.018 -24.462  1.00  0.00     0.049 C 
BRANCH  22  25
HETATM   25  C5  UNL     1      -0.978  52.004 -22.658  1.00  0.00     0.042 C 
HETATM   26  C6  UNL     1       0.123  52.332 -23.672  1.00  0.00     0.015 C 
BRANCH  25  27
HETATM   27  C3  UNL     1      -0.412  51.896 -21.208  1.00  0.00     0.126 C 
BRANCH  27  28
HETATM   28  C2  UNL     1       0.923  52.638 -20.994  1.00  0.00     0.028 C 
HETATM   29  C1  UNL     1       0.773  53.838 -20.063  1.00  0.00     0.007 C 
ENDBRANCH  27  28
BRANCH  27  30
HETATM   30  O1  UNL     1      -0.207  50.531 -20.814  1.00  0.00    -0.390 OA
HETATM   31  C4  UNL     1      -0.466  50.281 -19.439  1.00  0.00     0.202 C 
ENDBRANCH  27  30
ENDBRANCH  25  27
ENDBRANCH  22  25
ENDBRANCH  20  21
ENDBRANCH  18  20
ENDBRANCH   1  18
TORSDOF 12
ENDMDL
MODEL 6
REMARK minimizedAffinity -7.62668419
REMARK  12 active torsions:
REMARK  status: ('A' for Active; 'I' for Inactive)
REMARK    1  A    between atoms: C2_2  and  C3_3 
REMARK    2  A    between atoms: C3_3  and  O1_4 
REMARK    3  A    between atoms: C3_3  and  C5_6 
REMARK    4  A    between atoms: C5_6  and  C7_8 
REMARK    5  A    between atoms: C8_10  and  C10_12 
REMARK    6  A    between atoms: C10_12  and  C11_13 
REMARK    7  A    between atoms: C11_13  and  C13_15 
REMARK    8  A    between atoms: C14_16  and  C15_17 
REMARK    9  A    between atoms: C16_18  and  C18_20 
REMARK   10  A    between atoms: C19_22  and  C20_23 
REMARK   11  A    between atoms: C20_23  and  C21_24 
REMARK   12  A    between atoms: C21_24  and  O5_26 
ROOT
HETATM    1  C13 UNL     1      -4.055  48.234 -26.448  1.00  0.00    -0.022 C 
HETATM    2  C14 UNL     1      -4.166  48.438 -27.771  1.00  0.00    -0.003 C 
ENDROOT
BRANCH   2   3
HETATM    3  C15 UNL     1      -5.317  48.012 -28.538  1.00  0.00     0.005 C 
HETATM    4  C16 UNL     1      -6.504  47.579 -28.061  1.00  0.00    -0.055 C 
HETATM    5  C17 UNL     1      -6.853  47.492 -26.592  1.00  0.00     0.046 C 
BRANCH   4   6
HETATM    6  C18 UNL     1      -7.669  47.149 -28.957  1.00  0.00     0.154 C 
HETATM    7  O3  UNL     1      -8.837  47.274 -28.124  1.00  0.00    -0.375 OA
HETATM    8  C19 UNL     1     -10.056  47.045 -28.830  1.00  0.00     0.132 C 
HETATM    9  C22 UNL     1     -10.301  48.219 -29.787  1.00  0.00     0.033 C 
HETATM   10  C23 UNL     1      -9.004  48.873 -30.261  1.00  0.00     0.009 C 
HETATM   11  C24 UNL     1      -7.834  47.887 -30.318  1.00  0.00     0.015 C 
HETATM   12  C25 UNL     1      -8.015  46.892 -31.476  1.00  0.00     0.012 C 
BRANCH   8  13
HETATM   13  C20 UNL     1     -11.193  46.919 -27.818  1.00  0.00     0.141 C 
BRANCH  13  14
HETATM   14  C21 UNL     1     -11.422  48.218 -27.097  1.00  0.00     0.141 C 
HETATM   15  O4  UNL     1     -10.727  48.721 -26.230  1.00  0.00    -0.650 OA
BRANCH  14  16
HETATM   16  O5  UNL     1     -12.586  48.798 -27.456  1.00  0.00    -0.776 OA
HETATM   17  H34 UNL     1     -12.618  49.615 -26.918  1.00  0.00     0.167 HD
ENDBRANCH  14  16
ENDBRANCH  13  14
ENDBRANCH   8  13
ENDBRANCH   4   6
ENDBRANCH   2   3
BRANCH   1  18
HETATM   18  C11 UNL     1      -2.874  48.652 -25.595  1.00  0.00     0.007 C 
HETATM   19  C12 UNL     1      -2.262  49.963 -26.113  1.00  0.00     0.014 C 
BRANCH  18  20
HETATM   20  C10 UNL     1      -3.223  48.777 -24.096  1.00  0.00     0.048 C 
BRANCH  20  21
HETATM   21  C8  UNL     1      -2.885  50.125 -23.490  1.00  0.00     0.085 A 
HETATM   22  C7  UNL     1      -1.471  50.303 -22.920  1.00  0.00     0.163 A 
HETATM   23  O2  UNL     1      -2.613  50.074 -22.083  1.00  0.00    -0.369 OA
HETATM   24  C9  UNL     1      -3.730  51.296 -23.892  1.00  0.00     0.049 C 
BRANCH  22  25
HETATM   25  C5  UNL     1      -0.791  51.634 -22.704  1.00  0.00     0.042 C 
HETATM   26  C6  UNL     1      -0.053  52.060 -23.976  1.00  0.00     0.015 C 
BRANCH  25  27
HETATM   27  C3  UNL     1       0.156  51.627 -21.464  1.00  0.00     0.126 C 
BRANCH  27  28
HETATM   28  C2  UNL     1      -0.558  51.884 -20.122  1.00  0.00     0.028 C 
HETATM   29  C1  UNL     1      -0.376  50.730 -19.141  1.00  0.00     0.007 C 
ENDBRANCH  27  28
BRANCH  27  30
HETATM   30  O1  UNL     1       1.201  52.605 -21.583  1.00  0.00    -0.390 OA
HETATM   31  C4  UNL     1       1.011  53.757 -20.773  1.00  0.00     0.202 C 
ENDBRANCH  27  30
ENDBRANCH  25  27
ENDBRANCH  22  25
ENDBRANCH  20  21
ENDBRANCH  18  20
ENDBRANCH   1  18
TORSDOF 12
ENDMDL
MODEL 7
REMARK minimizedAffinity -7.49650908
REMARK  12 active torsions:
REMARK  status: ('A' for Active; 'I' for Inactive)
REMARK    1  A    between atoms: C2_2  and  C3_3 
REMARK    2  A    between atoms: C3_3  and  O1_4 
REMARK    3  A    between atoms: C3_3  and  C5_6 
REMARK    4  A    between atoms: C5_6  and  C7_8 
REMARK    5  A    between atoms: C8_10  and  C10_12 
REMARK    6  A    between atoms: C10_12  and  C11_13 
REMARK    7  A    between atoms: C11_13  and  C13_15 
REMARK    8  A    between atoms: C14_16  and  C15_17 
REMARK    9  A    between atoms: C16_18  and  C18_20 
REMARK   10  A    between atoms: C19_22  and  C20_23 
REMARK   11  A    between atoms: C20_23  and  C21_24 
REMARK   12  A    between atoms: C21_24  and  O5_26 
ROOT
HETATM    1  C13 UNL     1      -4.876  48.406 -25.878  1.00  0.00    -0.022 C 
HETATM    2  C14 UNL     1      -4.248  48.557 -27.056  1.00  0.00    -0.003 C 
ENDROOT
BRANCH   2   3
HETATM    3  C15 UNL     1      -4.729  47.960 -28.283  1.00  0.00     0.005 C 
HETATM    4  C16 UNL     1      -5.944  47.417 -28.509  1.00  0.00    -0.055 C 
HETATM    5  C17 UNL     1      -7.058  47.364 -27.487  1.00  0.00     0.046 C 
BRANCH   4   6
HETATM    6  C18 UNL     1      -6.363  46.808 -29.850  1.00  0.00     0.154 C 
HETATM    7  O3  UNL     1      -7.620  47.437 -30.162  1.00  0.00    -0.375 OA
HETATM    8  C19 UNL     1      -8.111  47.096 -31.457  1.00  0.00     0.132 C 
HETATM    9  C22 UNL     1      -7.225  47.769 -32.514  1.00  0.00     0.033 C 
HETATM   10  C23 UNL     1      -5.788  47.972 -32.035  1.00  0.00     0.009 C 
HETATM   11  C24 UNL     1      -5.348  46.907 -31.027  1.00  0.00     0.015 C 
HETATM   12  C25 UNL     1      -5.158  45.547 -31.719  1.00  0.00     0.012 C 
BRANCH   8  13
HETATM   13  C20 UNL     1      -9.557  47.574 -31.575  1.00  0.00     0.141 C 
BRANCH  13  14
HETATM   14  C21 UNL     1     -10.015  48.236 -30.306  1.00  0.00     0.141 C 
HETATM   15  O4  UNL     1     -10.845  47.829 -29.510  1.00  0.00    -0.650 OA
BRANCH  14  16
HETATM   16  O5  UNL     1      -9.445  49.447 -30.134  1.00  0.00    -0.776 OA
HETATM   17  H34 UNL     1      -9.827  49.769 -29.291  1.00  0.00     0.167 HD
ENDBRANCH  14  16
ENDBRANCH  13  14
ENDBRANCH   8  13
ENDBRANCH   4   6
ENDBRANCH   2   3
BRANCH   1  18
HETATM   18  C11 UNL     1      -4.418  49.001 -24.561  1.00  0.00     0.007 C 
HETATM   19  C12 UNL     1      -4.756  48.065 -23.391  1.00  0.00     0.014 C 
BRANCH  18  20
HETATM   20  C10 UNL     1      -2.916  49.359 -24.547  1.00  0.00     0.048 C 
BRANCH  20  21
HETATM   21  C8  UNL     1      -2.629  50.841 -24.679  1.00  0.00     0.085 A 
HETATM   22  C7  UNL     1      -1.370  51.246 -25.458  1.00  0.00     0.163 A 
HETATM   23  O2  UNL     1      -1.422  51.257 -24.025  1.00  0.00    -0.369 OA
HETATM   24  C9  UNL     1      -3.774  51.788 -24.479  1.00  0.00     0.049 C 
BRANCH  22  25
HETATM   25  C5  UNL     1      -1.145  52.599 -26.090  1.00  0.00     0.042 C 
HETATM   26  C6  UNL     1      -1.743  52.628 -27.499  1.00  0.00     0.015 C 
BRANCH  25  27
HETATM   27  C3  UNL     1       0.359  53.014 -26.094  1.00  0.00     0.126 C 
BRANCH  27  28
HETATM   28  C2  UNL     1       1.324  51.901 -25.642  1.00  0.00     0.028 C 
HETATM   29  C1  UNL     1       2.313  51.514 -26.738  1.00  0.00     0.007 C 
ENDBRANCH  27  28
BRANCH  27  30
HETATM   30  O1  UNL     1       0.602  54.154 -25.255  1.00  0.00    -0.390 OA
HETATM   31  C4  UNL     1       0.891  53.825 -23.902  1.00  0.00     0.202 C 
ENDBRANCH  27  30
ENDBRANCH  25  27
ENDBRANCH  22  25
ENDBRANCH  20  21
ENDBRANCH  18  20
ENDBRANCH   1  18
TORSDOF 12
ENDMDL
MODEL 8
REMARK minimizedAffinity -7.45186377
REMARK  12 active torsions:
REMARK  status: ('A' for Active; 'I' for Inactive)
REMARK    1  A    between atoms: C2_2  and  C3_3 
REMARK    2  A    between atoms: C3_3  and  O1_4 
REMARK    3  A    between atoms: C3_3  and  C5_6 
REMARK    4  A    between atoms: C5_6  and  C7_8 
REMARK    5  A    between atoms: C8_10  and  C10_12 
REMARK    6  A    between atoms: C10_12  and  C11_13 
REMARK    7  A    between atoms: C11_13  and  C13_15 
REMARK    8  A    between atoms: C14_16  and  C15_17 
REMARK    9  A    between atoms: C16_18  and  C18_20 
REMARK   10  A    between atoms: C19_22  and  C20_23 
REMARK   11  A    between atoms: C20_23  and  C21_24 
REMARK   12  A    between atoms: C21_24  and  O5_26 
ROOT
HETATM    1  C13 UNL     1       0.280  52.477 -19.136  1.00  0.00    -0.022 C 
HETATM    2  C14 UNL     1       1.312  52.632 -18.291  1.00  0.00    -0.003 C 
ENDROOT
BRANCH   2   3
HETATM    3  C15 UNL     1       1.272  52.196 -16.912  1.00  0.00     0.005 C 
HETATM    4  C16 UNL     1       2.294  52.172 -16.030  1.00  0.00    -0.055 C 
HETATM    5  C17 UNL     1       3.698  52.642 -16.338  1.00  0.00     0.046 C 
BRANCH   4   6
HETATM    6  C18 UNL     1       2.151  51.691 -14.583  1.00  0.00     0.154 C 
HETATM    7  O3  UNL     1       0.868  52.187 -14.157  1.00  0.00    -0.375 OA
HETATM    8  C19 UNL     1       0.489  51.721 -12.863  1.00  0.00     0.132 C 
HETATM    9  C22 UNL     1       0.163  50.225 -12.952  1.00  0.00     0.033 C 
HETATM   10  C23 UNL     1       0.947  49.516 -14.056  1.00  0.00     0.009 C 
HETATM   11  C24 UNL     1       2.309  50.164 -14.320  1.00  0.00     0.015 C 
HETATM   12  C25 UNL     1       3.276  49.895 -13.155  1.00  0.00     0.012 C 
BRANCH   8  13
HETATM   13  C20 UNL     1      -0.727  52.517 -12.392  1.00  0.00     0.141 C 
BRANCH  13  14
HETATM   14  C21 UNL     1      -0.327  53.600 -11.430  1.00  0.00     0.141 C 
HETATM   15  O4  UNL     1      -1.025  54.151 -10.595  1.00  0.00    -0.650 OA
BRANCH  14  16
HETATM   16  O5  UNL     1       0.947  54.000 -11.620  1.00  0.00    -0.776 OA
HETATM   17  H34 UNL     1       1.077  54.701 -10.949  1.00  0.00     0.167 HD
ENDBRANCH  14  16
ENDBRANCH  13  14
ENDBRANCH   8  13
ENDBRANCH   4   6
ENDBRANCH   2   3
BRANCH   1  18
HETATM   18  C11 UNL     1       0.262  52.918 -20.586  1.00  0.00     0.007 C 
HETATM   19  C12 UNL     1       1.172  54.137 -20.798  1.00  0.00     0.014 C 
BRANCH  18  20
HETATM   20  C10 UNL     1       0.641  51.787 -21.568  1.00  0.00     0.048 C 
BRANCH  20  21
HETATM   21  C8  UNL     1      -0.356  51.579 -22.690  1.00  0.00     0.085 A 
HETATM   22  C7  UNL     1       0.098  51.947 -24.109  1.00  0.00     0.163 A 
HETATM   23  O2  UNL     1      -0.762  52.794 -23.335  1.00  0.00    -0.369 OA
HETATM   24  C9  UNL     1      -1.487  50.627 -22.443  1.00  0.00     0.049 C 
BRANCH  22  25
HETATM   25  C5  UNL     1      -0.522  51.413 -25.378  1.00  0.00     0.042 C 
HETATM   26  C6  UNL     1       0.559  50.806 -26.277  1.00  0.00     0.015 C 
BRANCH  25  27
HETATM   27  C3  UNL     1      -1.362  52.490 -26.134  1.00  0.00     0.126 C 
BRANCH  27  28
HETATM   28  C2  UNL     1      -2.864  52.160 -26.240  1.00  0.00     0.028 C 
HETATM   29  C1  UNL     1      -3.110  50.764 -26.806  1.00  0.00     0.007 C 
ENDBRANCH  27  28
BRANCH  27  30
HETATM   30  O1  UNL     1      -0.878  52.706 -27.468  1.00  0.00    -0.390 OA
HETATM   31  C4  UNL     1      -0.342  54.004 -27.686  1.00  0.00     0.202 C 
ENDBRANCH  27  30
ENDBRANCH  25  27
ENDBRANCH  22  25
ENDBRANCH  20  21
ENDBRANCH  18  20
ENDBRANCH   1  18
TORSDOF 12
ENDMDL
MODEL 9
REMARK minimizedAffinity -7.37381935
REMARK  12 active torsions:
REMARK  status: ('A' for Active; 'I' for Inactive)
REMARK    1  A    between atoms: C2_2  and  C3_3 
REMARK    2  A    between atoms: C3_3  and  O1_4 
REMARK    3  A    between atoms: C3_3  and  C5_6 
REMARK    4  A    between atoms: C5_6  and  C7_8 
REMARK    5  A    between atoms: C8_10  and  C10_12 
REMARK    6  A    between atoms: C10_12  and  C11_13 
REMARK    7  A    between atoms: C11_13  and  C13_15 
REMARK    8  A    between atoms: C14_16  and  C15_17 
REMARK    9  A    between atoms: C16_18  and  C18_20 
REMARK   10  A    between atoms: C19_22  and  C20_23 
REMARK   11  A    between atoms: C20_23  and  C21_24 
REMARK   12  A    between atoms: C21_24  and  O5_26 
ROOT
HETATM    1  C13 UNL     1      -0.050  52.417 -19.998  1.00  0.00    -0.022 C 
HETATM    2  C14 UNL     1       0.669  52.614 -18.881  1.00  0.00    -0.003 C 
ENDROOT
BRANCH   2   3
HETATM    3  C15 UNL     1       0.353  51.977 -17.621  1.00  0.00     0.005 C 
HETATM    4  C16 UNL     1       1.137  51.899 -16.523  1.00  0.00    -0.055 C 
HETATM    5  C17 UNL     1       2.515  52.512 -16.413  1.00  0.00     0.046 C 
BRANCH   4   6
HETATM    6  C18 UNL     1       0.712  51.200 -15.229  1.00  0.00     0.154 C 
HETATM    7  O3  UNL     1       1.840  50.381 -14.868  1.00  0.00    -0.375 OA
HETATM    8  C19 UNL     1       1.688  49.747 -13.598  1.00  0.00     0.132 C 
HETATM    9  C22 UNL     1       1.788  50.811 -12.499  1.00  0.00     0.033 C 
HETATM   10  C23 UNL     1       1.317  52.188 -12.967  1.00  0.00     0.009 C 
HETATM   11  C24 UNL     1       0.240  52.104 -14.051  1.00  0.00     0.015 C 
HETATM   12  C25 UNL     1      -1.090  51.605 -13.462  1.00  0.00     0.012 C 
BRANCH   8  13
HETATM   13  C20 UNL     1       2.785  48.695 -13.441  1.00  0.00     0.141 C 
BRANCH  13  14
HETATM   14  C21 UNL     1       4.109  49.336 -13.135  1.00  0.00     0.141 C 
HETATM   15  O4  UNL     1       4.900  49.827 -13.923  1.00  0.00    -0.650 OA
BRANCH  14  16
HETATM   16  O5  UNL     1       4.418  49.258 -11.824  1.00  0.00    -0.776 OA
HETATM   17  H34 UNL     1       5.291  49.696 -11.760  1.00  0.00     0.167 HD
ENDBRANCH  14  16
ENDBRANCH  13  14
ENDBRANCH   8  13
ENDBRANCH   4   6
ENDBRANCH   2   3
BRANCH   1  18
HETATM   18  C11 UNL     1       0.228  53.060 -21.342  1.00  0.00     0.007 C 
HETATM   19  C12 UNL     1       1.429  54.014 -21.254  1.00  0.00     0.014 C 
BRANCH  18  20
HETATM   20  C10 UNL     1       0.442  52.030 -22.473  1.00  0.00     0.048 C 
BRANCH  20  21
HETATM   21  C8  UNL     1      -0.335  52.329 -23.740  1.00  0.00     0.085 A 
HETATM   22  C7  UNL     1       0.335  51.974 -25.074  1.00  0.00     0.163 A 
HETATM   23  O2  UNL     1       0.280  53.318 -24.576  1.00  0.00    -0.369 OA
HETATM   24  C9  UNL     1      -1.821  52.490 -23.619  1.00  0.00     0.049 C 
BRANCH  22  25
HETATM   25  C5  UNL     1      -0.399  51.756 -26.376  1.00  0.00     0.042 C 
HETATM   26  C6  UNL     1      -1.147  50.421 -26.341  1.00  0.00     0.015 C 
BRANCH  25  27
HETATM   27  C3  UNL     1       0.541  51.858 -27.617  1.00  0.00     0.126 C 
BRANCH  27  28
HETATM   28  C2  UNL     1       2.023  52.102 -27.270  1.00  0.00     0.028 C 
HETATM   29  C1  UNL     1       2.621  50.956 -26.458  1.00  0.00     0.007 C 
ENDBRANCH  27  28
BRANCH  27  30
HETATM   30  O1  UNL     1       0.135  52.905 -28.511  1.00  0.00    -0.390 OA
HETATM   31  C4  UNL     1      -0.790  53.824 -27.944  1.00  0.00     0.202 C 
ENDBRANCH  27  30
ENDBRANCH  25  27
ENDBRANCH  22  25
ENDBRANCH  20  21
ENDBRANCH  18  20
ENDBRANCH   1  18
TORSDOF 12
ENDMDL
