MODEL 1
REMARK minimizedAffinity -10.4248085
REMARK CNNscore 0.503628612
REMARK CNNaffinity 6.9231739
REMARK  15 active torsions:
REMARK  status: ('A' for Active; 'I' for Inactive)
REMARK    1  A    between atoms: C19_20  and  O2_21 
REMARK    2  A    between atoms: C19_20  and  C20_22 
REMARK    3  A    between atoms: C20_22  and  C21_24 
REMARK    4  A    between atoms: C21_24  and  O4_25 
REMARK    5  A    between atoms: O4_25  and  C22_26 
REMARK    6  A    between atoms: C22_26  and  C23_28 
REMARK    7  A    between atoms: C23_28  and  C24_29 
REMARK    8  A    between atoms: C24_29  and  C25_30 
REMARK       I    between atoms: C25_30  and  N1_32 
REMARK    9  A    between atoms: N1_32  and  C26_33 
REMARK   10  A    between atoms: C26_33  and  C27_34 
REMARK       I    between atoms: C27_34  and  N2_36 
REMARK   11  A    between atoms: N2_36  and  C28_37 
REMARK   12  A    between atoms: C28_37  and  C29_38 
REMARK   13  A    between atoms: C28_37  and  C38_48 
REMARK   14  A    between atoms: C29_38  and  C30_39 
REMARK   15  A    between atoms: C38_48  and  O9_50 
ROOT
HETATM    1  C22 UNL     1       0.760  13.289  15.797  1.00  0.00     0.259 C 
HETATM    2  O5  UNL     1       1.297  13.515  14.719  1.00  0.00    -0.265 OA
ENDROOT
BRANCH   1   3
HETATM    3  O4  UNL     1       0.061  12.156  16.099  1.00  0.00    -0.314 OA
BRANCH   3   4
HETATM    4  C21 UNL     1       0.159  11.115  15.126  1.00  0.00     0.260 C 
BRANCH   4   5
HETATM    5  C20 UNL     1      -1.105  10.964  14.276  1.00  0.00     0.185 C 
HETATM    6  O3  UNL     1      -1.849  11.928  14.063  1.00  0.00    -0.292 OA
BRANCH   5   7
HETATM    7  C19 UNL     1      -1.396   9.551  13.706  1.00  0.00     0.128 C 
HETATM    8  C14 UNL     1      -2.691   8.849  14.241  1.00  0.00    -0.002 C 
HETATM    9  C13 UNL     1      -4.031   9.256  13.597  1.00  0.00     0.013 C 
HETATM   10  C15 UNL     1      -2.824   9.020  15.783  1.00  0.00     0.019 C 
HETATM   11  C16 UNL     1      -2.379   7.384  13.818  1.00  0.00     0.002 C 
HETATM   12  C12 UNL     1      -5.172   8.282  13.962  1.00  0.00     0.007 C 
HETATM   13  C11 UNL     1      -4.816   6.817  13.612  1.00  0.00     0.002 C 
HETATM   14  C2  UNL     1      -5.939   5.763  13.895  1.00  0.00    -0.016 C 
HETATM   15  C10 UNL     1      -3.461   6.391  14.267  1.00  0.00    -0.004 C 
HETATM   16  C1  UNL     1      -6.147   5.541  15.412  1.00  0.00     0.020 C 
HETATM   17  C3  UNL     1      -7.285   6.198  13.258  1.00  0.00     0.022 C 
HETATM   18  C7  UNL     1      -5.511   4.446  13.241  1.00  0.00    -0.068 C 
HETATM   19  C4  UNL     1      -8.364   5.118  13.319  1.00  0.00     0.084 C 
HETATM   20  C5  UNL     1      -7.858   3.766  12.872  1.00  0.00     0.149 C 
HETATM   21  O1  UNL     1      -8.624   2.851  12.579  1.00  0.00    -0.293 OA
HETATM   22  C6  UNL     1      -6.397   3.537  12.795  1.00  0.00     0.053 C 
HETATM   23  C8  UNL     1      -4.034   4.225  12.990  1.00  0.00     0.035 C 
HETATM   24  C9  UNL     1      -3.114   4.914  13.995  1.00  0.00     0.010 C 
HETATM   25  C17 UNL     1      -0.942   7.181  14.297  1.00  0.00     0.009 C 
HETATM   26  C18 UNL     1      -0.274   8.563  14.129  1.00  0.00     0.047 C 
BRANCH   7  27
HETATM   27  O2  UNL     1      -1.374   9.563  12.273  1.00  0.00    -0.381 OA
HETATM   28  H27 UNL     1      -2.195   9.949  11.931  1.00  0.00     0.211 HD
ENDBRANCH   7  27
ENDBRANCH   5   7
ENDBRANCH   4   5
ENDBRANCH   3   4
ENDBRANCH   1   3
BRANCH   1  29
HETATM   29  C23 UNL     1       0.782  14.188  17.013  1.00  0.00     0.120 C 
BRANCH  29  30
HETATM   30  C24 UNL     1       2.100  14.122  17.777  1.00  0.00     0.112 C 
BRANCH  30  31
HETATM   31  C25 UNL     1       1.993  13.285  19.037  1.00  0.00     0.218 C 
HETATM   32  O6  UNL     1       2.673  13.477  20.037  1.00  0.00    -0.274 OA
HETATM   33  N1  UNL     1       1.060  12.275  18.936  1.00  0.00    -0.352 N 
HETATM   34  H34 UNL     1       0.548  12.138  18.071  1.00  0.00     0.162 HD
BRANCH  33  35
HETATM   35  C26 UNL     1       0.844  11.323  20.022  1.00  0.00     0.225 C 
BRANCH  35  36
HETATM   36  C27 UNL     1       2.052  10.403  20.263  1.00  0.00     0.236 C 
HETATM   37  O7  UNL     1       2.512   9.676  19.390  1.00  0.00    -0.272 OA
HETATM   38  N2  UNL     1       2.626  10.543  21.508  1.00  0.00    -0.345 N 
HETATM   39  H37 UNL     1       2.023  10.998  22.190  1.00  0.00     0.163 HD
BRANCH  38  40
HETATM   40  C28 UNL     1       3.420   9.453  22.104  1.00  0.00     0.186 C 
BRANCH  40  41
HETATM   41  C29 UNL     1       4.430  10.016  23.105  1.00  0.00     0.077 C 
BRANCH  41  42
HETATM   42  C30 UNL     1       4.515  11.510  23.076  1.00  0.00    -0.028 A 
HETATM   43  C31 UNL     1       3.460  12.400  23.068  1.00  0.00     0.096 A 
HETATM   44  N3  UNL     1       3.970  13.671  23.048  1.00  0.00    -0.365 N 
HETATM   45  C32 UNL     1       5.344  13.634  23.033  1.00  0.00     0.042 A 
HETATM   46  H42 UNL     1       3.420  14.519  23.052  1.00  0.00     0.165 HD
HETATM   47  C33 UNL     1       6.278  14.677  23.013  1.00  0.00     0.030 A 
HETATM   48  C37 UNL     1       5.716  12.289  23.051  1.00  0.00    -0.002 A 
HETATM   49  C34 UNL     1       7.633  14.333  23.017  1.00  0.00     0.002 A 
HETATM   50  C35 UNL     1       8.036  13.000  23.041  1.00  0.00     0.001 A 
HETATM   51  C36 UNL     1       7.089  11.969  23.058  1.00  0.00     0.014 A 
ENDBRANCH  41  42
ENDBRANCH  40  41
BRANCH  40  52
HETATM   52  C38 UNL     1       2.422   8.524  22.821  1.00  0.00     0.163 C 
HETATM   53  O8  UNL     1       1.735   7.646  22.329  1.00  0.00    -0.648 OA
BRANCH  52  54
HETATM   54  O9  UNL     1       2.405   8.760  24.161  1.00  0.00    -0.775 OA
HETATM   55  H47 UNL     1       1.616   8.291  24.538  1.00  0.00     0.167 HD
ENDBRANCH  52  54
ENDBRANCH  40  52
ENDBRANCH  38  40
ENDBRANCH  35  36
ENDBRANCH  33  35
ENDBRANCH  30  31
ENDBRANCH  29  30
ENDBRANCH   1  29
TORSDOF 15
ENDMDL
MODEL 2
REMARK minimizedAffinity -9.13962364
REMARK CNNscore 0.479218185
REMARK CNNaffinity 8.0005064
REMARK  15 active torsions:
REMARK  status: ('A' for Active; 'I' for Inactive)
REMARK    1  A    between atoms: C19_20  and  O2_21 
REMARK    2  A    between atoms: C19_20  and  C20_22 
REMARK    3  A    between atoms: C20_22  and  C21_24 
REMARK    4  A    between atoms: C21_24  and  O4_25 
REMARK    5  A    between atoms: O4_25  and  C22_26 
REMARK    6  A    between atoms: C22_26  and  C23_28 
REMARK    7  A    between atoms: C23_28  and  C24_29 
REMARK    8  A    between atoms: C24_29  and  C25_30 
REMARK       I    between atoms: C25_30  and  N1_32 
REMARK    9  A    between atoms: N1_32  and  C26_33 
REMARK   10  A    between atoms: C26_33  and  C27_34 
REMARK       I    between atoms: C27_34  and  N2_36 
REMARK   11  A    between atoms: N2_36  and  C28_37 
REMARK   12  A    between atoms: C28_37  and  C29_38 
REMARK   13  A    between atoms: C28_37  and  C38_48 
REMARK   14  A    between atoms: C29_38  and  C30_39 
REMARK   15  A    between atoms: C38_48  and  O9_50 
ROOT
HETATM    1  C22 UNL     1      -1.934   3.186  11.245  1.00  0.00     0.259 C 
HETATM    2  O5  UNL     1      -0.944   2.641  10.770  1.00  0.00    -0.265 OA
ENDROOT
BRANCH   1   3
HETATM    3  O4  UNL     1      -2.038   4.521  11.509  1.00  0.00    -0.314 OA
BRANCH   3   4
HETATM    4  C21 UNL     1      -1.031   5.040  12.379  1.00  0.00     0.260 C 
BRANCH   4   5
HETATM    5  C20 UNL     1      -1.571   5.447  13.752  1.00  0.00     0.185 C 
HETATM    6  O3  UNL     1      -2.519   4.846  14.267  1.00  0.00    -0.292 OA
BRANCH   5   7
HETATM    7  C19 UNL     1      -0.872   6.644  14.448  1.00  0.00     0.128 C 
HETATM    8  C14 UNL     1      -1.788   7.866  14.798  1.00  0.00    -0.002 C 
HETATM    9  C13 UNL     1      -2.638   7.767  16.081  1.00  0.00     0.013 C 
HETATM   10  C15 UNL     1      -2.741   8.208  13.614  1.00  0.00     0.019 C 
HETATM   11  C16 UNL     1      -0.694   8.948  15.027  1.00  0.00     0.002 C 
HETATM   12  C12 UNL     1      -3.234   9.130  16.491  1.00  0.00     0.007 C 
HETATM   13  C11 UNL     1      -2.143  10.219  16.636  1.00  0.00     0.002 C 
HETATM   14  C2  UNL     1      -2.649  11.624  17.106  1.00  0.00    -0.016 C 
HETATM   15  C10 UNL     1      -1.281  10.333  15.335  1.00  0.00    -0.004 C 
HETATM   16  C1  UNL     1      -3.471  12.335  16.004  1.00  0.00     0.020 C 
HETATM   17  C3  UNL     1      -3.518  11.504  18.386  1.00  0.00     0.022 C 
HETATM   18  C7  UNL     1      -1.418  12.467  17.448  1.00  0.00    -0.068 C 
HETATM   19  C4  UNL     1      -3.868  12.853  19.012  1.00  0.00     0.084 C 
HETATM   20  C5  UNL     1      -2.668  13.761  19.143  1.00  0.00     0.149 C 
HETATM   21  O1  UNL     1      -2.681  14.753  19.868  1.00  0.00    -0.293 OA
HETATM   22  C6  UNL     1      -1.446  13.450  18.367  1.00  0.00     0.053 C 
HETATM   23  C8  UNL     1      -0.100  12.093  16.804  1.00  0.00     0.035 C 
HETATM   24  C9  UNL     1      -0.231  11.458  15.422  1.00  0.00     0.010 C 
HETATM   25  C17 UNL     1       0.219   8.784  13.812  1.00  0.00     0.009 C 
HETATM   26  C18 UNL     1       0.185   7.272  13.497  1.00  0.00     0.047 C 
BRANCH   7  27
HETATM   27  O2  UNL     1      -0.138   6.208  15.599  1.00  0.00    -0.381 OA
HETATM   28  H27 UNL     1      -0.744   6.040  16.336  1.00  0.00     0.211 HD
ENDBRANCH   7  27
ENDBRANCH   5   7
ENDBRANCH   4   5
ENDBRANCH   3   4
ENDBRANCH   1   3
BRANCH   1  29
HETATM   29  C23 UNL     1      -3.239   2.513  11.608  1.00  0.00     0.120 C 
BRANCH  29  30
HETATM   30  C24 UNL     1      -4.457   3.233  11.040  1.00  0.00     0.112 C 
BRANCH  30  31
HETATM   31  C25 UNL     1      -5.436   3.648  12.121  1.00  0.00     0.218 C 
HETATM   32  O6  UNL     1      -5.221   4.552  12.919  1.00  0.00    -0.274 OA
HETATM   33  N1  UNL     1      -6.590   2.893  12.121  1.00  0.00    -0.352 N 
HETATM   34  H34 UNL     1      -6.703   2.133  11.460  1.00  0.00     0.162 HD
BRANCH  33  35
HETATM   35  C26 UNL     1      -7.637   3.098  13.118  1.00  0.00     0.225 C 
BRANCH  35  36
HETATM   36  C27 UNL     1      -8.122   4.555  13.186  1.00  0.00     0.236 C 
HETATM   37  O7  UNL     1      -8.659   5.117  12.238  1.00  0.00    -0.272 OA
HETATM   38  N2  UNL     1      -7.991   5.135  14.430  1.00  0.00    -0.345 N 
HETATM   39  H37 UNL     1      -7.342   4.649  15.043  1.00  0.00     0.163 HD
BRANCH  38  40
HETATM   40  C28 UNL     1      -7.912   6.600  14.579  1.00  0.00     0.186 C 
BRANCH  40  41
HETATM   41  C29 UNL     1      -8.965   7.091  15.573  1.00  0.00     0.077 C 
BRANCH  41  42
HETATM   42  C30 UNL     1      -9.805   8.207  15.035  1.00  0.00    -0.028 A 
HETATM   43  C31 UNL     1      -9.562   9.560  15.155  1.00  0.00     0.096 A 
HETATM   44  N3  UNL     1     -10.567  10.236  14.516  1.00  0.00    -0.365 N 
HETATM   45  C32 UNL     1     -11.474   9.351  13.984  1.00  0.00     0.042 A 
HETATM   46  H42 UNL     1     -10.632  11.241  14.436  1.00  0.00     0.165 HD
HETATM   47  C33 UNL     1     -12.646   9.585  13.253  1.00  0.00     0.030 A 
HETATM   48  C37 UNL     1     -11.022   8.068  14.293  1.00  0.00    -0.002 A 
HETATM   49  C34 UNL     1     -13.372   8.472  12.821  1.00  0.00     0.002 A 
HETATM   50  C35 UNL     1     -12.944   7.178  13.108  1.00  0.00     0.001 A 
HETATM   51  C36 UNL     1     -11.772   6.962  13.843  1.00  0.00     0.014 A 
ENDBRANCH  41  42
ENDBRANCH  40  41
BRANCH  40  52
HETATM   52  C38 UNL     1      -6.498   6.911  15.106  1.00  0.00     0.163 C 
HETATM   53  O8  UNL     1      -5.750   6.166  15.716  1.00  0.00    -0.648 OA
BRANCH  52  54
HETATM   54  O9  UNL     1      -6.111   8.170  14.765  1.00  0.00    -0.775 OA
HETATM   55  H47 UNL     1      -5.299   8.386  15.292  1.00  0.00     0.167 HD
ENDBRANCH  52  54
ENDBRANCH  40  52
ENDBRANCH  38  40
ENDBRANCH  35  36
ENDBRANCH  33  35
ENDBRANCH  30  31
ENDBRANCH  29  30
ENDBRANCH   1  29
TORSDOF 15
ENDMDL
MODEL 3
REMARK minimizedAffinity -9.04221249
REMARK CNNscore 0.404815733
REMARK CNNaffinity 6.84687424
REMARK  15 active torsions:
REMARK  status: ('A' for Active; 'I' for Inactive)
REMARK    1  A    between atoms: C19_20  and  O2_21 
REMARK    2  A    between atoms: C19_20  and  C20_22 
REMARK    3  A    between atoms: C20_22  and  C21_24 
REMARK    4  A    between atoms: C21_24  and  O4_25 
REMARK    5  A    between atoms: O4_25  and  C22_26 
REMARK    6  A    between atoms: C22_26  and  C23_28 
REMARK    7  A    between atoms: C23_28  and  C24_29 
REMARK    8  A    between atoms: C24_29  and  C25_30 
REMARK       I    between atoms: C25_30  and  N1_32 
REMARK    9  A    between atoms: N1_32  and  C26_33 
REMARK   10  A    between atoms: C26_33  and  C27_34 
REMARK       I    between atoms: C27_34  and  N2_36 
REMARK   11  A    between atoms: N2_36  and  C28_37 
REMARK   12  A    between atoms: C28_37  and  C29_38 
REMARK   13  A    between atoms: C28_37  and  C38_48 
REMARK   14  A    between atoms: C29_38  and  C30_39 
REMARK   15  A    between atoms: C38_48  and  O9_50 
ROOT
HETATM    1  C22 UNL     1      -9.731   6.570  13.738  1.00  0.00     0.259 C 
HETATM    2  O5  UNL     1      -9.385   6.163  12.635  1.00  0.00    -0.265 OA
ENDROOT
BRANCH   1   3
HETATM    3  O4  UNL     1      -8.939   6.584  14.849  1.00  0.00    -0.314 OA
BRANCH   3   4
HETATM    4  C21 UNL     1      -7.949   5.556  14.891  1.00  0.00     0.260 C 
BRANCH   4   5
HETATM    5  C20 UNL     1      -6.570   6.064  15.322  1.00  0.00     0.185 C 
HETATM    6  O3  UNL     1      -6.149   5.871  16.467  1.00  0.00    -0.292 OA
BRANCH   5   7
HETATM    7  C19 UNL     1      -5.744   6.826  14.252  1.00  0.00     0.128 C 
HETATM    8  C14 UNL     1      -4.212   6.501  14.209  1.00  0.00    -0.002 C 
HETATM    9  C13 UNL     1      -3.783   5.223  13.461  1.00  0.00     0.013 C 
HETATM   10  C15 UNL     1      -3.611   6.445  15.644  1.00  0.00     0.019 C 
HETATM   11  C16 UNL     1      -3.715   7.728  13.391  1.00  0.00     0.002 C 
HETATM   12  C12 UNL     1      -2.261   5.182  13.204  1.00  0.00     0.007 C 
HETATM   13  C11 UNL     1      -1.765   6.446  12.462  1.00  0.00     0.002 C 
HETATM   14  C2  UNL     1      -0.241   6.468  12.107  1.00  0.00    -0.016 C 
HETATM   15  C10 UNL     1      -2.189   7.749  13.218  1.00  0.00    -0.004 C 
HETATM   16  C1  UNL     1       0.639   6.641  13.368  1.00  0.00     0.020 C 
HETATM   17  C3  UNL     1       0.179   5.166  11.373  1.00  0.00     0.022 C 
HETATM   18  C7  UNL     1      -0.004   7.644  11.155  1.00  0.00    -0.068 C 
HETATM   19  C4  UNL     1       1.601   5.214  10.817  1.00  0.00     0.084 C 
HETATM   20  C5  UNL     1       1.886   6.489  10.059  1.00  0.00     0.149 C 
HETATM   21  O1  UNL     1       2.851   6.595   9.306  1.00  0.00    -0.293 OA
HETATM   22  C6  UNL     1       0.980   7.647  10.238  1.00  0.00     0.053 C 
HETATM   23  C8  UNL     1      -0.995   8.788  11.182  1.00  0.00     0.035 C 
HETATM   24  C9  UNL     1      -1.649   9.025  12.541  1.00  0.00     0.010 C 
HETATM   25  C17 UNL     1      -4.399   8.908  14.080  1.00  0.00     0.009 C 
HETATM   26  C18 UNL     1      -5.760   8.350  14.551  1.00  0.00     0.047 C 
BRANCH   7  27
HETATM   27  O2  UNL     1      -6.335   6.685  12.954  1.00  0.00    -0.381 OA
HETATM   28  H27 UNL     1      -6.134   5.809  12.591  1.00  0.00     0.211 HD
ENDBRANCH   7  27
ENDBRANCH   5   7
ENDBRANCH   4   5
ENDBRANCH   3   4
ENDBRANCH   1   3
BRANCH   1  29
HETATM   29  C23 UNL     1     -11.078   7.163  14.091  1.00  0.00     0.120 C 
BRANCH  29  30
HETATM   30  C24 UNL     1     -10.971   8.388  14.991  1.00  0.00     0.112 C 
BRANCH  30  31
HETATM   31  C25 UNL     1     -12.293   8.738  15.646  1.00  0.00     0.218 C 
HETATM   32  O6  UNL     1     -13.363   8.743  15.050  1.00  0.00    -0.274 OA
HETATM   33  N1  UNL     1     -12.165   9.065  16.980  1.00  0.00    -0.352 N 
HETATM   34  H34 UNL     1     -11.250   9.078  17.416  1.00  0.00     0.162 HD
BRANCH  33  35
HETATM   35  C26 UNL     1     -13.314   9.484  17.778  1.00  0.00     0.225 C 
BRANCH  35  36
HETATM   36  C27 UNL     1     -12.916  10.048  19.151  1.00  0.00     0.236 C 
HETATM   37  O7  UNL     1     -12.574  11.215  19.311  1.00  0.00    -0.272 OA
HETATM   38  N2  UNL     1     -13.073   9.160  20.193  1.00  0.00    -0.345 N 
HETATM   39  H37 UNL     1     -13.144   8.189  19.897  1.00  0.00     0.163 HD
BRANCH  38  40
HETATM   40  C28 UNL     1     -12.304   9.310  21.441  1.00  0.00     0.186 C 
BRANCH  40  41
HETATM   41  C29 UNL     1     -12.667  10.623  22.135  1.00  0.00     0.077 C 
BRANCH  41  42
HETATM   42  C30 UNL     1     -11.543  11.189  22.945  1.00  0.00    -0.028 A 
HETATM   43  C31 UNL     1     -11.406  11.143  24.318  1.00  0.00     0.096 A 
HETATM   44  N3  UNL     1     -10.235  11.769  24.654  1.00  0.00    -0.365 N 
HETATM   45  C32 UNL     1      -9.602  12.235  23.526  1.00  0.00     0.042 A 
HETATM   46  H42 UNL     1      -9.877  11.869  25.594  1.00  0.00     0.165 HD
HETATM   47  C33 UNL     1      -8.393  12.927  23.387  1.00  0.00     0.030 A 
HETATM   48  C37 UNL     1     -10.400  11.885  22.437  1.00  0.00    -0.002 A 
HETATM   49  C34 UNL     1      -7.985  13.266  22.094  1.00  0.00     0.002 A 
HETATM   50  C35 UNL     1      -8.757  12.925  20.985  1.00  0.00     0.001 A 
HETATM   51  C36 UNL     1      -9.965  12.236  21.143  1.00  0.00     0.014 A 
ENDBRANCH  41  42
ENDBRANCH  40  41
BRANCH  40  52
HETATM   52  C38 UNL     1     -12.683   8.114  22.335  1.00  0.00     0.163 C 
HETATM   53  O8  UNL     1     -13.730   7.491  22.343  1.00  0.00    -0.648 OA
BRANCH  52  54
HETATM   54  O9  UNL     1     -11.649   7.758  23.146  1.00  0.00    -0.775 OA
HETATM   55  H47 UNL     1     -12.006   7.133  23.829  1.00  0.00     0.167 HD
ENDBRANCH  52  54
ENDBRANCH  40  52
ENDBRANCH  38  40
ENDBRANCH  35  36
ENDBRANCH  33  35
ENDBRANCH  30  31
ENDBRANCH  29  30
ENDBRANCH   1  29
TORSDOF 15
ENDMDL
MODEL 4
REMARK minimizedAffinity -8.54736996
REMARK CNNscore 0.314632267
REMARK CNNaffinity 6.82372999
REMARK  15 active torsions:
REMARK  status: ('A' for Active; 'I' for Inactive)
REMARK    1  A    between atoms: C19_20  and  O2_21 
REMARK    2  A    between atoms: C19_20  and  C20_22 
REMARK    3  A    between atoms: C20_22  and  C21_24 
REMARK    4  A    between atoms: C21_24  and  O4_25 
REMARK    5  A    between atoms: O4_25  and  C22_26 
REMARK    6  A    between atoms: C22_26  and  C23_28 
REMARK    7  A    between atoms: C23_28  and  C24_29 
REMARK    8  A    between atoms: C24_29  and  C25_30 
REMARK       I    between atoms: C25_30  and  N1_32 
REMARK    9  A    between atoms: N1_32  and  C26_33 
REMARK   10  A    between atoms: C26_33  and  C27_34 
REMARK       I    between atoms: C27_34  and  N2_36 
REMARK   11  A    between atoms: N2_36  and  C28_37 
REMARK   12  A    between atoms: C28_37  and  C29_38 
REMARK   13  A    between atoms: C28_37  and  C38_48 
REMARK   14  A    between atoms: C29_38  and  C30_39 
REMARK   15  A    between atoms: C38_48  and  O9_50 
ROOT
HETATM    1  C22 UNL     1     -10.109   7.134  14.047  1.00  0.00     0.259 C 
HETATM    2  O5  UNL     1     -10.752   7.275  13.013  1.00  0.00    -0.265 OA
ENDROOT
BRANCH   1   3
HETATM    3  O4  UNL     1      -8.993   6.358  14.173  1.00  0.00    -0.314 OA
BRANCH   3   4
HETATM    4  C21 UNL     1      -8.272   6.539  15.392  1.00  0.00     0.260 C 
BRANCH   4   5
HETATM    5  C20 UNL     1      -6.805   6.112  15.294  1.00  0.00     0.185 C 
HETATM    6  O3  UNL     1      -6.350   5.224  16.023  1.00  0.00    -0.292 OA
BRANCH   5   7
HETATM    7  C19 UNL     1      -5.935   6.849  14.243  1.00  0.00     0.128 C 
HETATM    8  C14 UNL     1      -4.405   6.508  14.258  1.00  0.00    -0.002 C 
HETATM    9  C13 UNL     1      -3.963   5.215  13.545  1.00  0.00     0.013 C 
HETATM   10  C15 UNL     1      -3.855   6.469  15.714  1.00  0.00     0.019 C 
HETATM   11  C16 UNL     1      -3.867   7.718  13.440  1.00  0.00     0.002 C 
HETATM   12  C12 UNL     1      -2.434   5.155  13.343  1.00  0.00     0.007 C 
HETATM   13  C11 UNL     1      -1.900   6.403  12.600  1.00  0.00     0.002 C 
HETATM   14  C2  UNL     1      -0.363   6.404  12.298  1.00  0.00    -0.016 C 
HETATM   15  C10 UNL     1      -2.336   7.721  13.320  1.00  0.00    -0.004 C 
HETATM   16  C1  UNL     1       0.473   6.588  13.587  1.00  0.00     0.020 C 
HETATM   17  C3  UNL     1       0.068   5.087  11.599  1.00  0.00     0.022 C 
HETATM   18  C7  UNL     1      -0.081   7.563  11.337  1.00  0.00    -0.068 C 
HETATM   19  C4  UNL     1       1.509   5.112  11.092  1.00  0.00     0.084 C 
HETATM   20  C5  UNL     1       1.834   6.372  10.326  1.00  0.00     0.149 C 
HETATM   21  O1  UNL     1       2.826   6.457   9.605  1.00  0.00    -0.293 OA
HETATM   22  C6  UNL     1       0.935   7.542  10.456  1.00  0.00     0.053 C 
HETATM   23  C8  UNL     1      -1.061   8.717  11.312  1.00  0.00     0.035 C 
HETATM   24  C9  UNL     1      -1.759   8.981  12.644  1.00  0.00     0.010 C 
HETATM   25  C17 UNL     1      -4.563   8.915  14.087  1.00  0.00     0.009 C 
HETATM   26  C18 UNL     1      -5.945   8.378  14.518  1.00  0.00     0.047 C 
BRANCH   7  27
HETATM   27  O2  UNL     1      -6.481   6.694  12.927  1.00  0.00    -0.381 OA
HETATM   28  H27 UNL     1      -6.276   5.811  12.584  1.00  0.00     0.211 HD
ENDBRANCH   7  27
ENDBRANCH   5   7
ENDBRANCH   4   5
ENDBRANCH   3   4
ENDBRANCH   1   3
BRANCH   1  29
HETATM   29  C23 UNL     1     -10.392   7.803  15.374  1.00  0.00     0.120 C 
BRANCH  29  30
HETATM   30  C24 UNL     1     -10.982   9.200  15.222  1.00  0.00     0.112 C 
BRANCH  30  31
HETATM   31  C25 UNL     1     -12.080   9.474  16.231  1.00  0.00     0.218 C 
HETATM   32  O6  UNL     1     -13.202   9.855  15.924  1.00  0.00    -0.274 OA
HETATM   33  N1  UNL     1     -11.680   9.261  17.534  1.00  0.00    -0.352 N 
HETATM   34  H34 UNL     1     -10.728   8.978  17.735  1.00  0.00     0.162 HD
BRANCH  33  35
HETATM   35  C26 UNL     1     -12.574   9.520  18.659  1.00  0.00     0.225 C 
BRANCH  35  36
HETATM   36  C27 UNL     1     -11.830   9.977  19.924  1.00  0.00     0.236 C 
HETATM   37  O7  UNL     1     -11.107   9.227  20.572  1.00  0.00    -0.272 OA
HETATM   38  N2  UNL     1     -11.967  11.319  20.205  1.00  0.00    -0.345 N 
HETATM   39  H37 UNL     1     -12.753  11.759  19.732  1.00  0.00     0.163 HD
BRANCH  38  40
HETATM   40  C28 UNL     1     -11.780  11.831  21.575  1.00  0.00     0.186 C 
BRANCH  40  41
HETATM   41  C29 UNL     1     -10.980  13.134  21.552  1.00  0.00     0.077 C 
BRANCH  41  42
HETATM   42  C30 UNL     1      -9.657  13.023  22.243  1.00  0.00    -0.028 A 
HETATM   43  C31 UNL     1      -9.439  12.725  23.573  1.00  0.00     0.096 A 
HETATM   44  N3  UNL     1      -8.088  12.714  23.795  1.00  0.00    -0.365 N 
HETATM   45  C32 UNL     1      -7.411  13.008  22.635  1.00  0.00     0.042 A 
HETATM   46  H42 UNL     1      -7.646  12.510  24.680  1.00  0.00     0.165 HD
HETATM   47  C33 UNL     1      -6.036  13.106  22.390  1.00  0.00     0.030 A 
HETATM   48  C37 UNL     1      -8.370  13.206  21.642  1.00  0.00    -0.002 A 
HETATM   49  C34 UNL     1      -5.631  13.410  21.087  1.00  0.00     0.002 A 
HETATM   50  C35 UNL     1      -6.565  13.607  20.071  1.00  0.00     0.001 A 
HETATM   51  C36 UNL     1      -7.936  13.509  20.336  1.00  0.00     0.014 A 
ENDBRANCH  41  42
ENDBRANCH  40  41
BRANCH  40  52
HETATM   52  C38 UNL     1     -13.190  12.083  22.144  1.00  0.00     0.163 C 
HETATM   53  O8  UNL     1     -14.213  11.468  21.899  1.00  0.00    -0.648 OA
BRANCH  52  54
HETATM   54  O9  UNL     1     -13.182  13.101  23.046  1.00  0.00    -0.775 OA
HETATM   55  H47 UNL     1     -14.125  13.352  23.223  1.00  0.00     0.167 HD
ENDBRANCH  52  54
ENDBRANCH  40  52
ENDBRANCH  38  40
ENDBRANCH  35  36
ENDBRANCH  33  35
ENDBRANCH  30  31
ENDBRANCH  29  30
ENDBRANCH   1  29
TORSDOF 15
ENDMDL
MODEL 5
REMARK minimizedAffinity -8.52909374
REMARK CNNscore 0.288940877
REMARK CNNaffinity 6.59747171
REMARK  15 active torsions:
REMARK  status: ('A' for Active; 'I' for Inactive)
REMARK    1  A    between atoms: C19_20  and  O2_21 
REMARK    2  A    between atoms: C19_20  and  C20_22 
REMARK    3  A    between atoms: C20_22  and  C21_24 
REMARK    4  A    between atoms: C21_24  and  O4_25 
REMARK    5  A    between atoms: O4_25  and  C22_26 
REMARK    6  A    between atoms: C22_26  and  C23_28 
REMARK    7  A    between atoms: C23_28  and  C24_29 
REMARK    8  A    between atoms: C24_29  and  C25_30 
REMARK       I    between atoms: C25_30  and  N1_32 
REMARK    9  A    between atoms: N1_32  and  C26_33 
REMARK   10  A    between atoms: C26_33  and  C27_34 
REMARK       I    between atoms: C27_34  and  N2_36 
REMARK   11  A    between atoms: N2_36  and  C28_37 
REMARK   12  A    between atoms: C28_37  and  C29_38 
REMARK   13  A    between atoms: C28_37  and  C38_48 
REMARK   14  A    between atoms: C29_38  and  C30_39 
REMARK   15  A    between atoms: C38_48  and  O9_50 
ROOT
HETATM    1  C22 UNL     1      -2.815   9.769  15.435  1.00  0.00     0.259 C 
HETATM    2  O5  UNL     1      -3.741   9.447  14.699  1.00  0.00    -0.265 OA
ENDROOT
BRANCH   1   3
HETATM    3  O4  UNL     1      -2.746  10.939  16.134  1.00  0.00    -0.314 OA
BRANCH   3   4
HETATM    4  C21 UNL     1      -1.448  11.261  16.636  1.00  0.00     0.260 C 
BRANCH   4   5
HETATM    5  C20 UNL     1      -1.230  12.764  16.824  1.00  0.00     0.185 C 
HETATM    6  O3  UNL     1      -0.893  13.482  15.876  1.00  0.00    -0.292 OA
BRANCH   5   7
HETATM    7  C19 UNL     1      -1.450  13.326  18.253  1.00  0.00     0.128 C 
HETATM    8  C14 UNL     1      -2.926  13.694  18.625  1.00  0.00    -0.002 C 
HETATM    9  C13 UNL     1      -3.853  12.542  19.062  1.00  0.00     0.013 C 
HETATM   10  C15 UNL     1      -3.624  14.458  17.461  1.00  0.00     0.019 C 
HETATM   11  C16 UNL     1      -2.659  14.595  19.866  1.00  0.00     0.002 C 
HETATM   12  C12 UNL     1      -5.157  13.056  19.709  1.00  0.00     0.007 C 
HETATM   13  C11 UNL     1      -4.877  14.015  20.890  1.00  0.00     0.002 C 
HETATM   14  C2  UNL     1      -6.143  14.543  21.646  1.00  0.00    -0.016 C 
HETATM   15  C10 UNL     1      -3.945  15.194  20.455  1.00  0.00    -0.004 C 
HETATM   16  C1  UNL     1      -6.948  15.546  20.785  1.00  0.00     0.020 C 
HETATM   17  C3  UNL     1      -7.073  13.373  22.060  1.00  0.00     0.022 C 
HETATM   18  C7  UNL     1      -5.662  15.239  22.923  1.00  0.00    -0.068 C 
HETATM   19  C4  UNL     1      -8.216  13.801  22.980  1.00  0.00     0.084 C 
HETATM   20  C5  UNL     1      -7.748  14.673  24.120  1.00  0.00     0.149 C 
HETATM   21  O1  UNL     1      -8.448  14.879  25.110  1.00  0.00    -0.293 OA
HETATM   22  C6  UNL     1      -6.412  15.306  24.038  1.00  0.00     0.053 C 
HETATM   23  C8  UNL     1      -4.243  15.765  22.952  1.00  0.00     0.035 C 
HETATM   24  C9  UNL     1      -3.705  16.206  21.593  1.00  0.00     0.010 C 
HETATM   25  C17 UNL     1      -1.556  15.536  19.384  1.00  0.00     0.009 C 
HETATM   26  C18 UNL     1      -0.710  14.683  18.413  1.00  0.00     0.047 C 
BRANCH   7  27
HETATM   27  O2  UNL     1      -0.874  12.459  19.237  1.00  0.00    -0.381 OA
HETATM   28  H27 UNL     1      -1.444  11.687  19.374  1.00  0.00     0.211 HD
ENDBRANCH   7  27
ENDBRANCH   5   7
ENDBRANCH   4   5
ENDBRANCH   3   4
ENDBRANCH   1   3
BRANCH   1  29
HETATM   29  C23 UNL     1      -1.588   8.941  15.745  1.00  0.00     0.120 C 
BRANCH  29  30
HETATM   30  C24 UNL     1      -1.685   7.514  15.217  1.00  0.00     0.112 C 
BRANCH  30  31
HETATM   31  C25 UNL     1      -0.974   7.343  13.888  1.00  0.00     0.218 C 
HETATM   32  O6  UNL     1      -1.271   7.967  12.877  1.00  0.00    -0.274 OA
HETATM   33  N1  UNL     1       0.032   6.402  13.932  1.00  0.00    -0.352 N 
HETATM   34  H34 UNL     1       0.214   5.889  14.787  1.00  0.00     0.162 HD
BRANCH  33  35
HETATM   35  C26 UNL     1       0.802   6.050  12.742  1.00  0.00     0.225 C 
BRANCH  35  36
HETATM   36  C27 UNL     1       0.097   5.010  11.856  1.00  0.00     0.236 C 
HETATM   37  O7  UNL     1       0.154   5.038  10.632  1.00  0.00    -0.272 OA
HETATM   38  N2  UNL     1      -0.517   3.996  12.559  1.00  0.00    -0.345 N 
HETATM   39  H37 UNL     1      -0.677   4.214  13.540  1.00  0.00     0.163 HD
BRANCH  38  40
HETATM   40  C28 UNL     1      -1.628   3.228  11.968  1.00  0.00     0.186 C 
BRANCH  40  41
HETATM   41  C29 UNL     1      -2.624   4.169  11.289  1.00  0.00     0.077 C 
BRANCH  41  42
HETATM   42  C30 UNL     1      -3.859   4.402  12.100  1.00  0.00    -0.028 A 
HETATM   43  C31 UNL     1      -4.114   5.472  12.933  1.00  0.00     0.096 A 
HETATM   44  N3  UNL     1      -5.359   5.306  13.478  1.00  0.00    -0.365 N 
HETATM   45  C32 UNL     1      -5.926   4.138  13.026  1.00  0.00     0.042 A 
HETATM   46  H42 UNL     1      -5.806   5.951  14.116  1.00  0.00     0.165 HD
HETATM   47  C33 UNL     1      -7.174   3.568  13.311  1.00  0.00     0.030 A 
HETATM   48  C37 UNL     1      -5.008   3.549  12.157  1.00  0.00    -0.002 A 
HETATM   49  C34 UNL     1      -7.491   2.360  12.682  1.00  0.00     0.002 A 
HETATM   50  C35 UNL     1      -6.598   1.750  11.805  1.00  0.00     0.001 A 
HETATM   51  C36 UNL     1      -5.354   2.332  11.535  1.00  0.00     0.014 A 
ENDBRANCH  41  42
ENDBRANCH  40  41
BRANCH  40  52
HETATM   52  C38 UNL     1      -1.001   2.278  10.930  1.00  0.00     0.163 C 
HETATM   53  O8  UNL     1       0.058   1.681  11.011  1.00  0.00    -0.648 OA
BRANCH  52  54
HETATM   54  O9  UNL     1      -1.816   2.118   9.852  1.00  0.00    -0.775 OA
HETATM   55  H47 UNL     1      -1.288   1.673   9.141  1.00  0.00     0.167 HD
ENDBRANCH  52  54
ENDBRANCH  40  52
ENDBRANCH  38  40
ENDBRANCH  35  36
ENDBRANCH  33  35
ENDBRANCH  30  31
ENDBRANCH  29  30
ENDBRANCH   1  29
TORSDOF 15
ENDMDL
MODEL 6
REMARK minimizedAffinity -10.1702213
REMARK CNNscore 0.244328961
REMARK CNNaffinity 6.62551165
REMARK  15 active torsions:
REMARK  status: ('A' for Active; 'I' for Inactive)
REMARK    1  A    between atoms: C19_20  and  O2_21 
REMARK    2  A    between atoms: C19_20  and  C20_22 
REMARK    3  A    between atoms: C20_22  and  C21_24 
REMARK    4  A    between atoms: C21_24  and  O4_25 
REMARK    5  A    between atoms: O4_25  and  C22_26 
REMARK    6  A    between atoms: C22_26  and  C23_28 
REMARK    7  A    between atoms: C23_28  and  C24_29 
REMARK    8  A    between atoms: C24_29  and  C25_30 
REMARK       I    between atoms: C25_30  and  N1_32 
REMARK    9  A    between atoms: N1_32  and  C26_33 
REMARK   10  A    between atoms: C26_33  and  C27_34 
REMARK       I    between atoms: C27_34  and  N2_36 
REMARK   11  A    between atoms: N2_36  and  C28_37 
REMARK   12  A    between atoms: C28_37  and  C29_38 
REMARK   13  A    between atoms: C28_37  and  C38_48 
REMARK   14  A    between atoms: C29_38  and  C30_39 
REMARK   15  A    between atoms: C38_48  and  O9_50 
ROOT
HETATM    1  C22 UNL     1       5.478   6.957  11.326  1.00  0.00     0.259 C 
HETATM    2  O5  UNL     1       6.154   6.570  10.379  1.00  0.00    -0.265 OA
ENDROOT
BRANCH   1   3
HETATM    3  O4  UNL     1       4.173   6.621  11.542  1.00  0.00    -0.314 OA
BRANCH   3   4
HETATM    4  C21 UNL     1       3.260   7.099  10.555  1.00  0.00     0.260 C 
BRANCH   4   5
HETATM    5  C20 UNL     1       2.000   7.731  11.154  1.00  0.00     0.185 C 
HETATM    6  O3  UNL     1       2.043   8.835  11.707  1.00  0.00    -0.292 OA
BRANCH   5   7
HETATM    7  C19 UNL     1       0.687   6.915  11.031  1.00  0.00     0.128 C 
HETATM    8  C14 UNL     1      -0.330   7.071  12.213  1.00  0.00    -0.002 C 
HETATM    9  C13 UNL     1      -1.240   8.316  12.202  1.00  0.00     0.013 C 
HETATM   10  C15 UNL     1       0.397   7.017  13.588  1.00  0.00     0.019 C 
HETATM   11  C16 UNL     1      -1.220   5.821  11.949  1.00  0.00     0.002 C 
HETATM   12  C12 UNL     1      -2.402   8.196  13.211  1.00  0.00     0.007 C 
HETATM   13  C11 UNL     1      -3.230   6.908  12.990  1.00  0.00     0.002 C 
HETATM   14  C2  UNL     1      -4.468   6.729  13.932  1.00  0.00    -0.016 C 
HETATM   15  C10 UNL     1      -2.317   5.637  13.007  1.00  0.00    -0.004 C 
HETATM   16  C1  UNL     1      -4.040   6.423  15.387  1.00  0.00     0.020 C 
HETATM   17  C3  UNL     1      -5.361   7.998  13.925  1.00  0.00     0.022 C 
HETATM   18  C7  UNL     1      -5.298   5.563  13.389  1.00  0.00    -0.068 C 
HETATM   19  C4  UNL     1      -6.688   7.811  14.659  1.00  0.00     0.084 C 
HETATM   20  C5  UNL     1      -7.395   6.536  14.265  1.00  0.00     0.149 C 
HETATM   21  O1  UNL     1      -8.583   6.347  14.517  1.00  0.00    -0.293 OA
HETATM   22  C6  UNL     1      -6.630   5.479  13.563  1.00  0.00     0.053 C 
HETATM   23  C8  UNL     1      -4.598   4.535  12.526  1.00  0.00     0.035 C 
HETATM   24  C9  UNL     1      -3.122   4.331  12.861  1.00  0.00     0.010 C 
HETATM   25  C17 UNL     1      -0.199   4.704  11.737  1.00  0.00     0.009 C 
HETATM   26  C18 UNL     1       0.999   5.393  11.049  1.00  0.00     0.047 C 
BRANCH   7  27
HETATM   27  O2  UNL     1       0.050   7.159   9.771  1.00  0.00    -0.381 OA
HETATM   28  H27 UNL     1      -0.400   8.018   9.786  1.00  0.00     0.211 HD
ENDBRANCH   7  27
ENDBRANCH   5   7
ENDBRANCH   4   5
ENDBRANCH   3   4
ENDBRANCH   1   3
BRANCH   1  29
HETATM   29  C23 UNL     1       5.947   7.851  12.453  1.00  0.00     0.120 C 
BRANCH  29  30
HETATM   30  C24 UNL     1       6.616   7.079  13.584  1.00  0.00     0.112 C 
BRANCH  30  31
HETATM   31  C25 UNL     1       7.870   7.768  14.087  1.00  0.00     0.218 C 
HETATM   32  O6  UNL     1       8.519   8.564  13.420  1.00  0.00    -0.274 OA
HETATM   33  N1  UNL     1       8.213   7.395  15.370  1.00  0.00    -0.352 N 
HETATM   34  H34 UNL     1       7.659   6.706  15.865  1.00  0.00     0.162 HD
BRANCH  33  35
HETATM   35  C26 UNL     1       9.418   7.905  16.017  1.00  0.00     0.225 C 
BRANCH  35  36
HETATM   36  C27 UNL     1       9.139   9.088  16.958  1.00  0.00     0.236 C 
HETATM   37  O7  UNL     1       8.004   9.490  17.194  1.00  0.00    -0.272 OA
HETATM   38  N2  UNL     1      10.260   9.588  17.584  1.00  0.00    -0.345 N 
HETATM   39  H37 UNL     1      11.134   9.319  17.137  1.00  0.00     0.163 HD
BRANCH  38  40
HETATM   40  C28 UNL     1      10.293  10.971  18.092  1.00  0.00     0.186 C 
BRANCH  40  41
HETATM   41  C29 UNL     1       9.328  11.130  19.267  1.00  0.00     0.077 C 
BRANCH  41  42
HETATM   42  C30 UNL     1       9.163  12.553  19.703  1.00  0.00    -0.028 A 
HETATM   43  C31 UNL     1       9.351  13.683  18.932  1.00  0.00     0.096 A 
HETATM   44  N3  UNL     1       9.089  14.780  19.708  1.00  0.00    -0.365 N 
HETATM   45  C32 UNL     1       8.741  14.393  20.980  1.00  0.00     0.042 A 
HETATM   46  H42 UNL     1       9.135  15.739  19.393  1.00  0.00     0.165 HD
HETATM   47  C33 UNL     1       8.393  15.163  22.097  1.00  0.00     0.030 A 
HETATM   48  C37 UNL     1       8.778  12.999  21.007  1.00  0.00    -0.002 A 
HETATM   49  C34 UNL     1       8.067  14.484  23.275  1.00  0.00     0.002 A 
HETATM   50  C35 UNL     1       8.088  13.092  23.332  1.00  0.00     0.001 A 
HETATM   51  C36 UNL     1       8.442  12.339  22.206  1.00  0.00     0.014 A 
ENDBRANCH  41  42
ENDBRANCH  40  41
BRANCH  40  52
HETATM   52  C38 UNL     1      11.740  11.234  18.553  1.00  0.00     0.163 C 
HETATM   53  O8  UNL     1      12.479  12.139  18.208  1.00  0.00    -0.648 OA
BRANCH  52  54
HETATM   54  O9  UNL     1      12.133  10.323  19.484  1.00  0.00    -0.775 OA
HETATM   55  H47 UNL     1      13.115  10.410  19.592  1.00  0.00     0.167 HD
ENDBRANCH  52  54
ENDBRANCH  40  52
ENDBRANCH  38  40
ENDBRANCH  35  36
ENDBRANCH  33  35
ENDBRANCH  30  31
ENDBRANCH  29  30
ENDBRANCH   1  29
TORSDOF 15
ENDMDL
MODEL 7
REMARK minimizedAffinity -9.81686115
REMARK CNNscore 0.229137048
REMARK CNNaffinity 6.8382287
REMARK  15 active torsions:
REMARK  status: ('A' for Active; 'I' for Inactive)
REMARK    1  A    between atoms: C19_20  and  O2_21 
REMARK    2  A    between atoms: C19_20  and  C20_22 
REMARK    3  A    between atoms: C20_22  and  C21_24 
REMARK    4  A    between atoms: C21_24  and  O4_25 
REMARK    5  A    between atoms: O4_25  and  C22_26 
REMARK    6  A    between atoms: C22_26  and  C23_28 
REMARK    7  A    between atoms: C23_28  and  C24_29 
REMARK    8  A    between atoms: C24_29  and  C25_30 
REMARK       I    between atoms: C25_30  and  N1_32 
REMARK    9  A    between atoms: N1_32  and  C26_33 
REMARK   10  A    between atoms: C26_33  and  C27_34 
REMARK       I    between atoms: C27_34  and  N2_36 
REMARK   11  A    between atoms: N2_36  and  C28_37 
REMARK   12  A    between atoms: C28_37  and  C29_38 
REMARK   13  A    between atoms: C28_37  and  C38_48 
REMARK   14  A    between atoms: C29_38  and  C30_39 
REMARK   15  A    between atoms: C38_48  and  O9_50 
ROOT
HETATM    1  C22 UNL     1       0.449   6.675  11.027  1.00  0.00     0.259 C 
HETATM    2  O5  UNL     1       0.366   7.456  10.087  1.00  0.00    -0.265 OA
ENDROOT
BRANCH   1   3
HETATM    3  O4  UNL     1       0.339   5.318  10.927  1.00  0.00    -0.314 OA
BRANCH   3   4
HETATM    4  C21 UNL     1      -0.491   4.709  11.917  1.00  0.00     0.260 C 
BRANCH   4   5
HETATM    5  C20 UNL     1      -1.255   3.489  11.396  1.00  0.00     0.185 C 
HETATM    6  O3  UNL     1      -0.662   2.452  11.081  1.00  0.00    -0.292 OA
BRANCH   5   7
HETATM    7  C19 UNL     1      -2.796   3.628  11.288  1.00  0.00     0.128 C 
HETATM    8  C14 UNL     1      -3.513   4.294  12.512  1.00  0.00    -0.002 C 
HETATM    9  C13 UNL     1      -3.496   5.834  12.588  1.00  0.00     0.013 C 
HETATM   10  C15 UNL     1      -2.956   3.739  13.856  1.00  0.00     0.019 C 
HETATM   11  C16 UNL     1      -4.975   3.842  12.228  1.00  0.00     0.002 C 
HETATM   12  C12 UNL     1      -4.494   6.377  13.633  1.00  0.00     0.007 C 
HETATM   13  C11 UNL     1      -5.930   5.854  13.388  1.00  0.00     0.002 C 
HETATM   14  C2  UNL     1      -7.024   6.397  14.367  1.00  0.00    -0.016 C 
HETATM   15  C10 UNL     1      -5.959   4.291  13.318  1.00  0.00    -0.004 C 
HETATM   16  C1  UNL     1      -6.858   5.815  15.791  1.00  0.00     0.020 C 
HETATM   17  C3  UNL     1      -6.979   7.947  14.447  1.00  0.00     0.022 C 
HETATM   18  C7  UNL     1      -8.389   5.992  13.806  1.00  0.00    -0.068 C 
HETATM   19  C4  UNL     1      -8.151   8.549  15.221  1.00  0.00     0.084 C 
HETATM   20  C5  UNL     1      -9.482   7.974  14.799  1.00  0.00     0.149 C 
HETATM   21  O1  UNL     1     -10.546   8.518  15.088  1.00  0.00    -0.293 OA
HETATM   22  C6  UNL     1      -9.505   6.711  14.026  1.00  0.00     0.053 C 
HETATM   23  C8  UNL     1      -8.448   4.800  12.875  1.00  0.00     0.035 C 
HETATM   24  C9  UNL     1      -7.387   3.736  13.145  1.00  0.00     0.010 C 
HETATM   25  C17 UNL     1      -4.827   2.350  11.932  1.00  0.00     0.009 C 
HETATM   26  C18 UNL     1      -3.457   2.224  11.229  1.00  0.00     0.047 C 
BRANCH   7  27
HETATM   27  O2  UNL     1      -3.166   4.275  10.064  1.00  0.00    -0.381 OA
HETATM   28  H27 UNL     1      -3.011   5.230  10.132  1.00  0.00     0.211 HD
ENDBRANCH   7  27
ENDBRANCH   5   7
ENDBRANCH   4   5
ENDBRANCH   3   4
ENDBRANCH   1   3
BRANCH   1  29
HETATM   29  C23 UNL     1       0.716   7.037  12.472  1.00  0.00     0.120 C 
BRANCH  29  30
HETATM   30  C24 UNL     1      -0.553   7.385  13.242  1.00  0.00     0.112 C 
BRANCH  30  31
HETATM   31  C25 UNL     1      -0.879   8.865  13.176  1.00  0.00     0.218 C 
HETATM   32  O6  UNL     1      -1.224   9.436  12.149  1.00  0.00    -0.274 OA
HETATM   33  N1  UNL     1      -0.733   9.503  14.389  1.00  0.00    -0.352 N 
HETATM   34  H34 UNL     1      -0.411   8.989  15.201  1.00  0.00     0.162 HD
BRANCH  33  35
HETATM   35  C26 UNL     1      -0.948  10.941  14.526  1.00  0.00     0.225 C 
BRANCH  35  36
HETATM   36  C27 UNL     1      -0.438  11.498  15.865  1.00  0.00     0.236 C 
HETATM   37  O7  UNL     1      -0.597  12.668  16.197  1.00  0.00    -0.272 OA
HETATM   38  N2  UNL     1       0.120  10.550  16.695  1.00  0.00    -0.345 N 
HETATM   39  H37 UNL     1       0.386   9.692  16.217  1.00  0.00     0.163 HD
BRANCH  38  40
HETATM   40  C28 UNL     1       1.085  10.930  17.741  1.00  0.00     0.186 C 
BRANCH  40  41
HETATM   41  C29 UNL     1       0.466  10.750  19.128  1.00  0.00     0.077 C 
BRANCH  41  42
HETATM   42  C30 UNL     1       1.240  11.438  20.210  1.00  0.00    -0.028 A 
HETATM   43  C31 UNL     1       1.331  12.798  20.427  1.00  0.00     0.096 A 
HETATM   44  N3  UNL     1       2.128  13.005  21.521  1.00  0.00    -0.365 N 
HETATM   45  C32 UNL     1       2.571  11.805  22.024  1.00  0.00     0.042 A 
HETATM   46  H42 UNL     1       2.354  13.909  21.913  1.00  0.00     0.165 HD
HETATM   47  C33 UNL     1       3.397  11.533  23.122  1.00  0.00     0.030 A 
HETATM   48  C37 UNL     1       2.028  10.802  21.221  1.00  0.00    -0.002 A 
HETATM   49  C34 UNL     1       3.671  10.193  23.409  1.00  0.00     0.002 A 
HETATM   50  C35 UNL     1       3.139   9.167  22.630  1.00  0.00     0.001 A 
HETATM   51  C36 UNL     1       2.318   9.458  21.534  1.00  0.00     0.014 A 
ENDBRANCH  41  42
ENDBRANCH  40  41
BRANCH  40  52
HETATM   52  C38 UNL     1       2.300   9.996  17.577  1.00  0.00     0.163 C 
HETATM   53  O8  UNL     1       2.294   8.798  17.356  1.00  0.00    -0.648 OA
BRANCH  52  54
HETATM   54  O9  UNL     1       3.468  10.688  17.663  1.00  0.00    -0.775 OA
HETATM   55  H47 UNL     1       4.202  10.027  17.754  1.00  0.00     0.167 HD
ENDBRANCH  52  54
ENDBRANCH  40  52
ENDBRANCH  38  40
ENDBRANCH  35  36
ENDBRANCH  33  35
ENDBRANCH  30  31
ENDBRANCH  29  30
ENDBRANCH   1  29
TORSDOF 15
ENDMDL
MODEL 8
REMARK minimizedAffinity -8.84932041
REMARK CNNscore 0.221324578
REMARK CNNaffinity 5.83749247
REMARK  15 active torsions:
REMARK  status: ('A' for Active; 'I' for Inactive)
REMARK    1  A    between atoms: C19_20  and  O2_21 
REMARK    2  A    between atoms: C19_20  and  C20_22 
REMARK    3  A    between atoms: C20_22  and  C21_24 
REMARK    4  A    between atoms: C21_24  and  O4_25 
REMARK    5  A    between atoms: O4_25  and  C22_26 
REMARK    6  A    between atoms: C22_26  and  C23_28 
REMARK    7  A    between atoms: C23_28  and  C24_29 
REMARK    8  A    between atoms: C24_29  and  C25_30 
REMARK       I    between atoms: C25_30  and  N1_32 
REMARK    9  A    between atoms: N1_32  and  C26_33 
REMARK   10  A    between atoms: C26_33  and  C27_34 
REMARK       I    between atoms: C27_34  and  N2_36 
REMARK   11  A    between atoms: N2_36  and  C28_37 
REMARK   12  A    between atoms: C28_37  and  C29_38 
REMARK   13  A    between atoms: C28_37  and  C38_48 
REMARK   14  A    between atoms: C29_38  and  C30_39 
REMARK   15  A    between atoms: C38_48  and  O9_50 
ROOT
HETATM    1  C22 UNL     1      -0.399   9.568  16.447  1.00  0.00     0.259 C 
HETATM    2  O5  UNL     1      -1.432  10.042  15.990  1.00  0.00    -0.265 OA
ENDROOT
BRANCH   1   3
HETATM    3  O4  UNL     1       0.484  10.241  17.242  1.00  0.00    -0.314 OA
BRANCH   3   4
HETATM    4  C21 UNL     1       1.858   9.940  16.999  1.00  0.00     0.260 C 
BRANCH   4   5
HETATM    5  C20 UNL     1       2.605  11.066  16.279  1.00  0.00     0.185 C 
HETATM    6  O3  UNL     1       2.858  10.992  15.072  1.00  0.00    -0.292 OA
BRANCH   5   7
HETATM    7  C19 UNL     1       3.021  12.287  17.141  1.00  0.00     0.128 C 
HETATM    8  C14 UNL     1       3.751  11.958  18.488  1.00  0.00    -0.002 C 
HETATM    9  C13 UNL     1       5.258  11.642  18.416  1.00  0.00     0.013 C 
HETATM   10  C15 UNL     1       3.048  10.785  19.234  1.00  0.00     0.019 C 
HETATM   11  C16 UNL     1       3.579  13.326  19.211  1.00  0.00     0.002 C 
HETATM   12  C12 UNL     1       5.925  11.661  19.808  1.00  0.00     0.007 C 
HETATM   13  C11 UNL     1       5.677  12.996  20.550  1.00  0.00     0.002 C 
HETATM   14  C2  UNL     1       6.365  13.128  21.951  1.00  0.00    -0.016 C 
HETATM   15  C10 UNL     1       4.149  13.321  20.637  1.00  0.00    -0.004 C 
HETATM   16  C1  UNL     1       5.701  12.209  23.004  1.00  0.00     0.020 C 
HETATM   17  C3  UNL     1       7.876  12.788  21.864  1.00  0.00     0.022 C 
HETATM   18  C7  UNL     1       6.234  14.588  22.394  1.00  0.00    -0.068 C 
HETATM   19  C4  UNL     1       8.644  13.099  23.148  1.00  0.00     0.084 C 
HETATM   20  C5  UNL     1       8.334  14.473  23.692  1.00  0.00     0.149 C 
HETATM   21  O1  UNL     1       9.046  15.014  24.535  1.00  0.00    -0.293 OA
HETATM   22  C6  UNL     1       7.130  15.183  23.202  1.00  0.00     0.053 C 
HETATM   23  C8  UNL     1       5.112  15.413  21.799  1.00  0.00     0.035 C 
HETATM   24  C9  UNL     1       3.865  14.610  21.433  1.00  0.00     0.010 C 
HETATM   25  C17 UNL     1       2.099  13.645  19.006  1.00  0.00     0.009 C 
HETATM   26  C18 UNL     1       1.761  13.060  17.617  1.00  0.00     0.047 C 
BRANCH   7  27
HETATM   27  O2  UNL     1       3.776  13.226  16.366  1.00  0.00    -0.381 OA
HETATM   28  H27 UNL     1       4.684  12.907  16.248  1.00  0.00     0.211 HD
ENDBRANCH   7  27
ENDBRANCH   5   7
ENDBRANCH   4   5
ENDBRANCH   3   4
ENDBRANCH   1   3
BRANCH   1  29
HETATM   29  C23 UNL     1       0.098   8.152  16.255  1.00  0.00     0.120 C 
BRANCH  29  30
HETATM   30  C24 UNL     1      -0.861   7.292  15.439  1.00  0.00     0.112 C 
BRANCH  30  31
HETATM   31  C25 UNL     1      -0.379   7.086  14.016  1.00  0.00     0.218 C 
HETATM   32  O6  UNL     1      -0.878   7.643  13.046  1.00  0.00    -0.274 OA
HETATM   33  N1  UNL     1       0.670   6.196  13.925  1.00  0.00    -0.352 N 
HETATM   34  H34 UNL     1       1.023   5.737  14.757  1.00  0.00     0.162 HD
BRANCH  33  35
HETATM   35  C26 UNL     1       1.243   5.820  12.635  1.00  0.00     0.225 C 
BRANCH  35  36
HETATM   36  C27 UNL     1       0.338   4.875  11.829  1.00  0.00     0.236 C 
HETATM   37  O7  UNL     1       0.257   4.922  10.607  1.00  0.00    -0.272 OA
HETATM   38  N2  UNL     1      -0.291   3.913  12.590  1.00  0.00    -0.345 N 
HETATM   39  H37 UNL     1      -0.315   4.126  13.584  1.00  0.00     0.163 HD
BRANCH  38  40
HETATM   40  C28 UNL     1      -1.536   3.273  12.126  1.00  0.00     0.186 C 
BRANCH  40  41
HETATM   41  C29 UNL     1      -2.483   4.317  11.533  1.00  0.00     0.077 C 
BRANCH  41  42
HETATM   42  C30 UNL     1      -3.784   4.412  12.266  1.00  0.00    -0.028 A 
HETATM   43  C31 UNL     1      -4.166   5.399  13.153  1.00  0.00     0.096 A 
HETATM   44  N3  UNL     1      -5.432   5.116  13.592  1.00  0.00    -0.365 N 
HETATM   45  C32 UNL     1      -5.888   3.954  13.017  1.00  0.00     0.042 A 
HETATM   46  H42 UNL     1      -5.963   5.683  14.239  1.00  0.00     0.165 HD
HETATM   47  C33 UNL     1      -7.111   3.289  13.167  1.00  0.00     0.030 A 
HETATM   48  C37 UNL     1      -4.875   3.489  12.178  1.00  0.00    -0.002 A 
HETATM   49  C34 UNL     1      -7.305   2.116  12.433  1.00  0.00     0.002 A 
HETATM   50  C35 UNL     1      -6.315   1.629  11.582  1.00  0.00     0.001 A 
HETATM   51  C36 UNL     1      -5.097   2.305  11.446  1.00  0.00     0.014 A 
ENDBRANCH  41  42
ENDBRANCH  40  41
BRANCH  40  52
HETATM   52  C38 UNL     1      -1.127   2.252  11.046  1.00  0.00     0.163 C 
HETATM   53  O8  UNL     1      -0.333   1.334  11.151  1.00  0.00    -0.648 OA
BRANCH  52  54
HETATM   54  O9  UNL     1      -1.816   2.456   9.890  1.00  0.00    -0.775 OA
HETATM   55  H47 UNL     1      -1.377   1.917   9.182  1.00  0.00     0.167 HD
ENDBRANCH  52  54
ENDBRANCH  40  52
ENDBRANCH  38  40
ENDBRANCH  35  36
ENDBRANCH  33  35
ENDBRANCH  30  31
ENDBRANCH  29  30
ENDBRANCH   1  29
TORSDOF 15
ENDMDL
MODEL 9
REMARK minimizedAffinity -9.22740269
REMARK CNNscore 0.217811152
REMARK CNNaffinity 6.46028757
REMARK  15 active torsions:
REMARK  status: ('A' for Active; 'I' for Inactive)
REMARK    1  A    between atoms: C19_20  and  O2_21 
REMARK    2  A    between atoms: C19_20  and  C20_22 
REMARK    3  A    between atoms: C20_22  and  C21_24 
REMARK    4  A    between atoms: C21_24  and  O4_25 
REMARK    5  A    between atoms: O4_25  and  C22_26 
REMARK    6  A    between atoms: C22_26  and  C23_28 
REMARK    7  A    between atoms: C23_28  and  C24_29 
REMARK    8  A    between atoms: C24_29  and  C25_30 
REMARK       I    between atoms: C25_30  and  N1_32 
REMARK    9  A    between atoms: N1_32  and  C26_33 
REMARK   10  A    between atoms: C26_33  and  C27_34 
REMARK       I    between atoms: C27_34  and  N2_36 
REMARK   11  A    between atoms: N2_36  and  C28_37 
REMARK   12  A    between atoms: C28_37  and  C29_38 
REMARK   13  A    between atoms: C28_37  and  C38_48 
REMARK   14  A    between atoms: C29_38  and  C30_39 
REMARK   15  A    between atoms: C38_48  and  O9_50 
ROOT
HETATM    1  C22 UNL     1       5.311   7.772  11.255  1.00  0.00     0.259 C 
HETATM    2  O5  UNL     1       5.088   8.369  10.208  1.00  0.00    -0.265 OA
ENDROOT
BRANCH   1   3
HETATM    3  O4  UNL     1       4.360   7.170  12.027  1.00  0.00    -0.314 OA
BRANCH   3   4
HETATM    4  C21 UNL     1       3.259   6.621  11.301  1.00  0.00     0.260 C 
BRANCH   4   5
HETATM    5  C20 UNL     1       1.960   7.410  11.490  1.00  0.00     0.185 C 
HETATM    6  O3  UNL     1       1.980   8.611  11.777  1.00  0.00    -0.292 OA
BRANCH   5   7
HETATM    7  C19 UNL     1       0.635   6.623  11.304  1.00  0.00     0.128 C 
HETATM    8  C14 UNL     1      -0.437   6.811  12.430  1.00  0.00    -0.002 C 
HETATM    9  C13 UNL     1      -1.316   8.077  12.364  1.00  0.00     0.013 C 
HETATM   10  C15 UNL     1       0.217   6.752  13.842  1.00  0.00     0.019 C 
HETATM   11  C16 UNL     1      -1.341   5.581  12.129  1.00  0.00     0.002 C 
HETATM   12  C12 UNL     1      -2.531   7.992  13.312  1.00  0.00     0.007 C 
HETATM   13  C11 UNL     1      -3.377   6.721  13.057  1.00  0.00     0.002 C 
HETATM   14  C2  UNL     1      -4.665   6.578  13.935  1.00  0.00    -0.016 C 
HETATM   15  C10 UNL     1      -2.496   5.430  13.130  1.00  0.00    -0.004 C 
HETATM   16  C1  UNL     1      -4.321   6.274  15.413  1.00  0.00     0.020 C 
HETATM   17  C3  UNL     1      -5.527   7.867  13.873  1.00  0.00     0.022 C 
HETATM   18  C7  UNL     1      -5.494   5.428  13.357  1.00  0.00    -0.068 C 
HETATM   19  C4  UNL     1      -6.894   7.717  14.539  1.00  0.00     0.084 C 
HETATM   20  C5  UNL     1      -7.609   6.455  14.117  1.00  0.00     0.149 C 
HETATM   21  O1  UNL     1      -8.813   6.295  14.309  1.00  0.00    -0.293 OA
HETATM   22  C6  UNL     1      -6.834   5.376  13.463  1.00  0.00     0.053 C 
HETATM   23  C8  UNL     1      -4.774   4.377  12.539  1.00  0.00     0.035 C 
HETATM   24  C9  UNL     1      -3.323   4.142  12.951  1.00  0.00     0.010 C 
HETATM   25  C17 UNL     1      -0.337   4.438  11.978  1.00  0.00     0.009 C 
HETATM   26  C18 UNL     1       0.911   5.095  11.349  1.00  0.00     0.047 C 
BRANCH   7  27
HETATM   27  O2  UNL     1       0.070   6.872  10.011  1.00  0.00    -0.381 OA
HETATM   28  H27 UNL     1      -0.359   7.741   9.997  1.00  0.00     0.211 HD
ENDBRANCH   7  27
ENDBRANCH   5   7
ENDBRANCH   4   5
ENDBRANCH   3   4
ENDBRANCH   1   3
BRANCH   1  29
HETATM   29  C23 UNL     1       6.666   7.554  11.890  1.00  0.00     0.120 C 
BRANCH  29  30
HETATM   30  C24 UNL     1       6.618   7.567  13.413  1.00  0.00     0.112 C 
BRANCH  30  31
HETATM   31  C25 UNL     1       7.997   7.683  14.032  1.00  0.00     0.218 C 
HETATM   32  O6  UNL     1       9.020   7.851  13.379  1.00  0.00    -0.274 OA
HETATM   33  N1  UNL     1       7.983   7.567  15.406  1.00  0.00    -0.352 N 
HETATM   34  H34 UNL     1       7.112   7.395  15.895  1.00  0.00     0.162 HD
BRANCH  33  35
HETATM   35  C26 UNL     1       9.216   7.598  16.188  1.00  0.00     0.225 C 
BRANCH  35  36
HETATM   36  C27 UNL     1       9.618   9.018  16.619  1.00  0.00     0.236 C 
HETATM   37  O7  UNL     1       9.430   9.441  17.754  1.00  0.00    -0.272 OA
HETATM   38  N2  UNL     1      10.292   9.731  15.651  1.00  0.00    -0.345 N 
HETATM   39  H37 UNL     1      10.180   9.356  14.712  1.00  0.00     0.163 HD
BRANCH  38  40
HETATM   40  C28 UNL     1      10.306  11.205  15.667  1.00  0.00     0.186 C 
BRANCH  40  41
HETATM   41  C29 UNL     1      11.475  11.735  14.837  1.00  0.00     0.077 C 
BRANCH  41  42
HETATM   42  C30 UNL     1      12.796  11.600  15.529  1.00  0.00    -0.028 A 
HETATM   43  C31 UNL     1      13.905  10.917  15.072  1.00  0.00     0.096 A 
HETATM   44  N3  UNL     1      14.902  11.048  16.001  1.00  0.00    -0.365 N 
HETATM   45  C32 UNL     1      14.467  11.799  17.067  1.00  0.00     0.042 A 
HETATM   46  H42 UNL     1      15.831  10.659  15.916  1.00  0.00     0.165 HD
HETATM   47  C33 UNL     1      15.136  12.188  18.234  1.00  0.00     0.030 A 
HETATM   48  C37 UNL     1      13.147  12.161  16.798  1.00  0.00    -0.002 A 
HETATM   49  C34 UNL     1      14.434  12.976  19.151  1.00  0.00     0.002 A 
HETATM   50  C35 UNL     1      13.117  13.359  18.909  1.00  0.00     0.001 A 
HETATM   51  C36 UNL     1      12.462  12.958  17.738  1.00  0.00     0.014 A 
ENDBRANCH  41  42
ENDBRANCH  40  41
BRANCH  40  52
HETATM   52  C38 UNL     1       8.969  11.662  15.054  1.00  0.00     0.163 C 
HETATM   53  O8  UNL     1       8.796  12.490  14.176  1.00  0.00    -0.648 OA
BRANCH  52  54
HETATM   54  O9  UNL     1       7.922  10.977  15.588  1.00  0.00    -0.775 OA
HETATM   55  H47 UNL     1       7.089  11.442  15.316  1.00  0.00     0.167 HD
ENDBRANCH  52  54
ENDBRANCH  40  52
ENDBRANCH  38  40
ENDBRANCH  35  36
ENDBRANCH  33  35
ENDBRANCH  30  31
ENDBRANCH  29  30
ENDBRANCH   1  29
TORSDOF 15
ENDMDL
