MODEL 1
REMARK minimizedAffinity -7.72285461
REMARK CNNscore 0.626452982
REMARK CNNaffinity 6.9223752
REMARK  4 active torsions:
REMARK  status: ('A' for Active; 'I' for Inactive)
REMARK    1  A    between atoms: C4_4  and  C5_5 
REMARK    2  A    between atoms: C5_5  and  C6_6 
REMARK    3  A    between atoms: C6_6  and  C7_7 
REMARK    4  A    between atoms: C7_7  and  C9_9 
ROOT
HETATM    1  C9  UNL     1      -1.595  52.028  -9.796  1.00  0.00    -0.001 C 
HETATM    2  C10 UNL     1      -0.787  50.699  -9.722  1.00  0.00     0.007 C 
HETATM    3  C11 UNL     1       0.709  51.056  -9.694  1.00  0.00     0.024 C 
HETATM    4  C12 UNL     1       0.735  52.565  -9.613  1.00  0.00     0.092 C 
HETATM    5  C13 UNL     1       0.713  53.060  -8.144  1.00  0.00     0.272 C 
HETATM    6  O1  UNL     1       0.267  52.485  -7.168  1.00  0.00    -0.264 OA
HETATM    7  O2  UNL     1       1.311  54.306  -8.098  1.00  0.00    -0.305 OA
HETATM    8  C14 UNL     1       1.732  54.676  -9.434  1.00  0.00     0.113 C 
HETATM    9  C15 UNL     1       0.508  55.372 -10.107  1.00  0.00     0.043 C 
HETATM   10  C16 UNL     1      -0.798  54.533 -10.040  1.00  0.00     0.014 C 
HETATM   11  C17 UNL     1      -0.550  53.038 -10.369  1.00  0.00    -0.020 C 
HETATM   12  C18 UNL     1      -0.430  52.886 -11.908  1.00  0.00     0.017 C 
HETATM   13  C19 UNL     1       1.924  53.328 -10.047  1.00  0.00     0.137 A 
HETATM   14  O3  UNL     1       2.507  53.167 -11.324  1.00  0.00    -0.364 OA
HETATM   15  C20 UNL     1       3.289  52.711 -10.197  1.00  0.00     0.162 A 
HETATM   16  C21 UNL     1       4.515  53.515  -9.921  1.00  0.00     0.041 C 
HETATM   17  C22 UNL     1       4.254  54.651  -8.907  1.00  0.00     0.010 C 
HETATM   18  C23 UNL     1       5.550  55.461  -8.625  1.00  0.00     0.056 C 
HETATM   19  C24 UNL     1       6.682  54.596  -8.063  1.00  0.00     0.018 C 
HETATM   20  C25 UNL     1       5.248  56.609  -7.664  1.00  0.00     0.131 C 
HETATM   21  O4  UNL     1       5.942  56.857  -6.679  1.00  0.00    -0.298 OA
HETATM   22  C26 UNL     1       4.097  57.508  -8.038  1.00  0.00     0.079 C 
HETATM   23  C27 UNL     1       2.850  56.674  -8.287  1.00  0.00     0.020 C 
HETATM   24  C28 UNL     1       3.039  55.555  -9.358  1.00  0.00    -0.004 C 
HETATM   25  C29 UNL     1       3.319  56.231 -10.727  1.00  0.00     0.019 C 
ENDROOT
BRANCH   1  26
HETATM   26  C7  UNL     1      -2.961  51.849 -10.515  1.00  0.00    -0.014 C 
HETATM   27  C8  UNL     1      -3.848  53.094 -10.429  1.00  0.00     0.010 C 
BRANCH  26  28
HETATM   28  C6  UNL     1      -3.754  50.589 -10.066  1.00  0.00     0.008 C 
BRANCH  28  29
HETATM   29  C5  UNL     1      -5.257  50.527 -10.389  1.00  0.00     0.028 C 
BRANCH  29  30
HETATM   30  C4  UNL     1      -5.715  49.212 -10.950  1.00  0.00    -0.025 C 
HETATM   31  C2  UNL     1      -6.974  48.743 -11.057  1.00  0.00    -0.091 C 
HETATM   32  C1  UNL     1      -8.220  49.464 -10.628  1.00  0.00     0.042 C 
HETATM   33  C3  UNL     1      -7.228  47.374 -11.638  1.00  0.00     0.042 C 
ENDBRANCH  29  30
ENDBRANCH  28  29
ENDBRANCH  26  28
ENDBRANCH   1  26
TORSDOF 4
ENDMDL
MODEL 2
REMARK minimizedAffinity -7.2198782
REMARK CNNscore 0.304178476
REMARK CNNaffinity 5.60376358
REMARK  4 active torsions:
REMARK  status: ('A' for Active; 'I' for Inactive)
REMARK    1  A    between atoms: C4_4  and  C5_5 
REMARK    2  A    between atoms: C5_5  and  C6_6 
REMARK    3  A    between atoms: C6_6  and  C7_7 
REMARK    4  A    between atoms: C7_7  and  C9_9 
ROOT
HETATM    1  C9  UNL     1      -7.973  46.671 -29.215  1.00  0.00    -0.001 C 
HETATM    2  C10 UNL     1      -7.699  47.407 -27.871  1.00  0.00     0.007 C 
HETATM    3  C11 UNL     1      -9.000  47.394 -27.051  1.00  0.00     0.024 C 
HETATM    4  C12 UNL     1      -9.949  46.543 -27.863  1.00  0.00     0.092 C 
HETATM    5  C13 UNL     1      -9.838  45.043 -27.486  1.00  0.00     0.272 C 
HETATM    6  O1  UNL     1      -8.881  44.460 -27.009  1.00  0.00    -0.264 OA
HETATM    7  O2  UNL     1     -11.045  44.432 -27.777  1.00  0.00    -0.305 OA
HETATM    8  C14 UNL     1     -11.954  45.421 -28.319  1.00  0.00     0.113 C 
HETATM    9  C15 UNL     1     -11.693  45.467 -29.857  1.00  0.00     0.043 C 
HETATM   10  C16 UNL     1     -10.199  45.676 -30.227  1.00  0.00     0.014 C 
HETATM   11  C17 UNL     1      -9.527  46.766 -29.352  1.00  0.00    -0.020 C 
HETATM   12  C18 UNL     1      -9.944  48.158 -29.892  1.00  0.00     0.017 C 
HETATM   13  C19 UNL     1     -11.412  46.667 -27.696  1.00  0.00     0.137 A 
HETATM   14  O3  UNL     1     -12.087  47.904 -27.796  1.00  0.00    -0.364 OA
HETATM   15  C20 UNL     1     -12.053  47.293 -26.487  1.00  0.00     0.162 A 
HETATM   16  C21 UNL     1     -13.372  46.802 -25.992  1.00  0.00     0.041 C 
HETATM   17  C22 UNL     1     -13.619  45.321 -26.355  1.00  0.00     0.010 C 
HETATM   18  C23 UNL     1     -14.990  44.831 -25.814  1.00  0.00     0.056 C 
HETATM   19  C24 UNL     1     -15.108  44.955 -24.291  1.00  0.00     0.018 C 
HETATM   20  C25 UNL     1     -15.229  43.382 -26.235  1.00  0.00     0.131 C 
HETATM   21  O4  UNL     1     -15.616  42.513 -25.455  1.00  0.00    -0.298 OA
HETATM   22  C26 UNL     1     -15.067  43.078 -27.703  1.00  0.00     0.079 C 
HETATM   23  C27 UNL     1     -13.707  43.560 -28.182  1.00  0.00     0.020 C 
HETATM   24  C28 UNL     1     -13.434  45.071 -27.904  1.00  0.00    -0.004 C 
HETATM   25  C29 UNL     1     -14.443  45.910 -28.733  1.00  0.00     0.019 C 
ENDROOT
BRANCH   1  26
HETATM   26  C7  UNL     1      -7.070  47.192 -30.368  1.00  0.00    -0.014 C 
HETATM   27  C8  UNL     1      -7.261  46.416 -31.674  1.00  0.00     0.010 C 
BRANCH  26  28
HETATM   28  C6  UNL     1      -5.560  47.273 -30.005  1.00  0.00     0.008 C 
BRANCH  28  29
HETATM   29  C5  UNL     1      -5.052  48.546 -29.305  1.00  0.00     0.028 C 
BRANCH  29  30
HETATM   30  C4  UNL     1      -4.370  48.297 -27.991  1.00  0.00    -0.025 C 
HETATM   31  C2  UNL     1      -3.507  49.097 -27.333  1.00  0.00    -0.091 C 
HETATM   32  C1  UNL     1      -3.038  50.449 -27.791  1.00  0.00     0.042 C 
HETATM   33  C3  UNL     1      -2.910  48.654 -26.020  1.00  0.00     0.042 C 
ENDBRANCH  29  30
ENDBRANCH  28  29
ENDBRANCH  26  28
ENDBRANCH   1  26
TORSDOF 4
ENDMDL
MODEL 3
REMARK minimizedAffinity -7.9446826
REMARK CNNscore 0.251600683
REMARK CNNaffinity 5.43108559
REMARK  4 active torsions:
REMARK  status: ('A' for Active; 'I' for Inactive)
REMARK    1  A    between atoms: C4_4  and  C5_5 
REMARK    2  A    between atoms: C5_5  and  C6_6 
REMARK    3  A    between atoms: C6_6  and  C7_7 
REMARK    4  A    between atoms: C7_7  and  C9_9 
ROOT
HETATM    1  C9  UNL     1      -9.951  47.065 -27.048  1.00  0.00    -0.001 C 
HETATM    2  C10 UNL     1     -10.242  46.574 -28.496  1.00  0.00     0.007 C 
HETATM    3  C11 UNL     1     -11.648  45.953 -28.512  1.00  0.00     0.024 C 
HETATM    4  C12 UNL     1     -12.192  46.215 -27.126  1.00  0.00     0.092 C 
HETATM    5  C13 UNL     1     -12.926  47.578 -27.048  1.00  0.00     0.272 C 
HETATM    6  O1  UNL     1     -12.753  48.563 -27.744  1.00  0.00    -0.264 OA
HETATM    7  O2  UNL     1     -13.860  47.510 -26.030  1.00  0.00    -0.305 OA
HETATM    8  C14 UNL     1     -13.801  46.195 -25.424  1.00  0.00     0.113 C 
HETATM    9  C15 UNL     1     -12.706  46.268 -24.314  1.00  0.00     0.043 C 
HETATM   10  C16 UNL     1     -11.345  46.820 -24.819  1.00  0.00     0.014 C 
HETATM   11  C17 UNL     1     -10.940  46.214 -26.188  1.00  0.00    -0.020 C 
HETATM   12  C18 UNL     1     -10.372  44.792 -25.949  1.00  0.00     0.017 C 
HETATM   13  C19 UNL     1     -13.281  45.387 -26.568  1.00  0.00     0.137 A 
HETATM   14  O3  UNL     1     -13.212  43.976 -26.512  1.00  0.00    -0.364 OA
HETATM   15  C20 UNL     1     -14.189  44.539 -27.418  1.00  0.00     0.162 A 
HETATM   16  C21 UNL     1     -15.609  44.320 -27.018  1.00  0.00     0.041 C 
HETATM   17  C22 UNL     1     -16.163  45.482 -26.164  1.00  0.00     0.010 C 
HETATM   18  C23 UNL     1     -17.648  45.236 -25.777  1.00  0.00     0.056 C 
HETATM   19  C24 UNL     1     -18.564  45.086 -26.996  1.00  0.00     0.018 C 
HETATM   20  C25 UNL     1     -18.149  46.374 -24.889  1.00  0.00     0.131 C 
HETATM   21  O4  UNL     1     -19.221  46.946 -25.077  1.00  0.00    -0.298 OA
HETATM   22  C26 UNL     1     -17.305  46.702 -23.684  1.00  0.00     0.079 C 
HETATM   23  C27 UNL     1     -15.867  46.950 -24.114  1.00  0.00     0.020 C 
HETATM   24  C28 UNL     1     -15.234  45.773 -24.920  1.00  0.00    -0.004 C 
HETATM   25  C29 UNL     1     -15.139  44.537 -23.987  1.00  0.00     0.019 C 
ENDROOT
BRANCH   1  26
HETATM   26  C7  UNL     1      -8.434  47.045 -26.712  1.00  0.00    -0.014 C 
HETATM   27  C8  UNL     1      -8.126  47.577 -25.309  1.00  0.00     0.010 C 
BRANCH  26  28
HETATM   28  C6  UNL     1      -7.540  47.758 -27.767  1.00  0.00     0.008 C 
BRANCH  28  29
HETATM   29  C5  UNL     1      -6.183  47.123 -28.113  1.00  0.00     0.028 C 
BRANCH  29  30
HETATM   30  C4  UNL     1      -5.046  48.100 -28.193  1.00  0.00    -0.025 C 
HETATM   31  C2  UNL     1      -4.324  48.625 -27.184  1.00  0.00    -0.091 C 
HETATM   32  C1  UNL     1      -4.510  48.328 -25.722  1.00  0.00     0.042 C 
HETATM   33  C3  UNL     1      -3.223  49.616 -27.471  1.00  0.00     0.042 C 
ENDBRANCH  29  30
ENDBRANCH  28  29
ENDBRANCH  26  28
ENDBRANCH   1  26
TORSDOF 4
ENDMDL
MODEL 4
REMARK minimizedAffinity -8.67224216
REMARK CNNscore 0.174359187
REMARK CNNaffinity 6.28636026
REMARK  4 active torsions:
REMARK  status: ('A' for Active; 'I' for Inactive)
REMARK    1  A    between atoms: C4_4  and  C5_5 
REMARK    2  A    between atoms: C5_5  and  C6_6 
REMARK    3  A    between atoms: C6_6  and  C7_7 
REMARK    4  A    between atoms: C7_7  and  C9_9 
ROOT
HETATM    1  C9  UNL     1      -6.309  49.204 -23.503  1.00  0.00    -0.001 C 
HETATM    2  C10 UNL     1      -7.109  49.785 -22.301  1.00  0.00     0.007 C 
HETATM    3  C11 UNL     1      -6.099  50.351 -21.289  1.00  0.00     0.024 C 
HETATM    4  C12 UNL     1      -4.759  50.214 -21.977  1.00  0.00     0.092 C 
HETATM    5  C13 UNL     1      -4.424  51.465 -22.830  1.00  0.00     0.272 C 
HETATM    6  O1  UNL     1      -5.199  52.257 -23.334  1.00  0.00    -0.264 OA
HETATM    7  O2  UNL     1      -3.047  51.561 -22.933  1.00  0.00    -0.305 OA
HETATM    8  C14 UNL     1      -2.442  50.463 -22.207  1.00  0.00     0.113 C 
HETATM    9  C15 UNL     1      -2.358  49.266 -23.205  1.00  0.00     0.043 C 
HETATM   10  C16 UNL     1      -3.711  48.932 -23.890  1.00  0.00     0.014 C 
HETATM   11  C17 UNL     1      -4.895  48.950 -22.888  1.00  0.00    -0.020 C 
HETATM   12  C18 UNL     1      -4.879  47.626 -22.083  1.00  0.00     0.017 C 
HETATM   13  C19 UNL     1      -3.505  50.181 -21.196  1.00  0.00     0.137 A 
HETATM   14  O3  UNL     1      -3.297  49.278 -20.129  1.00  0.00    -0.364 OA
HETATM   15  C20 UNL     1      -3.404  50.676 -19.779  1.00  0.00     0.162 A 
HETATM   16  C21 UNL     1      -2.140  51.295 -19.284  1.00  0.00     0.041 C 
HETATM   17  C22 UNL     1      -1.321  51.944 -20.422  1.00  0.00     0.010 C 
HETATM   18  C23 UNL     1      -0.019  52.595 -19.877  1.00  0.00     0.056 C 
HETATM   19  C24 UNL     1      -0.290  53.680 -18.830  1.00  0.00     0.018 C 
HETATM   20  C25 UNL     1       0.794  53.178 -21.031  1.00  0.00     0.131 C 
HETATM   21  O4  UNL     1       1.276  54.310 -21.004  1.00  0.00    -0.298 OA
HETATM   22  C26 UNL     1       1.074  52.252 -22.186  1.00  0.00     0.079 C 
HETATM   23  C27 UNL     1      -0.228  51.653 -22.695  1.00  0.00     0.020 C 
HETATM   24  C28 UNL     1      -1.062  50.921 -21.598  1.00  0.00    -0.004 C 
HETATM   25  C29 UNL     1      -0.251  49.693 -21.107  1.00  0.00     0.019 C 
ENDROOT
BRANCH   1  26
HETATM   26  C7  UNL     1      -7.059  48.036 -24.202  1.00  0.00    -0.014 C 
HETATM   27  C8  UNL     1      -6.565  47.778 -25.629  1.00  0.00     0.010 C 
BRANCH  26  28
HETATM   28  C6  UNL     1      -8.608  48.177 -24.185  1.00  0.00     0.008 C 
BRANCH  28  29
HETATM   29  C5  UNL     1      -9.441  47.092 -24.891  1.00  0.00     0.028 C 
BRANCH  29  30
HETATM   30  C4  UNL     1     -10.279  47.600 -26.028  1.00  0.00    -0.025 C 
HETATM   31  C2  UNL     1     -11.615  47.517 -26.183  1.00  0.00    -0.091 C 
HETATM   32  C1  UNL     1     -12.574  46.881 -25.216  1.00  0.00     0.042 C 
HETATM   33  C3  UNL     1     -12.273  48.077 -27.419  1.00  0.00     0.042 C 
ENDBRANCH  29  30
ENDBRANCH  28  29
ENDBRANCH  26  28
ENDBRANCH   1  26
TORSDOF 4
ENDMDL
MODEL 5
REMARK minimizedAffinity -8.60215092
REMARK CNNscore 0.145610705
REMARK CNNaffinity 6.37950182
REMARK  4 active torsions:
REMARK  status: ('A' for Active; 'I' for Inactive)
REMARK    1  A    between atoms: C4_4  and  C5_5 
REMARK    2  A    between atoms: C5_5  and  C6_6 
REMARK    3  A    between atoms: C6_6  and  C7_7 
REMARK    4  A    between atoms: C7_7  and  C9_9 
ROOT
HETATM    1  C9  UNL     1      -1.701  51.492 -22.337  1.00  0.00    -0.001 C 
HETATM    2  C10 UNL     1      -3.064  52.185 -22.631  1.00  0.00     0.007 C 
HETATM    3  C11 UNL     1      -4.185  51.218 -22.214  1.00  0.00     0.024 C 
HETATM    4  C12 UNL     1      -3.462  50.058 -21.569  1.00  0.00     0.092 C 
HETATM    5  C13 UNL     1      -3.258  50.285 -20.049  1.00  0.00     0.272 C 
HETATM    6  O1  UNL     1      -3.196  51.345 -19.452  1.00  0.00    -0.264 OA
HETATM    7  O2  UNL     1      -3.159  49.049 -19.436  1.00  0.00    -0.305 OA
HETATM    8  C14 UNL     1      -3.286  48.013 -20.441  1.00  0.00     0.113 C 
HETATM    9  C15 UNL     1      -1.852  47.764 -21.003  1.00  0.00     0.043 C 
HETATM   10  C16 UNL     1      -1.139  49.059 -21.482  1.00  0.00     0.014 C 
HETATM   11  C17 UNL     1      -2.083  49.977 -22.301  1.00  0.00    -0.020 C 
HETATM   12  C18 UNL     1      -2.198  49.408 -23.738  1.00  0.00     0.017 C 
HETATM   13  C19 UNL     1      -4.097  48.726 -21.473  1.00  0.00     0.137 A 
HETATM   14  O3  UNL     1      -4.630  48.055 -22.596  1.00  0.00    -0.364 OA
HETATM   15  C20 UNL     1      -5.580  48.510 -21.607  1.00  0.00     0.162 A 
HETATM   16  C21 UNL     1      -6.255  47.421 -20.842  1.00  0.00     0.041 C 
HETATM   17  C22 UNL     1      -5.507  47.070 -19.537  1.00  0.00     0.010 C 
HETATM   18  C23 UNL     1      -6.240  45.947 -18.753  1.00  0.00     0.056 C 
HETATM   19  C24 UNL     1      -7.675  46.326 -18.371  1.00  0.00     0.018 C 
HETATM   20  C25 UNL     1      -5.448  45.585 -17.498  1.00  0.00     0.131 C 
HETATM   21  O4  UNL     1      -5.968  45.471 -16.389  1.00  0.00    -0.298 OA
HETATM   22  C26 UNL     1      -3.989  45.265 -17.699  1.00  0.00     0.079 C 
HETATM   23  C27 UNL     1      -3.311  46.398 -18.454  1.00  0.00     0.020 C 
HETATM   24  C28 UNL     1      -3.986  46.746 -19.818  1.00  0.00    -0.004 C 
HETATM   25  C29 UNL     1      -3.837  45.523 -20.762  1.00  0.00     0.019 C 
ENDROOT
BRANCH   1  26
HETATM   26  C7  UNL     1      -0.576  51.975 -23.295  1.00  0.00    -0.014 C 
HETATM   27  C8  UNL     1       0.613  52.595 -22.555  1.00  0.00     0.010 C 
BRANCH  26  28
HETATM   28  C6  UNL     1      -1.067  52.928 -24.421  1.00  0.00     0.008 C 
BRANCH  28  29
HETATM   29  C5  UNL     1      -0.007  53.678 -25.248  1.00  0.00     0.028 C 
BRANCH  29  30
HETATM   30  C4  UNL     1       0.207  53.123 -26.626  1.00  0.00    -0.025 C 
HETATM   31  C2  UNL     1       1.082  52.177 -27.020  1.00  0.00    -0.091 C 
HETATM   32  C1  UNL     1       2.054  51.455 -26.129  1.00  0.00     0.042 C 
HETATM   33  C3  UNL     1       1.158  51.766 -28.469  1.00  0.00     0.042 C 
ENDBRANCH  29  30
ENDBRANCH  28  29
ENDBRANCH  26  28
ENDBRANCH   1  26
TORSDOF 4
ENDMDL
MODEL 6
REMARK minimizedAffinity -7.46307182
REMARK CNNscore 0.144420087
REMARK CNNaffinity 5.11890936
REMARK  4 active torsions:
REMARK  status: ('A' for Active; 'I' for Inactive)
REMARK    1  A    between atoms: C4_4  and  C5_5 
REMARK    2  A    between atoms: C5_5  and  C6_6 
REMARK    3  A    between atoms: C6_6  and  C7_7 
REMARK    4  A    between atoms: C7_7  and  C9_9 
ROOT
HETATM    1  C9  UNL     1     -12.873  44.426 -27.297  1.00  0.00    -0.001 C 
HETATM    2  C10 UNL     1     -11.830  44.790 -26.200  1.00  0.00     0.007 C 
HETATM    3  C11 UNL     1     -12.591  45.386 -25.003  1.00  0.00     0.024 C 
HETATM    4  C12 UNL     1     -14.049  45.230 -25.369  1.00  0.00     0.092 C 
HETATM    5  C13 UNL     1     -14.615  43.867 -24.895  1.00  0.00     0.272 C 
HETATM    6  O1  UNL     1     -14.006  42.831 -24.698  1.00  0.00    -0.264 OA
HETATM    7  O2  UNL     1     -15.980  44.005 -24.711  1.00  0.00    -0.305 OA
HETATM    8  C14 UNL     1     -16.362  45.366 -25.026  1.00  0.00     0.113 C 
HETATM    9  C15 UNL     1     -16.642  45.403 -26.562  1.00  0.00     0.043 C 
HETATM   10  C16 UNL     1     -15.478  44.833 -27.419  1.00  0.00     0.014 C 
HETATM   11  C17 UNL     1     -14.093  45.330 -26.929  1.00  0.00    -0.020 C 
HETATM   12  C18 UNL     1     -13.878  46.776 -27.444  1.00  0.00     0.017 C 
HETATM   13  C19 UNL     1     -15.082  46.085 -24.747  1.00  0.00     0.137 A 
HETATM   14  O3  UNL     1     -15.005  47.496 -24.750  1.00  0.00    -0.364 OA
HETATM   15  C20 UNL     1     -14.862  46.845 -23.467  1.00  0.00     0.162 A 
HETATM   16  C21 UNL     1     -15.993  47.074 -22.521  1.00  0.00     0.041 C 
HETATM   17  C22 UNL     1     -17.076  45.978 -22.628  1.00  0.00     0.010 C 
HETATM   18  C23 UNL     1     -18.232  46.231 -21.621  1.00  0.00     0.056 C 
HETATM   19  C24 UNL     1     -17.757  46.265 -20.165  1.00  0.00     0.018 C 
HETATM   20  C25 UNL     1     -19.313  45.164 -21.789  1.00  0.00     0.131 C 
HETATM   21  O4  UNL     1     -19.810  44.560 -20.840  1.00  0.00    -0.298 OA
HETATM   22  C26 UNL     1     -19.828  44.950 -23.189  1.00  0.00     0.079 C 
HETATM   23  C27 UNL     1     -18.664  44.690 -24.134  1.00  0.00     0.020 C 
HETATM   24  C28 UNL     1     -17.573  45.806 -24.118  1.00  0.00    -0.004 C 
HETATM   25  C29 UNL     1     -18.207  47.117 -24.655  1.00  0.00     0.019 C 
ENDROOT
BRANCH   1  26
HETATM   26  C7  UNL     1     -12.272  44.498 -28.729  1.00  0.00    -0.014 C 
HETATM   27  C8  UNL     1     -11.929  43.120 -29.302  1.00  0.00     0.010 C 
BRANCH  26  28
HETATM   28  C6  UNL     1     -11.053  45.455 -28.858  1.00  0.00     0.008 C 
BRANCH  28  29
HETATM   29  C5  UNL     1     -10.815  46.145 -30.212  1.00  0.00     0.028 C 
BRANCH  29  30
HETATM   30  C4  UNL     1     -10.153  47.488 -30.113  1.00  0.00    -0.025 C 
HETATM   31  C2  UNL     1      -9.361  48.098 -31.016  1.00  0.00    -0.091 C 
HETATM   32  C1  UNL     1      -8.967  47.543 -32.356  1.00  0.00     0.042 C 
HETATM   33  C3  UNL     1      -8.770  49.454 -30.718  1.00  0.00     0.042 C 
ENDBRANCH  29  30
ENDBRANCH  28  29
ENDBRANCH  26  28
ENDBRANCH   1  26
TORSDOF 4
ENDMDL
MODEL 7
REMARK minimizedAffinity -7.54460144
REMARK CNNscore 0.124278858
REMARK CNNaffinity 5.60470343
REMARK  4 active torsions:
REMARK  status: ('A' for Active; 'I' for Inactive)
REMARK    1  A    between atoms: C4_4  and  C5_5 
REMARK    2  A    between atoms: C5_5  and  C6_6 
REMARK    3  A    between atoms: C6_6  and  C7_7 
REMARK    4  A    between atoms: C7_7  and  C9_9 
ROOT
HETATM    1  C9  UNL     1      -6.265  47.043 -29.924  1.00  0.00    -0.001 C 
HETATM    2  C10 UNL     1      -5.038  46.496 -30.710  1.00  0.00     0.007 C 
HETATM    3  C11 UNL     1      -5.565  45.620 -31.859  1.00  0.00     0.024 C 
HETATM    4  C12 UNL     1      -7.067  45.785 -31.800  1.00  0.00     0.092 C 
HETATM    5  C13 UNL     1      -7.544  46.985 -32.658  1.00  0.00     0.272 C 
HETATM    6  O1  UNL     1      -6.914  47.980 -32.970  1.00  0.00    -0.264 OA
HETATM    7  O2  UNL     1      -8.851  46.749 -33.045  1.00  0.00    -0.305 OA
HETATM    8  C14 UNL     1      -9.278  45.474 -32.507  1.00  0.00     0.113 C 
HETATM    9  C15 UNL     1      -9.832  45.760 -31.076  1.00  0.00     0.043 C 
HETATM   10  C16 UNL     1      -8.847  46.556 -30.176  1.00  0.00     0.014 C 
HETATM   11  C17 UNL     1      -7.394  46.027 -30.291  1.00  0.00    -0.020 C 
HETATM   12  C18 UNL     1      -7.269  44.740 -29.436  1.00  0.00     0.017 C 
HETATM   13  C19 UNL     1      -7.965  44.769 -32.388  1.00  0.00     0.137 A 
HETATM   14  O3  UNL     1      -7.883  43.398 -32.057  1.00  0.00    -0.364 OA
HETATM   15  C20 UNL     1      -7.512  43.759 -33.407  1.00  0.00     0.162 A 
HETATM   16  C21 UNL     1      -8.451  43.279 -34.462  1.00  0.00     0.041 C 
HETATM   17  C22 UNL     1      -9.541  44.321 -34.795  1.00  0.00     0.010 C 
HETATM   18  C23 UNL     1     -10.493  43.803 -35.908  1.00  0.00     0.056 C 
HETATM   19  C24 UNL     1      -9.760  43.473 -37.213  1.00  0.00     0.018 C 
HETATM   20  C25 UNL     1     -11.591  44.831 -36.176  1.00  0.00     0.131 C 
HETATM   21  O4  UNL     1     -11.910  45.189 -37.309  1.00  0.00    -0.298 OA
HETATM   22  C26 UNL     1     -12.354  45.322 -34.972  1.00  0.00     0.079 C 
HETATM   23  C27 UNL     1     -11.382  45.834 -33.919  1.00  0.00     0.020 C 
HETATM   24  C28 UNL     1     -10.301  44.792 -33.493  1.00  0.00    -0.004 C 
HETATM   25  C29 UNL     1     -11.016  43.603 -32.798  1.00  0.00     0.019 C 
ENDROOT
BRANCH   1  26
HETATM   26  C7  UNL     1      -5.935  47.313 -28.429  1.00  0.00    -0.014 C 
HETATM   27  C8  UNL     1      -7.140  47.822 -27.633  1.00  0.00     0.010 C 
BRANCH  26  28
HETATM   28  C6  UNL     1      -4.710  48.246 -28.208  1.00  0.00     0.008 C 
BRANCH  28  29
HETATM   29  C5  UNL     1      -4.177  48.413 -26.774  1.00  0.00     0.028 C 
BRANCH  29  30
HETATM   30  C4  UNL     1      -2.768  48.926 -26.695  1.00  0.00    -0.025 C 
HETATM   31  C2  UNL     1      -2.350  50.193 -26.513  1.00  0.00    -0.091 C 
HETATM   32  C1  UNL     1      -3.235  51.395 -26.341  1.00  0.00     0.042 C 
HETATM   33  C3  UNL     1      -0.875  50.510 -26.480  1.00  0.00     0.042 C 
ENDBRANCH  29  30
ENDBRANCH  28  29
ENDBRANCH  26  28
ENDBRANCH   1  26
TORSDOF 4
ENDMDL
MODEL 8
REMARK minimizedAffinity -7.81664896
REMARK CNNscore 0.122295789
REMARK CNNaffinity 4.94895124
REMARK  4 active torsions:
REMARK  status: ('A' for Active; 'I' for Inactive)
REMARK    1  A    between atoms: C4_4  and  C5_5 
REMARK    2  A    between atoms: C5_5  and  C6_6 
REMARK    3  A    between atoms: C6_6  and  C7_7 
REMARK    4  A    between atoms: C7_7  and  C9_9 
ROOT
HETATM    1  C9  UNL     1       2.908  68.039 -36.206  1.00  0.00    -0.001 C 
HETATM    2  C10 UNL     1       2.482  69.440 -35.679  1.00  0.00     0.007 C 
HETATM    3  C11 UNL     1       1.709  70.153 -36.801  1.00  0.00     0.024 C 
HETATM    4  C12 UNL     1       1.583  69.113 -37.892  1.00  0.00     0.092 C 
HETATM    5  C13 UNL     1       0.303  68.255 -37.719  1.00  0.00     0.272 C 
HETATM    6  O1  UNL     1      -0.309  68.021 -36.693  1.00  0.00    -0.264 OA
HETATM    7  O2  UNL     1      -0.067  67.775 -38.963  1.00  0.00    -0.305 OA
HETATM    8  C14 UNL     1       0.875  68.256 -39.953  1.00  0.00     0.113 C 
HETATM    9  C15 UNL     1       2.046  67.224 -39.987  1.00  0.00     0.043 C 
HETATM   10  C16 UNL     1       2.656  66.930 -38.589  1.00  0.00     0.014 C 
HETATM   11  C17 UNL     1       2.861  68.223 -37.757  1.00  0.00    -0.020 C 
HETATM   12  C18 UNL     1       4.143  68.934 -38.261  1.00  0.00     0.017 C 
HETATM   13  C19 UNL     1       1.351  69.511 -39.296  1.00  0.00     0.137 A 
HETATM   14  O3  UNL     1       2.177  70.437 -39.971  1.00  0.00    -0.364 OA
HETATM   15  C20 UNL     1       0.824  70.863 -39.693  1.00  0.00     0.162 A 
HETATM   16  C21 UNL     1      -0.044  71.011 -40.897  1.00  0.00     0.041 C 
HETATM   17  C22 UNL     1      -0.828  69.718 -41.217  1.00  0.00     0.010 C 
HETATM   18  C23 UNL     1      -1.736  69.905 -42.463  1.00  0.00     0.056 C 
HETATM   19  C24 UNL     1      -2.760  71.032 -42.291  1.00  0.00     0.018 C 
HETATM   20  C25 UNL     1      -2.454  68.596 -42.786  1.00  0.00     0.131 C 
HETATM   21  O4  UNL     1      -3.660  68.536 -43.022  1.00  0.00    -0.298 OA
HETATM   22  C26 UNL     1      -1.586  67.370 -42.906  1.00  0.00     0.079 C 
HETATM   23  C27 UNL     1      -0.730  67.220 -41.658  1.00  0.00     0.020 C 
HETATM   24  C28 UNL     1       0.139  68.474 -41.329  1.00  0.00    -0.004 C 
HETATM   25  C29 UNL     1       1.171  68.666 -42.472  1.00  0.00     0.019 C 
ENDROOT
BRANCH   1  26
HETATM   26  C7  UNL     1       4.213  67.528 -35.535  1.00  0.00    -0.014 C 
HETATM   27  C8  UNL     1       5.443  68.358 -35.912  1.00  0.00     0.010 C 
BRANCH  26  28
HETATM   28  C6  UNL     1       4.493  66.015 -35.762  1.00  0.00     0.008 C 
BRANCH  28  29
HETATM   29  C5  UNL     1       4.910  65.166 -34.548  1.00  0.00     0.028 C 
BRANCH  29  30
HETATM   30  C4  UNL     1       5.423  63.799 -34.898  1.00  0.00    -0.025 C 
HETATM   31  C2  UNL     1       5.077  62.614 -34.358  1.00  0.00    -0.091 C 
HETATM   32  C1  UNL     1       4.070  62.408 -33.261  1.00  0.00     0.042 C 
HETATM   33  C3  UNL     1       5.727  61.341 -34.838  1.00  0.00     0.042 C 
ENDBRANCH  29  30
ENDBRANCH  28  29
ENDBRANCH  26  28
ENDBRANCH   1  26
TORSDOF 4
ENDMDL
MODEL 9
REMARK minimizedAffinity -7.46602678
REMARK CNNscore 0.118214786
REMARK CNNaffinity 5.70306969
REMARK  4 active torsions:
REMARK  status: ('A' for Active; 'I' for Inactive)
REMARK    1  A    between atoms: C4_4  and  C5_5 
REMARK    2  A    between atoms: C5_5  and  C6_6 
REMARK    3  A    between atoms: C6_6  and  C7_7 
REMARK    4  A    between atoms: C7_7  and  C9_9 
ROOT
HETATM    1  C9  UNL     1      -7.725  47.014 -28.150  1.00  0.00    -0.001 C 
HETATM    2  C10 UNL     1      -8.209  48.404 -28.658  1.00  0.00     0.007 C 
HETATM    3  C11 UNL     1      -8.717  48.230 -30.099  1.00  0.00     0.024 C 
HETATM    4  C12 UNL     1      -8.648  46.740 -30.346  1.00  0.00     0.092 C 
HETATM    5  C13 UNL     1      -9.960  46.029 -29.925  1.00  0.00     0.272 C 
HETATM    6  O1  UNL     1     -10.774  46.390 -29.095  1.00  0.00    -0.264 OA
HETATM    7  O2  UNL     1     -10.083  44.871 -30.672  1.00  0.00    -0.305 OA
HETATM    8  C14 UNL     1      -8.947  44.761 -31.563  1.00  0.00     0.113 C 
HETATM    9  C15 UNL     1      -7.823  44.034 -30.760  1.00  0.00     0.043 C 
HETATM   10  C16 UNL     1      -7.519  44.690 -29.385  1.00  0.00     0.014 C 
HETATM   11  C17 UNL     1      -7.450  46.236 -29.477  1.00  0.00    -0.020 C 
HETATM   12  C18 UNL     1      -6.072  46.634 -30.067  1.00  0.00     0.017 C 
HETATM   13  C19 UNL     1      -8.578  46.201 -31.721  1.00  0.00     0.137 A 
HETATM   14  O3  UNL     1      -7.606  46.623 -32.655  1.00  0.00    -0.364 OA
HETATM   15  C20 UNL     1      -8.975  46.993 -32.937  1.00  0.00     0.162 A 
HETATM   16  C21 UNL     1      -9.576  46.309 -34.119  1.00  0.00     0.041 C 
HETATM   17  C22 UNL     1     -10.314  45.009 -33.732  1.00  0.00     0.010 C 
HETATM   18  C23 UNL     1     -10.944  44.328 -34.978  1.00  0.00     0.056 C 
HETATM   19  C24 UNL     1     -11.950  45.228 -35.704  1.00  0.00     0.018 C 
HETATM   20  C25 UNL     1     -11.619  43.020 -34.571  1.00  0.00     0.131 C 
HETATM   21  O4  UNL     1     -12.753  42.710 -34.935  1.00  0.00    -0.298 OA
HETATM   22  C26 UNL     1     -10.780  42.056 -33.772  1.00  0.00     0.079 C 
HETATM   23  C27 UNL     1     -10.200  42.762 -32.556  1.00  0.00     0.020 C 
HETATM   24  C28 UNL     1      -9.380  44.046 -32.899  1.00  0.00    -0.004 C 
HETATM   25  C29 UNL     1      -8.132  43.624 -33.719  1.00  0.00     0.019 C 
ENDROOT
BRANCH   1  26
HETATM   26  C7  UNL     1      -6.599  47.135 -27.086  1.00  0.00    -0.014 C 
HETATM   27  C8  UNL     1      -7.135  47.399 -25.676  1.00  0.00     0.010 C 
BRANCH  26  28
HETATM   28  C6  UNL     1      -5.494  48.169 -27.446  1.00  0.00     0.008 C 
BRANCH  28  29
HETATM   29  C5  UNL     1      -4.275  48.280 -26.513  1.00  0.00     0.028 C 
BRANCH  29  30
HETATM   30  C4  UNL     1      -3.151  49.110 -27.061  1.00  0.00    -0.025 C 
HETATM   31  C2  UNL     1      -2.819  50.378 -26.749  1.00  0.00    -0.091 C 
HETATM   32  C1  UNL     1      -3.527  51.251 -25.752  1.00  0.00     0.042 C 
HETATM   33  C3  UNL     1      -1.654  51.049 -27.432  1.00  0.00     0.042 C 
ENDBRANCH  29  30
ENDBRANCH  28  29
ENDBRANCH  26  28
ENDBRANCH   1  26
TORSDOF 4
ENDMDL
