MODEL 1
REMARK minimizedAffinity -8.66314888
REMARK  10 active torsions:
REMARK  status: ('A' for Active; 'I' for Inactive)
REMARK    1  A    between atoms: C2_2  and  C3_3 
REMARK    2  A    between atoms: C5_5  and  C6_6 
REMARK    3  A    between atoms: C6_6  and  C7_7 
REMARK    4  A    between atoms: C13_13  and  C15_15 
REMARK    5  A    between atoms: C15_15  and  O1_16 
REMARK    6  A    between atoms: O1_16  and  C16_17 
REMARK    7  A    between atoms: C17_19  and  C18_20 
REMARK    8  A    between atoms: C18_20  and  O3_21 
REMARK    9  A    between atoms: C19_22  and  O4_23 
REMARK   10  A    between atoms: C20_24  and  O5_25 
ROOT
HETATM    1  C7  UNL     1      -4.810   6.396  14.582  1.00  0.00     0.025 C 
HETATM    2  C8  UNL     1      -5.464   7.725  14.258  1.00  0.00    -0.084 C 
HETATM    3  C9  UNL     1      -6.344   8.324  15.075  1.00  0.00     0.015 C 
HETATM    4  C10 UNL     1      -5.033   8.326  12.957  1.00  0.00     0.034 C 
HETATM    5  C11 UNL     1      -3.522   8.506  12.932  1.00  0.00     0.010 C 
HETATM    6  C12 UNL     1      -2.682   7.237  13.293  1.00  0.00     0.005 C 
HETATM    7  C13 UNL     1      -1.129   7.599  13.327  1.00  0.00    -0.018 C 
HETATM    8  C14 UNL     1      -0.251   6.327  13.225  1.00  0.00     0.018 C 
HETATM    9  C21 UNL     1      -0.785   8.372  14.627  1.00  0.00     0.012 C 
HETATM   10  C22 UNL     1      -1.324   7.739  15.906  1.00  0.00     0.002 C 
HETATM   11  C23 UNL     1      -2.819   7.426  15.834  1.00  0.00     0.010 C 
HETATM   12  C24 UNL     1      -3.227   6.548  14.614  1.00  0.00    -0.032 C 
HETATM   13  C25 UNL     1      -2.654   5.123  14.833  1.00  0.00     0.016 C 
ENDROOT
BRANCH   7  14
HETATM   14  C15 UNL     1      -0.727   8.492  12.107  1.00  0.00     0.180 C 
BRANCH  14  15
HETATM   15  O1  UNL     1      -0.054   7.720  11.103  1.00  0.00    -0.358 OA
BRANCH  15  16
HETATM   16  C16 UNL     1       1.070   8.421  10.570  1.00  0.00     0.291 C 
HETATM   17  O2  UNL     1       0.930   8.581   9.153  1.00  0.00    -0.348 OA
HETATM   18  C17 UNL     1       1.378   7.344   8.528  1.00  0.00     0.179 C 
HETATM   19  C19 UNL     1       2.127   6.546   9.608  1.00  0.00     0.182 C 
HETATM   20  C20 UNL     1       2.334   7.572  10.717  1.00  0.00     0.204 C 
BRANCH  18  21
HETATM   21  C18 UNL     1       2.274   7.683   7.333  1.00  0.00     0.198 C 
BRANCH  21  22
HETATM   22  O3  UNL     1       2.986   8.895   7.580  1.00  0.00    -0.398 OA
HETATM   23  H27 UNL     1       3.532   9.074   6.796  1.00  0.00     0.209 HD
ENDBRANCH  21  22
ENDBRANCH  18  21
BRANCH  19  24
HETATM   24  O4  UNL     1       1.314   5.460  10.071  1.00  0.00    -0.390 OA
HETATM   25  H29 UNL     1       0.534   5.851  10.516  1.00  0.00     0.210 HD
ENDBRANCH  19  24
BRANCH  20  26
HETATM   26  O5  UNL     1       3.517   8.342  10.466  1.00  0.00    -0.388 OA
HETATM   27  H31 UNL     1       3.286   9.047   9.832  1.00  0.00     0.210 HD
ENDBRANCH  20  26
ENDBRANCH  15  16
ENDBRANCH  14  15
ENDBRANCH   7  14
BRANCH   1  28
HETATM   28  C6  UNL     1      -5.317   5.275  13.617  1.00  0.00     0.037 C 
BRANCH  28  29
HETATM   29  C5  UNL     1      -4.201   4.540  12.910  1.00  0.00    -0.019 C 
HETATM   30  C3  UNL     1      -4.266   3.533  12.012  1.00  0.00    -0.067 C 
HETATM   31  C4  UNL     1      -2.980   2.955  11.469  1.00  0.00     0.048 C 
BRANCH  30  32
HETATM   32  C2  UNL     1      -5.521   2.968  11.531  1.00  0.00    -0.004 C 
HETATM   33  C1  UNL     1      -5.732   1.693  11.177  1.00  0.00     0.012 C 
ENDBRANCH  30  32
ENDBRANCH  28  29
ENDBRANCH   1  28
TORSDOF 10
ENDMDL
MODEL 2
REMARK minimizedAffinity -8.65908623
REMARK  10 active torsions:
REMARK  status: ('A' for Active; 'I' for Inactive)
REMARK    1  A    between atoms: C2_2  and  C3_3 
REMARK    2  A    between atoms: C5_5  and  C6_6 
REMARK    3  A    between atoms: C6_6  and  C7_7 
REMARK    4  A    between atoms: C13_13  and  C15_15 
REMARK    5  A    between atoms: C15_15  and  O1_16 
REMARK    6  A    between atoms: O1_16  and  C16_17 
REMARK    7  A    between atoms: C17_19  and  C18_20 
REMARK    8  A    between atoms: C18_20  and  O3_21 
REMARK    9  A    between atoms: C19_22  and  O4_23 
REMARK   10  A    between atoms: C20_24  and  O5_25 
ROOT
HETATM    1  C7  UNL     1      -4.816   6.218  13.963  1.00  0.00     0.025 C 
HETATM    2  C8  UNL     1      -4.915   7.707  14.235  1.00  0.00    -0.084 C 
HETATM    3  C9  UNL     1      -5.417   8.210  15.374  1.00  0.00     0.015 C 
HETATM    4  C10 UNL     1      -4.388   8.573  13.135  1.00  0.00     0.034 C 
HETATM    5  C11 UNL     1      -2.936   8.226  12.837  1.00  0.00     0.010 C 
HETATM    6  C12 UNL     1      -2.640   6.712  12.578  1.00  0.00     0.005 C 
HETATM    7  C13 UNL     1      -1.074   6.484  12.385  1.00  0.00    -0.018 C 
HETATM    8  C14 UNL     1      -0.782   5.131  11.689  1.00  0.00     0.018 C 
HETATM    9  C21 UNL     1      -0.349   6.538  13.754  1.00  0.00     0.012 C 
HETATM   10  C22 UNL     1      -0.989   5.690  14.848  1.00  0.00     0.002 C 
HETATM   11  C23 UNL     1      -2.486   5.954  15.010  1.00  0.00     0.010 C 
HETATM   12  C24 UNL     1      -3.305   5.801  13.694  1.00  0.00    -0.032 C 
HETATM   13  C25 UNL     1      -3.327   4.297  13.313  1.00  0.00     0.016 C 
ENDROOT
BRANCH   7  14
HETATM   14  C15 UNL     1      -0.451   7.581  11.458  1.00  0.00     0.180 C 
BRANCH  14  15
HETATM   15  O1  UNL     1       0.972   7.435  11.371  1.00  0.00    -0.358 OA
BRANCH  15  16
HETATM   16  C16 UNL     1       1.392   7.178  10.031  1.00  0.00     0.291 C 
HETATM   17  O2  UNL     1       1.677   5.784   9.858  1.00  0.00    -0.348 OA
HETATM   18  C17 UNL     1       3.027   5.550  10.348  1.00  0.00     0.179 C 
HETATM   19  C19 UNL     1       3.687   6.930  10.509  1.00  0.00     0.182 C 
HETATM   20  C20 UNL     1       2.736   7.858   9.764  1.00  0.00     0.204 C 
BRANCH  18  21
HETATM   21  C18 UNL     1       3.776   4.663   9.350  1.00  0.00     0.198 C 
BRANCH  21  22
HETATM   22  O3  UNL     1       3.392   3.299   9.520  1.00  0.00    -0.398 OA
HETATM   23  H27 UNL     1       3.897   2.775   8.874  1.00  0.00     0.209 HD
ENDBRANCH  21  22
ENDBRANCH  18  21
BRANCH  19  24
HETATM   24  O4  UNL     1       3.755   7.285  11.896  1.00  0.00    -0.390 OA
HETATM   25  H29 UNL     1       2.835   7.387  12.215  1.00  0.00     0.210 HD
ENDBRANCH  19  24
BRANCH  20  26
HETATM   26  O5  UNL     1       3.049   7.872   8.364  1.00  0.00    -0.388 OA
HETATM   27  H31 UNL     1       2.633   7.088   7.957  1.00  0.00     0.210 HD
ENDBRANCH  20  26
ENDBRANCH  15  16
ENDBRANCH  14  15
ENDBRANCH   7  14
BRANCH   1  28
HETATM   28  C6  UNL     1      -5.801   5.793  12.827  1.00  0.00     0.037 C 
BRANCH  28  29
HETATM   29  C5  UNL     1      -6.197   4.334  12.888  1.00  0.00    -0.019 C 
HETATM   30  C3  UNL     1      -7.421   3.770  12.815  1.00  0.00    -0.067 C 
HETATM   31  C4  UNL     1      -7.541   2.269  12.927  1.00  0.00     0.048 C 
BRANCH  30  32
HETATM   32  C2  UNL     1      -8.647   4.537  12.632  1.00  0.00    -0.004 C 
HETATM   33  C1  UNL     1      -8.733   5.809  12.219  1.00  0.00     0.012 C 
ENDBRANCH  30  32
ENDBRANCH  28  29
ENDBRANCH   1  28
TORSDOF 10
ENDMDL
MODEL 3
REMARK minimizedAffinity -8.39850235
REMARK  10 active torsions:
REMARK  status: ('A' for Active; 'I' for Inactive)
REMARK    1  A    between atoms: C2_2  and  C3_3 
REMARK    2  A    between atoms: C5_5  and  C6_6 
REMARK    3  A    between atoms: C6_6  and  C7_7 
REMARK    4  A    between atoms: C13_13  and  C15_15 
REMARK    5  A    between atoms: C15_15  and  O1_16 
REMARK    6  A    between atoms: O1_16  and  C16_17 
REMARK    7  A    between atoms: C17_19  and  C18_20 
REMARK    8  A    between atoms: C18_20  and  O3_21 
REMARK    9  A    between atoms: C19_22  and  O4_23 
REMARK   10  A    between atoms: C20_24  and  O5_25 
ROOT
HETATM    1  C7  UNL     1      -4.099   6.352  13.908  1.00  0.00     0.025 C 
HETATM    2  C8  UNL     1      -4.093   7.827  14.258  1.00  0.00    -0.084 C 
HETATM    3  C9  UNL     1      -4.472   8.295  15.458  1.00  0.00     0.015 C 
HETATM    4  C10 UNL     1      -3.611   8.721  13.160  1.00  0.00     0.034 C 
HETATM    5  C11 UNL     1      -2.210   8.317  12.724  1.00  0.00     0.010 C 
HETATM    6  C12 UNL     1      -2.020   6.805  12.369  1.00  0.00     0.005 C 
HETATM    7  C13 UNL     1      -0.490   6.508  12.034  1.00  0.00    -0.018 C 
HETATM    8  C14 UNL     1      -0.331   5.180  11.252  1.00  0.00     0.018 C 
HETATM    9  C21 UNL     1       0.347   6.453  13.338  1.00  0.00     0.012 C 
HETATM   10  C22 UNL     1      -0.248   5.583  14.440  1.00  0.00     0.002 C 
HETATM   11  C23 UNL     1      -1.710   5.914  14.741  1.00  0.00     0.010 C 
HETATM   12  C24 UNL     1      -2.641   5.872  13.493  1.00  0.00    -0.032 C 
HETATM   13  C25 UNL     1      -2.777   4.394  13.044  1.00  0.00     0.016 C 
ENDROOT
BRANCH   7  14
HETATM   14  C15 UNL     1       0.114   7.618  11.111  1.00  0.00     0.180 C 
BRANCH  14  15
HETATM   15  O1  UNL     1       0.445   7.091   9.819  1.00  0.00    -0.358 OA
BRANCH  15  16
HETATM   16  C16 UNL     1       1.696   6.404   9.839  1.00  0.00     0.291 C 
HETATM   17  O2  UNL     1       2.627   7.089  10.686  1.00  0.00    -0.348 OA
HETATM   18  C17 UNL     1       3.210   8.172   9.909  1.00  0.00     0.179 C 
HETATM   19  C19 UNL     1       2.853   7.907   8.437  1.00  0.00     0.182 C 
HETATM   20  C20 UNL     1       2.350   6.468   8.457  1.00  0.00     0.204 C 
BRANCH  18  21
HETATM   21  C18 UNL     1       4.724   8.197  10.141  1.00  0.00     0.198 C 
BRANCH  21  22
HETATM   22  O3  UNL     1       5.214   6.870  10.326  1.00  0.00    -0.398 OA
HETATM   23  H27 UNL     1       6.172   6.935  10.478  1.00  0.00     0.209 HD
ENDBRANCH  21  22
ENDBRANCH  18  21
BRANCH  19  24
HETATM   24  O4  UNL     1       1.813   8.799   8.014  1.00  0.00    -0.390 OA
HETATM   25  H29 UNL     1       1.011   8.576   8.531  1.00  0.00     0.210 HD
ENDBRANCH  19  24
BRANCH  20  26
HETATM   26  O5  UNL     1       3.451   5.555   8.353  1.00  0.00    -0.388 OA
HETATM   27  H31 UNL     1       3.838   5.452   9.243  1.00  0.00     0.210 HD
ENDBRANCH  20  26
ENDBRANCH  15  16
ENDBRANCH  14  15
ENDBRANCH   7  14
BRANCH   1  28
HETATM   28  C6  UNL     1      -5.196   6.037  12.840  1.00  0.00     0.037 C 
BRANCH  28  29
HETATM   29  C5  UNL     1      -6.246   5.063  13.325  1.00  0.00    -0.019 C 
HETATM   30  C3  UNL     1      -6.496   3.797  12.927  1.00  0.00    -0.067 C 
HETATM   31  C4  UNL     1      -7.635   3.041  13.569  1.00  0.00     0.048 C 
BRANCH  30  32
HETATM   32  C2  UNL     1      -5.720   3.111  11.901  1.00  0.00    -0.004 C 
HETATM   33  C1  UNL     1      -6.066   1.983  11.266  1.00  0.00     0.012 C 
ENDBRANCH  30  32
ENDBRANCH  28  29
ENDBRANCH   1  28
TORSDOF 10
ENDMDL
MODEL 4
REMARK minimizedAffinity -8.30640221
REMARK  10 active torsions:
REMARK  status: ('A' for Active; 'I' for Inactive)
REMARK    1  A    between atoms: C2_2  and  C3_3 
REMARK    2  A    between atoms: C5_5  and  C6_6 
REMARK    3  A    between atoms: C6_6  and  C7_7 
REMARK    4  A    between atoms: C13_13  and  C15_15 
REMARK    5  A    between atoms: C15_15  and  O1_16 
REMARK    6  A    between atoms: O1_16  and  C16_17 
REMARK    7  A    between atoms: C17_19  and  C18_20 
REMARK    8  A    between atoms: C18_20  and  O3_21 
REMARK    9  A    between atoms: C19_22  and  O4_23 
REMARK   10  A    between atoms: C20_24  and  O5_25 
ROOT
HETATM    1  C7  UNL     1       0.222   6.412  11.688  1.00  0.00     0.025 C 
HETATM    2  C8  UNL     1      -0.195   4.963  11.528  1.00  0.00    -0.084 C 
HETATM    3  C9  UNL     1       0.653   3.936  11.699  1.00  0.00     0.015 C 
HETATM    4  C10 UNL     1      -1.637   4.768  11.180  1.00  0.00     0.034 C 
HETATM    5  C11 UNL     1      -2.527   5.419  12.230  1.00  0.00     0.010 C 
HETATM    6  C12 UNL     1      -2.205   6.914  12.560  1.00  0.00     0.005 C 
HETATM    7  C13 UNL     1      -3.142   7.429  13.742  1.00  0.00    -0.018 C 
HETATM    8  C14 UNL     1      -3.187   8.977  13.793  1.00  0.00     0.018 C 
HETATM    9  C21 UNL     1      -2.648   6.874  15.103  1.00  0.00     0.012 C 
HETATM   10  C22 UNL     1      -1.152   7.039  15.353  1.00  0.00     0.002 C 
HETATM   11  C23 UNL     1      -0.292   6.515  14.202  1.00  0.00     0.010 C 
HETATM   12  C24 UNL     1      -0.652   7.121  12.813  1.00  0.00    -0.032 C 
HETATM   13  C25 UNL     1      -0.234   8.615  12.816  1.00  0.00     0.016 C 
ENDROOT
BRANCH   7  14
HETATM   14  C15 UNL     1      -4.623   6.967  13.534  1.00  0.00     0.180 C 
BRANCH  14  15
HETATM   15  O1  UNL     1      -5.287   6.783  14.791  1.00  0.00    -0.358 OA
BRANCH  15  16
HETATM   16  C16 UNL     1      -6.013   5.554  14.825  1.00  0.00     0.291 C 
HETATM   17  O2  UNL     1      -6.503   5.230  13.518  1.00  0.00    -0.348 OA
HETATM   18  C17 UNL     1      -7.736   5.977  13.316  1.00  0.00     0.179 C 
HETATM   19  C19 UNL     1      -8.166   6.507  14.694  1.00  0.00     0.182 C 
HETATM   20  C20 UNL     1      -7.285   5.720  15.658  1.00  0.00     0.204 C 
BRANCH  18  21
HETATM   21  C18 UNL     1      -8.788   5.051  12.699  1.00  0.00     0.198 C 
BRANCH  21  22
HETATM   22  O3  UNL     1      -8.653   3.732  13.228  1.00  0.00    -0.398 OA
HETATM   23  H27 UNL     1      -9.332   3.181  12.804  1.00  0.00     0.209 HD
ENDBRANCH  21  22
ENDBRANCH  18  21
BRANCH  19  24
HETATM   24  O4  UNL     1      -7.889   7.911  14.790  1.00  0.00    -0.390 OA
HETATM   25  H29 UNL     1      -6.917   8.019  14.750  1.00  0.00     0.210 HD
ENDBRANCH  19  24
BRANCH  20  26
HETATM   26  O5  UNL     1      -7.886   4.454  15.959  1.00  0.00    -0.388 OA
HETATM   27  H31 UNL     1      -7.670   3.840  15.231  1.00  0.00     0.210 HD
ENDBRANCH  20  26
ENDBRANCH  15  16
ENDBRANCH  14  15
ENDBRANCH   7  14
BRANCH   1  28
HETATM   28  C6  UNL     1       0.202   7.153  10.312  1.00  0.00     0.037 C 
BRANCH  28  29
HETATM   29  C5  UNL     1       1.511   7.830   9.974  1.00  0.00    -0.019 C 
HETATM   30  C3  UNL     1       2.315   7.664   8.903  1.00  0.00    -0.067 C 
HETATM   31  C4  UNL     1       3.595   8.462   8.820  1.00  0.00     0.048 C 
BRANCH  30  32
HETATM   32  C2  UNL     1       2.013   6.750   7.808  1.00  0.00    -0.004 C 
HETATM   33  C1  UNL     1       1.867   7.080   6.517  1.00  0.00     0.012 C 
ENDBRANCH  30  32
ENDBRANCH  28  29
ENDBRANCH   1  28
TORSDOF 10
ENDMDL
MODEL 5
REMARK minimizedAffinity -8.11044693
REMARK  10 active torsions:
REMARK  status: ('A' for Active; 'I' for Inactive)
REMARK    1  A    between atoms: C2_2  and  C3_3 
REMARK    2  A    between atoms: C5_5  and  C6_6 
REMARK    3  A    between atoms: C6_6  and  C7_7 
REMARK    4  A    between atoms: C13_13  and  C15_15 
REMARK    5  A    between atoms: C15_15  and  O1_16 
REMARK    6  A    between atoms: O1_16  and  C16_17 
REMARK    7  A    between atoms: C17_19  and  C18_20 
REMARK    8  A    between atoms: C18_20  and  O3_21 
REMARK    9  A    between atoms: C19_22  and  O4_23 
REMARK   10  A    between atoms: C20_24  and  O5_25 
ROOT
HETATM    1  C7  UNL     1       0.492   7.294  11.464  1.00  0.00     0.025 C 
HETATM    2  C8  UNL     1       0.626   5.815  11.155  1.00  0.00    -0.084 C 
HETATM    3  C9  UNL     1       1.807   5.177  11.139  1.00  0.00     0.015 C 
HETATM    4  C10 UNL     1      -0.671   5.119  10.887  1.00  0.00     0.034 C 
HETATM    5  C11 UNL     1      -1.615   5.287  12.069  1.00  0.00     0.010 C 
HETATM    6  C12 UNL     1      -1.835   6.757  12.558  1.00  0.00     0.005 C 
HETATM    7  C13 UNL     1      -2.759   6.771  13.857  1.00  0.00    -0.018 C 
HETATM    8  C14 UNL     1      -3.368   8.174  14.101  1.00  0.00     0.018 C 
HETATM    9  C21 UNL     1      -1.946   6.327  15.101  1.00  0.00     0.012 C 
HETATM   10  C22 UNL     1      -0.600   7.026  15.264  1.00  0.00     0.002 C 
HETATM   11  C23 UNL     1       0.259   6.972  14.001  1.00  0.00     0.010 C 
HETATM   12  C24 UNL     1      -0.451   7.515  12.725  1.00  0.00    -0.032 C 
HETATM   13  C25 UNL     1      -0.618   9.050  12.884  1.00  0.00     0.016 C 
ENDROOT
BRANCH   7  14
HETATM   14  C15 UNL     1      -3.977   5.801  13.697  1.00  0.00     0.180 C 
BRANCH  14  15
HETATM   15  O1  UNL     1      -5.088   6.234  14.493  1.00  0.00    -0.358 OA
BRANCH  15  16
HETATM   16  C16 UNL     1      -6.330   6.006  13.827  1.00  0.00     0.291 C 
HETATM   17  O2  UNL     1      -7.149   7.180  13.885  1.00  0.00    -0.348 OA
HETATM   18  C17 UNL     1      -7.818   7.183  15.177  1.00  0.00     0.179 C 
HETATM   19  C19 UNL     1      -7.643   5.776  15.772  1.00  0.00     0.182 C 
HETATM   20  C20 UNL     1      -7.146   4.958  14.586  1.00  0.00     0.204 C 
BRANCH  18  21
HETATM   21  C18 UNL     1      -9.292   7.547  14.976  1.00  0.00     0.198 C 
BRANCH  21  22
HETATM   22  O3  UNL     1     -10.127   6.470  15.400  1.00  0.00    -0.398 OA
HETATM   23  H27 UNL     1     -11.047   6.741  15.247  1.00  0.00     0.209 HD
ENDBRANCH  21  22
ENDBRANCH  18  21
BRANCH  19  24
HETATM   24  O4  UNL     1      -6.659   5.802  16.815  1.00  0.00    -0.390 OA
HETATM   25  H29 UNL     1      -5.801   6.028  16.399  1.00  0.00     0.210 HD
ENDBRANCH  19  24
BRANCH  20  26
HETATM   26  O5  UNL     1      -8.255   4.489  13.807  1.00  0.00    -0.388 OA
HETATM   27  H31 UNL     1      -8.531   5.214  13.215  1.00  0.00     0.210 HD
ENDBRANCH  20  26
ENDBRANCH  15  16
ENDBRANCH  14  15
ENDBRANCH   7  14
BRANCH   1  28
HETATM   28  C6  UNL     1       0.046   8.090  10.194  1.00  0.00     0.037 C 
BRANCH  28  29
HETATM   29  C5  UNL     1       0.582   7.512   8.904  1.00  0.00    -0.019 C 
HETATM   30  C3  UNL     1       1.810   7.622   8.355  1.00  0.00    -0.067 C 
HETATM   31  C4  UNL     1       2.079   6.955   7.027  1.00  0.00     0.048 C 
BRANCH  30  32
HETATM   32  C2  UNL     1       2.904   8.357   8.979  1.00  0.00    -0.004 C 
HETATM   33  C1  UNL     1       3.883   7.835   9.730  1.00  0.00     0.012 C 
ENDBRANCH  30  32
ENDBRANCH  28  29
ENDBRANCH   1  28
TORSDOF 10
ENDMDL
MODEL 6
REMARK minimizedAffinity -7.67940378
REMARK  10 active torsions:
REMARK  status: ('A' for Active; 'I' for Inactive)
REMARK    1  A    between atoms: C2_2  and  C3_3 
REMARK    2  A    between atoms: C5_5  and  C6_6 
REMARK    3  A    between atoms: C6_6  and  C7_7 
REMARK    4  A    between atoms: C13_13  and  C15_15 
REMARK    5  A    between atoms: C15_15  and  O1_16 
REMARK    6  A    between atoms: O1_16  and  C16_17 
REMARK    7  A    between atoms: C17_19  and  C18_20 
REMARK    8  A    between atoms: C18_20  and  O3_21 
REMARK    9  A    between atoms: C19_22  and  O4_23 
REMARK   10  A    between atoms: C20_24  and  O5_25 
ROOT
HETATM    1  C7  UNL     1      -4.280   6.518  14.142  1.00  0.00     0.025 C 
HETATM    2  C8  UNL     1      -4.785   7.891  13.743  1.00  0.00    -0.084 C 
HETATM    3  C9  UNL     1      -5.788   8.514  14.382  1.00  0.00     0.015 C 
HETATM    4  C10 UNL     1      -4.060   8.505  12.588  1.00  0.00     0.034 C 
HETATM    5  C11 UNL     1      -2.571   8.601  12.888  1.00  0.00     0.010 C 
HETATM    6  C12 UNL     1      -1.888   7.276  13.365  1.00  0.00     0.005 C 
HETATM    7  C13 UNL     1      -0.363   7.548  13.740  1.00  0.00    -0.018 C 
HETATM    8  C14 UNL     1       0.454   6.232  13.772  1.00  0.00     0.018 C 
HETATM    9  C21 UNL     1      -0.265   8.260  15.114  1.00  0.00     0.012 C 
HETATM   10  C22 UNL     1      -1.093   7.621  16.224  1.00  0.00     0.002 C 
HETATM   11  C23 UNL     1      -2.552   7.395  15.826  1.00  0.00     0.010 C 
HETATM   12  C24 UNL     1      -2.734   6.579  14.512  1.00  0.00    -0.032 C 
HETATM   13  C25 UNL     1      -2.292   5.118  14.788  1.00  0.00     0.016 C 
ENDROOT
BRANCH   7  14
HETATM   14  C15 UNL     1       0.332   8.453  12.669  1.00  0.00     0.180 C 
BRANCH  14  15
HETATM   15  O1  UNL     1       1.512   7.826  12.151  1.00  0.00    -0.358 OA
BRANCH  15  16
HETATM   16  C16 UNL     1       2.488   8.790  11.757  1.00  0.00     0.291 C 
HETATM   17  O2  UNL     1       3.545   8.157  11.024  1.00  0.00    -0.348 OA
HETATM   18  C17 UNL     1       4.469   7.587  11.994  1.00  0.00     0.179 C 
HETATM   19  C19 UNL     1       4.114   8.201  13.359  1.00  0.00     0.182 C 
HETATM   20  C20 UNL     1       3.192   9.357  12.991  1.00  0.00     0.204 C 
BRANCH  18  21
HETATM   21  C18 UNL     1       5.904   7.912  11.569  1.00  0.00     0.198 C 
BRANCH  21  22
HETATM   22  O3  UNL     1       6.305   7.057  10.500  1.00  0.00    -0.398 OA
HETATM   23  H27 UNL     1       7.220   7.292  10.271  1.00  0.00     0.209 HD
ENDBRANCH  21  22
ENDBRANCH  18  21
BRANCH  19  24
HETATM   24  O4  UNL     1       3.420   7.239  14.166  1.00  0.00    -0.390 OA
HETATM   25  H29 UNL     1       2.567   7.052  13.724  1.00  0.00     0.210 HD
ENDBRANCH  19  24
BRANCH  20  26
HETATM   26  O5  UNL     1       3.962  10.523  12.668  1.00  0.00    -0.388 OA
HETATM   27  H31 UNL     1       4.257  10.439  11.742  1.00  0.00     0.210 HD
ENDBRANCH  20  26
ENDBRANCH  15  16
ENDBRANCH  14  15
ENDBRANCH   7  14
BRANCH   1  28
HETATM   28  C6  UNL     1      -4.626   5.457  13.046  1.00  0.00     0.037 C 
BRANCH  28  29
HETATM   29  C5  UNL     1      -5.906   4.701  13.323  1.00  0.00    -0.019 C 
HETATM   30  C3  UNL     1      -6.401   3.598  12.724  1.00  0.00    -0.067 C 
HETATM   31  C4  UNL     1      -7.732   3.052  13.186  1.00  0.00     0.048 C 
BRANCH  30  32
HETATM   32  C2  UNL     1      -5.718   2.897  11.644  1.00  0.00    -0.004 C 
HETATM   33  C1  UNL     1      -5.883   1.611  11.304  1.00  0.00     0.012 C 
ENDBRANCH  30  32
ENDBRANCH  28  29
ENDBRANCH   1  28
TORSDOF 10
ENDMDL
MODEL 7
REMARK minimizedAffinity -7.67114544
REMARK  10 active torsions:
REMARK  status: ('A' for Active; 'I' for Inactive)
REMARK    1  A    between atoms: C2_2  and  C3_3 
REMARK    2  A    between atoms: C5_5  and  C6_6 
REMARK    3  A    between atoms: C6_6  and  C7_7 
REMARK    4  A    between atoms: C13_13  and  C15_15 
REMARK    5  A    between atoms: C15_15  and  O1_16 
REMARK    6  A    between atoms: O1_16  and  C16_17 
REMARK    7  A    between atoms: C17_19  and  C18_20 
REMARK    8  A    between atoms: C18_20  and  O3_21 
REMARK    9  A    between atoms: C19_22  and  O4_23 
REMARK   10  A    between atoms: C20_24  and  O5_25 
ROOT
HETATM    1  C7  UNL     1      -4.118   6.513  13.462  1.00  0.00     0.025 C 
HETATM    2  C8  UNL     1      -3.198   5.312  13.368  1.00  0.00    -0.084 C 
HETATM    3  C9  UNL     1      -3.160   4.502  12.298  1.00  0.00     0.015 C 
HETATM    4  C10 UNL     1      -2.319   5.112  14.562  1.00  0.00     0.034 C 
HETATM    5  C11 UNL     1      -1.476   6.354  14.813  1.00  0.00     0.010 C 
HETATM    6  C12 UNL     1      -2.263   7.704  14.890  1.00  0.00     0.005 C 
HETATM    7  C13 UNL     1      -1.248   8.923  15.051  1.00  0.00    -0.018 C 
HETATM    8  C14 UNL     1      -1.967  10.189  15.581  1.00  0.00     0.018 C 
HETATM    9  C21 UNL     1      -0.563   9.236  13.696  1.00  0.00     0.012 C 
HETATM   10  C22 UNL     1      -1.517   9.348  12.511  1.00  0.00     0.002 C 
HETATM   11  C23 UNL     1      -2.459   8.150  12.385  1.00  0.00     0.010 C 
HETATM   12  C24 UNL     1      -3.275   7.845  13.676  1.00  0.00    -0.032 C 
HETATM   13  C25 UNL     1      -4.304   8.988  13.876  1.00  0.00     0.016 C 
ENDROOT
BRANCH   7  14
HETATM   14  C15 UNL     1      -0.133   8.598  16.100  1.00  0.00     0.180 C 
BRANCH  14  15
HETATM   15  O1  UNL     1       1.131   9.139  15.693  1.00  0.00    -0.358 OA
BRANCH  15  16
HETATM   16  C16 UNL     1       2.219   8.441  16.297  1.00  0.00     0.291 C 
HETATM   17  O2  UNL     1       3.339   9.317  16.469  1.00  0.00    -0.348 OA
HETATM   18  C17 UNL     1       4.050   9.372  15.200  1.00  0.00     0.179 C 
HETATM   19  C19 UNL     1       3.515   8.214  14.341  1.00  0.00     0.182 C 
HETATM   20  C20 UNL     1       2.744   7.365  15.344  1.00  0.00     0.204 C 
BRANCH  18  21
HETATM   21  C18 UNL     1       5.554   9.250  15.464  1.00  0.00     0.198 C 
BRANCH  21  22
HETATM   22  O3  UNL     1       5.887   7.903  15.797  1.00  0.00    -0.398 OA
HETATM   23  H27 UNL     1       6.845   7.875  15.963  1.00  0.00     0.209 HD
ENDBRANCH  21  22
ENDBRANCH  18  21
BRANCH  19  24
HETATM   24  O4  UNL     1       2.637   8.719  13.327  1.00  0.00    -0.390 OA
HETATM   25  H29 UNL     1       1.858   9.101  13.781  1.00  0.00     0.210 HD
ENDBRANCH  19  24
BRANCH  20  26
HETATM   26  O5  UNL     1       3.631   6.457  16.012  1.00  0.00    -0.388 OA
HETATM   27  H31 UNL     1       4.069   6.946  16.734  1.00  0.00     0.210 HD
ENDBRANCH  20  26
ENDBRANCH  15  16
ENDBRANCH  14  15
ENDBRANCH   7  14
BRANCH   1  28
HETATM   28  C6  UNL     1      -5.224   6.285  14.543  1.00  0.00     0.037 C 
BRANCH  28  29
HETATM   29  C5  UNL     1      -6.628   6.314  13.982  1.00  0.00    -0.019 C 
HETATM   30  C3  UNL     1      -7.325   5.343  13.355  1.00  0.00    -0.067 C 
HETATM   31  C4  UNL     1      -8.723   5.645  12.868  1.00  0.00     0.048 C 
BRANCH  30  32
HETATM   32  C2  UNL     1      -6.799   4.003  13.119  1.00  0.00    -0.004 C 
HETATM   33  C1  UNL     1      -7.513   2.871  13.055  1.00  0.00     0.012 C 
ENDBRANCH  30  32
ENDBRANCH  28  29
ENDBRANCH   1  28
TORSDOF 10
ENDMDL
MODEL 8
REMARK minimizedAffinity -7.61175489
REMARK  10 active torsions:
REMARK  status: ('A' for Active; 'I' for Inactive)
REMARK    1  A    between atoms: C2_2  and  C3_3 
REMARK    2  A    between atoms: C5_5  and  C6_6 
REMARK    3  A    between atoms: C6_6  and  C7_7 
REMARK    4  A    between atoms: C13_13  and  C15_15 
REMARK    5  A    between atoms: C15_15  and  O1_16 
REMARK    6  A    between atoms: O1_16  and  C16_17 
REMARK    7  A    between atoms: C17_19  and  C18_20 
REMARK    8  A    between atoms: C18_20  and  O3_21 
REMARK    9  A    between atoms: C19_22  and  O4_23 
REMARK   10  A    between atoms: C20_24  and  O5_25 
ROOT
HETATM    1  C7  UNL     1       0.511   6.858  11.632  1.00  0.00     0.025 C 
HETATM    2  C8  UNL     1      -0.122   7.978  10.829  1.00  0.00    -0.084 C 
HETATM    3  C9  UNL     1       0.061   8.122   9.507  1.00  0.00     0.015 C 
HETATM    4  C10 UNL     1      -0.985   8.902  11.629  1.00  0.00     0.034 C 
HETATM    5  C11 UNL     1      -2.087   8.121  12.331  1.00  0.00     0.010 C 
HETATM    6  C12 UNL     1      -1.615   6.890  13.174  1.00  0.00     0.005 C 
HETATM    7  C13 UNL     1      -2.876   6.113  13.763  1.00  0.00    -0.018 C 
HETATM    8  C14 UNL     1      -2.472   5.194  14.943  1.00  0.00     0.018 C 
HETATM    9  C21 UNL     1      -3.556   5.271  12.652  1.00  0.00     0.012 C 
HETATM   10  C22 UNL     1      -2.602   4.413  11.827  1.00  0.00     0.002 C 
HETATM   11  C23 UNL     1      -1.419   5.204  11.268  1.00  0.00     0.010 C 
HETATM   12  C24 UNL     1      -0.609   5.984  12.347  1.00  0.00    -0.032 C 
HETATM   13  C25 UNL     1       0.138   4.950  13.229  1.00  0.00     0.016 C 
ENDROOT
BRANCH   7  14
HETATM   14  C15 UNL     1      -3.936   7.107  14.342  1.00  0.00     0.180 C 
BRANCH  14  15
HETATM   15  O1  UNL     1      -5.228   6.877  13.766  1.00  0.00    -0.358 OA
BRANCH  15  16
HETATM   16  C16 UNL     1      -6.065   6.121  14.640  1.00  0.00     0.291 C 
HETATM   17  O2  UNL     1      -7.382   5.998  14.087  1.00  0.00    -0.348 OA
HETATM   18  C17 UNL     1      -8.107   7.217  14.412  1.00  0.00     0.179 C 
HETATM   19  C19 UNL     1      -7.290   7.948  15.491  1.00  0.00     0.182 C 
HETATM   20  C20 UNL     1      -6.290   6.890  15.944  1.00  0.00     0.204 C 
BRANCH  18  21
HETATM   21  C18 UNL     1      -9.511   6.849  14.901  1.00  0.00     0.198 C 
BRANCH  21  22
HETATM   22  O3  UNL     1     -10.224   6.160  13.875  1.00  0.00    -0.398 OA
HETATM   23  H27 UNL     1     -11.107   5.955  14.225  1.00  0.00     0.209 HD
ENDBRANCH  21  22
ENDBRANCH  18  21
BRANCH  19  24
HETATM   24  O4  UNL     1      -6.609   9.071  14.916  1.00  0.00    -0.390 OA
HETATM   25  H29 UNL     1      -5.958   8.719  14.275  1.00  0.00     0.210 HD
ENDBRANCH  19  24
BRANCH  20  26
HETATM   26  O5  UNL     1      -6.874   6.055  16.953  1.00  0.00    -0.388 OA
HETATM   27  H31 UNL     1      -7.416   5.378  16.504  1.00  0.00     0.210 HD
ENDBRANCH  20  26
ENDBRANCH  15  16
ENDBRANCH  14  15
ENDBRANCH   7  14
BRANCH   1  28
HETATM   28  C6  UNL     1       1.595   7.418  12.610  1.00  0.00     0.037 C 
BRANCH  28  29
HETATM   29  C5  UNL     1       2.826   7.943  11.906  1.00  0.00    -0.019 C 
HETATM   30  C3  UNL     1       3.624   7.340  11.000  1.00  0.00    -0.067 C 
HETATM   31  C4  UNL     1       4.818   8.092  10.463  1.00  0.00     0.048 C 
BRANCH  30  32
HETATM   32  C2  UNL     1       3.394   5.988  10.504  1.00  0.00    -0.004 C 
HETATM   33  C1  UNL     1       3.137   5.642   9.235  1.00  0.00     0.012 C 
ENDBRANCH  30  32
ENDBRANCH  28  29
ENDBRANCH   1  28
TORSDOF 10
ENDMDL
MODEL 9
REMARK minimizedAffinity -7.60255384
REMARK  10 active torsions:
REMARK  status: ('A' for Active; 'I' for Inactive)
REMARK    1  A    between atoms: C2_2  and  C3_3 
REMARK    2  A    between atoms: C5_5  and  C6_6 
REMARK    3  A    between atoms: C6_6  and  C7_7 
REMARK    4  A    between atoms: C13_13  and  C15_15 
REMARK    5  A    between atoms: C15_15  and  O1_16 
REMARK    6  A    between atoms: O1_16  and  C16_17 
REMARK    7  A    between atoms: C17_19  and  C18_20 
REMARK    8  A    between atoms: C18_20  and  O3_21 
REMARK    9  A    between atoms: C19_22  and  O4_23 
REMARK   10  A    between atoms: C20_24  and  O5_25 
ROOT
HETATM    1  C7  UNL     1       5.109   7.535  10.557  1.00  0.00     0.025 C 
HETATM    2  C8  UNL     1       5.211   8.985  10.989  1.00  0.00    -0.084 C 
HETATM    3  C9  UNL     1       6.034   9.867  10.400  1.00  0.00     0.015 C 
HETATM    4  C10 UNL     1       4.302   9.359  12.118  1.00  0.00     0.034 C 
HETATM    5  C11 UNL     1       2.855   9.058  11.755  1.00  0.00     0.010 C 
HETATM    6  C12 UNL     1       2.573   7.609  11.237  1.00  0.00     0.005 C 
HETATM    7  C13 UNL     1       1.046   7.470  10.800  1.00  0.00    -0.018 C 
HETATM    8  C14 UNL     1       0.615   5.984  10.721  1.00  0.00     0.018 C 
HETATM    9  C21 UNL     1       0.814   8.157   9.429  1.00  0.00     0.012 C 
HETATM   10  C22 UNL     1       1.827   7.785   8.350  1.00  0.00     0.002 C 
HETATM   11  C23 UNL     1       3.276   7.951   8.808  1.00  0.00     0.010 C 
HETATM   12  C24 UNL     1       3.619   7.187  10.121  1.00  0.00    -0.032 C 
HETATM   13  C25 UNL     1       3.596   5.667   9.814  1.00  0.00     0.016 C 
ENDROOT
BRANCH   7  14
HETATM   14  C15 UNL     1       0.093   8.134  11.848  1.00  0.00     0.180 C 
BRANCH  14  15
HETATM   15  O1  UNL     1       0.724   8.227  13.132  1.00  0.00    -0.358 OA
BRANCH  15  16
HETATM   16  C16 UNL     1       0.228   7.237  14.033  1.00  0.00     0.291 C 
HETATM   17  O2  UNL     1      -1.198   7.143  13.933  1.00  0.00    -0.348 OA
HETATM   18  C17 UNL     1      -1.765   8.203  14.753  1.00  0.00     0.179 C 
HETATM   19  C19 UNL     1      -0.627   8.736  15.640  1.00  0.00     0.182 C 
HETATM   20  C20 UNL     1       0.461   7.681  15.478  1.00  0.00     0.204 C 
BRANCH  18  21
HETATM   21  C18 UNL     1      -2.923   7.634  15.578  1.00  0.00     0.198 C 
BRANCH  21  22
HETATM   22  O3  UNL     1      -2.541   7.519  16.948  1.00  0.00    -0.398 OA
HETATM   23  H27 UNL     1      -3.300   7.148  17.429  1.00  0.00     0.209 HD
ENDBRANCH  21  22
ENDBRANCH  18  21
BRANCH  19  24
HETATM   24  O4  UNL     1      -0.175  10.006  15.151  1.00  0.00    -0.390 OA
HETATM   25  H29 UNL     1       0.220   9.853  14.267  1.00  0.00     0.210 HD
ENDBRANCH  19  24
BRANCH  20  26
HETATM   26  O5  UNL     1       0.249   6.603  16.400  1.00  0.00    -0.388 OA
HETATM   27  H31 UNL     1      -0.416   6.004  16.011  1.00  0.00     0.210 HD
ENDBRANCH  20  26
ENDBRANCH  15  16
ENDBRANCH  14  15
ENDBRANCH   7  14
BRANCH   1  28
HETATM   28  C6  UNL     1       5.683   6.584  11.657  1.00  0.00     0.037 C 
BRANCH  28  29
HETATM   29  C5  UNL     1       7.036   7.016  12.179  1.00  0.00    -0.019 C 
HETATM   30  C3  UNL     1       7.377   7.496  13.393  1.00  0.00    -0.067 C 
HETATM   31  C4  UNL     1       8.816   7.877  13.649  1.00  0.00     0.048 C 
BRANCH  30  32
HETATM   32  C2  UNL     1       6.425   7.669  14.483  1.00  0.00    -0.004 C 
HETATM   33  C1  UNL     1       6.519   8.554  15.485  1.00  0.00     0.012 C 
ENDBRANCH  30  32
ENDBRANCH  28  29
ENDBRANCH   1  28
TORSDOF 10
ENDMDL
