MODEL 1
REMARK minimizedAffinity -7.40645266
REMARK CNNscore 0.441301584
REMARK CNNaffinity 6.80286837
REMARK  6 active torsions:
REMARK  status: ('A' for Active; 'I' for Inactive)
REMARK    1  A    between atoms: C2_2  and  O2_4 
REMARK    2  A    between atoms: O2_4  and  C3_5 
REMARK    3  A    between atoms: C13_15  and  C14_16 
REMARK    4  A    between atoms: C14_16  and  C16_18 
REMARK    5  A    between atoms: C16_18  and  C17_19 
REMARK    6  A    between atoms: C17_19  and  C18_20 
ROOT
HETATM    1  C3  UNL     1       2.470   7.157   9.560  1.00  0.00     0.136 C 
HETATM    2  C4  UNL     1       1.348   8.198   9.434  1.00  0.00     0.034 C 
HETATM    3  C5  UNL     1       0.270   8.070  10.510  1.00  0.00     0.013 C 
HETATM    4  C6  UNL     1       0.839   7.939  11.928  1.00  0.00    -0.027 A 
HETATM    5  C7  UNL     1       0.069   6.964  12.791  1.00  0.00     0.021 A 
HETATM    6  C8  UNL     1       0.062   8.426  13.184  1.00  0.00    -0.027 A 
HETATM    7  C9  UNL     1      -1.228   9.212  12.944  1.00  0.00     0.011 C 
HETATM    8  C10 UNL     1      -2.070   9.609  14.172  1.00  0.00     0.011 C 
HETATM    9  C11 UNL     1      -1.379   9.403  15.527  1.00  0.00    -0.032 C 
HETATM   10  C12 UNL     1      -1.614   7.921  15.959  1.00  0.00     0.016 C 
HETATM   11  C13 UNL     1      -1.831  10.351  16.692  1.00  0.00    -0.002 C 
HETATM   12  C22 UNL     1      -0.594  10.328  17.641  1.00  0.00     0.006 C 
HETATM   13  C23 UNL     1       0.602   9.797  16.840  1.00  0.00     0.011 C 
HETATM   14  C24 UNL     1       0.137   9.789  15.372  1.00  0.00    -0.032 C 
HETATM   15  C25 UNL     1       0.389  11.226  14.818  1.00  0.00     0.016 C 
HETATM   16  C26 UNL     1       0.848   8.730  14.487  1.00  0.00     0.004 C 
HETATM   17  C27 UNL     1       2.330   9.023  14.219  1.00  0.00     0.006 C 
HETATM   18  C28 UNL     1       2.953   7.910  13.377  1.00  0.00     0.006 C 
HETATM   19  C29 UNL     1       2.373   7.949  11.960  1.00  0.00     0.001 C 
HETATM   20  C30 UNL     1       2.857   6.820  11.024  1.00  0.00     0.016 C 
HETATM   21  C31 UNL     1       4.357   6.535  11.110  1.00  0.00     0.013 C 
ENDROOT
BRANCH  11  22
HETATM   22  C14 UNL     1      -3.161  10.059  17.451  1.00  0.00    -0.014 C 
HETATM   23  C15 UNL     1      -4.386  10.341  16.572  1.00  0.00     0.010 C 
BRANCH  22  24
HETATM   24  C16 UNL     1      -3.271  10.896  18.757  1.00  0.00     0.008 C 
BRANCH  24  25
HETATM   25  C17 UNL     1      -3.238  12.415  18.522  1.00  0.00     0.028 C 
BRANCH  25  26
HETATM   26  C18 UNL     1      -4.597  13.041  18.381  1.00  0.00    -0.025 C 
HETATM   27  C19 UNL     1      -5.454  13.400  19.357  1.00  0.00    -0.091 C 
HETATM   28  C20 UNL     1      -5.228  13.208  20.830  1.00  0.00     0.042 C 
HETATM   29  C21 UNL     1      -6.775  14.045  19.016  1.00  0.00     0.042 C 
ENDBRANCH  25  26
ENDBRANCH  24  25
ENDBRANCH  22  24
ENDBRANCH  11  22
BRANCH   1  30
HETATM   30  O2  UNL     1       2.063   5.922   8.925  1.00  0.00    -0.316 OA
BRANCH  30  31
HETATM   31  C2  UNL     1       2.679   5.618   7.750  1.00  0.00     0.255 C 
HETATM   32  C1  UNL     1       2.290   6.610   6.698  1.00  0.00     0.126 C 
HETATM   33  O1  UNL     1       3.450   4.687   7.564  1.00  0.00    -0.266 OA
ENDBRANCH  30  31
ENDBRANCH   1  30
TORSDOF 6
ENDMDL
MODEL 2
REMARK minimizedAffinity -6.37635374
REMARK CNNscore 0.416834056
REMARK CNNaffinity 5.86375999
REMARK  6 active torsions:
REMARK  status: ('A' for Active; 'I' for Inactive)
REMARK    1  A    between atoms: C2_2  and  O2_4 
REMARK    2  A    between atoms: O2_4  and  C3_5 
REMARK    3  A    between atoms: C13_15  and  C14_16 
REMARK    4  A    between atoms: C14_16  and  C16_18 
REMARK    5  A    between atoms: C16_18  and  C17_19 
REMARK    6  A    between atoms: C17_19  and  C18_20 
ROOT
HETATM    1  C3  UNL     1      -4.736 -10.865   6.384  1.00  0.00     0.136 C 
HETATM    2  C4  UNL     1      -5.699 -11.932   5.841  1.00  0.00     0.034 C 
HETATM    3  C5  UNL     1      -6.585 -11.433   4.700  1.00  0.00     0.013 C 
HETATM    4  C6  UNL     1      -5.809 -10.684   3.610  1.00  0.00    -0.027 A 
HETATM    5  C7  UNL     1      -6.555  -9.487   3.063  1.00  0.00     0.021 A 
HETATM    6  C8  UNL     1      -6.281 -10.648   2.129  1.00  0.00    -0.027 A 
HETATM    7  C9  UNL     1      -7.464 -11.542   1.753  1.00  0.00     0.011 C 
HETATM    8  C10 UNL     1      -8.017 -11.440   0.319  1.00  0.00     0.011 C 
HETATM    9  C11 UNL     1      -7.144 -10.641  -0.659  1.00  0.00    -0.032 C 
HETATM   10  C12 UNL     1      -7.517  -9.133  -0.505  1.00  0.00     0.016 C 
HETATM   11  C13 UNL     1      -7.247 -11.040  -2.173  1.00  0.00    -0.002 C 
HETATM   12  C22 UNL     1      -5.885 -10.543  -2.744  1.00  0.00     0.006 C 
HETATM   13  C23 UNL     1      -4.932 -10.322  -1.560  1.00  0.00     0.011 C 
HETATM   14  C24 UNL     1      -5.636 -10.960  -0.348  1.00  0.00    -0.032 C 
HETATM   15  C25 UNL     1      -5.274 -12.477  -0.372  1.00  0.00     0.016 C 
HETATM   16  C26 UNL     1      -5.249 -10.327   1.016  1.00  0.00     0.004 C 
HETATM   17  C27 UNL     1      -3.808 -10.611   1.457  1.00  0.00     0.006 C 
HETATM   18  C28 UNL     1      -3.506  -9.917   2.785  1.00  0.00     0.006 C 
HETATM   19  C29 UNL     1      -4.307 -10.582   3.908  1.00  0.00     0.001 C 
HETATM   20  C30 UNL     1      -4.160  -9.922   5.296  1.00  0.00     0.016 C 
HETATM   21  C31 UNL     1      -2.725  -9.533   5.656  1.00  0.00     0.013 C 
ENDROOT
BRANCH  11  22
HETATM   22  C14 UNL     1      -8.458 -10.541  -3.020  1.00  0.00    -0.014 C 
HETATM   23  C15 UNL     1      -9.380 -11.699  -3.422  1.00  0.00     0.010 C 
BRANCH  22  24
HETATM   24  C16 UNL     1      -7.991  -9.797  -4.303  1.00  0.00     0.008 C 
BRANCH  24  25
HETATM   25  C17 UNL     1      -7.406  -8.401  -4.029  1.00  0.00     0.028 C 
BRANCH  25  26
HETATM   26  C18 UNL     1      -8.262  -7.272  -4.530  1.00  0.00    -0.025 C 
HETATM   27  C19 UNL     1      -9.080  -6.468  -3.822  1.00  0.00    -0.091 C 
HETATM   28  C20 UNL     1      -9.333  -6.566  -2.344  1.00  0.00     0.042 C 
HETATM   29  C21 UNL     1      -9.844  -5.361  -4.505  1.00  0.00     0.042 C 
ENDBRANCH  25  26
ENDBRANCH  24  25
ENDBRANCH  22  24
ENDBRANCH  11  22
BRANCH   1  30
HETATM   30  O2  UNL     1      -5.422 -10.039   7.354  1.00  0.00    -0.316 OA
BRANCH  30  31
HETATM   31  C2  UNL     1      -5.392 -10.474   8.644  1.00  0.00     0.255 C 
HETATM   32  C1  UNL     1      -4.099 -10.077   9.286  1.00  0.00     0.126 C 
HETATM   33  O1  UNL     1      -6.283 -11.087   9.216  1.00  0.00    -0.266 OA
ENDBRANCH  30  31
ENDBRANCH   1  30
TORSDOF 6
ENDMDL
MODEL 3
REMARK minimizedAffinity -6.51396513
REMARK CNNscore 0.412295222
REMARK CNNaffinity 6.80999708
REMARK  6 active torsions:
REMARK  status: ('A' for Active; 'I' for Inactive)
REMARK    1  A    between atoms: C2_2  and  O2_4 
REMARK    2  A    between atoms: O2_4  and  C3_5 
REMARK    3  A    between atoms: C13_15  and  C14_16 
REMARK    4  A    between atoms: C14_16  and  C16_18 
REMARK    5  A    between atoms: C16_18  and  C17_19 
REMARK    6  A    between atoms: C17_19  and  C18_20 
ROOT
HETATM    1  C3  UNL     1      -7.300   5.362  14.056  1.00  0.00     0.136 C 
HETATM    2  C4  UNL     1      -7.805   6.045  12.777  1.00  0.00     0.034 C 
HETATM    3  C5  UNL     1      -9.305   6.339  12.792  1.00  0.00     0.013 C 
HETATM    4  C6  UNL     1      -9.781   7.011  14.084  1.00  0.00    -0.027 A 
HETATM    5  C7  UNL     1     -11.130   6.512  14.555  1.00  0.00     0.021 A 
HETATM    6  C8  UNL     1     -11.013   7.959  14.124  1.00  0.00    -0.027 A 
HETATM    7  C9  UNL     1     -11.638   8.345  12.782  1.00  0.00     0.011 C 
HETATM    8  C10 UNL     1     -12.924   9.194  12.803  1.00  0.00     0.011 C 
HETATM    9  C11 UNL     1     -13.288   9.787  14.171  1.00  0.00    -0.032 C 
HETATM   10  C12 UNL     1     -14.097   8.706  14.956  1.00  0.00     0.016 C 
HETATM   11  C13 UNL     1     -14.107  11.125  14.156  1.00  0.00    -0.002 C 
HETATM   12  C22 UNL     1     -13.768  11.740  15.548  1.00  0.00     0.006 C 
HETATM   13  C23 UNL     1     -12.511  11.037  16.079  1.00  0.00     0.011 C 
HETATM   14  C24 UNL     1     -11.961  10.233  14.886  1.00  0.00    -0.032 C 
HETATM   15  C25 UNL     1     -11.076  11.216  14.058  1.00  0.00     0.016 C 
HETATM   16  C26 UNL     1     -11.148   8.974  15.290  1.00  0.00     0.004 C 
HETATM   17  C27 UNL     1      -9.800   9.279  15.955  1.00  0.00     0.006 C 
HETATM   18  C28 UNL     1      -9.092   7.985  16.353  1.00  0.00     0.006 C 
HETATM   19  C29 UNL     1      -8.648   7.232  15.096  1.00  0.00     0.001 C 
HETATM   20  C30 UNL     1      -7.991   5.859  15.353  1.00  0.00     0.016 C 
HETATM   21  C31 UNL     1      -6.990   5.851  16.509  1.00  0.00     0.013 C 
ENDROOT
BRANCH  11  22
HETATM   22  C14 UNL     1     -15.643  11.086  13.889  1.00  0.00    -0.014 C 
HETATM   23  C15 UNL     1     -16.403  10.444  15.057  1.00  0.00     0.010 C 
BRANCH  22  24
HETATM   24  C16 UNL     1     -15.977  10.313  12.581  1.00  0.00     0.008 C 
BRANCH  24  25
HETATM   25  C17 UNL     1     -17.035   9.213  12.768  1.00  0.00     0.028 C 
BRANCH  25  26
HETATM   26  C18 UNL     1     -17.872   8.958  11.546  1.00  0.00    -0.025 C 
HETATM   27  C19 UNL     1     -18.466   9.860  10.739  1.00  0.00    -0.091 C 
HETATM   28  C20 UNL     1     -18.436  11.350  10.927  1.00  0.00     0.042 C 
HETATM   29  C21 UNL     1     -19.251   9.407   9.533  1.00  0.00     0.042 C 
ENDBRANCH  25  26
ENDBRANCH  24  25
ENDBRANCH  22  24
ENDBRANCH  11  22
BRANCH   1  30
HETATM   30  O2  UNL     1      -7.521   3.935  13.967  1.00  0.00    -0.316 OA
BRANCH  30  31
HETATM   31  C2  UNL     1      -6.771   3.265  13.049  1.00  0.00     0.255 C 
HETATM   32  C1  UNL     1      -5.382   3.824  13.021  1.00  0.00     0.126 C 
HETATM   33  O1  UNL     1      -7.151   2.335  12.353  1.00  0.00    -0.266 OA
ENDBRANCH  30  31
ENDBRANCH   1  30
TORSDOF 6
ENDMDL
MODEL 4
REMARK minimizedAffinity -6.70235968
REMARK CNNscore 0.338080853
REMARK CNNaffinity 5.58247519
REMARK  6 active torsions:
REMARK  status: ('A' for Active; 'I' for Inactive)
REMARK    1  A    between atoms: C2_2  and  O2_4 
REMARK    2  A    between atoms: O2_4  and  C3_5 
REMARK    3  A    between atoms: C13_15  and  C14_16 
REMARK    4  A    between atoms: C14_16  and  C16_18 
REMARK    5  A    between atoms: C16_18  and  C17_19 
REMARK    6  A    between atoms: C17_19  and  C18_20 
ROOT
HETATM    1  C3  UNL     1      -6.588  -9.729  10.417  1.00  0.00     0.136 C 
HETATM    2  C4  UNL     1      -7.697 -10.463   9.650  1.00  0.00     0.034 C 
HETATM    3  C5  UNL     1      -7.700 -10.173   8.149  1.00  0.00     0.013 C 
HETATM    4  C6  UNL     1      -6.315 -10.294   7.504  1.00  0.00    -0.027 A 
HETATM    5  C7  UNL     1      -6.052  -9.238   6.453  1.00  0.00     0.021 A 
HETATM    6  C8  UNL     1      -6.124 -10.685   6.011  1.00  0.00    -0.027 A 
HETATM    7  C9  UNL     1      -7.371 -11.124   5.241  1.00  0.00     0.011 C 
HETATM    8  C10 UNL     1      -7.224 -11.410   3.734  1.00  0.00     0.011 C 
HETATM    9  C11 UNL     1      -5.778 -11.482   3.225  1.00  0.00    -0.032 C 
HETATM   10  C12 UNL     1      -5.316 -10.025   2.900  1.00  0.00     0.016 C 
HETATM   11  C13 UNL     1      -5.524 -12.388   1.969  1.00  0.00    -0.002 C 
HETATM   12  C22 UNL     1      -4.010 -12.732   2.106  1.00  0.00     0.006 C 
HETATM   13  C23 UNL     1      -3.589 -12.434   3.551  1.00  0.00     0.011 C 
HETATM   14  C24 UNL     1      -4.904 -12.199   4.317  1.00  0.00    -0.032 C 
HETATM   15  C25 UNL     1      -5.426 -13.606   4.747  1.00  0.00     0.016 C 
HETATM   16  C26 UNL     1      -4.762 -11.269   5.552  1.00  0.00     0.004 C 
HETATM   17  C27 UNL     1      -3.968 -11.879   6.714  1.00  0.00     0.006 C 
HETATM   18  C28 UNL     1      -3.845 -10.880   7.863  1.00  0.00     0.006 C 
HETATM   19  C29 UNL     1      -5.217 -10.666   8.510  1.00  0.00     0.001 C 
HETATM   20  C30 UNL     1      -5.253  -9.611   9.636  1.00  0.00     0.016 C 
HETATM   21  C31 UNL     1      -4.076  -9.695  10.610  1.00  0.00     0.013 C 
ENDROOT
BRANCH  11  22
HETATM   22  C14 UNL     1      -5.881 -11.854   0.549  1.00  0.00    -0.014 C 
HETATM   23  C15 UNL     1      -6.389 -12.976  -0.365  1.00  0.00     0.010 C 
BRANCH  22  24
HETATM   24  C16 UNL     1      -4.662 -11.164  -0.127  1.00  0.00     0.008 C 
BRANCH  24  25
HETATM   25  C17 UNL     1      -4.783 -11.055  -1.656  1.00  0.00     0.028 C 
BRANCH  25  26
HETATM   26  C18 UNL     1      -5.550  -9.851  -2.124  1.00  0.00    -0.025 C 
HETATM   27  C19 UNL     1      -6.616  -9.810  -2.949  1.00  0.00    -0.091 C 
HETATM   28  C20 UNL     1      -7.248 -10.998  -3.615  1.00  0.00     0.042 C 
HETATM   29  C21 UNL     1      -7.273  -8.494  -3.284  1.00  0.00     0.042 C 
ENDBRANCH  25  26
ENDBRANCH  24  25
ENDBRANCH  22  24
ENDBRANCH  11  22
BRANCH   1  30
HETATM   30  O2  UNL     1      -7.023  -8.386  10.735  1.00  0.00    -0.316 OA
BRANCH  30  31
HETATM   31  C2  UNL     1      -6.880  -7.999  12.033  1.00  0.00     0.255 C 
HETATM   32  C1  UNL     1      -7.063  -9.177  12.939  1.00  0.00     0.126 C 
HETATM   33  O1  UNL     1      -6.627  -6.866  12.420  1.00  0.00    -0.266 OA
ENDBRANCH  30  31
ENDBRANCH   1  30
TORSDOF 6
ENDMDL
MODEL 5
REMARK minimizedAffinity -6.09698343
REMARK CNNscore 0.313019812
REMARK CNNaffinity 6.09920263
REMARK  6 active torsions:
REMARK  status: ('A' for Active; 'I' for Inactive)
REMARK    1  A    between atoms: C2_2  and  O2_4 
REMARK    2  A    between atoms: O2_4  and  C3_5 
REMARK    3  A    between atoms: C13_15  and  C14_16 
REMARK    4  A    between atoms: C14_16  and  C16_18 
REMARK    5  A    between atoms: C16_18  and  C17_19 
REMARK    6  A    between atoms: C17_19  and  C18_20 
ROOT
HETATM    1  C3  UNL     1      10.168  10.993  12.850  1.00  0.00     0.136 C 
HETATM    2  C4  UNL     1       9.003  11.979  12.683  1.00  0.00     0.034 C 
HETATM    3  C5  UNL     1       7.715  11.325  12.181  1.00  0.00     0.013 C 
HETATM    4  C6  UNL     1       7.344  10.049  12.944  1.00  0.00    -0.027 A 
HETATM    5  C7  UNL     1       6.779   8.965  12.053  1.00  0.00     0.021 A 
HETATM    6  C8  UNL     1       5.872   9.572  13.102  1.00  0.00    -0.027 A 
HETATM    7  C9  UNL     1       4.777  10.524  12.618  1.00  0.00     0.011 C 
HETATM    8  C10 UNL     1       3.319  10.028  12.665  1.00  0.00     0.011 C 
HETATM    9  C11 UNL     1       3.100   8.725  13.446  1.00  0.00    -0.032 C 
HETATM   10  C12 UNL     1       3.378   7.536  12.473  1.00  0.00     0.016 C 
HETATM   11  C13 UNL     1       1.687   8.530  14.098  1.00  0.00    -0.002 C 
HETATM   12  C22 UNL     1       1.986   7.526  15.252  1.00  0.00     0.006 C 
HETATM   13  C23 UNL     1       3.500   7.538  15.505  1.00  0.00     0.011 C 
HETATM   14  C24 UNL     1       4.034   8.745  14.711  1.00  0.00    -0.032 C 
HETATM   15  C25 UNL     1       3.859   9.994  15.629  1.00  0.00     0.016 C 
HETATM   16  C26 UNL     1       5.512   8.602  14.259  1.00  0.00     0.004 C 
HETATM   17  C27 UNL     1       6.531   8.658  15.404  1.00  0.00     0.006 C 
HETATM   18  C28 UNL     1       7.950   8.469  14.870  1.00  0.00     0.006 C 
HETATM   19  C29 UNL     1       8.356   9.691  14.041  1.00  0.00     0.001 C 
HETATM   20  C30 UNL     1       9.743   9.594  13.369  1.00  0.00     0.016 C 
HETATM   21  C31 UNL     1      10.838   9.022  14.271  1.00  0.00     0.013 C 
ENDROOT
BRANCH  11  22
HETATM   22  C14 UNL     1       0.487   8.070  13.214  1.00  0.00    -0.014 C 
HETATM   23  C15 UNL     1       0.279   6.552  13.292  1.00  0.00     0.010 C 
BRANCH  22  24
HETATM   24  C16 UNL     1       0.682   8.479  11.726  1.00  0.00     0.008 C 
BRANCH  24  25
HETATM   25  C17 UNL     1       0.026   7.510  10.729  1.00  0.00     0.028 C 
BRANCH  25  26
HETATM   26  C18 UNL     1       1.006   6.695   9.933  1.00  0.00    -0.025 C 
HETATM   27  C19 UNL     1       1.675   7.052   8.818  1.00  0.00    -0.091 C 
HETATM   28  C20 UNL     1       1.542   8.368   8.105  1.00  0.00     0.042 C 
HETATM   29  C21 UNL     1       2.647   6.097   8.171  1.00  0.00     0.042 C 
ENDBRANCH  25  26
ENDBRANCH  24  25
ENDBRANCH  22  24
ENDBRANCH  11  22
BRANCH   1  30
HETATM   30  O2  UNL     1      10.830  10.800  11.578  1.00  0.00    -0.316 OA
BRANCH  30  31
HETATM   31  C2  UNL     1      11.882  11.623  11.316  1.00  0.00     0.255 C 
HETATM   32  C1  UNL     1      12.573  11.990  12.592  1.00  0.00     0.126 C 
HETATM   33  O1  UNL     1      12.236  12.006  10.209  1.00  0.00    -0.266 OA
ENDBRANCH  30  31
ENDBRANCH   1  30
TORSDOF 6
ENDMDL
MODEL 6
REMARK minimizedAffinity -8.19939327
REMARK CNNscore 0.287653565
REMARK CNNaffinity 6.56418467
REMARK  6 active torsions:
REMARK  status: ('A' for Active; 'I' for Inactive)
REMARK    1  A    between atoms: C2_2  and  O2_4 
REMARK    2  A    between atoms: O2_4  and  C3_5 
REMARK    3  A    between atoms: C13_15  and  C14_16 
REMARK    4  A    between atoms: C14_16  and  C16_18 
REMARK    5  A    between atoms: C16_18  and  C17_19 
REMARK    6  A    between atoms: C17_19  and  C18_20 
ROOT
HETATM    1  C3  UNL     1      -5.852   4.562  12.726  1.00  0.00     0.136 C 
HETATM    2  C4  UNL     1      -6.505   5.936  12.935  1.00  0.00     0.034 C 
HETATM    3  C5  UNL     1      -6.045   6.645  14.208  1.00  0.00     0.013 C 
HETATM    4  C6  UNL     1      -4.522   6.648  14.386  1.00  0.00    -0.027 A 
HETATM    5  C7  UNL     1      -4.090   6.446  15.822  1.00  0.00     0.021 A 
HETATM    6  C8  UNL     1      -3.778   7.772  15.161  1.00  0.00    -0.027 A 
HETATM    7  C9  UNL     1      -4.604   8.984  15.594  1.00  0.00     0.011 C 
HETATM    8  C10 UNL     1      -3.912  10.057  16.457  1.00  0.00     0.011 C 
HETATM    9  C11 UNL     1      -2.387   9.921  16.562  1.00  0.00    -0.032 C 
HETATM   10  C12 UNL     1      -2.079   8.921  17.722  1.00  0.00     0.016 C 
HETATM   11  C13 UNL     1      -1.583  11.246  16.806  1.00  0.00    -0.002 C 
HETATM   12  C22 UNL     1      -0.171  10.888  16.253  1.00  0.00     0.006 C 
HETATM   13  C23 UNL     1      -0.317   9.648  15.360  1.00  0.00     0.011 C 
HETATM   14  C24 UNL     1      -1.833   9.465  15.163  1.00  0.00    -0.032 C 
HETATM   15  C25 UNL     1      -2.240  10.387  13.971  1.00  0.00     0.016 C 
HETATM   16  C26 UNL     1      -2.266   7.999  14.894  1.00  0.00     0.004 C 
HETATM   17  C27 UNL     1      -1.827   7.452  13.530  1.00  0.00     0.006 C 
HETATM   18  C28 UNL     1      -2.261   5.996  13.370  1.00  0.00     0.006 C 
HETATM   19  C29 UNL     1      -3.786   5.921  13.252  1.00  0.00     0.001 C 
HETATM   20  C30 UNL     1      -4.368   4.494  13.171  1.00  0.00     0.016 C 
HETATM   21  C31 UNL     1      -3.593   3.554  12.246  1.00  0.00     0.013 C 
ENDROOT
BRANCH  11  22
HETATM   22  C14 UNL     1      -1.517  11.855  18.240  1.00  0.00    -0.014 C 
HETATM   23  C15 UNL     1      -0.830  13.227  18.239  1.00  0.00     0.010 C 
BRANCH  22  24
HETATM   24  C16 UNL     1      -0.769  10.915  19.227  1.00  0.00     0.008 C 
BRANCH  24  25
HETATM   25  C17 UNL     1       0.547  11.504  19.764  1.00  0.00     0.028 C 
BRANCH  25  26
HETATM   26  C18 UNL     1       1.290  10.589  20.696  1.00  0.00    -0.025 C 
HETATM   27  C19 UNL     1       2.614  10.552  20.947  1.00  0.00    -0.091 C 
HETATM   28  C20 UNL     1       3.649  11.425  20.297  1.00  0.00     0.042 C 
HETATM   29  C21 UNL     1       3.175   9.570  21.945  1.00  0.00     0.042 C 
ENDBRANCH  25  26
ENDBRANCH  24  25
ENDBRANCH  22  24
ENDBRANCH  11  22
BRANCH   1  30
HETATM   30  O2  UNL     1      -6.575   3.559  13.478  1.00  0.00    -0.316 OA
BRANCH  30  31
HETATM   31  C2  UNL     1      -7.484   2.822  12.780  1.00  0.00     0.255 C 
HETATM   32  C1  UNL     1      -6.781   1.770  11.981  1.00  0.00     0.126 C 
HETATM   33  O1  UNL     1      -8.697   2.973  12.802  1.00  0.00    -0.266 OA
ENDBRANCH  30  31
ENDBRANCH   1  30
TORSDOF 6
ENDMDL
MODEL 7
REMARK minimizedAffinity -8.19507122
REMARK CNNscore 0.251447529
REMARK CNNaffinity 6.77243757
REMARK  6 active torsions:
REMARK  status: ('A' for Active; 'I' for Inactive)
REMARK    1  A    between atoms: C2_2  and  O2_4 
REMARK    2  A    between atoms: O2_4  and  C3_5 
REMARK    3  A    between atoms: C13_15  and  C14_16 
REMARK    4  A    between atoms: C14_16  and  C16_18 
REMARK    5  A    between atoms: C16_18  and  C17_19 
REMARK    6  A    between atoms: C17_19  and  C18_20 
ROOT
HETATM    1  C3  UNL     1      -8.543   6.792  14.720  1.00  0.00     0.136 C 
HETATM    2  C4  UNL     1      -7.555   5.621  14.630  1.00  0.00     0.034 C 
HETATM    3  C5  UNL     1      -6.353   5.901  13.728  1.00  0.00     0.013 C 
HETATM    4  C6  UNL     1      -5.688   7.255  14.003  1.00  0.00    -0.027 A 
HETATM    5  C7  UNL     1      -5.230   7.961  12.746  1.00  0.00     0.021 A 
HETATM    6  C8  UNL     1      -4.178   7.509  13.737  1.00  0.00    -0.027 A 
HETATM    7  C9  UNL     1      -3.325   6.298  13.353  1.00  0.00     0.011 C 
HETATM    8  C10 UNL     1      -1.851   6.545  12.979  1.00  0.00     0.011 C 
HETATM    9  C11 UNL     1      -1.327   7.953  13.293  1.00  0.00    -0.032 C 
HETATM   10  C12 UNL     1      -1.693   8.875  12.087  1.00  0.00     0.016 C 
HETATM   11  C13 UNL     1       0.209   8.078  13.582  1.00  0.00    -0.002 C 
HETATM   12  C22 UNL     1       0.285   9.383  14.430  1.00  0.00     0.006 C 
HETATM   13  C23 UNL     1      -1.125   9.685  14.955  1.00  0.00     0.011 C 
HETATM   14  C24 UNL     1      -1.948   8.417  14.661  1.00  0.00    -0.032 C 
HETATM   15  C25 UNL     1      -1.700   7.440  15.852  1.00  0.00     0.016 C 
HETATM   16  C26 UNL     1      -3.467   8.675  14.473  1.00  0.00     0.004 C 
HETATM   17  C27 UNL     1      -4.201   9.088  15.755  1.00  0.00     0.006 C 
HETATM   18  C28 UNL     1      -5.676   9.360  15.466  1.00  0.00     0.006 C 
HETATM   19  C29 UNL     1      -6.384   8.047  15.119  1.00  0.00     0.001 C 
HETATM   20  C30 UNL     1      -7.869   8.189  14.720  1.00  0.00     0.016 C 
HETATM   21  C31 UNL     1      -8.666   9.148  15.607  1.00  0.00     0.013 C 
ENDROOT
BRANCH  11  22
HETATM   22  C14 UNL     1       1.219   8.089  12.394  1.00  0.00    -0.014 C 
HETATM   23  C15 UNL     1       0.569   8.612  11.106  1.00  0.00     0.010 C 
BRANCH  22  24
HETATM   24  C16 UNL     1       1.804   6.673  12.127  1.00  0.00     0.008 C 
BRANCH  24  25
HETATM   25  C17 UNL     1       3.159   6.692  11.400  1.00  0.00     0.028 C 
BRANCH  25  26
HETATM   26  C18 UNL     1       3.226   7.668  10.258  1.00  0.00    -0.025 C 
HETATM   27  C19 UNL     1       2.987   7.439   8.952  1.00  0.00    -0.091 C 
HETATM   28  C20 UNL     1       2.627   6.109   8.351  1.00  0.00     0.042 C 
HETATM   29  C21 UNL     1       3.079   8.562   7.949  1.00  0.00     0.042 C 
ENDBRANCH  25  26
ENDBRANCH  24  25
ENDBRANCH  22  24
ENDBRANCH  11  22
BRANCH   1  30
HETATM   30  O2  UNL     1      -9.452   6.751  13.594  1.00  0.00    -0.316 OA
BRANCH  30  31
HETATM   31  C2  UNL     1     -10.763   6.992  13.870  1.00  0.00     0.255 C 
HETATM   32  C1  UNL     1     -11.437   7.577  12.668  1.00  0.00     0.126 C 
HETATM   33  O1  UNL     1     -11.328   6.760  14.930  1.00  0.00    -0.266 OA
ENDBRANCH  30  31
ENDBRANCH   1  30
TORSDOF 6
ENDMDL
MODEL 8
REMARK minimizedAffinity -6.4196229
REMARK CNNscore 0.242227405
REMARK CNNaffinity 5.53140306
REMARK  6 active torsions:
REMARK  status: ('A' for Active; 'I' for Inactive)
REMARK    1  A    between atoms: C2_2  and  O2_4 
REMARK    2  A    between atoms: O2_4  and  C3_5 
REMARK    3  A    between atoms: C13_15  and  C14_16 
REMARK    4  A    between atoms: C14_16  and  C16_18 
REMARK    5  A    between atoms: C16_18  and  C17_19 
REMARK    6  A    between atoms: C17_19  and  C18_20 
ROOT
HETATM    1  C3  UNL     1       6.832  12.716  22.002  1.00  0.00     0.136 C 
HETATM    2  C4  UNL     1       5.916  11.554  22.412  1.00  0.00     0.034 C 
HETATM    3  C5  UNL     1       4.431  11.836  22.186  1.00  0.00     0.013 C 
HETATM    4  C6  UNL     1       4.125  12.406  20.797  1.00  0.00    -0.027 A 
HETATM    5  C7  UNL     1       3.057  13.478  20.814  1.00  0.00     0.021 A 
HETATM    6  C8  UNL     1       2.758  12.184  20.089  1.00  0.00    -0.027 A 
HETATM    7  C9  UNL     1       1.779  11.215  20.754  1.00  0.00     0.011 C 
HETATM    8  C10 UNL     1       0.379  11.063  20.129  1.00  0.00     0.011 C 
HETATM    9  C11 UNL     1       0.213  11.704  18.744  1.00  0.00    -0.032 C 
HETATM   10  C12 UNL     1      -0.146  13.208  18.957  1.00  0.00     0.016 C 
HETATM   11  C13 UNL     1      -0.858  11.054  17.799  1.00  0.00    -0.002 C 
HETATM   12  C22 UNL     1      -0.355  11.475  16.385  1.00  0.00     0.006 C 
HETATM   13  C23 UNL     1       1.111  11.912  16.518  1.00  0.00     0.011 C 
HETATM   14  C24 UNL     1       1.538  11.472  17.931  1.00  0.00    -0.032 C 
HETATM   15  C25 UNL     1       1.980   9.980  17.818  1.00  0.00     0.016 C 
HETATM   16  C26 UNL     1       2.674  12.333  18.547  1.00  0.00     0.004 C 
HETATM   17  C27 UNL     1       4.038  12.157  17.869  1.00  0.00     0.006 C 
HETATM   18  C28 UNL     1       5.080  13.070  18.512  1.00  0.00     0.006 C 
HETATM   19  C29 UNL     1       5.381  12.587  19.934  1.00  0.00     0.001 C 
HETATM   20  C30 UNL     1       6.360  13.474  20.734  1.00  0.00     0.016 C 
HETATM   21  C31 UNL     1       7.574  13.947  19.932  1.00  0.00     0.013 C 
ENDROOT
BRANCH  11  22
HETATM   22  C14 UNL     1      -2.368  11.379  18.007  1.00  0.00    -0.014 C 
HETATM   23  C15 UNL     1      -3.105  10.220  18.693  1.00  0.00     0.010 C 
BRANCH  22  24
HETATM   24  C16 UNL     1      -3.076  11.703  16.661  1.00  0.00     0.008 C 
BRANCH  24  25
HETATM   25  C17 UNL     1      -4.228  10.742  16.323  1.00  0.00     0.028 C 
BRANCH  25  26
HETATM   26  C18 UNL     1      -4.044   9.999  15.029  1.00  0.00    -0.025 C 
HETATM   27  C19 UNL     1      -4.810   9.015  14.517  1.00  0.00    -0.091 C 
HETATM   28  C20 UNL     1      -6.023   8.421  15.177  1.00  0.00     0.042 C 
HETATM   29  C21 UNL     1      -4.476   8.404  13.179  1.00  0.00     0.042 C 
ENDBRANCH  25  26
ENDBRANCH  24  25
ENDBRANCH  22  24
ENDBRANCH  11  22
BRANCH   1  30
HETATM   30  O2  UNL     1       6.910  13.679  23.078  1.00  0.00    -0.316 OA
BRANCH  30  31
HETATM   31  C2  UNL     1       8.159  14.095  23.426  1.00  0.00     0.255 C 
HETATM   32  C1  UNL     1       8.229  15.590  23.386  1.00  0.00     0.126 C 
HETATM   33  O1  UNL     1       9.094  13.371  23.740  1.00  0.00    -0.266 OA
ENDBRANCH  30  31
ENDBRANCH   1  30
TORSDOF 6
ENDMDL
MODEL 9
REMARK minimizedAffinity -6.05953884
REMARK CNNscore 0.24007763
REMARK CNNaffinity 5.74175262
REMARK  6 active torsions:
REMARK  status: ('A' for Active; 'I' for Inactive)
REMARK    1  A    between atoms: C2_2  and  O2_4 
REMARK    2  A    between atoms: O2_4  and  C3_5 
REMARK    3  A    between atoms: C13_15  and  C14_16 
REMARK    4  A    between atoms: C14_16  and  C16_18 
REMARK    5  A    between atoms: C16_18  and  C17_19 
REMARK    6  A    between atoms: C17_19  and  C18_20 
ROOT
HETATM    1  C3  UNL     1     -16.047   4.465  24.350  1.00  0.00     0.136 C 
HETATM    2  C4  UNL     1     -15.166   4.985  25.495  1.00  0.00     0.034 C 
HETATM    3  C5  UNL     1     -13.900   5.697  25.018  1.00  0.00     0.013 C 
HETATM    4  C6  UNL     1     -14.162   6.731  23.918  1.00  0.00    -0.027 A 
HETATM    5  C7  UNL     1     -13.087   6.753  22.853  1.00  0.00     0.021 A 
HETATM    6  C8  UNL     1     -13.260   7.982  23.720  1.00  0.00    -0.027 A 
HETATM    7  C9  UNL     1     -12.192   8.246  24.784  1.00  0.00     0.011 C 
HETATM    8  C10 UNL     1     -11.217   9.416  24.552  1.00  0.00     0.011 C 
HETATM    9  C11 UNL     1     -11.596  10.359  23.401  1.00  0.00    -0.032 C 
HETATM   10  C12 UNL     1     -11.031   9.746  22.081  1.00  0.00     0.016 C 
HETATM   11  C13 UNL     1     -11.104  11.843  23.525  1.00  0.00    -0.002 C 
HETATM   12  C22 UNL     1     -12.118  12.608  22.621  1.00  0.00     0.006 C 
HETATM   13  C23 UNL     1     -13.333  11.696  22.403  1.00  0.00     0.011 C 
HETATM   14  C24 UNL     1     -13.157  10.539  23.404  1.00  0.00    -0.032 C 
HETATM   15  C25 UNL     1     -13.753  11.030  24.760  1.00  0.00     0.016 C 
HETATM   16  C26 UNL     1     -13.827   9.210  22.962  1.00  0.00     0.004 C 
HETATM   17  C27 UNL     1     -15.361   9.243  22.971  1.00  0.00     0.006 C 
HETATM   18  C28 UNL     1     -15.930   7.911  22.484  1.00  0.00     0.006 C 
HETATM   19  C29 UNL     1     -15.641   6.818  23.518  1.00  0.00     0.001 C 
HETATM   20  C30 UNL     1     -16.089   5.398  23.111  1.00  0.00     0.016 C 
HETATM   21  C31 UNL     1     -17.475   5.339  22.466  1.00  0.00     0.013 C 
ENDROOT
BRANCH  11  22
HETATM   22  C14 UNL     1      -9.625  12.196  23.180  1.00  0.00    -0.014 C 
HETATM   23  C15 UNL     1      -9.076  13.291  24.104  1.00  0.00     0.010 C 
BRANCH  22  24
HETATM   24  C16 UNL     1      -9.476  12.659  21.703  1.00  0.00     0.008 C 
BRANCH  24  25
HETATM   25  C17 UNL     1      -8.676  13.962  21.542  1.00  0.00     0.028 C 
BRANCH  25  26
HETATM   26  C18 UNL     1      -7.457  13.826  20.673  1.00  0.00    -0.025 C 
HETATM   27  C19 UNL     1      -6.216  13.441  21.033  1.00  0.00    -0.091 C 
HETATM   28  C20 UNL     1      -5.782  13.090  22.428  1.00  0.00     0.042 C 
HETATM   29  C21 UNL     1      -5.118  13.340  20.003  1.00  0.00     0.042 C 
ENDBRANCH  25  26
ENDBRANCH  24  25
ENDBRANCH  22  24
ENDBRANCH  11  22
BRANCH   1  30
HETATM   30  O2  UNL     1     -15.560   3.177  23.906  1.00  0.00    -0.316 OA
BRANCH  30  31
HETATM   31  C2  UNL     1     -14.509   3.198  23.039  1.00  0.00     0.255 C 
HETATM   32  C1  UNL     1     -13.281   2.672  23.714  1.00  0.00     0.126 C 
HETATM   33  O1  UNL     1     -14.547   3.573  21.875  1.00  0.00    -0.266 OA
ENDBRANCH  30  31
ENDBRANCH   1  30
TORSDOF 6
ENDMDL
