MODEL 1
REMARK minimizedAffinity -9.96946907
REMARK CNNscore 0.405917287
REMARK CNNaffinity 7.3284173
REMARK  10 active torsions:
REMARK  status: ('A' for Active; 'I' for Inactive)
REMARK    1  A    between atoms: O1_2  and  C2_3 
REMARK    2  A    between atoms: C2_3  and  C3_5 
REMARK    3  A    between atoms: C3_5  and  C4_6 
REMARK    4  A    between atoms: C3_5  and  N1_13 
REMARK    5  A    between atoms: C4_6  and  C5_7 
REMARK       I    between atoms: N1_13  and  C11_14 
REMARK    6  A    between atoms: C11_14  and  C12_16 
REMARK    7  A    between atoms: C12_16  and  O4_17 
REMARK    8  A    between atoms: O4_17  and  N2_18 
REMARK    9  A    between atoms: C27_34  and  O5_35 
REMARK   10  A    between atoms: C27_34  and  C28_36 
ROOT
HETATM    1  N2  UNL     1      -3.057   5.287  13.300  1.00  0.00    -0.271 N 
ATOM      2  H2  UNL     1      -2.676   4.572  12.680  1.00  0.00     0.194 HD
HETATM    3  C13 UNL     1      -4.307   5.361  13.652  1.00  0.00     0.032 C 
HETATM    4  C14 UNL     1      -4.883   6.354  14.605  1.00  0.00     0.030 C 
HETATM    5  C15 UNL     1      -6.210   6.464  14.810  1.00  0.00    -0.069 C 
HETATM    6  C16 UNL     1      -6.707   7.640  15.629  1.00  0.00     0.035 C 
HETATM    7  C17 UNL     1      -8.134   7.505  16.145  1.00  0.00     0.010 C 
HETATM    8  C18 UNL     1      -9.151   7.048  15.080  1.00  0.00    -0.004 C 
HETATM    9  C19 UNL     1      -8.470   6.501  13.787  1.00  0.00     0.002 C 
HETATM   10  C20 UNL     1      -9.532   5.916  12.830  1.00  0.00     0.007 C 
HETATM   11  C21 UNL     1     -10.628   6.952  12.485  1.00  0.00     0.013 C 
HETATM   12  C22 UNL     1     -11.287   7.563  13.739  1.00  0.00    -0.002 C 
HETATM   13  C23 UNL     1     -12.150   6.472  14.433  1.00  0.00     0.019 C 
HETATM   14  C24 UNL     1     -10.152   8.126  14.646  1.00  0.00     0.002 C 
HETATM   15  C25 UNL     1     -10.907   8.919  15.706  1.00  0.00     0.009 C 
HETATM   16  C26 UNL     1     -12.107   9.524  14.948  1.00  0.00     0.047 C 
HETATM   17  C27 UNL     1     -12.129   8.863  13.538  1.00  0.00     0.125 C 
HETATM   18  C30 UNL     1      -7.251   5.578  14.116  1.00  0.00    -0.016 C 
HETATM   19  C31 UNL     1      -7.652   4.401  15.038  1.00  0.00     0.020 C 
HETATM   20  C32 UNL     1      -6.635   4.995  12.814  1.00  0.00     0.020 C 
HETATM   21  C33 UNL     1      -5.261   4.363  13.032  1.00  0.00     0.060 C 
ENDROOT
BRANCH   1  22
HETATM   22  O4  UNL     1      -2.302   6.317  13.881  1.00  0.00    -0.271 OA
BRANCH  22  23
HETATM   23  C12 UNL     1      -1.456   6.913  12.899  1.00  0.00     0.303 C 
BRANCH  23  24
HETATM   24  C11 UNL     1      -0.109   6.212  12.920  1.00  0.00     0.244 C 
HETATM   25  N1  UNL     1       0.897   6.919  12.285  1.00  0.00    -0.345 N 
HETATM   26  H12 UNL     1       0.553   7.608  11.619  1.00  0.00     0.163 HD
HETATM   27  O3  UNL     1       0.070   5.130  13.472  1.00  0.00    -0.271 OA
BRANCH  25  28
HETATM   28  C3  UNL     1       2.199   6.301  11.993  1.00  0.00     0.188 C 
BRANCH  28  29
HETATM   29  C2  UNL     1       3.345   7.333  11.999  1.00  0.00     0.281 C 
HETATM   30  O2  UNL     1       3.208   8.537  12.183  1.00  0.00    -0.263 OA
BRANCH  29  31
HETATM   31  O1  UNL     1       4.536   6.744  11.666  1.00  0.00    -0.325 OA
HETATM   32  C1  UNL     1       5.684   7.553  11.929  1.00  0.00     0.213 C 
ENDBRANCH  29  31
ENDBRANCH  28  29
BRANCH  28  33
HETATM   33  C4  UNL     1       2.195   5.457  10.704  1.00  0.00     0.074 C 
BRANCH  33  34
HETATM   34  C5  UNL     1       1.928   6.286   9.466  1.00  0.00    -0.056 A 
HETATM   35  C6  UNL     1       2.636   6.031   8.282  1.00  0.00     0.007 A 
HETATM   36  C7  UNL     1       2.393   6.792   7.136  1.00  0.00     0.001 A 
HETATM   37  C8  UNL     1       1.448   7.814   7.163  1.00  0.00     0.000 A 
HETATM   38  C9  UNL     1       0.749   8.081   8.337  1.00  0.00     0.001 A 
HETATM   39  C10 UNL     1       0.990   7.323   9.486  1.00  0.00     0.007 A 
ENDBRANCH  33  34
ENDBRANCH  28  33
ENDBRANCH  25  28
ENDBRANCH  23  24
ENDBRANCH  22  23
ENDBRANCH   1  22
BRANCH  17  40
HETATM   40  O5  UNL     1     -11.451   9.745  12.633  1.00  0.00    -0.381 OA
HETATM   41  H34 UNL     1     -11.871  10.621  12.698  1.00  0.00     0.211 HD
ENDBRANCH  17  40
BRANCH  17  42
HETATM   42  C28 UNL     1     -13.569   8.626  13.026  1.00  0.00     0.158 C 
HETATM   43  C29 UNL     1     -14.320   7.438  13.574  1.00  0.00     0.094 C 
HETATM   44  O6  UNL     1     -14.113   9.379  12.214  1.00  0.00    -0.295 OA
ENDBRANCH  17  42
TORSDOF 10
ENDMDL
MODEL 2
REMARK minimizedAffinity -8.04402637
REMARK CNNscore 0.397575885
REMARK CNNaffinity 7.29178047
REMARK  10 active torsions:
REMARK  status: ('A' for Active; 'I' for Inactive)
REMARK    1  A    between atoms: O1_2  and  C2_3 
REMARK    2  A    between atoms: C2_3  and  C3_5 
REMARK    3  A    between atoms: C3_5  and  C4_6 
REMARK    4  A    between atoms: C3_5  and  N1_13 
REMARK    5  A    between atoms: C4_6  and  C5_7 
REMARK       I    between atoms: N1_13  and  C11_14 
REMARK    6  A    between atoms: C11_14  and  C12_16 
REMARK    7  A    between atoms: C12_16  and  O4_17 
REMARK    8  A    between atoms: O4_17  and  N2_18 
REMARK    9  A    between atoms: C27_34  and  O5_35 
REMARK   10  A    between atoms: C27_34  and  C28_36 
ROOT
HETATM    1  N2  UNL     1     -11.281   7.900  14.207  1.00  0.00    -0.271 N 
ATOM      2  H2  UNL     1     -11.753   8.541  14.845  1.00  0.00     0.194 HD
HETATM    3  C13 UNL     1     -10.094   7.407  14.408  1.00  0.00     0.032 C 
HETATM    4  C14 UNL     1      -9.404   6.420  13.528  1.00  0.00     0.030 C 
HETATM    5  C15 UNL     1      -8.118   6.066  13.720  1.00  0.00    -0.069 C 
HETATM    6  C16 UNL     1      -7.447   5.226  12.651  1.00  0.00     0.035 C 
HETATM    7  C17 UNL     1      -6.155   4.544  13.088  1.00  0.00     0.010 C 
HETATM    8  C18 UNL     1      -5.169   5.471  13.825  1.00  0.00    -0.004 C 
HETATM    9  C19 UNL     1      -5.819   6.820  14.265  1.00  0.00     0.002 C 
HETATM   10  C20 UNL     1      -4.830   7.631  15.132  1.00  0.00     0.007 C 
HETATM   11  C21 UNL     1      -3.489   7.874  14.399  1.00  0.00     0.013 C 
HETATM   12  C22 UNL     1      -2.842   6.568  13.894  1.00  0.00    -0.002 C 
HETATM   13  C23 UNL     1      -2.341   5.750  15.117  1.00  0.00     0.019 C 
HETATM   14  C24 UNL     1      -3.899   5.814  13.034  1.00  0.00     0.002 C 
HETATM   15  C25 UNL     1      -3.095   4.695  12.384  1.00  0.00     0.009 C 
HETATM   16  C26 UNL     1      -1.713   5.324  12.117  1.00  0.00     0.047 C 
HETATM   17  C27 UNL     1      -1.698   6.704  12.838  1.00  0.00     0.125 C 
HETATM   18  C30 UNL     1      -7.250   6.610  14.860  1.00  0.00    -0.016 C 
HETATM   19  C31 UNL     1      -7.241   5.617  16.047  1.00  0.00     0.020 C 
HETATM   20  C32 UNL     1      -7.844   7.959  15.351  1.00  0.00     0.020 C 
HETATM   21  C33 UNL     1      -9.344   7.886  15.633  1.00  0.00     0.060 C 
ENDROOT
BRANCH   1  22
HETATM   22  O4  UNL     1     -11.828   7.438  13.001  1.00  0.00    -0.271 OA
BRANCH  22  23
HETATM   23  C12 UNL     1     -13.250   7.543  13.039  1.00  0.00     0.303 C 
BRANCH  23  24
HETATM   24  C11 UNL     1     -13.765   6.786  14.252  1.00  0.00     0.244 C 
HETATM   25  N1  UNL     1     -14.726   5.837  13.949  1.00  0.00    -0.345 N 
HETATM   26  H12 UNL     1     -15.193   6.001  13.059  1.00  0.00     0.163 HD
HETATM   27  O3  UNL     1     -13.347   6.987  15.388  1.00  0.00    -0.271 OA
BRANCH  25  28
HETATM   28  C3  UNL     1     -15.511   5.180  15.005  1.00  0.00     0.188 C 
BRANCH  28  29
HETATM   29  C2  UNL     1     -16.033   3.797  14.563  1.00  0.00     0.281 C 
HETATM   30  O2  UNL     1     -16.958   3.610  13.782  1.00  0.00    -0.263 OA
BRANCH  29  31
HETATM   31  O1  UNL     1     -15.392   2.794  15.241  1.00  0.00    -0.325 OA
HETATM   32  C1  UNL     1     -15.072   1.657  14.439  1.00  0.00     0.213 C 
ENDBRANCH  29  31
ENDBRANCH  28  29
BRANCH  28  33
HETATM   33  C4  UNL     1     -16.641   6.068  15.562  1.00  0.00     0.074 C 
BRANCH  33  34
HETATM   34  C5  UNL     1     -16.689   6.067  17.074  1.00  0.00    -0.056 A 
HETATM   35  C6  UNL     1     -15.922   6.988  17.804  1.00  0.00     0.007 A 
HETATM   36  C7  UNL     1     -15.963   6.994  19.199  1.00  0.00     0.001 A 
HETATM   37  C8  UNL     1     -16.764   6.080  19.879  1.00  0.00     0.000 A 
HETATM   38  C9  UNL     1     -17.521   5.157  19.163  1.00  0.00     0.001 A 
HETATM   39  C10 UNL     1     -17.481   5.146  17.767  1.00  0.00     0.007 A 
ENDBRANCH  33  34
ENDBRANCH  28  33
ENDBRANCH  25  28
ENDBRANCH  23  24
ENDBRANCH  22  23
ENDBRANCH   1  22
BRANCH  17  40
HETATM   40  O5  UNL     1      -2.047   7.705  11.871  1.00  0.00    -0.381 OA
HETATM   41  H34 UNL     1      -1.440   7.615  11.116  1.00  0.00     0.211 HD
ENDBRANCH  17  40
BRANCH  17  42
HETATM   42  C28 UNL     1      -0.309   7.039  13.431  1.00  0.00     0.158 C 
HETATM   43  C29 UNL     1       0.031   8.494  13.639  1.00  0.00     0.094 C 
HETATM   44  O6  UNL     1       0.501   6.165  13.749  1.00  0.00    -0.295 OA
ENDBRANCH  17  42
TORSDOF 10
ENDMDL
MODEL 3
REMARK minimizedAffinity -9.38833809
REMARK CNNscore 0.301361024
REMARK CNNaffinity 7.06896448
REMARK  10 active torsions:
REMARK  status: ('A' for Active; 'I' for Inactive)
REMARK    1  A    between atoms: O1_2  and  C2_3 
REMARK    2  A    between atoms: C2_3  and  C3_5 
REMARK    3  A    between atoms: C3_5  and  C4_6 
REMARK    4  A    between atoms: C3_5  and  N1_13 
REMARK    5  A    between atoms: C4_6  and  C5_7 
REMARK       I    between atoms: N1_13  and  C11_14 
REMARK    6  A    between atoms: C11_14  and  C12_16 
REMARK    7  A    between atoms: C12_16  and  O4_17 
REMARK    8  A    between atoms: O4_17  and  N2_18 
REMARK    9  A    between atoms: C27_34  and  O5_35 
REMARK   10  A    between atoms: C27_34  and  C28_36 
ROOT
HETATM    1  N2  UNL     1      -3.139   4.990  13.037  1.00  0.00    -0.271 N 
ATOM      2  H2  UNL     1      -2.831   4.306  12.345  1.00  0.00     0.194 HD
HETATM    3  C13 UNL     1      -4.367   5.116  13.447  1.00  0.00     0.032 C 
HETATM    4  C14 UNL     1      -4.836   6.061  14.501  1.00  0.00     0.030 C 
HETATM    5  C15 UNL     1      -6.145   6.240  14.771  1.00  0.00    -0.069 C 
HETATM    6  C16 UNL     1      -6.528   7.373  15.704  1.00  0.00     0.035 C 
HETATM    7  C17 UNL     1      -7.941   7.290  16.267  1.00  0.00     0.010 C 
HETATM    8  C18 UNL     1      -9.026   6.992  15.213  1.00  0.00    -0.004 C 
HETATM    9  C19 UNL     1      -8.432   6.513  13.851  1.00  0.00     0.002 C 
HETATM   10  C20 UNL     1      -9.567   6.082  12.896  1.00  0.00     0.007 C 
HETATM   11  C21 UNL     1     -10.600   7.214  12.684  1.00  0.00     0.013 C 
HETATM   12  C22 UNL     1     -11.169   7.758  14.011  1.00  0.00    -0.002 C 
HETATM   13  C23 UNL     1     -12.079   6.673  14.649  1.00  0.00     0.019 C 
HETATM   14  C24 UNL     1      -9.965   8.167  14.911  1.00  0.00     0.002 C 
HETATM   15  C25 UNL     1     -10.623   8.916  16.064  1.00  0.00     0.009 C 
HETATM   16  C26 UNL     1     -11.805   9.660  15.409  1.00  0.00     0.047 C 
HETATM   17  C27 UNL     1     -11.925   9.124  13.952  1.00  0.00     0.125 C 
HETATM   18  C30 UNL     1      -7.269   5.486  14.052  1.00  0.00    -0.016 C 
HETATM   19  C31 UNL     1      -7.717   4.265  14.891  1.00  0.00     0.020 C 
HETATM   20  C32 UNL     1      -6.744   4.977  12.682  1.00  0.00     0.020 C 
HETATM   21  C33 UNL     1      -5.410   4.239  12.789  1.00  0.00     0.060 C 
ENDROOT
BRANCH   1  22
HETATM   22  O4  UNL     1      -2.293   5.914  13.667  1.00  0.00    -0.271 OA
BRANCH  22  23
HETATM   23  C12 UNL     1      -0.959   5.409  13.701  1.00  0.00     0.303 C 
BRANCH  23  24
HETATM   24  C11 UNL     1      -0.209   5.920  12.483  1.00  0.00     0.244 C 
HETATM   25  N1  UNL     1       0.762   6.860  12.780  1.00  0.00    -0.345 N 
HETATM   26  H12 UNL     1       0.618   7.324  13.676  1.00  0.00     0.163 HD
HETATM   27  O3  UNL     1      -0.432   5.514  11.346  1.00  0.00    -0.271 OA
BRANCH  25  28
HETATM   28  C3  UNL     1       1.419   7.641  11.722  1.00  0.00     0.188 C 
BRANCH  28  29
HETATM   29  C2  UNL     1       0.409   8.468  10.899  1.00  0.00     0.281 C 
HETATM   30  O2  UNL     1      -0.648   8.916  11.326  1.00  0.00    -0.263 OA
BRANCH  29  31
HETATM   31  O1  UNL     1       0.798   8.550   9.588  1.00  0.00    -0.325 OA
HETATM   32  C1  UNL     1      -0.282   8.532   8.654  1.00  0.00     0.213 C 
ENDBRANCH  29  31
ENDBRANCH  28  29
BRANCH  28  33
HETATM   33  C4  UNL     1       2.334   6.791  10.819  1.00  0.00     0.074 C 
BRANCH  33  34
HETATM   34  C5  UNL     1       3.779   7.239  10.868  1.00  0.00    -0.056 A 
HETATM   35  C6  UNL     1       4.808   6.290  10.956  1.00  0.00     0.007 A 
HETATM   36  C7  UNL     1       6.143   6.698  10.999  1.00  0.00     0.001 A 
HETATM   37  C8  UNL     1       6.462   8.052  10.960  1.00  0.00     0.000 A 
HETATM   38  C9  UNL     1       5.446   9.001  10.882  1.00  0.00     0.001 A 
HETATM   39  C10 UNL     1       4.110   8.598  10.840  1.00  0.00     0.007 A 
ENDBRANCH  33  34
ENDBRANCH  28  33
ENDBRANCH  25  28
ENDBRANCH  23  24
ENDBRANCH  22  23
ENDBRANCH   1  22
BRANCH  17  40
HETATM   40  O5  UNL     1     -11.222  10.032  13.094  1.00  0.00    -0.381 OA
HETATM   41  H34 UNL     1     -11.577  10.925  13.248  1.00  0.00     0.211 HD
ENDBRANCH  17  40
BRANCH  17  42
HETATM   42  C28 UNL     1     -13.396   9.027  13.485  1.00  0.00     0.158 C 
HETATM   43  C29 UNL     1     -14.474   9.330  14.496  1.00  0.00     0.094 C 
HETATM   44  O6  UNL     1     -13.702   8.732  12.327  1.00  0.00    -0.295 OA
ENDBRANCH  17  42
TORSDOF 10
ENDMDL
MODEL 4
REMARK minimizedAffinity -10.0204983
REMARK CNNscore 0.260610551
REMARK CNNaffinity 7.12964821
REMARK  10 active torsions:
REMARK  status: ('A' for Active; 'I' for Inactive)
REMARK    1  A    between atoms: O1_2  and  C2_3 
REMARK    2  A    between atoms: C2_3  and  C3_5 
REMARK    3  A    between atoms: C3_5  and  C4_6 
REMARK    4  A    between atoms: C3_5  and  N1_13 
REMARK    5  A    between atoms: C4_6  and  C5_7 
REMARK       I    between atoms: N1_13  and  C11_14 
REMARK    6  A    between atoms: C11_14  and  C12_16 
REMARK    7  A    between atoms: C12_16  and  O4_17 
REMARK    8  A    between atoms: O4_17  and  N2_18 
REMARK    9  A    between atoms: C27_34  and  O5_35 
REMARK   10  A    between atoms: C27_34  and  C28_36 
ROOT
HETATM    1  N2  UNL     1      -3.029   5.905  14.048  1.00  0.00    -0.271 N 
ATOM      2  H2  UNL     1      -2.538   5.247  13.443  1.00  0.00     0.194 HD
HETATM    3  C13 UNL     1      -4.309   5.878  14.276  1.00  0.00     0.032 C 
HETATM    4  C14 UNL     1      -5.045   6.785  15.203  1.00  0.00     0.030 C 
HETATM    5  C15 UNL     1      -6.391   6.794  15.278  1.00  0.00    -0.069 C 
HETATM    6  C16 UNL     1      -7.049   7.895  16.087  1.00  0.00     0.035 C 
HETATM    7  C17 UNL     1      -8.506   7.640  16.452  1.00  0.00     0.010 C 
HETATM    8  C18 UNL     1      -9.379   7.164  15.273  1.00  0.00    -0.004 C 
HETATM    9  C19 UNL     1      -8.536   6.724  14.035  1.00  0.00     0.002 C 
HETATM   10  C20 UNL     1      -9.456   6.112  12.955  1.00  0.00     0.007 C 
HETATM   11  C21 UNL     1     -10.584   7.085  12.541  1.00  0.00     0.013 C 
HETATM   12  C22 UNL     1     -11.405   7.592  13.746  1.00  0.00    -0.002 C 
HETATM   13  C23 UNL     1     -12.251   6.415  14.306  1.00  0.00     0.019 C 
HETATM   14  C24 UNL     1     -10.408   8.190  14.783  1.00  0.00     0.002 C 
HETATM   15  C25 UNL     1     -11.318   8.881  15.791  1.00  0.00     0.009 C 
HETATM   16  C26 UNL     1     -12.478   9.436  14.940  1.00  0.00     0.047 C 
HETATM   17  C27 UNL     1     -12.315   8.840  13.511  1.00  0.00     0.125 C 
HETATM   18  C30 UNL     1      -7.292   5.872  14.450  1.00  0.00    -0.016 C 
HETATM   19  C31 UNL     1      -7.695   4.630  15.281  1.00  0.00     0.020 C 
HETATM   20  C32 UNL     1      -6.512   5.392  13.195  1.00  0.00     0.020 C 
HETATM   21  C33 UNL     1      -5.124   4.846  13.525  1.00  0.00     0.060 C 
ENDROOT
BRANCH   1  22
HETATM   22  O4  UNL     1      -2.410   6.957  14.741  1.00  0.00    -0.271 OA
BRANCH  22  23
HETATM   23  C12 UNL     1      -1.100   6.565  15.150  1.00  0.00     0.303 C 
BRANCH  23  24
HETATM   24  C11 UNL     1      -0.311   6.138  13.925  1.00  0.00     0.244 C 
HETATM   25  N1  UNL     1      -0.764   6.702  12.745  1.00  0.00    -0.345 N 
HETATM   26  H12 UNL     1      -1.727   7.030  12.795  1.00  0.00     0.163 HD
HETATM   27  O3  UNL     1       0.654   5.382  13.986  1.00  0.00    -0.271 OA
BRANCH  25  28
HETATM   28  C3  UNL     1      -0.287   6.227  11.438  1.00  0.00     0.188 C 
BRANCH  28  29
HETATM   29  C2  UNL     1      -0.569   4.725  11.229  1.00  0.00     0.281 C 
HETATM   30  O2  UNL     1       0.286   3.866  11.049  1.00  0.00    -0.263 OA
BRANCH  29  31
HETATM   31  O1  UNL     1      -1.916   4.485  11.166  1.00  0.00    -0.325 OA
HETATM   32  C1  UNL     1      -2.277   3.117  11.361  1.00  0.00     0.213 C 
ENDBRANCH  29  31
ENDBRANCH  28  29
BRANCH  28  33
HETATM   33  C4  UNL     1       1.190   6.576  11.167  1.00  0.00     0.074 C 
BRANCH  33  34
HETATM   34  C5  UNL     1       1.469   6.823   9.700  1.00  0.00    -0.056 A 
HETATM   35  C6  UNL     1       2.352   5.986   9.001  1.00  0.00     0.007 A 
HETATM   36  C7  UNL     1       2.612   6.209   7.647  1.00  0.00     0.001 A 
HETATM   37  C8  UNL     1       2.000   7.267   6.981  1.00  0.00     0.000 A 
HETATM   38  C9  UNL     1       1.131   8.108   7.670  1.00  0.00     0.001 A 
HETATM   39  C10 UNL     1       0.869   7.891   9.025  1.00  0.00     0.007 A 
ENDBRANCH  33  34
ENDBRANCH  28  33
ENDBRANCH  25  28
ENDBRANCH  23  24
ENDBRANCH  22  23
ENDBRANCH   1  22
BRANCH  17  40
HETATM   40  O5  UNL     1     -11.618   9.806  12.713  1.00  0.00    -0.381 OA
HETATM   41  H34 UNL     1     -12.104  10.647  12.768  1.00  0.00     0.211 HD
ENDBRANCH  17  40
BRANCH  17  42
HETATM   42  C28 UNL     1     -13.678   8.529  12.848  1.00  0.00     0.158 C 
HETATM   43  C29 UNL     1     -14.365   7.241  13.231  1.00  0.00     0.094 C 
HETATM   44  O6  UNL     1     -14.213   9.299  12.047  1.00  0.00    -0.295 OA
ENDBRANCH  17  42
TORSDOF 10
ENDMDL
MODEL 5
REMARK minimizedAffinity -9.37464905
REMARK CNNscore 0.255330861
REMARK CNNaffinity 7.0668273
REMARK  10 active torsions:
REMARK  status: ('A' for Active; 'I' for Inactive)
REMARK    1  A    between atoms: O1_2  and  C2_3 
REMARK    2  A    between atoms: C2_3  and  C3_5 
REMARK    3  A    between atoms: C3_5  and  C4_6 
REMARK    4  A    between atoms: C3_5  and  N1_13 
REMARK    5  A    between atoms: C4_6  and  C5_7 
REMARK       I    between atoms: N1_13  and  C11_14 
REMARK    6  A    between atoms: C11_14  and  C12_16 
REMARK    7  A    between atoms: C12_16  and  O4_17 
REMARK    8  A    between atoms: O4_17  and  N2_18 
REMARK    9  A    between atoms: C27_34  and  O5_35 
REMARK   10  A    between atoms: C27_34  and  C28_36 
ROOT
HETATM    1  N2  UNL     1      -4.212   3.933  12.334  1.00  0.00    -0.271 N 
ATOM      2  H2  UNL     1      -4.199   2.963  12.018  1.00  0.00     0.194 HD
HETATM    3  C13 UNL     1      -5.196   4.478  12.988  1.00  0.00     0.032 C 
HETATM    4  C14 UNL     1      -5.218   5.872  13.517  1.00  0.00     0.030 C 
HETATM    5  C15 UNL     1      -6.327   6.416  14.056  1.00  0.00    -0.069 C 
HETATM    6  C16 UNL     1      -6.310   7.901  14.367  1.00  0.00     0.035 C 
HETATM    7  C17 UNL     1      -7.413   8.372  15.307  1.00  0.00     0.010 C 
HETATM    8  C18 UNL     1      -8.819   7.855  14.941  1.00  0.00    -0.004 C 
HETATM    9  C19 UNL     1      -8.786   6.700  13.892  1.00  0.00     0.002 C 
HETATM   10  C20 UNL     1     -10.204   6.123  13.689  1.00  0.00     0.007 C 
HETATM   11  C21 UNL     1     -11.216   7.218  13.277  1.00  0.00     0.013 C 
HETATM   12  C22 UNL     1     -11.237   8.409  14.258  1.00  0.00    -0.002 C 
HETATM   13  C23 UNL     1     -11.869   7.943  15.599  1.00  0.00     0.019 C 
HETATM   14  C24 UNL     1      -9.776   8.928  14.407  1.00  0.00     0.002 C 
HETATM   15  C25 UNL     1      -9.941  10.235  15.173  1.00  0.00     0.009 C 
HETATM   16  C26 UNL     1     -11.265  10.823  14.643  1.00  0.00     0.047 C 
HETATM   17  C27 UNL     1     -11.930   9.721  13.768  1.00  0.00     0.125 C 
HETATM   18  C30 UNL     1      -7.655   5.664  14.201  1.00  0.00    -0.016 C 
HETATM   19  C31 UNL     1      -7.785   5.078  15.627  1.00  0.00     0.020 C 
HETATM   20  C32 UNL     1      -7.689   4.493  13.182  1.00  0.00     0.020 C 
HETATM   21  C33 UNL     1      -6.428   3.631  13.217  1.00  0.00     0.060 C 
ENDROOT
BRANCH   1  22
HETATM   22  O4  UNL     1      -3.172   4.849  12.120  1.00  0.00    -0.271 OA
BRANCH  22  23
HETATM   23  C12 UNL     1      -2.169   4.262  11.292  1.00  0.00     0.303 C 
BRANCH  23  24
HETATM   24  C11 UNL     1      -0.888   5.066  11.426  1.00  0.00     0.244 C 
HETATM   25  N1  UNL     1      -1.033   6.227  12.164  1.00  0.00    -0.345 N 
HETATM   26  H12 UNL     1      -1.996   6.556  12.220  1.00  0.00     0.163 HD
HETATM   27  O3  UNL     1       0.180   4.702  10.942  1.00  0.00    -0.271 OA
BRANCH  25  28
HETATM   28  C3  UNL     1       0.024   7.249  12.199  1.00  0.00     0.188 C 
BRANCH  28  29
HETATM   29  C2  UNL     1       0.164   7.891  13.595  1.00  0.00     0.281 C 
HETATM   30  O2  UNL     1       1.000   8.731  13.903  1.00  0.00    -0.263 OA
BRANCH  29  31
HETATM   31  O1  UNL     1      -0.709   7.321  14.484  1.00  0.00    -0.325 OA
HETATM   32  C1  UNL     1      -0.304   7.426  15.850  1.00  0.00     0.213 C 
ENDBRANCH  29  31
ENDBRANCH  28  29
BRANCH  28  33
HETATM   33  C4  UNL     1      -0.122   8.311  11.092  1.00  0.00     0.074 C 
BRANCH  33  34
HETATM   34  C5  UNL     1       0.815   8.070   9.928  1.00  0.00    -0.056 A 
HETATM   35  C6  UNL     1       2.155   7.726  10.162  1.00  0.00     0.007 A 
HETATM   36  C7  UNL     1       3.023   7.501   9.092  1.00  0.00     0.001 A 
HETATM   37  C8  UNL     1       2.566   7.621   7.783  1.00  0.00     0.000 A 
HETATM   38  C9  UNL     1       1.240   7.972   7.541  1.00  0.00     0.001 A 
HETATM   39  C10 UNL     1       0.368   8.200   8.609  1.00  0.00     0.007 A 
ENDBRANCH  33  34
ENDBRANCH  28  33
ENDBRANCH  25  28
ENDBRANCH  23  24
ENDBRANCH  22  23
ENDBRANCH   1  22
BRANCH  17  40
HETATM   40  O5  UNL     1     -11.577   9.975  12.402  1.00  0.00    -0.381 OA
HETATM   41  H34 UNL     1     -11.830  10.892  12.193  1.00  0.00     0.211 HD
ENDBRANCH  17  40
BRANCH  17  42
HETATM   42  C28 UNL     1     -13.472   9.723  13.898  1.00  0.00     0.158 C 
HETATM   43  C29 UNL     1     -14.257   8.859  12.942  1.00  0.00     0.094 C 
HETATM   44  O6  UNL     1     -14.060  10.384  14.758  1.00  0.00    -0.295 OA
ENDBRANCH  17  42
TORSDOF 10
ENDMDL
MODEL 6
REMARK minimizedAffinity -8.94017792
REMARK CNNscore 0.25239566
REMARK CNNaffinity 7.15176821
REMARK  10 active torsions:
REMARK  status: ('A' for Active; 'I' for Inactive)
REMARK    1  A    between atoms: O1_2  and  C2_3 
REMARK    2  A    between atoms: C2_3  and  C3_5 
REMARK    3  A    between atoms: C3_5  and  C4_6 
REMARK    4  A    between atoms: C3_5  and  N1_13 
REMARK    5  A    between atoms: C4_6  and  C5_7 
REMARK       I    between atoms: N1_13  and  C11_14 
REMARK    6  A    between atoms: C11_14  and  C12_16 
REMARK    7  A    between atoms: C12_16  and  O4_17 
REMARK    8  A    between atoms: O4_17  and  N2_18 
REMARK    9  A    between atoms: C27_34  and  O5_35 
REMARK   10  A    between atoms: C27_34  and  C28_36 
ROOT
HETATM    1  N2  UNL     1     -11.190   8.126  14.695  1.00  0.00    -0.271 N 
ATOM      2  H2  UNL     1     -11.603   8.686  15.442  1.00  0.00     0.194 HD
HETATM    3  C13 UNL     1     -10.043   7.519  14.781  1.00  0.00     0.032 C 
HETATM    4  C14 UNL     1      -9.443   6.644  13.733  1.00  0.00     0.030 C 
HETATM    5  C15 UNL     1      -8.187   6.167  13.831  1.00  0.00    -0.069 C 
HETATM    6  C16 UNL     1      -7.597   5.468  12.621  1.00  0.00     0.035 C 
HETATM    7  C17 UNL     1      -6.357   4.629  12.906  1.00  0.00     0.010 C 
HETATM    8  C18 UNL     1      -5.292   5.344  13.760  1.00  0.00    -0.004 C 
HETATM    9  C19 UNL     1      -5.829   6.646  14.434  1.00  0.00     0.002 C 
HETATM   10  C20 UNL     1      -4.768   7.225  15.396  1.00  0.00     0.007 C 
HETATM   11  C21 UNL     1      -3.423   7.485  14.680  1.00  0.00     0.013 C 
HETATM   12  C22 UNL     1      -2.885   6.237  13.949  1.00  0.00    -0.002 C 
HETATM   13  C23 UNL     1      -2.434   5.192  15.008  1.00  0.00     0.019 C 
HETATM   14  C24 UNL     1      -4.010   5.718  13.004  1.00  0.00     0.002 C 
HETATM   15  C25 UNL     1      -3.304   4.665  12.158  1.00  0.00     0.009 C 
HETATM   16  C26 UNL     1      -1.880   5.225  11.963  1.00  0.00     0.047 C 
HETATM   17  C27 UNL     1      -1.749   6.461  12.901  1.00  0.00     0.125 C 
HETATM   18  C30 UNL     1      -7.264   6.448  15.022  1.00  0.00    -0.016 C 
HETATM   19  C31 UNL     1      -7.317   5.273  16.029  1.00  0.00     0.020 C 
HETATM   20  C32 UNL     1      -7.745   7.736  15.744  1.00  0.00     0.020 C 
HETATM   21  C33 UNL     1      -9.242   7.730  16.048  1.00  0.00     0.060 C 
ENDROOT
BRANCH   1  22
HETATM   22  O4  UNL     1     -11.787   7.913  13.443  1.00  0.00    -0.271 OA
BRANCH  22  23
HETATM   23  C12 UNL     1     -12.459   9.097  13.017  1.00  0.00     0.303 C 
BRANCH  23  24
HETATM   24  C11 UNL     1     -13.958   8.858  13.074  1.00  0.00     0.244 C 
HETATM   25  N1  UNL     1     -14.342   7.613  12.609  1.00  0.00    -0.345 N 
HETATM   26  H12 UNL     1     -13.654   7.177  11.997  1.00  0.00     0.163 HD
HETATM   27  O3  UNL     1     -14.748   9.688  13.515  1.00  0.00    -0.271 OA
BRANCH  25  28
HETATM   28  C3  UNL     1     -15.755   7.291  12.361  1.00  0.00     0.188 C 
BRANCH  28  29
HETATM   29  C2  UNL     1     -16.487   8.429  11.620  1.00  0.00     0.281 C 
HETATM   30  O2  UNL     1     -16.146   8.903  10.543  1.00  0.00    -0.263 OA
BRANCH  29  31
HETATM   31  O1  UNL     1     -17.519   8.920  12.376  1.00  0.00    -0.325 OA
HETATM   32  C1  UNL     1     -18.207  10.022  11.783  1.00  0.00     0.213 C 
ENDBRANCH  29  31
ENDBRANCH  28  29
BRANCH  28  33
HETATM   33  C4  UNL     1     -16.510   6.855  13.631  1.00  0.00     0.074 C 
BRANCH  33  34
HETATM   34  C5  UNL     1     -16.501   5.354  13.827  1.00  0.00    -0.056 A 
HETATM   35  C6  UNL     1     -15.628   4.771  14.758  1.00  0.00     0.007 A 
HETATM   36  C7  UNL     1     -15.616   3.388  14.945  1.00  0.00     0.001 A 
HETATM   37  C8  UNL     1     -16.469   2.574  14.204  1.00  0.00     0.000 A 
HETATM   38  C9  UNL     1     -17.331   3.144  13.271  1.00  0.00     0.001 A 
HETATM   39  C10 UNL     1     -17.345   4.527  13.079  1.00  0.00     0.007 A 
ENDBRANCH  33  34
ENDBRANCH  28  33
ENDBRANCH  25  28
ENDBRANCH  23  24
ENDBRANCH  22  23
ENDBRANCH   1  22
BRANCH  17  40
HETATM   40  O5  UNL     1      -2.030   7.631  12.122  1.00  0.00    -0.381 OA
HETATM   41  H34 UNL     1      -1.442   7.623  11.346  1.00  0.00     0.211 HD
ENDBRANCH  17  40
BRANCH  17  42
HETATM   42  C28 UNL     1      -0.330   6.587  13.505  1.00  0.00     0.158 C 
HETATM   43  C29 UNL     1       0.675   5.515  13.164  1.00  0.00     0.094 C 
HETATM   44  O6  UNL     1      -0.002   7.532  14.227  1.00  0.00    -0.295 OA
ENDBRANCH  17  42
TORSDOF 10
ENDMDL
MODEL 7
REMARK minimizedAffinity -9.57479382
REMARK CNNscore 0.248167306
REMARK CNNaffinity 7.09818649
REMARK  10 active torsions:
REMARK  status: ('A' for Active; 'I' for Inactive)
REMARK    1  A    between atoms: O1_2  and  C2_3 
REMARK    2  A    between atoms: C2_3  and  C3_5 
REMARK    3  A    between atoms: C3_5  and  C4_6 
REMARK    4  A    between atoms: C3_5  and  N1_13 
REMARK    5  A    between atoms: C4_6  and  C5_7 
REMARK       I    between atoms: N1_13  and  C11_14 
REMARK    6  A    between atoms: C11_14  and  C12_16 
REMARK    7  A    between atoms: C12_16  and  O4_17 
REMARK    8  A    between atoms: O4_17  and  N2_18 
REMARK    9  A    between atoms: C27_34  and  O5_35 
REMARK   10  A    between atoms: C27_34  and  C28_36 
ROOT
HETATM    1  N2  UNL     1      -4.755   3.609  12.044  1.00  0.00    -0.271 N 
ATOM      2  H2  UNL     1      -4.886   2.631  11.784  1.00  0.00     0.194 HD
HETATM    3  C13 UNL     1      -5.554   4.274  12.825  1.00  0.00     0.032 C 
HETATM    4  C14 UNL     1      -5.355   5.683  13.273  1.00  0.00     0.030 C 
HETATM    5  C15 UNL     1      -6.298   6.355  13.963  1.00  0.00    -0.069 C 
HETATM    6  C16 UNL     1      -6.091   7.841  14.184  1.00  0.00     0.035 C 
HETATM    7  C17 UNL     1      -6.964   8.455  15.272  1.00  0.00     0.010 C 
HETATM    8  C18 UNL     1      -8.453   8.067  15.182  1.00  0.00    -0.004 C 
HETATM    9  C19 UNL     1      -8.711   6.874  14.208  1.00  0.00     0.002 C 
HETATM   10  C20 UNL     1     -10.190   6.434  14.284  1.00  0.00     0.007 C 
HETATM   11  C21 UNL     1     -11.155   7.607  13.993  1.00  0.00     0.013 C 
HETATM   12  C22 UNL     1     -10.894   8.831  14.895  1.00  0.00    -0.002 C 
HETATM   13  C23 UNL     1     -11.319   8.482  16.349  1.00  0.00     0.019 C 
HETATM   14  C24 UNL     1      -9.388   9.208  14.761  1.00  0.00     0.002 C 
HETATM   15  C25 UNL     1      -9.296  10.553  15.471  1.00  0.00     0.009 C 
HETATM   16  C26 UNL     1     -10.633  11.250  15.144  1.00  0.00     0.047 C 
HETATM   17  C27 UNL     1     -11.540  10.185  14.459  1.00  0.00     0.125 C 
HETATM   18  C30 UNL     1      -7.642   5.744  14.375  1.00  0.00    -0.016 C 
HETATM   19  C31 UNL     1      -7.572   5.229  15.833  1.00  0.00     0.020 C 
HETATM   20  C32 UNL     1      -7.962   4.544  13.443  1.00  0.00     0.020 C 
HETATM   21  C33 UNL     1      -6.799   3.562  13.310  1.00  0.00     0.060 C 
ENDROOT
BRANCH   1  22
HETATM   22  O4  UNL     1      -3.689   4.408  11.603  1.00  0.00    -0.271 OA
BRANCH  22  23
HETATM   23  C12 UNL     1      -2.703   3.597  10.967  1.00  0.00     0.303 C 
BRANCH  23  24
HETATM   24  C11 UNL     1      -1.327   4.156  11.285  1.00  0.00     0.244 C 
HETATM   25  N1  UNL     1      -1.358   5.391  11.908  1.00  0.00    -0.345 N 
HETATM   26  H12 UNL     1      -2.229   5.898  11.764  1.00  0.00     0.163 HD
HETATM   27  O3  UNL     1      -0.289   3.552  11.032  1.00  0.00    -0.271 OA
BRANCH  25  28
HETATM   28  C3  UNL     1      -0.137   6.194  12.074  1.00  0.00     0.188 C 
BRANCH  28  29
HETATM   29  C2  UNL     1       0.147   6.516  13.556  1.00  0.00     0.281 C 
HETATM   30  O2  UNL     1      -0.675   6.954  14.352  1.00  0.00    -0.263 OA
BRANCH  29  31
HETATM   31  O1  UNL     1       1.475   6.348  13.846  1.00  0.00    -0.325 OA
HETATM   32  C1  UNL     1       2.181   7.566  14.088  1.00  0.00     0.213 C 
ENDBRANCH  29  31
ENDBRANCH  28  29
BRANCH  28  33
HETATM   33  C4  UNL     1      -0.121   7.462  11.199  1.00  0.00     0.074 C 
BRANCH  33  34
HETATM   34  C5  UNL     1       0.734   7.303   9.961  1.00  0.00    -0.056 A 
HETATM   35  C6  UNL     1       0.501   8.108   8.835  1.00  0.00     0.007 A 
HETATM   36  C7  UNL     1       1.288   7.967   7.691  1.00  0.00     0.001 A 
HETATM   37  C8  UNL     1       2.310   7.022   7.656  1.00  0.00     0.000 A 
HETATM   38  C9  UNL     1       2.542   6.213   8.765  1.00  0.00     0.001 A 
HETATM   39  C10 UNL     1       1.756   6.348   9.912  1.00  0.00     0.007 A 
ENDBRANCH  33  34
ENDBRANCH  28  33
ENDBRANCH  25  28
ENDBRANCH  23  24
ENDBRANCH  22  23
ENDBRANCH   1  22
BRANCH  17  40
HETATM   40  O5  UNL     1     -11.412  10.351  13.041  1.00  0.00    -0.381 OA
HETATM   41  H34 UNL     1     -11.613  11.279  12.828  1.00  0.00     0.211 HD
ENDBRANCH  17  40
BRANCH  17  42
HETATM   42  C28 UNL     1     -13.028  10.345  14.852  1.00  0.00     0.158 C 
HETATM   43  C29 UNL     1     -13.358  11.308  15.966  1.00  0.00     0.094 C 
HETATM   44  O6  UNL     1     -13.932   9.733  14.278  1.00  0.00    -0.295 OA
ENDBRANCH  17  42
TORSDOF 10
ENDMDL
MODEL 8
REMARK minimizedAffinity -9.07115078
REMARK CNNscore 0.228304759
REMARK CNNaffinity 7.07073212
REMARK  10 active torsions:
REMARK  status: ('A' for Active; 'I' for Inactive)
REMARK    1  A    between atoms: O1_2  and  C2_3 
REMARK    2  A    between atoms: C2_3  and  C3_5 
REMARK    3  A    between atoms: C3_5  and  C4_6 
REMARK    4  A    between atoms: C3_5  and  N1_13 
REMARK    5  A    between atoms: C4_6  and  C5_7 
REMARK       I    between atoms: N1_13  and  C11_14 
REMARK    6  A    between atoms: C11_14  and  C12_16 
REMARK    7  A    between atoms: C12_16  and  O4_17 
REMARK    8  A    between atoms: O4_17  and  N2_18 
REMARK    9  A    between atoms: C27_34  and  O5_35 
REMARK   10  A    between atoms: C27_34  and  C28_36 
ROOT
HETATM    1  N2  UNL     1      -3.085   5.254  13.396  1.00  0.00    -0.271 N 
ATOM      2  H2  UNL     1      -2.713   4.588  12.719  1.00  0.00     0.194 HD
HETATM    3  C13 UNL     1      -4.336   5.328  13.741  1.00  0.00     0.032 C 
HETATM    4  C14 UNL     1      -4.899   6.247  14.773  1.00  0.00     0.030 C 
HETATM    5  C15 UNL     1      -6.226   6.372  14.974  1.00  0.00    -0.069 C 
HETATM    6  C16 UNL     1      -6.703   7.483  15.890  1.00  0.00     0.035 C 
HETATM    7  C17 UNL     1      -8.139   7.339  16.378  1.00  0.00     0.010 C 
HETATM    8  C18 UNL     1      -9.154   7.006  15.266  1.00  0.00    -0.004 C 
HETATM    9  C19 UNL     1      -8.470   6.559  13.935  1.00  0.00     0.002 C 
HETATM   10  C20 UNL     1      -9.535   6.090  12.920  1.00  0.00     0.007 C 
HETATM   11  C21 UNL     1     -10.600   7.181  12.658  1.00  0.00     0.013 C 
HETATM   12  C22 UNL     1     -11.259   7.694  13.955  1.00  0.00    -0.002 C 
HETATM   13  C23 UNL     1     -12.158   6.568  14.540  1.00  0.00     0.019 C 
HETATM   14  C24 UNL     1     -10.123   8.145  14.920  1.00  0.00     0.002 C 
HETATM   15  C25 UNL     1     -10.870   8.859  16.039  1.00  0.00     0.009 C 
HETATM   16  C26 UNL     1     -12.045   9.560  15.327  1.00  0.00     0.047 C 
HETATM   17  C27 UNL     1     -12.066   9.028  13.863  1.00  0.00     0.125 C 
HETATM   18  C30 UNL     1      -7.279   5.579  14.193  1.00  0.00    -0.016 C 
HETATM   19  C31 UNL     1      -7.721   4.335  15.002  1.00  0.00     0.020 C 
HETATM   20  C32 UNL     1      -6.662   5.099  12.851  1.00  0.00     0.020 C 
HETATM   21  C33 UNL     1      -5.307   4.415  13.024  1.00  0.00     0.060 C 
ENDROOT
BRANCH   1  22
HETATM   22  O4  UNL     1      -2.311   6.207  14.075  1.00  0.00    -0.271 OA
BRANCH  22  23
HETATM   23  C12 UNL     1      -1.019   5.673  14.358  1.00  0.00     0.303 C 
BRANCH  23  24
HETATM   24  C11 UNL     1       0.023   6.752  14.121  1.00  0.00     0.244 C 
HETATM   25  N1  UNL     1       1.293   6.403  14.544  1.00  0.00    -0.345 N 
HETATM   26  H12 UNL     1       1.300   5.659  15.240  1.00  0.00     0.163 HD
HETATM   27  O3  UNL     1      -0.240   7.823  13.581  1.00  0.00    -0.271 OA
BRANCH  25  28
HETATM   28  C3  UNL     1       2.374   7.398  14.621  1.00  0.00     0.188 C 
BRANCH  28  29
HETATM   29  C2  UNL     1       2.153   8.407  15.766  1.00  0.00     0.281 C 
HETATM   30  O2  UNL     1       2.163   8.132  16.960  1.00  0.00    -0.263 OA
BRANCH  29  31
HETATM   31  O1  UNL     1       1.837   9.645  15.271  1.00  0.00    -0.325 OA
HETATM   32  C1  UNL     1       0.756  10.288  15.949  1.00  0.00     0.213 C 
ENDBRANCH  29  31
ENDBRANCH  28  29
BRANCH  28  33
HETATM   33  C4  UNL     1       2.644   8.104  13.278  1.00  0.00     0.074 C 
BRANCH  33  34
HETATM   34  C5  UNL     1       3.810   7.498  12.527  1.00  0.00    -0.056 A 
HETATM   35  C6  UNL     1       3.580   6.693  11.401  1.00  0.00     0.007 A 
HETATM   36  C7  UNL     1       4.652   6.132  10.703  1.00  0.00     0.001 A 
HETATM   37  C8  UNL     1       5.959   6.366  11.122  1.00  0.00     0.000 A 
HETATM   38  C9  UNL     1       6.195   7.157  12.243  1.00  0.00     0.001 A 
HETATM   39  C10 UNL     1       5.126   7.718  12.946  1.00  0.00     0.007 A 
ENDBRANCH  33  34
ENDBRANCH  28  33
ENDBRANCH  25  28
ENDBRANCH  23  24
ENDBRANCH  22  23
ENDBRANCH   1  22
BRANCH  17  40
HETATM   40  O5  UNL     1     -11.355   9.970  13.047  1.00  0.00    -0.381 OA
HETATM   41  H34 UNL     1     -11.754  10.847  13.186  1.00  0.00     0.211 HD
ENDBRANCH  17  40
BRANCH  17  42
HETATM   42  C28 UNL     1     -13.505   8.876  13.318  1.00  0.00     0.158 C 
HETATM   43  C29 UNL     1     -14.551   9.840  13.821  1.00  0.00     0.094 C 
HETATM   44  O6  UNL     1     -13.808   8.017  12.486  1.00  0.00    -0.295 OA
ENDBRANCH  17  42
TORSDOF 10
ENDMDL
MODEL 9
REMARK minimizedAffinity -8.07434654
REMARK CNNscore 0.220932022
REMARK CNNaffinity 5.94531631
REMARK  10 active torsions:
REMARK  status: ('A' for Active; 'I' for Inactive)
REMARK    1  A    between atoms: O1_2  and  C2_3 
REMARK    2  A    between atoms: C2_3  and  C3_5 
REMARK    3  A    between atoms: C3_5  and  C4_6 
REMARK    4  A    between atoms: C3_5  and  N1_13 
REMARK    5  A    between atoms: C4_6  and  C5_7 
REMARK       I    between atoms: N1_13  and  C11_14 
REMARK    6  A    between atoms: C11_14  and  C12_16 
REMARK    7  A    between atoms: C12_16  and  O4_17 
REMARK    8  A    between atoms: O4_17  and  N2_18 
REMARK    9  A    between atoms: C27_34  and  O5_35 
REMARK   10  A    between atoms: C27_34  and  C28_36 
ROOT
HETATM    1  N2  UNL     1      -1.131  11.643  18.162  1.00  0.00    -0.271 N 
ATOM      2  H2  UNL     1      -1.613  12.135  17.409  1.00  0.00     0.194 HD
HETATM    3  C13 UNL     1      -0.182  12.159  18.886  1.00  0.00     0.032 C 
HETATM    4  C14 UNL     1       0.496  11.488  20.033  1.00  0.00     0.030 C 
HETATM    5  C15 UNL     1       1.570  12.027  20.644  1.00  0.00    -0.069 C 
HETATM    6  C16 UNL     1       2.315  11.172  21.651  1.00  0.00     0.035 C 
HETATM    7  C17 UNL     1       3.256  11.940  22.572  1.00  0.00     0.010 C 
HETATM    8  C18 UNL     1       4.175  12.942  21.844  1.00  0.00    -0.004 C 
HETATM    9  C19 UNL     1       3.734  13.208  20.371  1.00  0.00     0.002 C 
HETATM   10  C20 UNL     1       4.594  14.332  19.751  1.00  0.00     0.007 C 
HETATM   11  C21 UNL     1       6.105  14.009  19.829  1.00  0.00     0.013 C 
HETATM   12  C22 UNL     1       6.571  13.681  21.263  1.00  0.00    -0.002 C 
HETATM   13  C23 UNL     1       6.524  14.980  22.115  1.00  0.00     0.019 C 
HETATM   14  C24 UNL     1       5.657  12.545  21.812  1.00  0.00     0.002 C 
HETATM   15  C25 UNL     1       6.349  12.125  23.102  1.00  0.00     0.009 C 
HETATM   16  C26 UNL     1       7.853  12.268  22.792  1.00  0.00     0.047 C 
HETATM   17  C27 UNL     1       7.963  12.991  21.417  1.00  0.00     0.125 C 
HETATM   18  C30 UNL     1       2.184  13.374  20.247  1.00  0.00    -0.016 C 
HETATM   19  C31 UNL     1       1.650  14.497  21.168  1.00  0.00     0.020 C 
HETATM   20  C32 UNL     1       1.782  13.704  18.784  1.00  0.00     0.020 C 
HETATM   21  C33 UNL     1       0.283  13.553  18.525  1.00  0.00     0.060 C 
ENDROOT
BRANCH   1  22
HETATM   22  O4  UNL     1      -1.408  10.323  18.549  1.00  0.00    -0.271 OA
BRANCH  22  23
HETATM   23  C12 UNL     1      -2.723   9.959  18.133  1.00  0.00     0.303 C 
BRANCH  23  24
HETATM   24  C11 UNL     1      -2.653   9.384  16.729  1.00  0.00     0.244 C 
HETATM   25  N1  UNL     1      -3.846   8.834  16.293  1.00  0.00    -0.345 N 
HETATM   26  H12 UNL     1      -4.479   8.581  17.049  1.00  0.00     0.163 HD
HETATM   27  O3  UNL     1      -1.637   9.428  16.042  1.00  0.00    -0.271 OA
BRANCH  25  28
HETATM   28  C3  UNL     1      -3.910   8.020  15.069  1.00  0.00     0.188 C 
BRANCH  28  29
HETATM   29  C2  UNL     1      -5.051   8.470  14.134  1.00  0.00     0.281 C 
HETATM   30  O2  UNL     1      -4.962   8.581  12.916  1.00  0.00    -0.263 OA
BRANCH  29  31
HETATM   31  O1  UNL     1      -6.159   8.833  14.853  1.00  0.00    -0.325 OA
HETATM   32  C1  UNL     1      -7.205   7.860  14.848  1.00  0.00     0.213 C 
ENDBRANCH  29  31
ENDBRANCH  28  29
BRANCH  28  33
HETATM   33  C4  UNL     1      -3.962   6.506  15.349  1.00  0.00     0.074 C 
BRANCH  33  34
HETATM   34  C5  UNL     1      -3.851   5.677  14.088  1.00  0.00    -0.056 A 
HETATM   35  C6  UNL     1      -4.963   4.964  13.615  1.00  0.00     0.007 A 
HETATM   36  C7  UNL     1      -4.868   4.199  12.451  1.00  0.00     0.001 A 
HETATM   37  C8  UNL     1      -3.665   4.134  11.752  1.00  0.00     0.000 A 
HETATM   38  C9  UNL     1      -2.555   4.830  12.221  1.00  0.00     0.001 A 
HETATM   39  C10 UNL     1      -2.644   5.596  13.386  1.00  0.00     0.007 A 
ENDBRANCH  33  34
ENDBRANCH  28  33
ENDBRANCH  25  28
ENDBRANCH  23  24
ENDBRANCH  22  23
ENDBRANCH   1  22
BRANCH  17  40
HETATM   40  O5  UNL     1       8.121  11.984  20.408  1.00  0.00    -0.381 OA
HETATM   41  H34 UNL     1       8.880  11.427  20.656  1.00  0.00     0.211 HD
ENDBRANCH  17  40
BRANCH  17  42
HETATM   42  C28 UNL     1       9.171  13.955  21.359  1.00  0.00     0.158 C 
HETATM   43  C29 UNL     1       9.659  14.386  19.998  1.00  0.00     0.094 C 
HETATM   44  O6  UNL     1       9.721  14.386  22.376  1.00  0.00    -0.295 OA
ENDBRANCH  17  42
TORSDOF 10
ENDMDL
