MODEL 1
REMARK minimizedAffinity -9.58601856
REMARK  8 active torsions:
REMARK  status: ('A' for Active; 'I' for Inactive)
REMARK    1  A    between atoms: C4_4  and  C5_5 
REMARK    2  A    between atoms: C5_5  and  C6_6 
REMARK    3  A    between atoms: C6_6  and  C7_7 
REMARK    4  A    between atoms: C7_7  and  C9_9 
REMARK    5  A    between atoms: C18_18  and  C20_20 
REMARK    6  A    between atoms: C20_20  and  O2_22 
REMARK    7  A    between atoms: C21_23  and  O3_24 
REMARK    8  A    between atoms: C23_26  and  O4_27 
ROOT
HETATM    1  C9  UNL     1      -3.682  50.395 -24.845  1.00  0.00    -0.002 C 
HETATM    2  C10 UNL     1      -5.192  50.349 -24.475  1.00  0.00     0.006 C 
HETATM    3  C11 UNL     1      -5.277  50.216 -22.948  1.00  0.00     0.011 C 
HETATM    4  C12 UNL     1      -3.879  50.607 -22.435  1.00  0.00    -0.032 C 
HETATM    5  C13 UNL     1      -3.846  52.168 -22.388  1.00  0.00     0.016 C 
HETATM    6  C14 UNL     1      -3.518  50.013 -21.049  1.00  0.00     0.004 C 
HETATM    7  C15 UNL     1      -4.339  50.597 -19.889  1.00  0.00     0.007 C 
HETATM    8  C16 UNL     1      -3.983  49.881 -18.592  1.00  0.00     0.007 C 
HETATM    9  C17 UNL     1      -2.557  50.255 -18.157  1.00  0.00     0.018 C 
HETATM   10  C18 UNL     1      -2.082  49.559 -16.831  1.00  0.00     0.072 C 
HETATM   11  C19 UNL     1      -2.370  48.041 -16.815  1.00  0.00     0.030 C 
HETATM   12  C21 UNL     1      -0.569  49.839 -16.552  1.00  0.00     0.139 C 
HETATM   13  C22 UNL     1      -0.032  50.998 -17.378  1.00  0.00     0.065 C 
HETATM   14  C23 UNL     1      -0.173  50.761 -18.890  1.00  0.00     0.130 C 
HETATM   15  C24 UNL     1      -1.514  50.120 -19.277  1.00  0.00    -0.001 A 
HETATM   16  C25 UNL     1      -1.436  48.830 -20.065  1.00  0.00     0.024 A 
HETATM   17  C26 UNL     1      -1.992  50.051 -20.768  1.00  0.00    -0.025 A 
HETATM   18  C27 UNL     1      -1.101  50.665 -21.861  1.00  0.00     0.011 C 
HETATM   19  C28 UNL     1      -1.526  50.479 -23.333  1.00  0.00     0.011 C 
HETATM   20  C29 UNL     1      -2.957  49.954 -23.531  1.00  0.00    -0.032 C 
HETATM   21  C30 UNL     1      -2.883  48.405 -23.451  1.00  0.00     0.016 C 
ENDROOT
BRANCH   1  22
HETATM   22  C7  UNL     1      -3.378  49.766 -26.240  1.00  0.00    -0.014 C 
HETATM   23  C8  UNL     1      -4.028  48.403 -26.515  1.00  0.00     0.010 C 
BRANCH  22  24
HETATM   24  C6  UNL     1      -1.858  49.755 -26.536  1.00  0.00     0.008 C 
BRANCH  24  25
HETATM   25  C5  UNL     1      -1.284  51.077 -27.072  1.00  0.00     0.028 C 
BRANCH  25  26
HETATM   26  C4  UNL     1       0.207  51.083 -27.253  1.00  0.00    -0.025 C 
HETATM   27  C2  UNL     1       1.142  51.652 -26.463  1.00  0.00    -0.091 C 
HETATM   28  C1  UNL     1       2.601  51.553 -26.816  1.00  0.00     0.042 C 
HETATM   29  C3  UNL     1       0.867  52.442 -25.207  1.00  0.00     0.042 C 
ENDBRANCH  25  26
ENDBRANCH  24  25
ENDBRANCH  22  24
ENDBRANCH   1  22
BRANCH  14  30
HETATM   30  O4  UNL     1      -0.053  52.041 -19.517  1.00  0.00    -0.395 OA
HETATM   31  H39 UNL     1       0.872  52.321 -19.411  1.00  0.00     0.210 HD
ENDBRANCH  14  30
BRANCH  10  32
HETATM   32  C20 UNL     1      -2.869  50.171 -15.668  1.00  0.00     0.151 C 
HETATM   33  O1  UNL     1      -3.230  51.331 -15.563  1.00  0.00    -0.649 OA
BRANCH  32  34
HETATM   34  O2  UNL     1      -3.184  49.293 -14.698  1.00  0.00    -0.776 OA
HETATM   35  H33 UNL     1      -3.646  49.834 -14.022  1.00  0.00     0.167 HD
ENDBRANCH  32  34
ENDBRANCH  10  32
BRANCH  12  36
HETATM   36  O3  UNL     1       0.267  48.703 -16.814  1.00  0.00    -0.394 OA
HETATM   37  H35 UNL     1       0.171  48.084 -16.065  1.00  0.00     0.210 HD
ENDBRANCH  12  36
TORSDOF 8
ENDMDL
MODEL 2
REMARK minimizedAffinity -9.33285332
REMARK  8 active torsions:
REMARK  status: ('A' for Active; 'I' for Inactive)
REMARK    1  A    between atoms: C4_4  and  C5_5 
REMARK    2  A    between atoms: C5_5  and  C6_6 
REMARK    3  A    between atoms: C6_6  and  C7_7 
REMARK    4  A    between atoms: C7_7  and  C9_9 
REMARK    5  A    between atoms: C18_18  and  C20_20 
REMARK    6  A    between atoms: C20_20  and  O2_22 
REMARK    7  A    between atoms: C21_23  and  O3_24 
REMARK    8  A    between atoms: C23_26  and  O4_27 
ROOT
HETATM    1  C9  UNL     1      -0.397  51.525 -17.504  1.00  0.00    -0.002 C 
HETATM    2  C10 UNL     1       1.011  52.182 -17.581  1.00  0.00     0.006 C 
HETATM    3  C11 UNL     1       1.290  52.476 -19.061  1.00  0.00     0.011 C 
HETATM    4  C12 UNL     1      -0.084  52.388 -19.752  1.00  0.00    -0.032 C 
HETATM    5  C13 UNL     1      -0.787  53.763 -19.516  1.00  0.00     0.016 C 
HETATM    6  C14 UNL     1      -0.018  52.062 -21.265  1.00  0.00     0.004 C 
HETATM    7  C15 UNL     1       0.574  53.194 -22.121  1.00  0.00     0.007 C 
HETATM    8  C16 UNL     1       0.688  52.741 -23.571  1.00  0.00     0.007 C 
HETATM    9  C17 UNL     1      -0.710  52.607 -24.194  1.00  0.00     0.018 C 
HETATM   10  C18 UNL     1      -0.708  52.130 -25.691  1.00  0.00     0.072 C 
HETATM   11  C19 UNL     1       0.209  50.911 -25.930  1.00  0.00     0.030 C 
HETATM   12  C21 UNL     1      -2.158  51.840 -26.198  1.00  0.00     0.139 C 
HETATM   13  C22 UNL     1      -3.221  52.443 -25.290  1.00  0.00     0.065 C 
HETATM   14  C23 UNL     1      -3.136  51.916 -23.849  1.00  0.00     0.130 C 
HETATM   15  C24 UNL     1      -1.693  51.792 -23.337  1.00  0.00    -0.001 A 
HETATM   16  C25 UNL     1      -1.277  50.428 -22.830  1.00  0.00     0.024 A 
HETATM   17  C26 UNL     1      -1.376  51.554 -21.821  1.00  0.00    -0.025 A 
HETATM   18  C27 UNL     1      -2.544  51.468 -20.825  1.00  0.00     0.011 C 
HETATM   19  C28 UNL     1      -2.222  51.110 -19.358  1.00  0.00     0.011 C 
HETATM   20  C29 UNL     1      -0.731  51.171 -18.991  1.00  0.00    -0.032 C 
HETATM   21  C30 UNL     1      -0.118  49.795 -19.366  1.00  0.00     0.016 C 
ENDROOT
BRANCH   1  22
HETATM   22  C7  UNL     1      -0.529  50.503 -16.333  1.00  0.00    -0.014 C 
HETATM   23  C8  UNL     1      -0.242  49.037 -16.689  1.00  0.00     0.010 C 
BRANCH  22  24
HETATM   24  C6  UNL     1      -1.877  50.667 -15.589  1.00  0.00     0.008 C 
BRANCH  24  25
HETATM   25  C5  UNL     1      -1.774  50.769 -14.058  1.00  0.00     0.028 C 
BRANCH  25  26
HETATM   26  C4  UNL     1      -2.543  51.909 -13.455  1.00  0.00    -0.025 C 
HETATM   27  C2  UNL     1      -3.242  51.927 -12.301  1.00  0.00    -0.091 C 
HETATM   28  C1  UNL     1      -3.957  53.176 -11.861  1.00  0.00     0.042 C 
HETATM   29  C3  UNL     1      -3.414  50.759 -11.361  1.00  0.00     0.042 C 
ENDBRANCH  25  26
ENDBRANCH  24  25
ENDBRANCH  22  24
ENDBRANCH   1  22
BRANCH  14  30
HETATM   30  O4  UNL     1      -3.857  52.841 -23.032  1.00  0.00    -0.395 OA
HETATM   31  H39 UNL     1      -4.798  52.743 -23.260  1.00  0.00     0.210 HD
ENDBRANCH  14  30
BRANCH  10  32
HETATM   32  C20 UNL     1      -0.159  53.274 -26.549  1.00  0.00     0.151 C 
HETATM   33  O1  UNL     1       0.145  54.392 -26.167  1.00  0.00    -0.649 OA
BRANCH  32  34
HETATM   34  O2  UNL     1       0.005  52.955 -27.847  1.00  0.00    -0.776 OA
HETATM   35  H33 UNL     1       0.323  53.785 -28.263  1.00  0.00     0.167 HD
ENDBRANCH  32  34
ENDBRANCH  10  32
BRANCH  12  36
HETATM   36  O3  UNL     1      -2.440  50.438 -26.313  1.00  0.00    -0.394 OA
HETATM   37  H35 UNL     1      -2.014  50.116 -27.131  1.00  0.00     0.210 HD
ENDBRANCH  12  36
TORSDOF 8
ENDMDL
MODEL 3
REMARK minimizedAffinity -9.23206234
REMARK  8 active torsions:
REMARK  status: ('A' for Active; 'I' for Inactive)
REMARK    1  A    between atoms: C4_4  and  C5_5 
REMARK    2  A    between atoms: C5_5  and  C6_6 
REMARK    3  A    between atoms: C6_6  and  C7_7 
REMARK    4  A    between atoms: C7_7  and  C9_9 
REMARK    5  A    between atoms: C18_18  and  C20_20 
REMARK    6  A    between atoms: C20_20  and  O2_22 
REMARK    7  A    between atoms: C21_23  and  O3_24 
REMARK    8  A    between atoms: C23_26  and  O4_27 
ROOT
HETATM    1  C9  UNL     1      -0.660  51.074 -17.792  1.00  0.00    -0.002 C 
HETATM    2  C10 UNL     1       0.771  51.681 -17.832  1.00  0.00     0.006 C 
HETATM    3  C11 UNL     1       1.082  52.003 -19.300  1.00  0.00     0.011 C 
HETATM    4  C12 UNL     1      -0.284  51.982 -20.011  1.00  0.00    -0.032 C 
HETATM    5  C13 UNL     1      -0.939  53.376 -19.748  1.00  0.00     0.016 C 
HETATM    6  C14 UNL     1      -0.207  51.694 -21.532  1.00  0.00     0.004 C 
HETATM    7  C15 UNL     1       0.437  52.824 -22.349  1.00  0.00     0.007 C 
HETATM    8  C16 UNL     1       0.557  52.405 -23.809  1.00  0.00     0.007 C 
HETATM    9  C17 UNL     1      -0.837  52.339 -24.454  1.00  0.00     0.018 C 
HETATM   10  C18 UNL     1      -0.831  51.901 -25.963  1.00  0.00     0.072 C 
HETATM   11  C19 UNL     1       0.046  50.655 -26.221  1.00  0.00     0.030 C 
HETATM   12  C21 UNL     1      -2.283  51.677 -26.497  1.00  0.00     0.139 C 
HETATM   13  C22 UNL     1      -3.336  52.295 -25.589  1.00  0.00     0.065 C 
HETATM   14  C23 UNL     1      -3.290  51.728 -24.161  1.00  0.00     0.130 C 
HETATM   15  C24 UNL     1      -1.860  51.538 -23.633  1.00  0.00    -0.001 A 
HETATM   16  C25 UNL     1      -1.502  50.147 -23.156  1.00  0.00     0.024 A 
HETATM   17  C26 UNL     1      -1.574  51.249 -22.119  1.00  0.00    -0.025 A 
HETATM   18  C27 UNL     1      -2.759  51.181 -21.141  1.00  0.00     0.011 C 
HETATM   19  C28 UNL     1      -2.472  50.773 -19.680  1.00  0.00     0.011 C 
HETATM   20  C29 UNL     1      -0.986  50.771 -19.291  1.00  0.00    -0.032 C 
HETATM   21  C30 UNL     1      -0.417  49.383 -19.695  1.00  0.00     0.016 C 
ENDROOT
BRANCH   1  22
HETATM   22  C7  UNL     1      -0.846  50.027 -16.649  1.00  0.00    -0.014 C 
HETATM   23  C8  UNL     1      -1.936  50.351 -15.618  1.00  0.00     0.010 C 
BRANCH  22  24
HETATM   24  C6  UNL     1       0.504  49.676 -15.978  1.00  0.00     0.008 C 
BRANCH  24  25
HETATM   25  C5  UNL     1       0.951  50.634 -14.861  1.00  0.00     0.028 C 
BRANCH  25  26
HETATM   26  C4  UNL     1       1.944  51.675 -15.291  1.00  0.00    -0.025 C 
HETATM   27  C2  UNL     1       3.287  51.654 -15.158  1.00  0.00    -0.091 C 
HETATM   28  C1  UNL     1       4.121  52.804 -15.652  1.00  0.00     0.042 C 
HETATM   29  C3  UNL     1       4.087  50.551 -14.509  1.00  0.00     0.042 C 
ENDBRANCH  25  26
ENDBRANCH  24  25
ENDBRANCH  22  24
ENDBRANCH   1  22
BRANCH  14  30
HETATM   30  O4  UNL     1      -3.990  52.658 -23.329  1.00  0.00    -0.395 OA
HETATM   31  H39 UNL     1      -4.930  52.600 -23.573  1.00  0.00     0.210 HD
ENDBRANCH  14  30
BRANCH  10  32
HETATM   32  C20 UNL     1      -0.227  53.045 -26.783  1.00  0.00     0.151 C 
HETATM   33  O1  UNL     1       0.438  52.942 -27.800  1.00  0.00    -0.649 OA
BRANCH  32  34
HETATM   34  O2  UNL     1      -0.506  54.271 -26.300  1.00  0.00    -0.776 OA
HETATM   35  H33 UNL     1      -0.030  54.883 -26.901  1.00  0.00     0.167 HD
ENDBRANCH  32  34
ENDBRANCH  10  32
BRANCH  12  36
HETATM   36  O3  UNL     1      -2.613  50.289 -26.653  1.00  0.00    -0.394 OA
HETATM   37  H35 UNL     1      -2.187  49.973 -27.473  1.00  0.00     0.210 HD
ENDBRANCH  12  36
TORSDOF 8
ENDMDL
MODEL 4
REMARK minimizedAffinity -9.18666553
REMARK  8 active torsions:
REMARK  status: ('A' for Active; 'I' for Inactive)
REMARK    1  A    between atoms: C4_4  and  C5_5 
REMARK    2  A    between atoms: C5_5  and  C6_6 
REMARK    3  A    between atoms: C6_6  and  C7_7 
REMARK    4  A    between atoms: C7_7  and  C9_9 
REMARK    5  A    between atoms: C18_18  and  C20_20 
REMARK    6  A    between atoms: C20_20  and  O2_22 
REMARK    7  A    between atoms: C21_23  and  O3_24 
REMARK    8  A    between atoms: C23_26  and  O4_27 
ROOT
HETATM    1  C9  UNL     1      -5.988  48.791 -21.921  1.00  0.00    -0.002 C 
HETATM    2  C10 UNL     1      -6.137  47.757 -23.074  1.00  0.00     0.006 C 
HETATM    3  C11 UNL     1      -5.092  48.119 -24.139  1.00  0.00     0.011 C 
HETATM    4  C12 UNL     1      -4.100  49.055 -23.424  1.00  0.00    -0.032 C 
HETATM    5  C13 UNL     1      -3.113  48.135 -22.637  1.00  0.00     0.016 C 
HETATM    6  C14 UNL     1      -3.323  50.004 -24.371  1.00  0.00     0.004 C 
HETATM    7  C15 UNL     1      -2.314  49.286 -25.282  1.00  0.00     0.007 C 
HETATM    8  C16 UNL     1      -1.678  50.287 -26.239  1.00  0.00     0.007 C 
HETATM    9  C17 UNL     1      -0.748  51.236 -25.467  1.00  0.00     0.018 C 
HETATM   10  C18 UNL     1      -0.046  52.322 -26.361  1.00  0.00     0.072 C 
HETATM   11  C19 UNL     1      -1.028  53.036 -27.316  1.00  0.00     0.030 C 
HETATM   12  C21 UNL     1       0.733  53.360 -25.489  1.00  0.00     0.139 C 
HETATM   13  C22 UNL     1       0.954  52.871 -24.065  1.00  0.00     0.065 C 
HETATM   14  C23 UNL     1      -0.362  52.569 -23.333  1.00  0.00     0.130 C 
HETATM   15  C24 UNL     1      -1.396  51.857 -24.219  1.00  0.00    -0.001 A 
HETATM   16  C25 UNL     1      -2.747  52.529 -24.343  1.00  0.00     0.024 A 
HETATM   17  C26 UNL     1      -2.685  51.201 -23.615  1.00  0.00    -0.025 A 
HETATM   18  C27 UNL     1      -2.899  51.254 -22.094  1.00  0.00     0.011 C 
HETATM   19  C28 UNL     1      -4.231  50.714 -21.529  1.00  0.00     0.011 C 
HETATM   20  C29 UNL     1      -5.075  49.906 -22.528  1.00  0.00    -0.032 C 
HETATM   21  C30 UNL     1      -5.931  50.929 -23.323  1.00  0.00     0.016 C 
ENDROOT
BRANCH   1  22
HETATM   22  C7  UNL     1      -7.336  49.092 -21.196  1.00  0.00    -0.014 C 
HETATM   23  C8  UNL     1      -7.220  49.568 -19.741  1.00  0.00     0.010 C 
BRANCH  22  24
HETATM   24  C6  UNL     1      -8.334  47.917 -21.346  1.00  0.00     0.008 C 
BRANCH  24  25
HETATM   25  C5  UNL     1      -9.089  47.530 -20.064  1.00  0.00     0.028 C 
BRANCH  25  26
HETATM   26  C4  UNL     1     -10.567  47.793 -20.105  1.00  0.00    -0.025 C 
HETATM   27  C2  UNL     1     -11.448  47.774 -19.083  1.00  0.00    -0.091 C 
HETATM   28  C1  UNL     1     -12.904  48.064 -19.326  1.00  0.00     0.042 C 
HETATM   29  C3  UNL     1     -11.118  47.453 -17.646  1.00  0.00     0.042 C 
ENDBRANCH  25  26
ENDBRANCH  24  25
ENDBRANCH  22  24
ENDBRANCH   1  22
BRANCH  14  30
HETATM   30  O4  UNL     1      -0.029  51.735 -22.220  1.00  0.00    -0.395 OA
HETATM   31  H39 UNL     1       0.465  52.289 -21.591  1.00  0.00     0.210 HD
ENDBRANCH  14  30
BRANCH  10  32
HETATM   32  C20 UNL     1       0.990  51.613 -27.238  1.00  0.00     0.151 C 
HETATM   33  O1  UNL     1       0.974  51.519 -28.454  1.00  0.00    -0.649 OA
BRANCH  32  34
HETATM   34  O2  UNL     1       2.011  51.069 -26.549  1.00  0.00    -0.776 OA
HETATM   35  H33 UNL     1       2.560  50.630 -27.234  1.00  0.00     0.167 HD
ENDBRANCH  32  34
ENDBRANCH  10  32
BRANCH  12  36
HETATM   36  O3  UNL     1       0.070  54.630 -25.407  1.00  0.00    -0.394 OA
HETATM   37  H35 UNL     1       0.234  55.105 -26.245  1.00  0.00     0.210 HD
ENDBRANCH  12  36
TORSDOF 8
ENDMDL
MODEL 5
REMARK minimizedAffinity -9.06671429
REMARK  8 active torsions:
REMARK  status: ('A' for Active; 'I' for Inactive)
REMARK    1  A    between atoms: C4_4  and  C5_5 
REMARK    2  A    between atoms: C5_5  and  C6_6 
REMARK    3  A    between atoms: C6_6  and  C7_7 
REMARK    4  A    between atoms: C7_7  and  C9_9 
REMARK    5  A    between atoms: C18_18  and  C20_20 
REMARK    6  A    between atoms: C20_20  and  O2_22 
REMARK    7  A    between atoms: C21_23  and  O3_24 
REMARK    8  A    between atoms: C23_26  and  O4_27 
ROOT
HETATM    1  C9  UNL     1      -3.036  50.652 -24.990  1.00  0.00    -0.002 C 
HETATM    2  C10 UNL     1      -4.570  50.604 -24.740  1.00  0.00     0.006 C 
HETATM    3  C11 UNL     1      -4.774  50.433 -23.228  1.00  0.00     0.011 C 
HETATM    4  C12 UNL     1      -3.419  50.806 -22.598  1.00  0.00    -0.032 C 
HETATM    5  C13 UNL     1      -3.387  52.366 -22.511  1.00  0.00     0.016 C 
HETATM    6  C14 UNL     1      -3.169  50.177 -21.204  1.00  0.00     0.004 C 
HETATM    7  C15 UNL     1      -4.076  50.736 -20.096  1.00  0.00     0.007 C 
HETATM    8  C16 UNL     1      -3.824  49.987 -18.794  1.00  0.00     0.007 C 
HETATM    9  C17 UNL     1      -2.436  50.345 -18.240  1.00  0.00     0.018 C 
HETATM   10  C18 UNL     1      -2.066  49.614 -16.899  1.00  0.00     0.072 C 
HETATM   11  C19 UNL     1      -2.357  48.098 -16.943  1.00  0.00     0.030 C 
HETATM   12  C21 UNL     1      -0.579  49.882 -16.496  1.00  0.00     0.139 C 
HETATM   13  C22 UNL     1       0.023  51.059 -17.249  1.00  0.00     0.065 C 
HETATM   14  C23 UNL     1      -0.000  50.860 -18.773  1.00  0.00     0.130 C 
HETATM   15  C24 UNL     1      -1.308  50.233 -19.279  1.00  0.00    -0.001 A 
HETATM   16  C25 UNL     1      -1.172  48.962 -20.090  1.00  0.00     0.024 A 
HETATM   17  C26 UNL     1      -1.669  50.203 -20.804  1.00  0.00    -0.025 A 
HETATM   18  C27 UNL     1      -0.695  50.840 -21.808  1.00  0.00     0.011 C 
HETATM   19  C28 UNL     1      -1.004  50.692 -23.314  1.00  0.00     0.011 C 
HETATM   20  C29 UNL     1      -2.416  50.177 -23.635  1.00  0.00    -0.032 C 
HETATM   21  C30 UNL     1      -2.351  48.626 -23.588  1.00  0.00     0.016 C 
ENDROOT
BRANCH   1  22
HETATM   22  C7  UNL     1      -2.625  50.056 -26.372  1.00  0.00    -0.014 C 
HETATM   23  C8  UNL     1      -2.993  50.902 -27.600  1.00  0.00     0.010 C 
BRANCH  22  24
HETATM   24  C6  UNL     1      -3.092  48.587 -26.517  1.00  0.00     0.008 C 
BRANCH  24  25
HETATM   25  C5  UNL     1      -4.583  48.401 -26.841  1.00  0.00     0.028 C 
BRANCH  25  26
HETATM   26  C4  UNL     1      -4.867  47.971 -28.252  1.00  0.00    -0.025 C 
HETATM   27  C2  UNL     1      -6.039  47.565 -28.782  1.00  0.00    -0.091 C 
HETATM   28  C1  UNL     1      -6.125  47.167 -30.230  1.00  0.00     0.042 C 
HETATM   29  C3  UNL     1      -7.343  47.437 -28.033  1.00  0.00     0.042 C 
ENDBRANCH  25  26
ENDBRANCH  24  25
ENDBRANCH  22  24
ENDBRANCH   1  22
BRANCH  14  30
HETATM   30  O4  UNL     1       0.170  52.154 -19.357  1.00  0.00    -0.395 OA
HETATM   31  H39 UNL     1       1.085  52.427 -19.172  1.00  0.00     0.210 HD
ENDBRANCH  14  30
BRANCH  10  32
HETATM   32  C20 UNL     1      -2.940  50.201 -15.786  1.00  0.00     0.151 C 
HETATM   33  O1  UNL     1      -3.255  51.371 -15.647  1.00  0.00    -0.649 OA
BRANCH  32  34
HETATM   34  O2  UNL     1      -3.397  49.287 -14.909  1.00  0.00    -0.776 OA
HETATM   35  H33 UNL     1      -3.900  49.813 -14.251  1.00  0.00     0.167 HD
ENDBRANCH  32  34
ENDBRANCH  10  32
BRANCH  12  36
HETATM   36  O3  UNL     1       0.273  48.749 -16.721  1.00  0.00    -0.394 OA
HETATM   37  H35 UNL     1       0.117  48.112 -15.997  1.00  0.00     0.210 HD
ENDBRANCH  12  36
TORSDOF 8
ENDMDL
MODEL 6
REMARK minimizedAffinity -9.01437092
REMARK  8 active torsions:
REMARK  status: ('A' for Active; 'I' for Inactive)
REMARK    1  A    between atoms: C4_4  and  C5_5 
REMARK    2  A    between atoms: C5_5  and  C6_6 
REMARK    3  A    between atoms: C6_6  and  C7_7 
REMARK    4  A    between atoms: C7_7  and  C9_9 
REMARK    5  A    between atoms: C18_18  and  C20_20 
REMARK    6  A    between atoms: C20_20  and  O2_22 
REMARK    7  A    between atoms: C21_23  and  O3_24 
REMARK    8  A    between atoms: C23_26  and  O4_27 
ROOT
HETATM    1  C9  UNL     1      -3.399  49.879 -22.135  1.00  0.00    -0.002 C 
HETATM    2  C10 UNL     1      -2.237  49.550 -23.115  1.00  0.00     0.006 C 
HETATM    3  C11 UNL     1      -2.866  48.903 -24.357  1.00  0.00     0.011 C 
HETATM    4  C12 UNL     1      -4.365  49.247 -24.271  1.00  0.00    -0.032 C 
HETATM    5  C13 UNL     1      -4.518  50.696 -24.835  1.00  0.00     0.016 C 
HETATM    6  C14 UNL     1      -5.290  48.265 -25.033  1.00  0.00     0.004 C 
HETATM    7  C15 UNL     1      -5.147  48.333 -26.561  1.00  0.00     0.007 C 
HETATM    8  C16 UNL     1      -6.020  47.266 -27.211  1.00  0.00     0.007 C 
HETATM    9  C17 UNL     1      -7.504  47.624 -27.042  1.00  0.00     0.018 C 
HETATM   10  C18 UNL     1      -8.497  46.578 -27.667  1.00  0.00     0.072 C 
HETATM   11  C19 UNL     1      -8.151  45.122 -27.285  1.00  0.00     0.030 C 
HETATM   12  C21 UNL     1      -9.980  46.910 -27.298  1.00  0.00     0.139 C 
HETATM   13  C22 UNL     1     -10.144  48.331 -26.777  1.00  0.00     0.065 C 
HETATM   14  C23 UNL     1      -9.298  48.601 -25.523  1.00  0.00     0.130 C 
HETATM   15  C24 UNL     1      -7.893  47.987 -25.599  1.00  0.00    -0.001 A 
HETATM   16  C25 UNL     1      -7.509  47.052 -24.472  1.00  0.00     0.024 A 
HETATM   17  C26 UNL     1      -6.770  48.371 -24.575  1.00  0.00    -0.025 A 
HETATM   18  C27 UNL     1      -7.086  49.409 -23.485  1.00  0.00     0.011 C 
HETATM   19  C28 UNL     1      -6.012  49.684 -22.412  1.00  0.00     0.011 C 
HETATM   20  C29 UNL     1      -4.623  49.104 -22.725  1.00  0.00    -0.032 C 
HETATM   21  C30 UNL     1      -4.624  47.636 -22.219  1.00  0.00     0.016 C 
ENDROOT
BRANCH   1  22
HETATM   22  C7  UNL     1      -2.975  49.792 -20.636  1.00  0.00    -0.014 C 
HETATM   23  C8  UNL     1      -3.389  50.979 -19.755  1.00  0.00     0.010 C 
BRANCH  22  24
HETATM   24  C6  UNL     1      -1.469  49.459 -20.493  1.00  0.00     0.008 C 
BRANCH  24  25
HETATM   25  C5  UNL     1      -0.519  50.352 -21.307  1.00  0.00     0.028 C 
BRANCH  25  26
HETATM   26  C4  UNL     1      -0.016  51.562 -20.573  1.00  0.00    -0.025 C 
HETATM   27  C2  UNL     1       0.493  52.701 -21.089  1.00  0.00    -0.091 C 
HETATM   28  C1  UNL     1       0.951  53.811 -20.182  1.00  0.00     0.042 C 
HETATM   29  C3  UNL     1       0.685  52.990 -22.557  1.00  0.00     0.042 C 
ENDBRANCH  25  26
ENDBRANCH  24  25
ENDBRANCH  22  24
ENDBRANCH   1  22
BRANCH  14  30
HETATM   30  O4  UNL     1      -9.195  50.022 -25.399  1.00  0.00    -0.395 OA
HETATM   31  H39 UNL     1     -10.079  50.348 -25.158  1.00  0.00     0.210 HD
ENDBRANCH  14  30
BRANCH  10  32
HETATM   32  C20 UNL     1      -8.386  46.676 -29.191  1.00  0.00     0.151 C 
HETATM   33  O1  UNL     1      -7.421  46.374 -29.873  1.00  0.00    -0.649 OA
BRANCH  32  34
HETATM   34  O2  UNL     1      -9.502  47.130 -29.793  1.00  0.00    -0.776 OA
HETATM   35  H33 UNL     1      -9.265  47.169 -30.745  1.00  0.00     0.167 HD
ENDBRANCH  32  34
ENDBRANCH  10  32
BRANCH  12  36
HETATM   36  O3  UNL     1     -10.520  46.026 -26.305  1.00  0.00    -0.394 OA
HETATM   37  H35 UNL     1     -10.744  45.184 -26.748  1.00  0.00     0.210 HD
ENDBRANCH  12  36
TORSDOF 8
ENDMDL
MODEL 7
REMARK minimizedAffinity -8.93883705
REMARK  8 active torsions:
REMARK  status: ('A' for Active; 'I' for Inactive)
REMARK    1  A    between atoms: C4_4  and  C5_5 
REMARK    2  A    between atoms: C5_5  and  C6_6 
REMARK    3  A    between atoms: C6_6  and  C7_7 
REMARK    4  A    between atoms: C7_7  and  C9_9 
REMARK    5  A    between atoms: C18_18  and  C20_20 
REMARK    6  A    between atoms: C20_20  and  O2_22 
REMARK    7  A    between atoms: C21_23  and  O3_24 
REMARK    8  A    between atoms: C23_26  and  O4_27 
ROOT
HETATM    1  C9  UNL     1       0.233  51.511 -20.921  1.00  0.00    -0.002 C 
HETATM    2  C10 UNL     1       0.101  52.207 -19.536  1.00  0.00     0.006 C 
HETATM    3  C11 UNL     1      -1.169  51.654 -18.874  1.00  0.00     0.011 C 
HETATM    4  C12 UNL     1      -1.507  50.376 -19.664  1.00  0.00    -0.032 C 
HETATM    5  C13 UNL     1      -0.600  49.244 -19.082  1.00  0.00     0.016 C 
HETATM    6  C14 UNL     1      -3.000  49.964 -19.602  1.00  0.00     0.004 C 
HETATM    7  C15 UNL     1      -3.456  49.481 -18.216  1.00  0.00     0.007 C 
HETATM    8  C16 UNL     1      -4.953  49.197 -18.234  1.00  0.00     0.007 C 
HETATM    9  C17 UNL     1      -5.243  47.951 -19.086  1.00  0.00     0.018 C 
HETATM   10  C18 UNL     1      -6.765  47.574 -19.183  1.00  0.00     0.072 C 
HETATM   11  C19 UNL     1      -7.662  48.788 -19.511  1.00  0.00     0.030 C 
HETATM   12  C21 UNL     1      -7.001  46.418 -20.208  1.00  0.00     0.139 C 
HETATM   13  C22 UNL     1      -5.715  45.685 -20.562  1.00  0.00     0.065 C 
HETATM   14  C23 UNL     1      -4.654  46.615 -21.171  1.00  0.00     0.130 C 
HETATM   15  C24 UNL     1      -4.573  47.979 -20.470  1.00  0.00    -0.001 A 
HETATM   16  C25 UNL     1      -4.747  49.197 -21.352  1.00  0.00     0.024 A 
HETATM   17  C26 UNL     1      -3.385  48.968 -20.729  1.00  0.00    -0.025 A 
HETATM   18  C27 UNL     1      -2.265  48.543 -21.692  1.00  0.00     0.011 C 
HETATM   19  C28 UNL     1      -1.169  49.576 -22.031  1.00  0.00     0.011 C 
HETATM   20  C29 UNL     1      -1.156  50.822 -21.132  1.00  0.00    -0.032 C 
HETATM   21  C30 UNL     1      -2.167  51.829 -21.744  1.00  0.00     0.016 C 
ENDROOT
BRANCH   1  22
HETATM   22  C7  UNL     1       0.909  52.416 -21.996  1.00  0.00    -0.014 C 
HETATM   23  C8  UNL     1       1.059  53.898 -21.623  1.00  0.00     0.010 C 
BRANCH  22  24
HETATM   24  C6  UNL     1       0.254  52.230 -23.386  1.00  0.00     0.008 C 
BRANCH  24  25
HETATM   25  C5  UNL     1       0.708  53.227 -24.465  1.00  0.00     0.028 C 
BRANCH  25  26
HETATM   26  C4  UNL     1       0.390  52.812 -25.873  1.00  0.00    -0.025 C 
HETATM   27  C2  UNL     1       1.119  52.033 -26.699  1.00  0.00    -0.091 C 
HETATM   28  C1  UNL     1       0.631  51.729 -28.089  1.00  0.00     0.042 C 
HETATM   29  C3  UNL     1       2.456  51.417 -26.370  1.00  0.00     0.042 C 
ENDBRANCH  25  26
ENDBRANCH  24  25
ENDBRANCH  22  24
ENDBRANCH   1  22
BRANCH  14  30
HETATM   30  O4  UNL     1      -3.400  45.939 -21.052  1.00  0.00    -0.395 OA
HETATM   31  H39 UNL     1      -3.428  45.184 -21.665  1.00  0.00     0.210 HD
ENDBRANCH  14  30
BRANCH  10  32
HETATM   32  C20 UNL     1      -7.209  47.052 -17.814  1.00  0.00     0.151 C 
HETATM   33  O1  UNL     1      -7.116  45.906 -17.405  1.00  0.00    -0.649 OA
BRANCH  32  34
HETATM   34  O2  UNL     1      -7.733  47.998 -17.010  1.00  0.00    -0.776 OA
HETATM   35  H33 UNL     1      -7.996  47.509 -16.201  1.00  0.00     0.167 HD
ENDBRANCH  32  34
ENDBRANCH  10  32
BRANCH  12  36
HETATM   36  O3  UNL     1      -7.587  46.871 -21.437  1.00  0.00    -0.394 OA
HETATM   37  H35 UNL     1      -8.539  47.017 -21.276  1.00  0.00     0.210 HD
ENDBRANCH  12  36
TORSDOF 8
ENDMDL
MODEL 8
REMARK minimizedAffinity -8.84717941
REMARK  8 active torsions:
REMARK  status: ('A' for Active; 'I' for Inactive)
REMARK    1  A    between atoms: C4_4  and  C5_5 
REMARK    2  A    between atoms: C5_5  and  C6_6 
REMARK    3  A    between atoms: C6_6  and  C7_7 
REMARK    4  A    between atoms: C7_7  and  C9_9 
REMARK    5  A    between atoms: C18_18  and  C20_20 
REMARK    6  A    between atoms: C20_20  and  O2_22 
REMARK    7  A    between atoms: C21_23  and  O3_24 
REMARK    8  A    between atoms: C23_26  and  O4_27 
ROOT
HETATM    1  C9  UNL     1      -3.412  47.919 -19.768  1.00  0.00    -0.002 C 
HETATM    2  C10 UNL     1      -2.336  48.534 -18.828  1.00  0.00     0.006 C 
HETATM    3  C11 UNL     1      -1.523  49.530 -19.666  1.00  0.00     0.011 C 
HETATM    4  C12 UNL     1      -2.380  49.791 -20.918  1.00  0.00    -0.032 C 
HETATM    5  C13 UNL     1      -3.444  50.861 -20.510  1.00  0.00     0.016 C 
HETATM    6  C14 UNL     1      -1.576  50.266 -22.155  1.00  0.00     0.004 C 
HETATM    7  C15 UNL     1      -0.984  51.677 -22.008  1.00  0.00     0.007 C 
HETATM    8  C16 UNL     1      -0.132  52.009 -23.227  1.00  0.00     0.007 C 
HETATM    9  C17 UNL     1      -1.029  52.198 -24.461  1.00  0.00     0.018 C 
HETATM   10  C18 UNL     1      -0.248  52.533 -25.783  1.00  0.00     0.072 C 
HETATM   11  C19 UNL     1       0.962  51.601 -26.016  1.00  0.00     0.030 C 
HETATM   12  C21 UNL     1      -1.199  52.527 -27.023  1.00  0.00     0.139 C 
HETATM   13  C22 UNL     1      -2.668  52.590 -26.628  1.00  0.00     0.065 C 
HETATM   14  C23 UNL     1      -3.090  51.414 -25.734  1.00  0.00     0.130 C 
HETATM   15  C24 UNL     1      -2.040  51.059 -24.670  1.00  0.00    -0.001 A 
HETATM   16  C25 UNL     1      -1.552  49.625 -24.664  1.00  0.00     0.024 A 
HETATM   17  C26 UNL     1      -2.370  50.096 -23.478  1.00  0.00    -0.025 A 
HETATM   18  C27 UNL     1      -3.790  49.517 -23.365  1.00  0.00     0.011 C 
HETATM   19  C28 UNL     1      -4.063  48.476 -22.259  1.00  0.00     0.011 C 
HETATM   20  C29 UNL     1      -2.957  48.353 -21.200  1.00  0.00    -0.032 C 
HETATM   21  C30 UNL     1      -1.909  47.352 -21.757  1.00  0.00     0.016 C 
ENDROOT
BRANCH   1  22
HETATM   22  C7  UNL     1      -3.775  46.447 -19.397  1.00  0.00    -0.014 C 
HETATM   23  C8  UNL     1      -4.296  45.577 -20.550  1.00  0.00     0.010 C 
BRANCH  22  24
HETATM   24  C6  UNL     1      -4.703  46.388 -18.159  1.00  0.00     0.008 C 
BRANCH  24  25
HETATM   25  C5  UNL     1      -5.815  47.449 -18.121  1.00  0.00     0.028 C 
BRANCH  25  26
HETATM   26  C4  UNL     1      -6.677  47.496 -19.349  1.00  0.00    -0.025 C 
HETATM   27  C2  UNL     1      -7.770  48.254 -19.575  1.00  0.00    -0.091 C 
HETATM   28  C1  UNL     1      -8.510  48.157 -20.881  1.00  0.00     0.042 C 
HETATM   29  C3  UNL     1      -8.381  49.226 -18.596  1.00  0.00     0.042 C 
ENDBRANCH  25  26
ENDBRANCH  24  25
ENDBRANCH  22  24
ENDBRANCH   1  22
BRANCH  14  30
HETATM   30  O4  UNL     1      -4.308  51.803 -25.094  1.00  0.00    -0.395 OA
HETATM   31  H39 UNL     1      -4.993  51.827 -25.785  1.00  0.00     0.210 HD
ENDBRANCH  14  30
BRANCH  10  32
HETATM   32  C20 UNL     1       0.306  53.955 -25.655  1.00  0.00     0.151 C 
HETATM   33  O1  UNL     1       1.005  54.387 -24.754  1.00  0.00    -0.649 OA
BRANCH  32  34
HETATM   34  O2  UNL     1      -0.027  54.767 -26.677  1.00  0.00    -0.776 OA
HETATM   35  H33 UNL     1       0.365  55.633 -26.436  1.00  0.00     0.167 HD
ENDBRANCH  32  34
ENDBRANCH  10  32
BRANCH  12  36
HETATM   36  O3  UNL     1      -1.029  51.369 -27.853  1.00  0.00    -0.394 OA
HETATM   37  H35 UNL     1      -0.221  51.501 -28.385  1.00  0.00     0.210 HD
ENDBRANCH  12  36
TORSDOF 8
ENDMDL
MODEL 9
REMARK minimizedAffinity -8.80447769
REMARK  8 active torsions:
REMARK  status: ('A' for Active; 'I' for Inactive)
REMARK    1  A    between atoms: C4_4  and  C5_5 
REMARK    2  A    between atoms: C5_5  and  C6_6 
REMARK    3  A    between atoms: C6_6  and  C7_7 
REMARK    4  A    between atoms: C7_7  and  C9_9 
REMARK    5  A    between atoms: C18_18  and  C20_20 
REMARK    6  A    between atoms: C20_20  and  O2_22 
REMARK    7  A    between atoms: C21_23  and  O3_24 
REMARK    8  A    between atoms: C23_26  and  O4_27 
ROOT
HETATM    1  C9  UNL     1      -3.480  50.578 -24.934  1.00  0.00    -0.002 C 
HETATM    2  C10 UNL     1      -4.525  51.707 -24.706  1.00  0.00     0.006 C 
HETATM    3  C11 UNL     1      -5.366  51.302 -23.487  1.00  0.00     0.011 C 
HETATM    4  C12 UNL     1      -4.549  50.200 -22.788  1.00  0.00    -0.032 C 
HETATM    5  C13 UNL     1      -3.474  50.930 -21.920  1.00  0.00     0.016 C 
HETATM    6  C14 UNL     1      -5.393  49.238 -21.913  1.00  0.00     0.004 C 
HETATM    7  C15 UNL     1      -5.981  49.894 -20.655  1.00  0.00     0.007 C 
HETATM    8  C16 UNL     1      -6.871  48.899 -19.920  1.00  0.00     0.007 C 
HETATM    9  C17 UNL     1      -6.015  47.787 -19.295  1.00  0.00     0.018 C 
HETATM   10  C18 UNL     1      -6.838  46.695 -18.521  1.00  0.00     0.072 C 
HETATM   11  C19 UNL     1      -8.054  46.181 -19.323  1.00  0.00     0.030 C 
HETATM   12  C21 UNL     1      -5.927  45.506 -18.074  1.00  0.00     0.139 C 
HETATM   13  C22 UNL     1      -4.446  45.854 -18.138  1.00  0.00     0.065 C 
HETATM   14  C23 UNL     1      -3.995  46.258 -19.550  1.00  0.00     0.130 C 
HETATM   15  C24 UNL     1      -5.011  47.157 -20.273  1.00  0.00    -0.001 A 
HETATM   16  C25 UNL     1      -5.496  46.667 -21.620  1.00  0.00     0.024 A 
HETATM   17  C26 UNL     1      -4.642  47.918 -21.592  1.00  0.00    -0.025 A 
HETATM   18  C27 UNL     1      -3.218  47.775 -22.156  1.00  0.00     0.011 C 
HETATM   19  C28 UNL     1      -2.909  48.430 -23.519  1.00  0.00     0.011 C 
HETATM   20  C29 UNL     1      -3.981  49.408 -24.024  1.00  0.00    -0.032 C 
HETATM   21  C30 UNL     1      -5.045  48.563 -24.774  1.00  0.00     0.016 C 
ENDROOT
BRANCH   1  22
HETATM   22  C7  UNL     1      -3.104  50.390 -26.436  1.00  0.00    -0.014 C 
HETATM   23  C8  UNL     1      -3.820  49.245 -27.166  1.00  0.00     0.010 C 
BRANCH  22  24
HETATM   24  C6  UNL     1      -1.569  50.334 -26.633  1.00  0.00     0.008 C 
BRANCH  24  25
HETATM   25  C5  UNL     1      -0.743  51.070 -25.565  1.00  0.00     0.028 C 
BRANCH  25  26
HETATM   26  C4  UNL     1       0.719  51.197 -25.883  1.00  0.00    -0.025 C 
HETATM   27  C2  UNL     1       1.292  51.613 -27.032  1.00  0.00    -0.091 C 
HETATM   28  C1  UNL     1       2.789  51.669 -27.162  1.00  0.00     0.042 C 
HETATM   29  C3  UNL     1       0.552  52.028 -28.280  1.00  0.00     0.042 C 
ENDBRANCH  25  26
ENDBRANCH  24  25
ENDBRANCH  22  24
ENDBRANCH   1  22
BRANCH  14  30
HETATM   30  O4  UNL     1      -2.757  46.958 -19.399  1.00  0.00    -0.395 OA
HETATM   31  H39 UNL     1      -2.095  46.301 -19.122  1.00  0.00     0.210 HD
ENDBRANCH  14  30
BRANCH  10  32
HETATM   32  C20 UNL     1      -7.389  47.337 -17.244  1.00  0.00     0.151 C 
HETATM   33  O1  UNL     1      -7.524  46.799 -16.157  1.00  0.00    -0.649 OA
BRANCH  32  34
HETATM   34  O2  UNL     1      -7.726  48.633 -17.384  1.00  0.00    -0.776 OA
HETATM   35  H33 UNL     1      -8.088  48.886 -16.508  1.00  0.00     0.167 HD
ENDBRANCH  32  34
ENDBRANCH  10  32
BRANCH  12  36
HETATM   36  O3  UNL     1      -6.122  44.324 -18.863  1.00  0.00    -0.394 OA
HETATM   37  H35 UNL     1      -6.948  43.898 -18.560  1.00  0.00     0.210 HD
ENDBRANCH  12  36
TORSDOF 8
ENDMDL
