MODEL 1
REMARK minimizedAffinity -9.56227303
REMARK CNNscore 0.486068606
REMARK CNNaffinity 7.10467386
REMARK  11 active torsions:
REMARK  status: ('A' for Active; 'I' for Inactive)
REMARK    1  A    between atoms: C2_2  and  C3_4 
REMARK    2  A    between atoms: N1_14  and  O2_16 
REMARK    3  A    between atoms: O2_16  and  C13_17 
REMARK    4  A    between atoms: C13_17  and  C14_18 
REMARK       I    between atoms: C14_18  and  N2_20 
REMARK    5  A    between atoms: N2_20  and  C15_21 
REMARK    6  A    between atoms: C15_21  and  C16_22 
REMARK       I    between atoms: C16_22  and  N3_24 
REMARK    7  A    between atoms: N3_24  and  C17_25 
REMARK    8  A    between atoms: C17_25  and  C18_26 
REMARK    9  A    between atoms: C17_25  and  C27_36 
REMARK   10  A    between atoms: C18_26  and  C19_27 
REMARK   11  A    between atoms: C27_36  and  O6_38 
ROOT
HETATM    1  C13 UNL     1       2.352  52.523 -16.681  1.00  0.00     0.303 C 
ENDROOT
BRANCH   1   2
HETATM    2  O2  UNL     1       0.985  52.831 -16.931  1.00  0.00    -0.271 OA
BRANCH   2   3
HETATM    3  N1  UNL     1       0.868  53.186 -18.283  1.00  0.00    -0.271 N 
HETATM    4  C12 UNL     1       0.052  52.430 -18.953  1.00  0.00     0.032 C 
HETATM    5  C11 UNL     1      -0.784  51.331 -18.391  1.00  0.00     0.030 C 
HETATM    6  C28 UNL     1       0.049  52.656 -20.454  1.00  0.00     0.060 C 
HETATM    7  C10 UNL     1      -1.326  50.382 -19.181  1.00  0.00    -0.069 C 
HETATM    8  C9  UNL     1      -1.984  49.177 -18.549  1.00  0.00     0.035 C 
HETATM    9  C30 UNL     1      -1.185  50.404 -20.707  1.00  0.00    -0.016 C 
HETATM   10  C8  UNL     1      -3.170  48.605 -19.323  1.00  0.00     0.010 C 
HETATM   11  C7  UNL     1      -2.800  48.364 -20.795  1.00  0.00    -0.004 C 
HETATM   12  C6  UNL     1      -3.850  47.625 -21.670  1.00  0.00    -0.001 C 
HETATM   13  C32 UNL     1      -2.396  49.710 -21.446  1.00  0.00     0.002 C 
HETATM   14  C5  UNL     1      -4.704  46.569 -20.970  1.00  0.00     0.006 C 
HETATM   15  C35 UNL     1      -4.857  48.512 -22.475  1.00  0.00    -0.030 C 
HETATM   16  C4  UNL     1      -5.834  46.334 -21.965  1.00  0.00     0.013 C 
HETATM   17  C3  UNL     1      -6.228  47.762 -22.347  1.00  0.00     0.063 C 
HETATM   18  C34 UNL     1      -4.967  49.910 -21.860  1.00  0.00     0.011 C 
HETATM   19  C36 UNL     1      -4.389  48.603 -23.951  1.00  0.00     0.016 C 
HETATM   20  C33 UNL     1      -3.633  50.625 -21.637  1.00  0.00     0.007 C 
HETATM   21  C29 UNL     1      -1.040  51.881 -21.178  1.00  0.00     0.020 C 
HETATM   22  C31 UNL     1       0.108  49.630 -21.061  1.00  0.00     0.020 C 
ATOM     23  H1  UNL     1       1.377  53.965 -18.701  1.00  0.00     0.194 HD
BRANCH  17  24
HETATM   24  C2  UNL     1      -7.175  47.892 -23.547  1.00  0.00     0.128 C 
HETATM   25  C1  UNL     1      -7.935  49.186 -23.724  1.00  0.00     0.091 C 
HETATM   26  O1  UNL     1      -7.234  47.012 -24.417  1.00  0.00    -0.298 OA
ENDBRANCH  17  24
ENDBRANCH   2   3
ENDBRANCH   1   2
BRANCH   1  27
HETATM   27  C14 UNL     1       2.682  52.125 -15.243  1.00  0.00     0.244 C 
HETATM   28  O3  UNL     1       3.768  51.634 -14.940  1.00  0.00    -0.271 OA
HETATM   29  N2  UNL     1       1.645  52.245 -14.346  1.00  0.00    -0.350 N 
HETATM   30  H18 UNL     1       0.749  52.570 -14.687  1.00  0.00     0.163 HD
BRANCH  29  31
HETATM   31  C15 UNL     1       1.674  51.508 -13.088  1.00  0.00     0.225 C 
BRANCH  31  32
HETATM   32  C16 UNL     1       1.777  52.331 -11.806  1.00  0.00     0.236 C 
HETATM   33  O4  UNL     1       2.375  51.904 -10.819  1.00  0.00    -0.272 OA
HETATM   34  N3  UNL     1       1.250  53.602 -11.855  1.00  0.00    -0.345 N 
HETATM   35  H21 UNL     1       0.562  53.786 -12.573  1.00  0.00     0.163 HD
BRANCH  34  36
HETATM   36  C17 UNL     1       1.146  54.393 -10.620  1.00  0.00     0.186 C 
BRANCH  36  37
HETATM   37  C18 UNL     1       2.080  55.609 -10.584  1.00  0.00     0.077 C 
BRANCH  37  38
HETATM   38  C19 UNL     1       2.836  55.904  -9.317  1.00  0.00    -0.028 A 
HETATM   39  C20 UNL     1       2.379  56.409  -8.109  1.00  0.00     0.096 A 
HETATM   40  N4  UNL     1       3.441  56.475  -7.244  1.00  0.00    -0.365 N 
HETATM   41  C21 UNL     1       4.581  55.998  -7.842  1.00  0.00     0.042 A 
HETATM   42  H26 UNL     1       3.397  56.807  -6.292  1.00  0.00     0.165 HD
HETATM   43  C22 UNL     1       5.875  55.852  -7.326  1.00  0.00     0.030 A 
HETATM   44  C26 UNL     1       4.242  55.648  -9.149  1.00  0.00    -0.002 A 
HETATM   45  C23 UNL     1       6.855  55.331  -8.177  1.00  0.00     0.002 A 
HETATM   46  C24 UNL     1       6.550  54.982  -9.494  1.00  0.00     0.001 A 
HETATM   47  C25 UNL     1       5.253  55.140  -9.991  1.00  0.00     0.014 A 
ENDBRANCH  37  38
ENDBRANCH  36  37
BRANCH  36  48
HETATM   48  C27 UNL     1      -0.311  54.766 -10.334  1.00  0.00     0.163 C 
HETATM   49  O5  UNL     1      -0.714  55.512  -9.453  1.00  0.00    -0.648 OA
BRANCH  48  50
HETATM   50  O6  UNL     1      -1.186  54.188 -11.191  1.00  0.00    -0.775 OA
HETATM   51  H31 UNL     1      -2.062  54.541 -10.908  1.00  0.00     0.167 HD
ENDBRANCH  48  50
ENDBRANCH  36  48
ENDBRANCH  34  36
ENDBRANCH  31  32
ENDBRANCH  29  31
ENDBRANCH   1  27
TORSDOF 11
ENDMDL
MODEL 2
REMARK minimizedAffinity -9.85005856
REMARK CNNscore 0.442880541
REMARK CNNaffinity 7.62713051
REMARK  11 active torsions:
REMARK  status: ('A' for Active; 'I' for Inactive)
REMARK    1  A    between atoms: C2_2  and  C3_4 
REMARK    2  A    between atoms: N1_14  and  O2_16 
REMARK    3  A    between atoms: O2_16  and  C13_17 
REMARK    4  A    between atoms: C13_17  and  C14_18 
REMARK       I    between atoms: C14_18  and  N2_20 
REMARK    5  A    between atoms: N2_20  and  C15_21 
REMARK    6  A    between atoms: C15_21  and  C16_22 
REMARK       I    between atoms: C16_22  and  N3_24 
REMARK    7  A    between atoms: N3_24  and  C17_25 
REMARK    8  A    between atoms: C17_25  and  C18_26 
REMARK    9  A    between atoms: C17_25  and  C27_36 
REMARK   10  A    between atoms: C18_26  and  C19_27 
REMARK   11  A    between atoms: C27_36  and  O6_38 
ROOT
HETATM    1  C13 UNL     1       0.521  52.161 -20.361  1.00  0.00     0.303 C 
ENDROOT
BRANCH   1   2
HETATM    2  O2  UNL     1      -0.065  52.790 -19.227  1.00  0.00    -0.271 OA
BRANCH   2   3
HETATM    3  N1  UNL     1       0.969  53.112 -18.336  1.00  0.00    -0.271 N 
HETATM    4  C12 UNL     1       1.107  52.262 -17.364  1.00  0.00     0.032 C 
HETATM    5  C11 UNL     1       0.338  50.995 -17.195  1.00  0.00     0.030 C 
HETATM    6  C28 UNL     1       2.080  52.677 -16.276  1.00  0.00     0.060 C 
HETATM    7  C10 UNL     1       0.284  50.356 -16.009  1.00  0.00    -0.069 C 
HETATM    8  C9  UNL     1      -0.674  49.199 -15.833  1.00  0.00     0.035 C 
HETATM    9  C30 UNL     1       1.061  50.838 -14.779  1.00  0.00    -0.016 C 
HETATM   10  C8  UNL     1      -0.193  48.098 -14.889  1.00  0.00     0.010 C 
HETATM   11  C7  UNL     1       0.266  48.687 -13.546  1.00  0.00    -0.004 C 
HETATM   12  C6  UNL     1       0.621  47.675 -12.422  1.00  0.00    -0.001 C 
HETATM   13  C32 UNL     1       1.442  49.664 -13.794  1.00  0.00     0.002 C 
HETATM   14  C5  UNL     1      -0.182  46.376 -12.390  1.00  0.00     0.006 C 
HETATM   15  C35 UNL     1       2.120  47.244 -12.300  1.00  0.00    -0.030 C 
HETATM   16  C4  UNL     1       0.642  45.492 -11.463  1.00  0.00     0.013 C 
HETATM   17  C3  UNL     1       2.062  45.708 -11.990  1.00  0.00     0.063 C 
HETATM   18  C34 UNL     1       2.867  47.483 -13.616  1.00  0.00     0.011 C 
HETATM   19  C36 UNL     1       2.787  48.037 -11.146  1.00  0.00     0.016 C 
HETATM   20  C33 UNL     1       2.727  48.892 -14.191  1.00  0.00     0.007 C 
HETATM   21  C29 UNL     1       2.343  51.582 -15.254  1.00  0.00     0.020 C 
HETATM   22  C31 UNL     1       0.149  51.833 -14.020  1.00  0.00     0.020 C 
ATOM     23  H1  UNL     1       1.559  53.938 -18.441  1.00  0.00     0.194 HD
BRANCH  17  24
HETATM   24  C2  UNL     1       3.190  45.162 -11.105  1.00  0.00     0.128 C 
HETATM   25  C1  UNL     1       2.851  44.733  -9.696  1.00  0.00     0.091 C 
HETATM   26  O1  UNL     1       4.325  44.964 -11.559  1.00  0.00    -0.298 OA
ENDBRANCH  17  24
ENDBRANCH   2   3
ENDBRANCH   1   2
BRANCH   1  27
HETATM   27  C14 UNL     1       1.064  53.108 -21.430  1.00  0.00     0.244 C 
HETATM   28  O3  UNL     1       1.665  54.139 -21.137  1.00  0.00    -0.271 OA
HETATM   29  N2  UNL     1       0.730  52.786 -22.726  1.00  0.00    -0.350 N 
HETATM   30  H18 UNL     1       0.152  51.970 -22.886  1.00  0.00     0.163 HD
BRANCH  29  31
HETATM   31  C15 UNL     1       0.790  53.799 -23.773  1.00  0.00     0.225 C 
BRANCH  31  32
HETATM   32  C16 UNL     1       0.308  53.389 -25.162  1.00  0.00     0.236 C 
HETATM   33  O4  UNL     1       0.533  54.089 -26.149  1.00  0.00    -0.272 OA
HETATM   34  N3  UNL     1      -0.301  52.158 -25.256  1.00  0.00    -0.345 N 
HETATM   35  H21 UNL     1      -0.683  51.769 -24.404  1.00  0.00     0.163 HD
BRANCH  34  36
HETATM   36  C17 UNL     1      -0.952  51.764 -26.514  1.00  0.00     0.186 C 
BRANCH  36  37
HETATM   37  C18 UNL     1      -1.287  50.269 -26.595  1.00  0.00     0.077 C 
BRANCH  37  38
HETATM   38  C19 UNL     1      -2.411  49.732 -25.751  1.00  0.00    -0.028 A 
HETATM   39  C20 UNL     1      -2.603  49.805 -24.380  1.00  0.00     0.096 A 
HETATM   40  N4  UNL     1      -3.792  49.191 -24.082  1.00  0.00    -0.365 N 
HETATM   41  C21 UNL     1      -4.404  48.742 -25.226  1.00  0.00     0.042 A 
HETATM   42  H26 UNL     1      -4.183  49.096 -23.156  1.00  0.00     0.165 HD
HETATM   43  C22 UNL     1      -5.634  48.092 -25.394  1.00  0.00     0.030 A 
HETATM   44  C26 UNL     1      -3.557  49.047 -26.290  1.00  0.00    -0.002 A 
HETATM   45  C23 UNL     1      -6.008  47.744 -26.696  1.00  0.00     0.002 A 
HETATM   46  C24 UNL     1      -5.177  48.027 -27.781  1.00  0.00     0.001 A 
HETATM   47  C25 UNL     1      -3.951  48.671 -27.591  1.00  0.00     0.014 A 
ENDBRANCH  37  38
ENDBRANCH  36  37
BRANCH  36  48
HETATM   48  C27 UNL     1      -2.166  52.651 -26.800  1.00  0.00     0.163 C 
HETATM   49  O5  UNL     1      -3.164  52.770 -26.103  1.00  0.00    -0.648 OA
BRANCH  48  50
HETATM   50  O6  UNL     1      -2.049  53.359 -27.948  1.00  0.00    -0.775 OA
HETATM   51  H31 UNL     1      -2.874  53.897 -27.980  1.00  0.00     0.167 HD
ENDBRANCH  48  50
ENDBRANCH  36  48
ENDBRANCH  34  36
ENDBRANCH  31  32
ENDBRANCH  29  31
ENDBRANCH   1  27
TORSDOF 11
ENDMDL
MODEL 3
REMARK minimizedAffinity -8.770854
REMARK CNNscore 0.383500457
REMARK CNNaffinity 6.45106649
REMARK  11 active torsions:
REMARK  status: ('A' for Active; 'I' for Inactive)
REMARK    1  A    between atoms: C2_2  and  C3_4 
REMARK    2  A    between atoms: N1_14  and  O2_16 
REMARK    3  A    between atoms: O2_16  and  C13_17 
REMARK    4  A    between atoms: C13_17  and  C14_18 
REMARK       I    between atoms: C14_18  and  N2_20 
REMARK    5  A    between atoms: N2_20  and  C15_21 
REMARK    6  A    between atoms: C15_21  and  C16_22 
REMARK       I    between atoms: C16_22  and  N3_24 
REMARK    7  A    between atoms: N3_24  and  C17_25 
REMARK    8  A    between atoms: C17_25  and  C18_26 
REMARK    9  A    between atoms: C17_25  and  C27_36 
REMARK   10  A    between atoms: C18_26  and  C19_27 
REMARK   11  A    between atoms: C27_36  and  O6_38 
ROOT
HETATM    1  C13 UNL     1      -7.518  43.902 -21.713  1.00  0.00     0.303 C 
ENDROOT
BRANCH   1   2
HETATM    2  O2  UNL     1      -7.616  45.313 -21.551  1.00  0.00    -0.271 OA
BRANCH   2   3
HETATM    3  N1  UNL     1      -7.906  45.867 -22.807  1.00  0.00    -0.271 N 
HETATM    4  C12 UNL     1      -6.996  46.686 -23.240  1.00  0.00     0.032 C 
HETATM    5  C11 UNL     1      -5.699  46.987 -22.569  1.00  0.00     0.030 C 
HETATM    6  C28 UNL     1      -7.364  47.453 -24.498  1.00  0.00     0.060 C 
HETATM    7  C10 UNL     1      -4.980  48.083 -22.885  1.00  0.00    -0.069 C 
HETATM    8  C9  UNL     1      -3.787  48.458 -22.035  1.00  0.00     0.035 C 
HETATM    9  C30 UNL     1      -5.400  49.050 -23.998  1.00  0.00    -0.016 C 
HETATM   10  C8  UNL     1      -2.638  49.127 -22.789  1.00  0.00     0.010 C 
HETATM   11  C7  UNL     1      -3.148  50.305 -23.633  1.00  0.00    -0.004 C 
HETATM   12  C6  UNL     1      -2.073  51.190 -24.322  1.00  0.00    -0.001 C 
HETATM   13  C32 UNL     1      -4.173  49.783 -24.670  1.00  0.00     0.002 C 
HETATM   14  C5  UNL     1      -0.752  51.370 -23.576  1.00  0.00     0.006 C 
HETATM   15  C35 UNL     1      -1.678  50.817 -25.790  1.00  0.00    -0.030 C 
HETATM   16  C4  UNL     1       0.169  51.934 -24.650  1.00  0.00     0.013 C 
HETATM   17  C3  UNL     1      -0.123  51.017 -25.840  1.00  0.00     0.063 C 
HETATM   18  C34 UNL     1      -2.027  49.358 -26.096  1.00  0.00     0.011 C 
HETATM   19  C36 UNL     1      -2.409  51.768 -26.772  1.00  0.00     0.016 C 
HETATM   20  C33 UNL     1      -3.467  48.957 -25.777  1.00  0.00     0.007 C 
HETATM   21  C29 UNL     1      -6.211  48.263 -25.068  1.00  0.00     0.020 C 
HETATM   22  C31 UNL     1      -6.314  50.122 -23.355  1.00  0.00     0.020 C 
ATOM     23  H1  UNL     1      -8.754  45.648 -23.330  1.00  0.00     0.194 HD
BRANCH  17  24
HETATM   24  C2  UNL     1       0.449  51.473 -27.187  1.00  0.00     0.128 C 
HETATM   25  C1  UNL     1       1.917  51.827 -27.259  1.00  0.00     0.091 C 
HETATM   26  O1  UNL     1      -0.235  51.444 -28.219  1.00  0.00    -0.298 OA
ENDBRANCH  17  24
ENDBRANCH   2   3
ENDBRANCH   1   2
BRANCH   1  27
HETATM   27  C14 UNL     1      -8.368  43.311 -22.837  1.00  0.00     0.244 C 
HETATM   28  O3  UNL     1      -7.870  42.927 -23.894  1.00  0.00    -0.271 OA
HETATM   29  N2  UNL     1      -9.729  43.350 -22.629  1.00  0.00    -0.350 N 
HETATM   30  H18 UNL     1     -10.073  43.765 -21.773  1.00  0.00     0.163 HD
BRANCH  29  31
HETATM   31  C15 UNL     1     -10.647  43.241 -23.756  1.00  0.00     0.225 C 
BRANCH  31  32
HETATM   32  C16 UNL     1     -11.760  44.282 -23.845  1.00  0.00     0.236 C 
HETATM   33  O4  UNL     1     -12.147  44.890 -22.847  1.00  0.00    -0.272 OA
HETATM   34  N3  UNL     1     -12.230  44.565 -25.107  1.00  0.00    -0.345 N 
HETATM   35  H21 UNL     1     -12.072  43.868 -25.823  1.00  0.00     0.163 HD
BRANCH  34  36
HETATM   36  C17 UNL     1     -13.417  45.417 -25.267  1.00  0.00     0.186 C 
BRANCH  36  37
HETATM   37  C18 UNL     1     -14.621  44.965 -24.430  1.00  0.00     0.077 C 
BRANCH  37  38
HETATM   38  C19 UNL     1     -15.901  44.612 -25.136  1.00  0.00    -0.028 A 
HETATM   39  C20 UNL     1     -16.169  43.582 -26.025  1.00  0.00     0.096 A 
HETATM   40  N4  UNL     1     -17.492  43.654 -26.377  1.00  0.00    -0.365 N 
HETATM   41  C21 UNL     1     -18.111  44.688 -25.721  1.00  0.00     0.042 A 
HETATM   42  H26 UNL     1     -17.961  43.027 -27.015  1.00  0.00     0.165 HD
HETATM   43  C22 UNL     1     -19.448  45.106 -25.755  1.00  0.00     0.030 A 
HETATM   44  C26 UNL     1     -17.139  45.323 -24.948  1.00  0.00    -0.002 A 
HETATM   45  C23 UNL     1     -19.801  46.209 -24.971  1.00  0.00     0.002 A 
HETATM   46  C24 UNL     1     -18.849  46.872 -24.195  1.00  0.00     0.001 A 
HETATM   47  C25 UNL     1     -17.518  46.443 -24.179  1.00  0.00     0.014 A 
ENDBRANCH  37  38
ENDBRANCH  36  37
BRANCH  36  48
HETATM   48  C27 UNL     1     -13.065  46.889 -25.037  1.00  0.00     0.163 C 
HETATM   49  O5  UNL     1     -12.509  47.639 -25.826  1.00  0.00    -0.648 OA
BRANCH  48  50
HETATM   50  O6  UNL     1     -13.452  47.345 -23.821  1.00  0.00    -0.775 OA
HETATM   51  H31 UNL     1     -13.194  48.296 -23.832  1.00  0.00     0.167 HD
ENDBRANCH  48  50
ENDBRANCH  36  48
ENDBRANCH  34  36
ENDBRANCH  31  32
ENDBRANCH  29  31
ENDBRANCH   1  27
TORSDOF 11
ENDMDL
MODEL 4
REMARK minimizedAffinity -9.80294323
REMARK CNNscore 0.300920755
REMARK CNNaffinity 6.55508995
REMARK  11 active torsions:
REMARK  status: ('A' for Active; 'I' for Inactive)
REMARK    1  A    between atoms: C2_2  and  C3_4 
REMARK    2  A    between atoms: N1_14  and  O2_16 
REMARK    3  A    between atoms: O2_16  and  C13_17 
REMARK    4  A    between atoms: C13_17  and  C14_18 
REMARK       I    between atoms: C14_18  and  N2_20 
REMARK    5  A    between atoms: N2_20  and  C15_21 
REMARK    6  A    between atoms: C15_21  and  C16_22 
REMARK       I    between atoms: C16_22  and  N3_24 
REMARK    7  A    between atoms: N3_24  and  C17_25 
REMARK    8  A    between atoms: C17_25  and  C18_26 
REMARK    9  A    between atoms: C17_25  and  C27_36 
REMARK   10  A    between atoms: C18_26  and  C19_27 
REMARK   11  A    between atoms: C27_36  and  O6_38 
ROOT
HETATM    1  C13 UNL     1      -5.774  48.075 -28.905  1.00  0.00     0.303 C 
ENDROOT
BRANCH   1   2
HETATM    2  O2  UNL     1      -7.006  47.567 -28.405  1.00  0.00    -0.271 OA
BRANCH   2   3
HETATM    3  N1  UNL     1      -7.995  47.827 -29.364  1.00  0.00    -0.271 N 
HETATM    4  C12 UNL     1      -9.135  47.261 -29.108  1.00  0.00     0.032 C 
HETATM    5  C11 UNL     1      -9.464  46.470 -27.887  1.00  0.00     0.030 C 
HETATM    6  C28 UNL     1     -10.168  47.356 -30.217  1.00  0.00     0.060 C 
HETATM    7  C10 UNL     1     -10.523  45.636 -27.851  1.00  0.00    -0.069 C 
HETATM    8  C9  UNL     1     -10.692  44.702 -26.674  1.00  0.00     0.035 C 
HETATM    9  C30 UNL     1     -11.499  45.495 -29.024  1.00  0.00    -0.016 C 
HETATM   10  C8  UNL     1     -12.140  44.401 -26.288  1.00  0.00     0.010 C 
HETATM   11  C7  UNL     1     -12.952  43.951 -27.512  1.00  0.00    -0.004 C 
HETATM   12  C6  UNL     1     -14.397  43.445 -27.247  1.00  0.00    -0.001 C 
HETATM   13  C32 UNL     1     -12.954  45.085 -28.567  1.00  0.00     0.002 C 
HETATM   14  C5  UNL     1     -14.635  42.712 -25.928  1.00  0.00     0.006 C 
HETATM   15  C35 UNL     1     -15.550  44.497 -27.358  1.00  0.00    -0.030 C 
HETATM   16  C4  UNL     1     -16.155  42.703 -25.818  1.00  0.00     0.013 C 
HETATM   17  C3  UNL     1     -16.513  44.148 -26.171  1.00  0.00     0.063 C 
HETATM   18  C34 UNL     1     -15.011  45.920 -27.191  1.00  0.00     0.011 C 
HETATM   19  C36 UNL     1     -16.254  44.340 -28.731  1.00  0.00     0.016 C 
HETATM   20  C33 UNL     1     -13.831  46.275 -28.098  1.00  0.00     0.007 C 
HETATM   21  C29 UNL     1     -11.538  46.837 -29.811  1.00  0.00     0.020 C 
HETATM   22  C31 UNL     1     -10.949  44.381 -29.949  1.00  0.00     0.020 C 
ATOM     23  H1  UNL     1      -7.834  48.408 -30.187  1.00  0.00     0.194 HD
BRANCH  17  24
HETATM   24  C2  UNL     1     -18.002  44.423 -26.414  1.00  0.00     0.128 C 
HETATM   25  C1  UNL     1     -18.955  43.250 -26.428  1.00  0.00     0.091 C 
HETATM   26  O1  UNL     1     -18.439  45.580 -26.483  1.00  0.00    -0.298 OA
ENDBRANCH  17  24
ENDBRANCH   2   3
ENDBRANCH   1   2
BRANCH   1  27
HETATM   27  C14 UNL     1      -4.686  48.304 -27.857  1.00  0.00     0.244 C 
HETATM   28  O3  UNL     1      -3.498  48.103 -28.101  1.00  0.00    -0.271 OA
HETATM   29  N2  UNL     1      -5.140  48.634 -26.599  1.00  0.00    -0.350 N 
HETATM   30  H18 UNL     1      -6.139  48.693 -26.448  1.00  0.00     0.163 HD
BRANCH  29  31
HETATM   31  C15 UNL     1      -4.280  48.448 -25.436  1.00  0.00     0.225 C 
BRANCH  31  32
HETATM   32  C16 UNL     1      -3.367  49.612 -25.058  1.00  0.00     0.236 C 
HETATM   33  O4  UNL     1      -3.230  49.961 -23.885  1.00  0.00    -0.272 OA
HETATM   34  N3  UNL     1      -2.644  50.177 -26.083  1.00  0.00    -0.345 N 
HETATM   35  H21 UNL     1      -2.990  50.033 -27.023  1.00  0.00     0.163 HD
BRANCH  34  36
HETATM   36  C17 UNL     1      -1.882  51.411 -25.841  1.00  0.00     0.186 C 
BRANCH  36  37
HETATM   37  C18 UNL     1      -0.527  51.178 -25.160  1.00  0.00     0.077 C 
BRANCH  37  38
HETATM   38  C19 UNL     1       0.143  52.334 -24.468  1.00  0.00    -0.028 A 
HETATM   39  C20 UNL     1       0.679  53.496 -25.000  1.00  0.00     0.096 A 
HETATM   40  N4  UNL     1       1.154  54.260 -23.966  1.00  0.00    -0.365 N 
HETATM   41  C21 UNL     1       0.919  53.644 -22.762  1.00  0.00     0.042 A 
HETATM   42  H26 UNL     1       1.600  55.161 -24.064  1.00  0.00     0.165 HD
HETATM   43  C22 UNL     1       1.204  54.073 -21.459  1.00  0.00     0.030 A 
HETATM   44  C26 UNL     1       0.303  52.425 -23.041  1.00  0.00    -0.002 A 
HETATM   45  C23 UNL     1       0.846  53.224 -20.407  1.00  0.00     0.002 A 
HETATM   46  C24 UNL     1       0.238  51.993 -20.653  1.00  0.00     0.001 A 
HETATM   47  C25 UNL     1      -0.033  51.581 -21.961  1.00  0.00     0.014 A 
ENDBRANCH  37  38
ENDBRANCH  36  37
BRANCH  36  48
HETATM   48  C27 UNL     1      -1.757  52.234 -27.126  1.00  0.00     0.163 C 
HETATM   49  O5  UNL     1      -2.272  53.321 -27.349  1.00  0.00    -0.648 OA
BRANCH  48  50
HETATM   50  O6  UNL     1      -0.970  51.648 -28.059  1.00  0.00    -0.775 OA
HETATM   51  H31 UNL     1      -0.958  52.298 -28.800  1.00  0.00     0.167 HD
ENDBRANCH  48  50
ENDBRANCH  36  48
ENDBRANCH  34  36
ENDBRANCH  31  32
ENDBRANCH  29  31
ENDBRANCH   1  27
TORSDOF 11
ENDMDL
MODEL 5
REMARK minimizedAffinity -9.13716698
REMARK CNNscore 0.278567672
REMARK CNNaffinity 6.2312088
REMARK  11 active torsions:
REMARK  status: ('A' for Active; 'I' for Inactive)
REMARK    1  A    between atoms: C2_2  and  C3_4 
REMARK    2  A    between atoms: N1_14  and  O2_16 
REMARK    3  A    between atoms: O2_16  and  C13_17 
REMARK    4  A    between atoms: C13_17  and  C14_18 
REMARK       I    between atoms: C14_18  and  N2_20 
REMARK    5  A    between atoms: N2_20  and  C15_21 
REMARK    6  A    between atoms: C15_21  and  C16_22 
REMARK       I    between atoms: C16_22  and  N3_24 
REMARK    7  A    between atoms: N3_24  and  C17_25 
REMARK    8  A    between atoms: C17_25  and  C18_26 
REMARK    9  A    between atoms: C17_25  and  C27_36 
REMARK   10  A    between atoms: C18_26  and  C19_27 
REMARK   11  A    between atoms: C27_36  and  O6_38 
ROOT
HETATM    1  C13 UNL     1      -7.619  45.528 -20.249  1.00  0.00     0.303 C 
ENDROOT
BRANCH   1   2
HETATM    2  O2  UNL     1      -6.446  46.013 -20.893  1.00  0.00    -0.271 OA
BRANCH   2   3
HETATM    3  N1  UNL     1      -6.805  46.410 -22.190  1.00  0.00    -0.271 N 
HETATM    4  C12 UNL     1      -5.978  47.256 -22.726  1.00  0.00     0.032 C 
HETATM    5  C11 UNL     1      -4.701  47.734 -22.121  1.00  0.00     0.030 C 
HETATM    6  C28 UNL     1      -6.433  47.858 -24.043  1.00  0.00     0.060 C 
HETATM    7  C10 UNL     1      -4.086  48.850 -22.563  1.00  0.00    -0.069 C 
HETATM    8  C9  UNL     1      -2.916  49.409 -21.785  1.00  0.00     0.035 C 
HETATM    9  C30 UNL     1      -4.607  49.659 -23.754  1.00  0.00    -0.016 C 
HETATM   10  C8  UNL     1      -1.844  50.094 -22.630  1.00  0.00     0.010 C 
HETATM   11  C7  UNL     1      -2.469  51.132 -23.574  1.00  0.00    -0.004 C 
HETATM   12  C6  UNL     1      -1.487  52.032 -24.375  1.00  0.00    -0.001 C 
HETATM   13  C32 UNL     1      -3.461  50.423 -24.528  1.00  0.00     0.002 C 
HETATM   14  C5  UNL     1      -0.175  52.399 -23.684  1.00  0.00     0.006 C 
HETATM   15  C35 UNL     1      -1.086  51.548 -25.808  1.00  0.00    -0.030 C 
HETATM   16  C4  UNL     1       0.675  52.928 -24.832  1.00  0.00     0.013 C 
HETATM   17  C3  UNL     1       0.444  51.874 -25.917  1.00  0.00     0.063 C 
HETATM   18  C34 UNL     1      -1.310  50.040 -25.958  1.00  0.00     0.011 C 
HETATM   19  C36 UNL     1      -1.915  52.328 -26.861  1.00  0.00     0.016 C 
HETATM   20  C33 UNL     1      -2.705  49.552 -25.565  1.00  0.00     0.007 C 
HETATM   21  C29 UNL     1      -5.365  48.702 -24.720  1.00  0.00     0.020 C 
HETATM   22  C31 UNL     1      -5.601  50.708 -23.199  1.00  0.00     0.020 C 
ATOM     23  H1  UNL     1      -7.638  46.068 -22.667  1.00  0.00     0.194 HD
BRANCH  17  24
HETATM   24  C2  UNL     1       0.952  52.239 -27.318  1.00  0.00     0.128 C 
HETATM   25  C1  UNL     1       2.324  51.758 -27.730  1.00  0.00     0.091 C 
HETATM   26  O1  UNL     1       0.220  52.810 -28.138  1.00  0.00    -0.298 OA
ENDBRANCH  17  24
ENDBRANCH   2   3
ENDBRANCH   1   2
BRANCH   1  27
HETATM   27  C14 UNL     1      -8.679  46.583 -19.938  1.00  0.00     0.244 C 
HETATM   28  O3  UNL     1      -8.528  47.410 -19.040  1.00  0.00    -0.271 OA
HETATM   29  N2  UNL     1      -9.853  46.466 -20.648  1.00  0.00    -0.350 N 
HETATM   30  H18 UNL     1      -9.943  45.703 -21.307  1.00  0.00     0.163 HD
BRANCH  29  31
HETATM   31  C15 UNL     1     -11.074  47.096 -20.159  1.00  0.00     0.225 C 
BRANCH  31  32
HETATM   32  C16 UNL     1     -12.385  46.658 -20.805  1.00  0.00     0.236 C 
HETATM   33  O4  UNL     1     -13.271  46.112 -20.147  1.00  0.00    -0.272 OA
HETATM   34  N3  UNL     1     -12.554  46.995 -22.129  1.00  0.00    -0.345 N 
HETATM   35  H21 UNL     1     -11.717  47.192 -22.663  1.00  0.00     0.163 HD
BRANCH  34  36
HETATM   36  C17 UNL     1     -13.702  46.459 -22.875  1.00  0.00     0.186 C 
BRANCH  36  37
HETATM   37  C18 UNL     1     -14.984  47.284 -22.713  1.00  0.00     0.077 C 
BRANCH  37  38
HETATM   38  C19 UNL     1     -16.257  46.577 -22.334  1.00  0.00    -0.028 A 
HETATM   39  C20 UNL     1     -16.629  46.007 -21.126  1.00  0.00     0.096 A 
HETATM   40  N4  UNL     1     -17.898  45.506 -21.262  1.00  0.00    -0.365 N 
HETATM   41  C21 UNL     1     -18.384  45.759 -22.521  1.00  0.00     0.042 A 
HETATM   42  H26 UNL     1     -18.419  45.034 -20.538  1.00  0.00     0.165 HD
HETATM   43  C22 UNL     1     -19.633  45.458 -23.081  1.00  0.00     0.030 A 
HETATM   44  C26 UNL     1     -17.375  46.413 -23.226  1.00  0.00    -0.002 A 
HETATM   45  C23 UNL     1     -19.854  45.840 -24.408  1.00  0.00     0.002 A 
HETATM   46  C24 UNL     1     -18.860  46.486 -25.144  1.00  0.00     0.001 A 
HETATM   47  C25 UNL     1     -17.619  46.773 -24.568  1.00  0.00     0.014 A 
ENDBRANCH  37  38
ENDBRANCH  36  37
BRANCH  36  48
HETATM   48  C27 UNL     1     -13.337  46.227 -24.344  1.00  0.00     0.163 C 
HETATM   49  O5  UNL     1     -13.434  45.177 -24.963  1.00  0.00    -0.648 OA
BRANCH  48  50
HETATM   50  O6  UNL     1     -12.882  47.343 -24.961  1.00  0.00    -0.775 OA
HETATM   51  H31 UNL     1     -12.723  47.051 -25.889  1.00  0.00     0.167 HD
ENDBRANCH  48  50
ENDBRANCH  36  48
ENDBRANCH  34  36
ENDBRANCH  31  32
ENDBRANCH  29  31
ENDBRANCH   1  27
TORSDOF 11
ENDMDL
MODEL 6
REMARK minimizedAffinity -8.85403538
REMARK CNNscore 0.273491949
REMARK CNNaffinity 6.39721346
REMARK  11 active torsions:
REMARK  status: ('A' for Active; 'I' for Inactive)
REMARK    1  A    between atoms: C2_2  and  C3_4 
REMARK    2  A    between atoms: N1_14  and  O2_16 
REMARK    3  A    between atoms: O2_16  and  C13_17 
REMARK    4  A    between atoms: C13_17  and  C14_18 
REMARK       I    between atoms: C14_18  and  N2_20 
REMARK    5  A    between atoms: N2_20  and  C15_21 
REMARK    6  A    between atoms: C15_21  and  C16_22 
REMARK       I    between atoms: C16_22  and  N3_24 
REMARK    7  A    between atoms: N3_24  and  C17_25 
REMARK    8  A    between atoms: C17_25  and  C18_26 
REMARK    9  A    between atoms: C17_25  and  C27_36 
REMARK   10  A    between atoms: C18_26  and  C19_27 
REMARK   11  A    between atoms: C27_36  and  O6_38 
ROOT
HETATM    1  C13 UNL     1      -7.655  45.547 -19.985  1.00  0.00     0.303 C 
ENDROOT
BRANCH   1   2
HETATM    2  O2  UNL     1      -6.517  45.538 -20.840  1.00  0.00    -0.271 OA
BRANCH   2   3
HETATM    3  N1  UNL     1      -6.927  46.001 -22.099  1.00  0.00    -0.271 N 
HETATM    4  C12 UNL     1      -6.111  46.859 -22.633  1.00  0.00     0.032 C 
HETATM    5  C11 UNL     1      -4.801  47.290 -22.065  1.00  0.00     0.030 C 
HETATM    6  C28 UNL     1      -6.615  47.528 -23.899  1.00  0.00     0.060 C 
HETATM    7  C10 UNL     1      -4.189  48.417 -22.483  1.00  0.00    -0.069 C 
HETATM    8  C9  UNL     1      -2.977  48.923 -21.734  1.00  0.00     0.035 C 
HETATM    9  C30 UNL     1      -4.750  49.288 -23.611  1.00  0.00    -0.016 C 
HETATM   10  C8  UNL     1      -1.933  49.632 -22.594  1.00  0.00     0.010 C 
HETATM   11  C7  UNL     1      -2.582  50.722 -23.460  1.00  0.00    -0.004 C 
HETATM   12  C6  UNL     1      -1.623  51.644 -24.263  1.00  0.00    -0.001 C 
HETATM   13  C32 UNL     1      -3.628  50.071 -24.400  1.00  0.00     0.002 C 
HETATM   14  C5  UNL     1      -0.276  51.960 -23.616  1.00  0.00     0.006 C 
HETATM   15  C35 UNL     1      -1.294  51.222 -25.733  1.00  0.00    -0.030 C 
HETATM   16  C4  UNL     1       0.530  52.531 -24.776  1.00  0.00     0.013 C 
HETATM   17  C3  UNL     1       0.234  51.531 -25.896  1.00  0.00     0.063 C 
HETATM   18  C34 UNL     1      -1.549  49.727 -25.943  1.00  0.00     0.011 C 
HETATM   19  C36 UNL     1      -2.157  52.062 -26.710  1.00  0.00     0.016 C 
HETATM   20  C33 UNL     1      -2.933  49.240 -25.509  1.00  0.00     0.007 C 
HETATM   21  C29 UNL     1      -5.565  48.388 -24.584  1.00  0.00     0.020 C 
HETATM   22  C31 UNL     1      -5.701  50.324 -22.963  1.00  0.00     0.020 C 
ATOM     23  H1  UNL     1      -7.787  45.692 -22.554  1.00  0.00     0.194 HD
BRANCH  17  24
HETATM   24  C2  UNL     1       0.685  51.954 -27.300  1.00  0.00     0.128 C 
HETATM   25  C1  UNL     1       2.129  51.735 -27.686  1.00  0.00     0.091 C 
HETATM   26  O1  UNL     1      -0.130  52.357 -28.142  1.00  0.00    -0.298 OA
ENDBRANCH  17  24
ENDBRANCH   2   3
ENDBRANCH   1   2
BRANCH   1  27
HETATM   27  C14 UNL     1      -8.205  46.930 -19.640  1.00  0.00     0.244 C 
HETATM   28  O3  UNL     1      -7.574  47.726 -18.948  1.00  0.00    -0.271 OA
HETATM   29  N2  UNL     1      -9.495  47.170 -20.057  1.00  0.00    -0.350 N 
HETATM   30  H18 UNL     1      -9.990  46.433 -20.544  1.00  0.00     0.163 HD
BRANCH  29  31
HETATM   31  C15 UNL     1     -10.282  48.229 -19.436  1.00  0.00     0.225 C 
BRANCH  31  32
HETATM   32  C16 UNL     1     -11.748  47.919 -19.140  1.00  0.00     0.236 C 
HETATM   33  O4  UNL     1     -12.656  48.548 -19.685  1.00  0.00    -0.272 OA
HETATM   34  N3  UNL     1     -11.989  46.847 -18.313  1.00  0.00    -0.345 N 
HETATM   35  H21 UNL     1     -11.232  46.555 -17.707  1.00  0.00     0.163 HD
BRANCH  34  36
HETATM   36  C17 UNL     1     -13.355  46.590 -17.834  1.00  0.00     0.186 C 
BRANCH  36  37
HETATM   37  C18 UNL     1     -14.054  45.428 -18.552  1.00  0.00     0.077 C 
BRANCH  37  38
HETATM   38  C19 UNL     1     -14.662  45.675 -19.905  1.00  0.00    -0.028 A 
HETATM   39  C20 UNL     1     -14.080  45.621 -21.163  1.00  0.00     0.096 A 
HETATM   40  N4  UNL     1     -15.048  45.896 -22.094  1.00  0.00    -0.365 N 
HETATM   41  C21 UNL     1     -16.261  46.100 -21.484  1.00  0.00     0.042 A 
HETATM   42  H26 UNL     1     -14.904  45.926 -23.093  1.00  0.00     0.165 HD
HETATM   43  C22 UNL     1     -17.516  46.375 -22.044  1.00  0.00     0.030 A 
HETATM   44  C26 UNL     1     -16.052  45.987 -20.110  1.00  0.00    -0.002 A 
HETATM   45  C23 UNL     1     -18.592  46.539 -21.167  1.00  0.00     0.002 A 
HETATM   46  C24 UNL     1     -18.414  46.443 -19.786  1.00  0.00     0.001 A 
HETATM   47  C25 UNL     1     -17.153  46.174 -19.247  1.00  0.00     0.014 A 
ENDBRANCH  37  38
ENDBRANCH  36  37
BRANCH  36  48
HETATM   48  C27 UNL     1     -13.378  46.435 -16.311  1.00  0.00     0.163 C 
HETATM   49  O5  UNL     1     -14.355  46.538 -15.583  1.00  0.00    -0.648 OA
BRANCH  48  50
HETATM   50  O6  UNL     1     -12.165  46.141 -15.788  1.00  0.00    -0.775 OA
HETATM   51  H31 UNL     1     -12.341  46.041 -14.823  1.00  0.00     0.167 HD
ENDBRANCH  48  50
ENDBRANCH  36  48
ENDBRANCH  34  36
ENDBRANCH  31  32
ENDBRANCH  29  31
ENDBRANCH   1  27
TORSDOF 11
ENDMDL
MODEL 7
REMARK minimizedAffinity -9.27040386
REMARK CNNscore 0.246535257
REMARK CNNaffinity 6.54060698
REMARK  11 active torsions:
REMARK  status: ('A' for Active; 'I' for Inactive)
REMARK    1  A    between atoms: C2_2  and  C3_4 
REMARK    2  A    between atoms: N1_14  and  O2_16 
REMARK    3  A    between atoms: O2_16  and  C13_17 
REMARK    4  A    between atoms: C13_17  and  C14_18 
REMARK       I    between atoms: C14_18  and  N2_20 
REMARK    5  A    between atoms: N2_20  and  C15_21 
REMARK    6  A    between atoms: C15_21  and  C16_22 
REMARK       I    between atoms: C16_22  and  N3_24 
REMARK    7  A    between atoms: N3_24  and  C17_25 
REMARK    8  A    between atoms: C17_25  and  C18_26 
REMARK    9  A    between atoms: C17_25  and  C27_36 
REMARK   10  A    between atoms: C18_26  and  C19_27 
REMARK   11  A    between atoms: C27_36  and  O6_38 
ROOT
HETATM    1  C13 UNL     1      -8.170  47.387 -16.877  1.00  0.00     0.303 C 
ENDROOT
BRANCH   1   2
HETATM    2  O2  UNL     1      -7.721  47.851 -18.145  1.00  0.00    -0.271 OA
BRANCH   2   3
HETATM    3  N1  UNL     1      -6.497  48.509 -17.950  1.00  0.00    -0.271 N 
HETATM    4  C12 UNL     1      -5.861  48.770 -19.051  1.00  0.00     0.032 C 
HETATM    5  C11 UNL     1      -6.360  48.508 -20.432  1.00  0.00     0.030 C 
HETATM    6  C28 UNL     1      -4.450  49.301 -18.872  1.00  0.00     0.060 C 
HETATM    7  C10 UNL     1      -5.523  48.477 -21.490  1.00  0.00    -0.069 C 
HETATM    8  C9  UNL     1      -6.038  48.001 -22.829  1.00  0.00     0.035 C 
HETATM    9  C30 UNL     1      -4.026  48.778 -21.363  1.00  0.00    -0.016 C 
HETATM   10  C8  UNL     1      -5.401  48.672 -24.044  1.00  0.00     0.010 C 
HETATM   11  C7  UNL     1      -3.868  48.624 -23.957  1.00  0.00    -0.004 C 
HETATM   12  C6  UNL     1      -3.079  49.114 -25.203  1.00  0.00    -0.001 C 
HETATM   13  C32 UNL     1      -3.406  49.378 -22.686  1.00  0.00     0.002 C 
HETATM   14  C5  UNL     1      -3.721  48.858 -26.565  1.00  0.00     0.006 C 
HETATM   15  C35 UNL     1      -2.640  50.616 -25.221  1.00  0.00    -0.030 C 
HETATM   16  C4  UNL     1      -2.921  49.765 -27.491  1.00  0.00     0.013 C 
HETATM   17  C3  UNL     1      -2.877  51.075 -26.702  1.00  0.00     0.063 C 
HETATM   18  C34 UNL     1      -3.505  51.450 -24.272  1.00  0.00     0.011 C 
HETATM   19  C36 UNL     1      -1.145  50.716 -24.823  1.00  0.00     0.016 C 
HETATM   20  C33 UNL     1      -3.608  50.907 -22.846  1.00  0.00     0.007 C 
HETATM   21  C29 UNL     1      -3.809  49.757 -20.172  1.00  0.00     0.020 C 
HETATM   22  C31 UNL     1      -3.312  47.439 -21.055  1.00  0.00     0.020 C 
ATOM     23  H1  UNL     1      -6.141  48.760 -17.027  1.00  0.00     0.194 HD
BRANCH  17  24
HETATM   24  C2  UNL     1      -1.911  52.141 -27.235  1.00  0.00     0.128 C 
HETATM   25  C1  UNL     1      -0.583  51.687 -27.795  1.00  0.00     0.091 C 
HETATM   26  O1  UNL     1      -2.247  53.330 -27.315  1.00  0.00    -0.298 OA
ENDBRANCH  17  24
ENDBRANCH   2   3
ENDBRANCH   1   2
BRANCH   1  27
HETATM   27  C14 UNL     1      -9.673  47.136 -16.765  1.00  0.00     0.244 C 
HETATM   28  O3  UNL     1     -10.295  47.376 -15.733  1.00  0.00    -0.271 OA
HETATM   29  N2  UNL     1     -10.248  46.516 -17.852  1.00  0.00    -0.350 N 
HETATM   30  H18 UNL     1      -9.655  46.263 -18.632  1.00  0.00     0.163 HD
BRANCH  29  31
HETATM   31  C15 UNL     1     -11.529  45.832 -17.714  1.00  0.00     0.225 C 
BRANCH  31  32
HETATM   32  C16 UNL     1     -12.786  46.657 -17.979  1.00  0.00     0.236 C 
HETATM   33  O4  UNL     1     -13.408  47.188 -17.059  1.00  0.00    -0.272 OA
HETATM   34  N3  UNL     1     -13.122  46.847 -19.300  1.00  0.00    -0.345 N 
HETATM   35  H21 UNL     1     -12.746  46.188 -19.969  1.00  0.00     0.163 HD
BRANCH  34  36
HETATM   36  C17 UNL     1     -14.408  47.472 -19.640  1.00  0.00     0.186 C 
BRANCH  36  37
HETATM   37  C18 UNL     1     -15.617  46.803 -18.974  1.00  0.00     0.077 C 
BRANCH  37  38
HETATM   38  C19 UNL     1     -16.937  46.811 -19.695  1.00  0.00    -0.028 A 
HETATM   39  C20 UNL     1     -18.158  47.337 -19.304  1.00  0.00     0.096 A 
HETATM   40  N4  UNL     1     -19.060  47.121 -20.313  1.00  0.00    -0.365 N 
HETATM   41  C21 UNL     1     -18.457  46.492 -21.373  1.00  0.00     0.042 A 
HETATM   42  H26 UNL     1     -20.031  47.401 -20.298  1.00  0.00     0.165 HD
HETATM   43  C22 UNL     1     -18.985  46.109 -22.614  1.00  0.00     0.030 A 
HETATM   44  C26 UNL     1     -17.129  46.265 -21.013  1.00  0.00    -0.002 A 
HETATM   45  C23 UNL     1     -18.124  45.473 -23.514  1.00  0.00     0.002 A 
HETATM   46  C24 UNL     1     -16.793  45.222 -23.179  1.00  0.00     0.001 A 
HETATM   47  C25 UNL     1     -16.287  45.607 -21.934  1.00  0.00     0.014 A 
ENDBRANCH  37  38
ENDBRANCH  36  37
BRANCH  36  48
HETATM   48  C27 UNL     1     -14.363  48.982 -19.389  1.00  0.00     0.163 C 
HETATM   49  O5  UNL     1     -13.836  49.825 -20.102  1.00  0.00    -0.648 OA
BRANCH  48  50
HETATM   50  O6  UNL     1     -15.003  49.352 -18.255  1.00  0.00    -0.775 OA
HETATM   51  H31 UNL     1     -14.920  50.334 -18.246  1.00  0.00     0.167 HD
ENDBRANCH  48  50
ENDBRANCH  36  48
ENDBRANCH  34  36
ENDBRANCH  31  32
ENDBRANCH  29  31
ENDBRANCH   1  27
TORSDOF 11
ENDMDL
MODEL 8
REMARK minimizedAffinity -9.51636314
REMARK CNNscore 0.245378181
REMARK CNNaffinity 7.22633696
REMARK  11 active torsions:
REMARK  status: ('A' for Active; 'I' for Inactive)
REMARK    1  A    between atoms: C2_2  and  C3_4 
REMARK    2  A    between atoms: N1_14  and  O2_16 
REMARK    3  A    between atoms: O2_16  and  C13_17 
REMARK    4  A    between atoms: C13_17  and  C14_18 
REMARK       I    between atoms: C14_18  and  N2_20 
REMARK    5  A    between atoms: N2_20  and  C15_21 
REMARK    6  A    between atoms: C15_21  and  C16_22 
REMARK       I    between atoms: C16_22  and  N3_24 
REMARK    7  A    between atoms: N3_24  and  C17_25 
REMARK    8  A    between atoms: C17_25  and  C18_26 
REMARK    9  A    between atoms: C17_25  and  C27_36 
REMARK   10  A    between atoms: C18_26  and  C19_27 
REMARK   11  A    between atoms: C27_36  and  O6_38 
ROOT
HETATM    1  C13 UNL     1      -3.152  54.074 -10.893  1.00  0.00     0.303 C 
ENDROOT
BRANCH   1   2
HETATM    2  O2  UNL     1      -1.972  54.741 -10.458  1.00  0.00    -0.271 OA
BRANCH   2   3
HETATM    3  N1  UNL     1      -0.872  54.038 -10.970  1.00  0.00    -0.271 N 
HETATM    4  C12 UNL     1       0.250  54.320 -10.380  1.00  0.00     0.032 C 
HETATM    5  C11 UNL     1       0.418  55.224  -9.206  1.00  0.00     0.030 C 
HETATM    6  C28 UNL     1       1.488  53.731 -11.032  1.00  0.00     0.060 C 
HETATM    7  C10 UNL     1       1.621  55.736  -8.876  1.00  0.00    -0.069 C 
HETATM    8  C9  UNL     1       1.705  56.808  -7.814  1.00  0.00     0.035 C 
HETATM    9  C30 UNL     1       2.904  55.372  -9.631  1.00  0.00    -0.016 C 
HETATM   10  C8  UNL     1       2.977  56.785  -6.968  1.00  0.00     0.010 C 
HETATM   11  C7  UNL     1       4.228  56.745  -7.859  1.00  0.00    -0.004 C 
HETATM   12  C6  UNL     1       5.601  56.890  -7.146  1.00  0.00    -0.001 C 
HETATM   13  C32 UNL     1       4.196  55.462  -8.727  1.00  0.00     0.002 C 
HETATM   14  C5  UNL     1       5.640  57.784  -5.908  1.00  0.00     0.006 C 
HETATM   15  C35 UNL     1       6.332  55.569  -6.733  1.00  0.00    -0.030 C 
HETATM   16  C4  UNL     1       6.968  57.411  -5.263  1.00  0.00     0.013 C 
HETATM   17  C3  UNL     1       6.937  55.882  -5.321  1.00  0.00     0.063 C 
HETATM   18  C34 UNL     1       5.342  54.405  -6.631  1.00  0.00     0.011 C 
HETATM   19  C36 UNL     1       7.439  55.252  -7.773  1.00  0.00     0.016 C 
HETATM   20  C33 UNL     1       4.455  54.202  -7.860  1.00  0.00     0.007 C 
HETATM   21  C29 UNL     1       2.754  53.937 -10.216  1.00  0.00     0.020 C 
HETATM   22  C31 UNL     1       3.055  56.380 -10.796  1.00  0.00     0.020 C 
ATOM     23  H1  UNL     1      -0.946  53.367 -11.735  1.00  0.00     0.194 HD
BRANCH  17  24
HETATM   24  C2  UNL     1       8.258  55.176  -4.988  1.00  0.00     0.128 C 
HETATM   25  C1  UNL     1       8.199  53.777  -4.421  1.00  0.00     0.091 C 
HETATM   26  O1  UNL     1       9.349  55.684  -5.280  1.00  0.00    -0.298 OA
ENDBRANCH  17  24
ENDBRANCH   2   3
ENDBRANCH   1   2
BRANCH   1  27
HETATM   27  C14 UNL     1      -2.942  52.668 -11.452  1.00  0.00     0.244 C 
HETATM   28  O3  UNL     1      -2.750  51.700 -10.719  1.00  0.00    -0.271 OA
HETATM   29  N2  UNL     1      -2.867  52.586 -12.824  1.00  0.00    -0.350 N 
HETATM   30  H18 UNL     1      -2.943  53.440 -13.363  1.00  0.00     0.163 HD
BRANCH  29  31
HETATM   31  C15 UNL     1      -2.245  51.429 -13.458  1.00  0.00     0.225 C 
BRANCH  31  32
HETATM   32  C16 UNL     1      -0.868  51.639 -14.082  1.00  0.00     0.236 C 
HETATM   33  O4  UNL     1      -0.174  52.612 -13.786  1.00  0.00    -0.272 OA
HETATM   34  N3  UNL     1      -0.416  50.639 -14.912  1.00  0.00    -0.345 N 
HETATM   35  H21 UNL     1      -1.113  50.025 -15.313  1.00  0.00     0.163 HD
BRANCH  34  36
HETATM   36  C17 UNL     1       0.813  50.841 -15.692  1.00  0.00     0.186 C 
BRANCH  36  37
HETATM   37  C18 UNL     1       0.676  51.890 -16.802  1.00  0.00     0.077 C 
BRANCH  37  38
HETATM   38  C19 UNL     1       0.245  51.442 -18.172  1.00  0.00    -0.028 A 
HETATM   39  C20 UNL     1      -0.491  50.329 -18.551  1.00  0.00     0.096 A 
HETATM   40  N4  UNL     1      -0.653  50.367 -19.912  1.00  0.00    -0.365 N 
HETATM   41  C21 UNL     1      -0.068  51.492 -20.437  1.00  0.00     0.042 A 
HETATM   42  H26 UNL     1      -1.149  49.678 -20.459  1.00  0.00     0.165 HD
HETATM   43  C22 UNL     1      -0.017  51.946 -21.762  1.00  0.00     0.030 A 
HETATM   44  C26 UNL     1       0.521  52.180 -19.377  1.00  0.00    -0.002 A 
HETATM   45  C23 UNL     1       0.660  53.145 -22.008  1.00  0.00     0.002 A 
HETATM   46  C24 UNL     1       1.268  53.852 -20.970  1.00  0.00     0.001 A 
HETATM   47  C25 UNL     1       1.210  53.379 -19.655  1.00  0.00     0.014 A 
ENDBRANCH  37  38
ENDBRANCH  36  37
BRANCH  36  48
HETATM   48  C27 UNL     1       2.004  51.118 -14.770  1.00  0.00     0.163 C 
HETATM   49  O5  UNL     1       2.496  50.344 -13.962  1.00  0.00    -0.648 OA
BRANCH  48  50
HETATM   50  O6  UNL     1       2.524  52.357 -14.931  1.00  0.00    -0.775 OA
HETATM   51  H31 UNL     1       3.288  52.376 -14.308  1.00  0.00     0.167 HD
ENDBRANCH  48  50
ENDBRANCH  36  48
ENDBRANCH  34  36
ENDBRANCH  31  32
ENDBRANCH  29  31
ENDBRANCH   1  27
TORSDOF 11
ENDMDL
MODEL 9
REMARK minimizedAffinity -9.56482124
REMARK CNNscore 0.232391328
REMARK CNNaffinity 5.49503136
REMARK  11 active torsions:
REMARK  status: ('A' for Active; 'I' for Inactive)
REMARK    1  A    between atoms: C2_2  and  C3_4 
REMARK    2  A    between atoms: N1_14  and  O2_16 
REMARK    3  A    between atoms: O2_16  and  C13_17 
REMARK    4  A    between atoms: C13_17  and  C14_18 
REMARK       I    between atoms: C14_18  and  N2_20 
REMARK    5  A    between atoms: N2_20  and  C15_21 
REMARK    6  A    between atoms: C15_21  and  C16_22 
REMARK       I    between atoms: C16_22  and  N3_24 
REMARK    7  A    between atoms: N3_24  and  C17_25 
REMARK    8  A    between atoms: C17_25  and  C18_26 
REMARK    9  A    between atoms: C17_25  and  C27_36 
REMARK   10  A    between atoms: C18_26  and  C19_27 
REMARK   11  A    between atoms: C27_36  and  O6_38 
ROOT
HETATM    1  C13 UNL     1      -8.942  49.214 -18.453  1.00  0.00     0.303 C 
ENDROOT
BRANCH   1   2
HETATM    2  O2  UNL     1      -9.946  48.360 -18.990  1.00  0.00    -0.271 OA
BRANCH   2   3
HETATM    3  N1  UNL     1     -10.719  47.885 -17.921  1.00  0.00    -0.271 N 
HETATM    4  C12 UNL     1     -11.904  47.485 -18.269  1.00  0.00     0.032 C 
HETATM    5  C11 UNL     1     -12.431  47.420 -19.663  1.00  0.00     0.030 C 
HETATM    6  C28 UNL     1     -12.837  47.151 -17.119  1.00  0.00     0.060 C 
HETATM    7  C10 UNL     1     -13.753  47.334 -19.913  1.00  0.00    -0.069 C 
HETATM    8  C9  UNL     1     -14.250  47.484 -21.333  1.00  0.00     0.035 C 
HETATM    9  C30 UNL     1     -14.796  47.223 -18.796  1.00  0.00    -0.016 C 
HETATM   10  C8  UNL     1     -15.491  46.662 -21.676  1.00  0.00     0.010 C 
HETATM   11  C7  UNL     1     -16.603  46.887 -20.640  1.00  0.00    -0.004 C 
HETATM   12  C6  UNL     1     -17.987  46.251 -20.948  1.00  0.00    -0.001 C 
HETATM   13  C32 UNL     1     -16.097  46.447 -19.245  1.00  0.00     0.002 C 
HETATM   14  C5  UNL     1     -18.392  46.169 -22.419  1.00  0.00     0.006 C 
HETATM   15  C35 UNL     1     -18.264  44.829 -20.357  1.00  0.00    -0.030 C 
HETATM   16  C4  UNL     1     -19.559  45.190 -22.394  1.00  0.00     0.013 C 
HETATM   17  C3  UNL     1     -19.021  44.070 -21.501  1.00  0.00     0.063 C 
HETATM   18  C34 UNL     1     -16.952  44.108 -20.031  1.00  0.00     0.011 C 
HETATM   19  C36 UNL     1     -19.139  44.967 -19.084  1.00  0.00     0.016 C 
HETATM   20  C33 UNL     1     -15.976  44.903 -19.163  1.00  0.00     0.007 C 
HETATM   21  C29 UNL     1     -14.146  46.522 -17.568  1.00  0.00     0.020 C 
HETATM   22  C31 UNL     1     -15.202  48.664 -18.401  1.00  0.00     0.020 C 
ATOM     23  H1  UNL     1     -10.382  47.857 -16.958  1.00  0.00     0.194 HD
BRANCH  17  24
HETATM   24  C2  UNL     1     -20.051  43.029 -21.045  1.00  0.00     0.128 C 
HETATM   25  C1  UNL     1     -19.548  41.722 -20.480  1.00  0.00     0.091 C 
HETATM   26  O1  UNL     1     -21.262  43.289 -21.028  1.00  0.00    -0.298 OA
ENDBRANCH  17  24
ENDBRANCH   2   3
ENDBRANCH   1   2
BRANCH   1  27
HETATM   27  C14 UNL     1      -7.502  48.805 -18.755  1.00  0.00     0.244 C 
HETATM   28  O3  UNL     1      -6.933  47.918 -18.122  1.00  0.00    -0.271 OA
HETATM   29  N2  UNL     1      -6.856  49.576 -19.696  1.00  0.00    -0.350 N 
HETATM   30  H18 UNL     1      -7.359  50.351 -20.111  1.00  0.00     0.163 HD
BRANCH  29  31
HETATM   31  C15 UNL     1      -5.399  49.591 -19.759  1.00  0.00     0.225 C 
BRANCH  31  32
HETATM   32  C16 UNL     1      -4.768  49.776 -21.137  1.00  0.00     0.236 C 
HETATM   33  O4  UNL     1      -4.536  48.813 -21.868  1.00  0.00    -0.272 OA
HETATM   34  N3  UNL     1      -4.566  51.075 -21.544  1.00  0.00    -0.345 N 
HETATM   35  H21 UNL     1      -4.525  51.782 -20.821  1.00  0.00     0.163 HD
BRANCH  34  36
HETATM   36  C17 UNL     1      -3.803  51.341 -22.772  1.00  0.00     0.186 C 
BRANCH  36  37
HETATM   37  C18 UNL     1      -2.408  50.703 -22.785  1.00  0.00     0.077 C 
BRANCH  37  38
HETATM   38  C19 UNL     1      -1.206  51.594 -22.941  1.00  0.00    -0.028 A 
HETATM   39  C20 UNL     1      -0.586  52.053 -24.093  1.00  0.00     0.096 A 
HETATM   40  N4  UNL     1       0.457  52.862 -23.723  1.00  0.00    -0.365 N 
HETATM   41  C21 UNL     1       0.523  52.972 -22.357  1.00  0.00     0.042 A 
HETATM   42  H26 UNL     1       1.084  53.333 -24.360  1.00  0.00     0.165 HD
HETATM   43  C22 UNL     1       1.401  53.711 -21.553  1.00  0.00     0.030 A 
HETATM   44  C26 UNL     1      -0.494  52.174 -21.833  1.00  0.00    -0.002 A 
HETATM   45  C23 UNL     1       1.231  53.631 -20.167  1.00  0.00     0.002 A 
HETATM   46  C24 UNL     1       0.230  52.833 -19.612  1.00  0.00     0.001 A 
HETATM   47  C25 UNL     1      -0.632  52.099 -20.431  1.00  0.00     0.014 A 
ENDBRANCH  37  38
ENDBRANCH  36  37
BRANCH  36  48
HETATM   48  C27 UNL     1      -4.623  50.977 -24.013  1.00  0.00     0.163 C 
HETATM   49  O5  UNL     1      -4.571  49.930 -24.641  1.00  0.00    -0.648 OA
BRANCH  48  50
HETATM   50  O6  UNL     1      -5.484  51.954 -24.386  1.00  0.00    -0.775 OA
HETATM   51  H31 UNL     1      -5.955  51.570 -25.162  1.00  0.00     0.167 HD
ENDBRANCH  48  50
ENDBRANCH  36  48
ENDBRANCH  34  36
ENDBRANCH  31  32
ENDBRANCH  29  31
ENDBRANCH   1  27
TORSDOF 11
ENDMDL
