MODEL 1
REMARK minimizedAffinity -6.54522657
REMARK CNNscore 0.605118811
REMARK CNNaffinity 6.36019468
REMARK  10 active torsions:
REMARK  status: ('A' for Active; 'I' for Inactive)
REMARK    1  A    between atoms: C2_2  and  C3_3 
REMARK    2  A    between atoms: C2_2  and  C9_11 
REMARK    3  A    between atoms: C3_3  and  C4_4 
REMARK    4  A    between atoms: C4_4  and  C5_5 
REMARK    5  A    between atoms: C5_5  and  O1_6 
REMARK    6  A    between atoms: C5_5  and  C6_7 
REMARK    7  A    between atoms: C6_7  and  O2_10 
REMARK    8  A    between atoms: C12_14  and  C13_15 
REMARK    9  A    between atoms: C13_15  and  O4_17 
REMARK   10  A    between atoms: C21_25  and  O5_26 
ROOT
HETATM    1  C9  UNL     1     -14.981   7.285  24.387  1.00  0.00    -0.001 C 
HETATM    2  C10 UNL     1     -13.945   6.944  25.491  1.00  0.00     0.007 C 
HETATM    3  C11 UNL     1     -12.623   7.650  25.087  1.00  0.00     0.022 C 
HETATM    4  C12 UNL     1     -13.047   8.668  24.006  1.00  0.00     0.057 C 
HETATM    5  C14 UNL     1     -11.955   9.209  23.039  1.00  0.00     0.010 C 
HETATM    6  C15 UNL     1     -10.774   9.914  23.731  1.00  0.00     0.010 C 
HETATM    7  C16 UNL     1     -10.812  11.442  23.739  1.00  0.00     0.036 C 
HETATM    8  C17 UNL     1     -10.332  12.114  22.458  1.00  0.00    -0.067 C 
HETATM    9  C18 UNL     1     -10.641  11.656  21.218  1.00  0.00    -0.076 C 
HETATM   10  C19 UNL     1     -10.082  12.293  19.957  1.00  0.00     0.037 C 
HETATM   11  C20 UNL     1      -8.915  13.243  20.173  1.00  0.00     0.037 C 
HETATM   12  C21 UNL     1      -9.192  14.167  21.347  1.00  0.00     0.130 C 
HETATM   13  C22 UNL     1      -9.433  13.366  22.668  1.00  0.00     0.002 C 
HETATM   14  C23 UNL     1     -10.050  14.333  23.707  1.00  0.00     0.022 C 
HETATM   15  C24 UNL     1      -8.056  12.894  23.197  1.00  0.00     0.022 C 
HETATM   16  C25 UNL     1     -11.589  10.517  20.868  1.00  0.00     0.039 C 
HETATM   17  C26 UNL     1     -12.619  10.051  21.912  1.00  0.00    -0.005 C 
HETATM   18  C27 UNL     1     -13.762   9.283  21.194  1.00  0.00     0.006 C 
HETATM   19  C28 UNL     1     -14.790   8.623  22.130  1.00  0.00     0.011 C 
HETATM   20  C29 UNL     1     -14.095   7.781  23.209  1.00  0.00    -0.022 C 
HETATM   21  C30 UNL     1     -13.432   6.570  22.477  1.00  0.00     0.017 C 
ENDROOT
BRANCH   1  22
HETATM   22  C2  UNL     1     -16.186   6.325  24.181  1.00  0.00    -0.014 C 
HETATM   23  C1  UNL     1     -17.352   6.755  25.091  1.00  0.00     0.010 C 
BRANCH  22  24
HETATM   24  C3  UNL     1     -16.023   4.791  24.234  1.00  0.00     0.007 C 
BRANCH  24  25
HETATM   25  C4  UNL     1     -14.656   4.244  24.632  1.00  0.00     0.035 C 
BRANCH  25  26
HETATM   26  C5  UNL     1     -14.666   2.831  25.238  1.00  0.00     0.151 C 
BRANCH  26  27
HETATM   27  O1  UNL     1     -15.744   2.122  24.593  1.00  0.00    -0.393 OA
HETATM   28  H10 UNL     1     -15.342   1.407  24.061  1.00  0.00     0.210 HD
ENDBRANCH  26  27
BRANCH  26  29
HETATM   29  C6  UNL     1     -13.369   1.970  25.144  1.00  0.00     0.076 C 
HETATM   30  C7  UNL     1     -12.709   1.744  26.505  1.00  0.00     0.048 C 
HETATM   31  C8  UNL     1     -12.354   2.501  24.131  1.00  0.00     0.048 C 
BRANCH  29  32
HETATM   32  O2  UNL     1     -13.757   0.664  24.661  1.00  0.00    -0.388 OA
HETATM   33  H17 UNL     1     -14.590   0.423  25.111  1.00  0.00     0.210 HD
ENDBRANCH  29  32
ENDBRANCH  26  29
ENDBRANCH  25  26
ENDBRANCH  24  25
ENDBRANCH  22  24
ENDBRANCH   1  22
BRANCH   4  34
HETATM   34  C13 UNL     1     -13.674   9.891  24.739  1.00  0.00     0.149 C 
HETATM   35  O3  UNL     1     -14.545  10.642  24.334  1.00  0.00    -0.649 OA
BRANCH  34  36
HETATM   36  O4  UNL     1     -13.131  10.141  25.948  1.00  0.00    -0.776 OA
HETATM   37  H23 UNL     1     -13.615  10.937  26.257  1.00  0.00     0.167 HD
ENDBRANCH  34  36
ENDBRANCH   4  34
BRANCH  12  38
HETATM   38  O5  UNL     1     -10.310  15.005  21.033  1.00  0.00    -0.394 OA
HETATM   39  H34 UNL     1     -10.095  15.489  20.219  1.00  0.00     0.210 HD
ENDBRANCH  12  38
TORSDOF 10
ENDMDL
MODEL 2
REMARK minimizedAffinity -9.17251205
REMARK CNNscore 0.57256031
REMARK CNNaffinity 7.13036871
REMARK  10 active torsions:
REMARK  status: ('A' for Active; 'I' for Inactive)
REMARK    1  A    between atoms: C2_2  and  C3_3 
REMARK    2  A    between atoms: C2_2  and  C9_11 
REMARK    3  A    between atoms: C3_3  and  C4_4 
REMARK    4  A    between atoms: C4_4  and  C5_5 
REMARK    5  A    between atoms: C5_5  and  O1_6 
REMARK    6  A    between atoms: C5_5  and  C6_7 
REMARK    7  A    between atoms: C6_7  and  O2_10 
REMARK    8  A    between atoms: C12_14  and  C13_15 
REMARK    9  A    between atoms: C13_15  and  O4_17 
REMARK   10  A    between atoms: C21_25  and  O5_26 
ROOT
HETATM    1  C9  UNL     1       0.920   7.081  12.739  1.00  0.00    -0.001 C 
HETATM    2  C10 UNL     1       1.157   5.905  13.722  1.00  0.00     0.007 C 
HETATM    3  C11 UNL     1      -0.226   5.554  14.331  1.00  0.00     0.022 C 
HETATM    4  C12 UNL     1      -1.242   6.256  13.403  1.00  0.00     0.057 C 
HETATM    5  C14 UNL     1      -2.671   6.531  13.955  1.00  0.00     0.010 C 
HETATM    6  C15 UNL     1      -3.435   5.276  14.416  1.00  0.00     0.010 C 
HETATM    7  C16 UNL     1      -4.466   4.717  13.435  1.00  0.00     0.036 C 
HETATM    8  C17 UNL     1      -5.818   5.419  13.437  1.00  0.00    -0.067 C 
HETATM    9  C18 UNL     1      -5.955   6.766  13.524  1.00  0.00    -0.076 C 
HETATM   10  C19 UNL     1      -7.315   7.438  13.608  1.00  0.00     0.037 C 
HETATM   11  C20 UNL     1      -8.478   6.510  13.922  1.00  0.00     0.037 C 
HETATM   12  C21 UNL     1      -8.387   5.242  13.090  1.00  0.00     0.130 C 
HETATM   13  C22 UNL     1      -7.051   4.473  13.354  1.00  0.00     0.002 C 
HETATM   14  C23 UNL     1      -6.877   3.421  12.234  1.00  0.00     0.022 C 
HETATM   15  C24 UNL     1      -7.188   3.730  14.706  1.00  0.00     0.022 C 
HETATM   16  C25 UNL     1      -4.844   7.808  13.503  1.00  0.00     0.039 C 
HETATM   17  C26 UNL     1      -3.461   7.417  12.952  1.00  0.00    -0.005 C 
HETATM   18  C27 UNL     1      -2.686   8.705  12.560  1.00  0.00     0.006 C 
HETATM   19  C28 UNL     1      -1.225   8.480  12.134  1.00  0.00     0.011 C 
HETATM   20  C29 UNL     1      -0.474   7.624  13.164  1.00  0.00    -0.022 C 
HETATM   21  C30 UNL     1      -0.351   8.486  14.461  1.00  0.00     0.017 C 
ENDROOT
BRANCH   1  22
HETATM   22  C2  UNL     1       2.115   8.017  12.400  1.00  0.00    -0.014 C 
HETATM   23  C1  UNL     1       2.092   9.242  13.333  1.00  0.00     0.010 C 
BRANCH  22  24
HETATM   24  C3  UNL     1       2.410   8.469  10.954  1.00  0.00     0.007 C 
BRANCH  24  25
HETATM   25  C4  UNL     1       3.356   7.604  10.128  1.00  0.00     0.035 C 
BRANCH  25  26
HETATM   26  C5  UNL     1       2.708   6.867   8.945  1.00  0.00     0.151 C 
BRANCH  26  27
HETATM   27  O1  UNL     1       1.735   5.967   9.514  1.00  0.00    -0.393 OA
HETATM   28  H10 UNL     1       0.853   6.277   9.227  1.00  0.00     0.210 HD
ENDBRANCH  26  27
BRANCH  26  29
HETATM   29  C6  UNL     1       2.021   7.710   7.827  1.00  0.00     0.076 C 
HETATM   30  C7  UNL     1       0.666   8.272   8.259  1.00  0.00     0.048 C 
HETATM   31  C8  UNL     1       1.901   6.973   6.492  1.00  0.00     0.048 C 
BRANCH  29  32
HETATM   32  O2  UNL     1       2.869   8.852   7.568  1.00  0.00    -0.388 OA
HETATM   33  H17 UNL     1       3.191   9.175   8.432  1.00  0.00     0.210 HD
ENDBRANCH  29  32
ENDBRANCH  26  29
ENDBRANCH  25  26
ENDBRANCH  24  25
ENDBRANCH  22  24
ENDBRANCH   1  22
BRANCH   4  34
HETATM   34  C13 UNL     1      -1.392   5.376  12.127  1.00  0.00     0.149 C 
HETATM   35  O3  UNL     1      -1.622   5.743  10.987  1.00  0.00    -0.649 OA
BRANCH  34  36
HETATM   36  O4  UNL     1      -1.289   4.052  12.360  1.00  0.00    -0.776 OA
HETATM   37  H23 UNL     1      -1.424   3.651  11.474  1.00  0.00     0.167 HD
ENDBRANCH  34  36
ENDBRANCH   4  34
BRANCH  12  38
HETATM   38  O5  UNL     1      -8.532   5.577  11.706  1.00  0.00    -0.394 OA
HETATM   39  H34 UNL     1      -9.383   6.032  11.600  1.00  0.00     0.210 HD
ENDBRANCH  12  38
TORSDOF 10
ENDMDL
MODEL 3
REMARK minimizedAffinity -7.51307249
REMARK CNNscore 0.571369767
REMARK CNNaffinity 6.06128359
REMARK  10 active torsions:
REMARK  status: ('A' for Active; 'I' for Inactive)
REMARK    1  A    between atoms: C2_2  and  C3_3 
REMARK    2  A    between atoms: C2_2  and  C9_11 
REMARK    3  A    between atoms: C3_3  and  C4_4 
REMARK    4  A    between atoms: C4_4  and  C5_5 
REMARK    5  A    between atoms: C5_5  and  O1_6 
REMARK    6  A    between atoms: C5_5  and  C6_7 
REMARK    7  A    between atoms: C6_7  and  O2_10 
REMARK    8  A    between atoms: C12_14  and  C13_15 
REMARK    9  A    between atoms: C13_15  and  O4_17 
REMARK   10  A    between atoms: C21_25  and  O5_26 
ROOT
HETATM    1  C9  UNL     1      10.879  13.211  18.808  1.00  0.00    -0.001 C 
HETATM    2  C10 UNL     1      10.859  14.270  19.941  1.00  0.00     0.007 C 
HETATM    3  C11 UNL     1       9.391  14.361  20.434  1.00  0.00     0.022 C 
HETATM    4  C12 UNL     1       8.714  13.099  19.856  1.00  0.00     0.057 C 
HETATM    5  C14 UNL     1       7.163  13.090  19.732  1.00  0.00     0.010 C 
HETATM    6  C15 UNL     1       6.410  13.306  21.057  1.00  0.00     0.010 C 
HETATM    7  C16 UNL     1       5.862  12.050  21.735  1.00  0.00     0.036 C 
HETATM    8  C17 UNL     1       4.539  11.535  21.184  1.00  0.00    -0.067 C 
HETATM    9  C18 UNL     1       4.248  11.502  19.858  1.00  0.00    -0.076 C 
HETATM   10  C19 UNL     1       2.891  11.062  19.337  1.00  0.00     0.037 C 
HETATM   11  C20 UNL     1       1.790  10.984  20.382  1.00  0.00     0.037 C 
HETATM   12  C21 UNL     1       2.298  10.302  21.641  1.00  0.00     0.130 C 
HETATM   13  C22 UNL     1       3.517  11.063  22.258  1.00  0.00     0.002 C 
HETATM   14  C23 UNL     1       4.185  10.131  23.297  1.00  0.00     0.022 C 
HETATM   15  C24 UNL     1       2.974  12.311  22.998  1.00  0.00     0.022 C 
HETATM   16  C25 UNL     1       5.185  11.829  18.703  1.00  0.00     0.039 C 
HETATM   17  C26 UNL     1       6.705  11.828  18.947  1.00  0.00    -0.005 C 
HETATM   18  C27 UNL     1       7.439  11.677  17.587  1.00  0.00     0.006 C 
HETATM   19  C28 UNL     1       8.970  11.813  17.656  1.00  0.00     0.011 C 
HETATM   20  C29 UNL     1       9.379  13.084  18.415  1.00  0.00    -0.022 C 
HETATM   21  C30 UNL     1       8.941  14.295  17.531  1.00  0.00     0.017 C 
ENDROOT
BRANCH   1  22
HETATM   22  C2  UNL     1      12.018  13.278  17.752  1.00  0.00    -0.014 C 
HETATM   23  C1  UNL     1      12.009  11.994  16.901  1.00  0.00     0.010 C 
BRANCH  22  24
HETATM   24  C3  UNL     1      13.468  13.635  18.141  1.00  0.00     0.007 C 
BRANCH  24  25
HETATM   25  C4  UNL     1      14.334  12.522  18.721  1.00  0.00     0.035 C 
BRANCH  25  26
HETATM   26  C5  UNL     1      15.397  12.977  19.733  1.00  0.00     0.151 C 
BRANCH  26  27
HETATM   27  O1  UNL     1      14.986  12.455  21.014  1.00  0.00    -0.393 OA
HETATM   28  H10 UNL     1      15.654  11.795  21.285  1.00  0.00     0.210 HD
ENDBRANCH  26  27
BRANCH  26  29
HETATM   29  C6  UNL     1      16.885  12.580  19.483  1.00  0.00     0.076 C 
HETATM   30  C7  UNL     1      17.842  13.205  20.499  1.00  0.00     0.048 C 
HETATM   31  C8  UNL     1      17.358  12.853  18.054  1.00  0.00     0.048 C 
BRANCH  29  32
HETATM   32  O2  UNL     1      16.982  11.149  19.662  1.00  0.00    -0.388 OA
HETATM   33  H17 UNL     1      16.435  10.916  20.436  1.00  0.00     0.210 HD
ENDBRANCH  29  32
ENDBRANCH  26  29
ENDBRANCH  25  26
ENDBRANCH  24  25
ENDBRANCH  22  24
ENDBRANCH   1  22
BRANCH   4  34
HETATM   34  C13 UNL     1       9.121  11.897  20.759  1.00  0.00     0.149 C 
HETATM   35  O3  UNL     1       9.106  11.835  21.976  1.00  0.00    -0.649 OA
BRANCH  34  36
HETATM   36  O4  UNL     1       9.580  10.830  20.074  1.00  0.00    -0.776 OA
HETATM   37  H23 UNL     1       9.806  10.185  20.779  1.00  0.00     0.167 HD
ENDBRANCH  34  36
ENDBRANCH   4  34
BRANCH  12  38
HETATM   38  O5  UNL     1       2.630   8.943  21.338  1.00  0.00    -0.394 OA
HETATM   39  H34 UNL     1       1.834   8.518  20.979  1.00  0.00     0.210 HD
ENDBRANCH  12  38
TORSDOF 10
ENDMDL
MODEL 4
REMARK minimizedAffinity -10.5533543
REMARK CNNscore 0.551496625
REMARK CNNaffinity 7.15174246
REMARK  10 active torsions:
REMARK  status: ('A' for Active; 'I' for Inactive)
REMARK    1  A    between atoms: C2_2  and  C3_3 
REMARK    2  A    between atoms: C2_2  and  C9_11 
REMARK    3  A    between atoms: C3_3  and  C4_4 
REMARK    4  A    between atoms: C4_4  and  C5_5 
REMARK    5  A    between atoms: C5_5  and  O1_6 
REMARK    6  A    between atoms: C5_5  and  C6_7 
REMARK    7  A    between atoms: C6_7  and  O2_10 
REMARK    8  A    between atoms: C12_14  and  C13_15 
REMARK    9  A    between atoms: C13_15  and  O4_17 
REMARK   10  A    between atoms: C21_25  and  O5_26 
ROOT
HETATM    1  C9  UNL     1       0.928   7.365  13.055  1.00  0.00    -0.001 C 
HETATM    2  C10 UNL     1       0.434   8.827  12.898  1.00  0.00     0.007 C 
HETATM    3  C11 UNL     1      -1.108   8.757  12.745  1.00  0.00     0.022 C 
HETATM    4  C12 UNL     1      -1.475   7.330  13.208  1.00  0.00     0.057 C 
HETATM    5  C14 UNL     1      -2.839   6.738  12.749  1.00  0.00     0.010 C 
HETATM    6  C15 UNL     1      -4.071   7.561  13.168  1.00  0.00     0.010 C 
HETATM    7  C16 UNL     1      -4.833   7.058  14.393  1.00  0.00     0.036 C 
HETATM    8  C17 UNL     1      -5.810   5.918  14.132  1.00  0.00    -0.067 C 
HETATM    9  C18 UNL     1      -5.532   4.876  13.308  1.00  0.00    -0.076 C 
HETATM   10  C19 UNL     1      -6.552   3.793  12.997  1.00  0.00     0.037 C 
HETATM   11  C20 UNL     1      -7.983   4.120  13.391  1.00  0.00     0.037 C 
HETATM   12  C21 UNL     1      -8.027   4.730  14.783  1.00  0.00     0.130 C 
HETATM   13  C22 UNL     1      -7.176   6.039  14.866  1.00  0.00     0.002 C 
HETATM   14  C23 UNL     1      -6.981   6.386  16.361  1.00  0.00     0.022 C 
HETATM   15  C24 UNL     1      -7.988   7.178  14.201  1.00  0.00     0.022 C 
HETATM   16  C25 UNL     1      -4.208   4.577  12.616  1.00  0.00     0.039 C 
HETATM   17  C26 UNL     1      -2.921   5.236  13.145  1.00  0.00    -0.005 C 
HETATM   18  C27 UNL     1      -1.693   4.425  12.650  1.00  0.00     0.006 C 
HETATM   19  C28 UNL     1      -0.326   5.053  12.974  1.00  0.00     0.011 C 
HETATM   20  C29 UNL     1      -0.278   6.526  12.543  1.00  0.00    -0.022 C 
HETATM   21  C30 UNL     1      -0.329   6.540  10.982  1.00  0.00     0.017 C 
ENDROOT
BRANCH   1  22
HETATM   22  C2  UNL     1       2.398   7.035  12.674  1.00  0.00    -0.014 C 
HETATM   23  C1  UNL     1       3.288   8.266  12.927  1.00  0.00     0.010 C 
BRANCH  22  24
HETATM   24  C3  UNL     1       2.764   6.399  11.315  1.00  0.00     0.007 C 
BRANCH  24  25
HETATM   25  C4  UNL     1       3.300   7.325  10.229  1.00  0.00     0.035 C 
BRANCH  25  26
HETATM   26  C5  UNL     1       3.044   6.861   8.786  1.00  0.00     0.151 C 
BRANCH  26  27
HETATM   27  O1  UNL     1       2.377   5.586   8.884  1.00  0.00    -0.393 OA
HETATM   28  H10 UNL     1       1.472   5.705   8.532  1.00  0.00     0.210 HD
ENDBRANCH  26  27
BRANCH  26  29
HETATM   29  C6  UNL     1       2.222   7.788   7.838  1.00  0.00     0.076 C 
HETATM   30  C7  UNL     1       0.984   8.377   8.516  1.00  0.00     0.048 C 
HETATM   31  C8  UNL     1       1.849   7.127   6.510  1.00  0.00     0.048 C 
BRANCH  29  32
HETATM   32  O2  UNL     1       3.068   8.908   7.494  1.00  0.00    -0.388 OA
HETATM   33  H17 UNL     1       3.543   9.173   8.306  1.00  0.00     0.210 HD
ENDBRANCH  29  32
ENDBRANCH  26  29
ENDBRANCH  25  26
ENDBRANCH  24  25
ENDBRANCH  22  24
ENDBRANCH   1  22
BRANCH   4  34
HETATM   34  C13 UNL     1      -1.459   7.326  14.765  1.00  0.00     0.149 C 
HETATM   35  O3  UNL     1      -1.775   8.229  15.520  1.00  0.00    -0.649 OA
BRANCH  34  36
HETATM   36  O4  UNL     1      -0.994   6.180  15.304  1.00  0.00    -0.776 OA
HETATM   37  H23 UNL     1      -1.031   6.349  16.270  1.00  0.00     0.167 HD
ENDBRANCH  34  36
ENDBRANCH   4  34
BRANCH  12  38
HETATM   38  O5  UNL     1      -7.585   3.758  15.735  1.00  0.00    -0.394 OA
HETATM   39  H34 UNL     1      -8.159   2.979  15.650  1.00  0.00     0.210 HD
ENDBRANCH  12  38
TORSDOF 10
ENDMDL
MODEL 5
REMARK minimizedAffinity -6.66838455
REMARK CNNscore 0.452447832
REMARK CNNaffinity 5.86086321
REMARK  10 active torsions:
REMARK  status: ('A' for Active; 'I' for Inactive)
REMARK    1  A    between atoms: C2_2  and  C3_3 
REMARK    2  A    between atoms: C2_2  and  C9_11 
REMARK    3  A    between atoms: C3_3  and  C4_4 
REMARK    4  A    between atoms: C4_4  and  C5_5 
REMARK    5  A    between atoms: C5_5  and  O1_6 
REMARK    6  A    between atoms: C5_5  and  C6_7 
REMARK    7  A    between atoms: C6_7  and  O2_10 
REMARK    8  A    between atoms: C12_14  and  C13_15 
REMARK    9  A    between atoms: C13_15  and  O4_17 
REMARK   10  A    between atoms: C21_25  and  O5_26 
ROOT
HETATM    1  C9  UNL     1     -11.415  14.940   1.762  1.00  0.00    -0.001 C 
HETATM    2  C10 UNL     1     -12.546  14.438   2.698  1.00  0.00     0.007 C 
HETATM    3  C11 UNL     1     -12.079  14.726   4.149  1.00  0.00     0.022 C 
HETATM    4  C12 UNL     1     -10.907  15.719   3.983  1.00  0.00     0.057 C 
HETATM    5  C14 UNL     1      -9.894  15.859   5.156  1.00  0.00     0.010 C 
HETATM    6  C15 UNL     1     -10.517  16.284   6.498  1.00  0.00     0.010 C 
HETATM    7  C16 UNL     1     -10.381  17.762   6.866  1.00  0.00     0.036 C 
HETATM    8  C17 UNL     1      -9.043  18.162   7.476  1.00  0.00    -0.067 C 
HETATM    9  C18 UNL     1      -7.851  17.692   7.027  1.00  0.00    -0.076 C 
HETATM   10  C19 UNL     1      -6.536  18.040   7.703  1.00  0.00     0.037 C 
HETATM   11  C20 UNL     1      -6.663  18.662   9.085  1.00  0.00     0.037 C 
HETATM   12  C21 UNL     1      -7.745  19.729   9.091  1.00  0.00     0.130 C 
HETATM   13  C22 UNL     1      -9.135  19.143   8.680  1.00  0.00     0.002 C 
HETATM   14  C23 UNL     1     -10.077  20.330   8.366  1.00  0.00     0.022 C 
HETATM   15  C24 UNL     1      -9.707  18.373   9.895  1.00  0.00     0.022 C 
HETATM   16  C25 UNL     1      -7.609  16.819   5.802  1.00  0.00     0.039 C 
HETATM   17  C26 UNL     1      -8.692  16.741   4.712  1.00  0.00    -0.005 C 
HETATM   18  C27 UNL     1      -8.049  16.243   3.389  1.00  0.00     0.006 C 
HETATM   19  C28 UNL     1      -9.042  15.968   2.246  1.00  0.00     0.011 C 
HETATM   20  C29 UNL     1     -10.196  15.073   2.719  1.00  0.00    -0.022 C 
HETATM   21  C30 UNL     1      -9.582  13.669   3.019  1.00  0.00     0.017 C 
ENDROOT
BRANCH   1  22
HETATM   22  C2  UNL     1     -11.300  14.321   0.341  1.00  0.00    -0.014 C 
HETATM   23  C1  UNL     1     -10.540  15.289  -0.585  1.00  0.00     0.010 C 
BRANCH  22  24
HETATM   24  C3  UNL     1     -12.527  13.748  -0.399  1.00  0.00     0.007 C 
BRANCH  24  25
HETATM   25  C4  UNL     1     -12.853  12.274  -0.180  1.00  0.00     0.035 C 
BRANCH  25  26
HETATM   26  C5  UNL     1     -13.724  11.626  -1.269  1.00  0.00     0.151 C 
BRANCH  26  27
HETATM   27  O1  UNL     1     -12.905  11.561  -2.455  1.00  0.00    -0.393 OA
HETATM   28  H10 UNL     1     -12.748  10.615  -2.646  1.00  0.00     0.210 HD
ENDBRANCH  26  27
BRANCH  26  29
HETATM   29  C6  UNL     1     -14.331  10.215  -0.998  1.00  0.00     0.076 C 
HETATM   30  C7  UNL     1     -13.489   9.386  -0.028  1.00  0.00     0.048 C 
HETATM   31  C8  UNL     1     -14.627   9.422  -2.273  1.00  0.00     0.048 C 
BRANCH  29  32
HETATM   32  O2  UNL     1     -15.610  10.415  -0.355  1.00  0.00    -0.388 OA
HETATM   33  H17 UNL     1     -15.500  11.140   0.290  1.00  0.00     0.210 HD
ENDBRANCH  29  32
ENDBRANCH  26  29
ENDBRANCH  25  26
ENDBRANCH  24  25
ENDBRANCH  22  24
ENDBRANCH   1  22
BRANCH   4  34
HETATM   34  C13 UNL     1     -11.521  17.126   3.721  1.00  0.00     0.149 C 
HETATM   35  O3  UNL     1     -12.567  17.579   4.151  1.00  0.00    -0.649 OA
BRANCH  34  36
HETATM   36  O4  UNL     1     -10.797  17.889   2.878  1.00  0.00    -0.776 OA
HETATM   37  H23 UNL     1     -11.322  18.715   2.807  1.00  0.00     0.167 HD
ENDBRANCH  34  36
ENDBRANCH   4  34
BRANCH  12  38
HETATM   38  O5  UNL     1      -7.353  20.801   8.228  1.00  0.00    -0.394 OA
HETATM   39  H34 UNL     1      -6.496  21.135   8.543  1.00  0.00     0.210 HD
ENDBRANCH  12  38
TORSDOF 10
ENDMDL
MODEL 6
REMARK minimizedAffinity -6.35459709
REMARK CNNscore 0.367441863
REMARK CNNaffinity 5.93938875
REMARK  10 active torsions:
REMARK  status: ('A' for Active; 'I' for Inactive)
REMARK    1  A    between atoms: C2_2  and  C3_3 
REMARK    2  A    between atoms: C2_2  and  C9_11 
REMARK    3  A    between atoms: C3_3  and  C4_4 
REMARK    4  A    between atoms: C4_4  and  C5_5 
REMARK    5  A    between atoms: C5_5  and  O1_6 
REMARK    6  A    between atoms: C5_5  and  C6_7 
REMARK    7  A    between atoms: C6_7  and  O2_10 
REMARK    8  A    between atoms: C12_14  and  C13_15 
REMARK    9  A    between atoms: C13_15  and  O4_17 
REMARK   10  A    between atoms: C21_25  and  O5_26 
ROOT
HETATM    1  C9  UNL     1     -14.744   7.124  22.468  1.00  0.00    -0.001 C 
HETATM    2  C10 UNL     1     -15.864   8.130  22.094  1.00  0.00     0.007 C 
HETATM    3  C11 UNL     1     -15.237   9.545  22.197  1.00  0.00     0.022 C 
HETATM    4  C12 UNL     1     -13.714   9.288  22.236  1.00  0.00     0.057 C 
HETATM    5  C14 UNL     1     -12.797  10.405  22.812  1.00  0.00     0.010 C 
HETATM    6  C15 UNL     1     -12.898  11.759  22.085  1.00  0.00     0.010 C 
HETATM    7  C16 UNL     1     -11.792  12.066  21.075  1.00  0.00     0.036 C 
HETATM    8  C17 UNL     1     -10.493  12.596  21.670  1.00  0.00    -0.067 C 
HETATM    9  C18 UNL     1      -9.945  12.108  22.812  1.00  0.00    -0.076 C 
HETATM   10  C19 UNL     1      -8.694  12.707  23.431  1.00  0.00     0.037 C 
HETATM   11  C20 UNL     1      -8.292  14.070  22.889  1.00  0.00     0.037 C 
HETATM   12  C21 UNL     1      -8.388  14.090  21.373  1.00  0.00     0.130 C 
HETATM   13  C22 UNL     1      -9.837  13.766  20.882  1.00  0.00     0.002 C 
HETATM   14  C23 UNL     1      -9.769  13.455  19.368  1.00  0.00     0.022 C 
HETATM   15  C24 UNL     1     -10.702  15.035  21.082  1.00  0.00     0.022 C 
HETATM   16  C25 UNL     1     -10.418  10.906  23.619  1.00  0.00     0.039 C 
HETATM   17  C26 UNL     1     -11.342   9.872  22.951  1.00  0.00    -0.005 C 
HETATM   18  C27 UNL     1     -11.273   8.538  23.744  1.00  0.00     0.006 C 
HETATM   19  C28 UNL     1     -12.264   7.455  23.283  1.00  0.00     0.011 C 
HETATM   20  C29 UNL     1     -13.690   8.016  23.185  1.00  0.00    -0.022 C 
HETATM   21  C30 UNL     1     -14.148   8.336  24.643  1.00  0.00     0.017 C 
ENDROOT
BRANCH   1  22
HETATM   22  C2  UNL     1     -15.154   5.722  23.000  1.00  0.00    -0.014 C 
HETATM   23  C1  UNL     1     -16.095   5.883  24.209  1.00  0.00     0.010 C 
BRANCH  22  24
HETATM   24  C3  UNL     1     -14.108   4.626  23.297  1.00  0.00     0.007 C 
BRANCH  24  25
HETATM   25  C4  UNL     1     -13.752   4.373  24.757  1.00  0.00     0.035 C 
BRANCH  25  26
HETATM   26  C5  UNL     1     -13.957   2.928  25.242  1.00  0.00     0.151 C 
BRANCH  26  27
HETATM   27  O1  UNL     1     -15.015   2.376  24.429  1.00  0.00    -0.393 OA
HETATM   28  H10 UNL     1     -14.620   1.665  23.886  1.00  0.00     0.210 HD
ENDBRANCH  26  27
BRANCH  26  29
HETATM   29  C6  UNL     1     -12.741   1.952  25.215  1.00  0.00     0.076 C 
HETATM   30  C7  UNL     1     -12.216   1.624  26.614  1.00  0.00     0.048 C 
HETATM   31  C8  UNL     1     -11.603   2.417  24.305  1.00  0.00     0.048 C 
BRANCH  29  32
HETATM   32  O2  UNL     1     -13.206   0.703  24.654  1.00  0.00    -0.388 OA
HETATM   33  H17 UNL     1     -14.091   0.528  25.029  1.00  0.00     0.210 HD
ENDBRANCH  29  32
ENDBRANCH  26  29
ENDBRANCH  25  26
ENDBRANCH  24  25
ENDBRANCH  22  24
ENDBRANCH   1  22
BRANCH   4  34
HETATM   34  C13 UNL     1     -13.252   9.005  20.776  1.00  0.00     0.149 C 
HETATM   35  O3  UNL     1     -13.877   9.181  19.745  1.00  0.00    -0.649 OA
BRANCH  34  36
HETATM   36  O4  UNL     1     -12.022   8.459  20.689  1.00  0.00    -0.776 OA
HETATM   37  H23 UNL     1     -11.897   8.328  19.724  1.00  0.00     0.167 HD
ENDBRANCH  34  36
ENDBRANCH   4  34
BRANCH  12  38
HETATM   38  O5  UNL     1      -7.435  13.170  20.829  1.00  0.00    -0.394 OA
HETATM   39  H34 UNL     1      -6.557  13.432  21.152  1.00  0.00     0.210 HD
ENDBRANCH  12  38
TORSDOF 10
ENDMDL
MODEL 7
REMARK minimizedAffinity -8.23712063
REMARK CNNscore 0.341460675
REMARK CNNaffinity 6.22664833
REMARK  10 active torsions:
REMARK  status: ('A' for Active; 'I' for Inactive)
REMARK    1  A    between atoms: C2_2  and  C3_3 
REMARK    2  A    between atoms: C2_2  and  C9_11 
REMARK    3  A    between atoms: C3_3  and  C4_4 
REMARK    4  A    between atoms: C4_4  and  C5_5 
REMARK    5  A    between atoms: C5_5  and  O1_6 
REMARK    6  A    between atoms: C5_5  and  C6_7 
REMARK    7  A    between atoms: C6_7  and  O2_10 
REMARK    8  A    between atoms: C12_14  and  C13_15 
REMARK    9  A    between atoms: C13_15  and  O4_17 
REMARK   10  A    between atoms: C21_25  and  O5_26 
ROOT
HETATM    1  C9  UNL     1       7.890   9.890  14.667  1.00  0.00    -0.001 C 
HETATM    2  C10 UNL     1       8.750   8.802  13.973  1.00  0.00     0.007 C 
HETATM    3  C11 UNL     1       7.772   7.930  13.143  1.00  0.00     0.022 C 
HETATM    4  C12 UNL     1       6.476   8.768  13.073  1.00  0.00     0.057 C 
HETATM    5  C14 UNL     1       5.144   8.034  12.746  1.00  0.00     0.010 C 
HETATM    6  C15 UNL     1       5.138   7.280  11.404  1.00  0.00     0.010 C 
HETATM    7  C16 UNL     1       4.451   7.988  10.236  1.00  0.00     0.036 C 
HETATM    8  C17 UNL     1       2.933   7.863  10.199  1.00  0.00    -0.067 C 
HETATM    9  C18 UNL     1       2.153   7.947  11.306  1.00  0.00    -0.076 C 
HETATM   10  C19 UNL     1       0.649   7.737  11.256  1.00  0.00     0.037 C 
HETATM   11  C20 UNL     1       0.125   7.107   9.975  1.00  0.00     0.037 C 
HETATM   12  C21 UNL     1       0.771   7.754   8.761  1.00  0.00     0.130 C 
HETATM   13  C22 UNL     1       2.328   7.606   8.788  1.00  0.00     0.002 C 
HETATM   14  C23 UNL     1       2.917   8.579   7.739  1.00  0.00     0.022 C 
HETATM   15  C24 UNL     1       2.676   6.158   8.363  1.00  0.00     0.022 C 
HETATM   16  C25 UNL     1       2.597   8.299  12.720  1.00  0.00     0.039 C 
HETATM   17  C26 UNL     1       3.947   9.009  12.926  1.00  0.00    -0.005 C 
HETATM   18  C27 UNL     1       3.951   9.703  14.316  1.00  0.00     0.006 C 
HETATM   19  C28 UNL     1       5.296  10.326  14.727  1.00  0.00     0.011 C 
HETATM   20  C29 UNL     1       6.446   9.323  14.560  1.00  0.00    -0.022 C 
HETATM   21  C30 UNL     1       6.220   8.200  15.623  1.00  0.00     0.017 C 
ENDROOT
BRANCH   1  22
HETATM   22  C2  UNL     1       8.436  10.550  15.964  1.00  0.00    -0.014 C 
HETATM   23  C1  UNL     1       8.569  12.070  15.755  1.00  0.00     0.010 C 
BRANCH  22  24
HETATM   24  C3  UNL     1       9.690  10.012  16.686  1.00  0.00     0.007 C 
BRANCH  24  25
HETATM   25  C4  UNL     1      10.601  11.029  17.364  1.00  0.00     0.035 C 
BRANCH  25  26
HETATM   26  C5  UNL     1      10.832  10.804  18.867  1.00  0.00     0.151 C 
BRANCH  26  27
HETATM   27  O1  UNL     1      12.170  10.280  18.995  1.00  0.00    -0.393 OA
HETATM   28  H10 UNL     1      12.699  10.952  19.470  1.00  0.00     0.210 HD
ENDBRANCH  26  27
BRANCH  26  29
HETATM   29  C6  UNL     1      10.671  12.015  19.836  1.00  0.00     0.076 C 
HETATM   30  C7  UNL     1       9.383  11.946  20.660  1.00  0.00     0.048 C 
HETATM   31  C8  UNL     1      10.799  13.374  19.145  1.00  0.00     0.048 C 
BRANCH  29  32
HETATM   32  O2  UNL     1      11.761  11.954  20.784  1.00  0.00    -0.388 OA
HETATM   33  H17 UNL     1      11.878  11.016  21.031  1.00  0.00     0.210 HD
ENDBRANCH  29  32
ENDBRANCH  26  29
ENDBRANCH  25  26
ENDBRANCH  24  25
ENDBRANCH  22  24
ENDBRANCH   1  22
BRANCH   4  34
HETATM   34  C13 UNL     1       6.688   9.864  11.987  1.00  0.00     0.149 C 
HETATM   35  O3  UNL     1       7.547   9.907  11.123  1.00  0.00    -0.649 OA
BRANCH  34  36
HETATM   36  O4  UNL     1       5.823  10.895  12.075  1.00  0.00    -0.776 OA
HETATM   37  H23 UNL     1       6.102  11.491  11.347  1.00  0.00     0.167 HD
ENDBRANCH  34  36
ENDBRANCH   4  34
BRANCH  12  38
HETATM   38  O5  UNL     1       0.378   9.129   8.696  1.00  0.00    -0.394 OA
HETATM   39  H34 UNL     1      -0.592   9.156   8.662  1.00  0.00     0.210 HD
ENDBRANCH  12  38
TORSDOF 10
ENDMDL
MODEL 8
REMARK minimizedAffinity -7.83997726
REMARK CNNscore 0.334282398
REMARK CNNaffinity 6.08702612
REMARK  10 active torsions:
REMARK  status: ('A' for Active; 'I' for Inactive)
REMARK    1  A    between atoms: C2_2  and  C3_3 
REMARK    2  A    between atoms: C2_2  and  C9_11 
REMARK    3  A    between atoms: C3_3  and  C4_4 
REMARK    4  A    between atoms: C4_4  and  C5_5 
REMARK    5  A    between atoms: C5_5  and  O1_6 
REMARK    6  A    between atoms: C5_5  and  C6_7 
REMARK    7  A    between atoms: C6_7  and  O2_10 
REMARK    8  A    between atoms: C12_14  and  C13_15 
REMARK    9  A    between atoms: C13_15  and  O4_17 
REMARK   10  A    between atoms: C21_25  and  O5_26 
ROOT
HETATM    1  C9  UNL     1     -10.681  -7.244  -4.100  1.00  0.00    -0.001 C 
HETATM    2  C10 UNL     1     -11.898  -7.974  -3.475  1.00  0.00     0.007 C 
HETATM    3  C11 UNL     1     -11.326  -8.986  -2.447  1.00  0.00     0.022 C 
HETATM    4  C12 UNL     1      -9.865  -8.532  -2.236  1.00  0.00     0.057 C 
HETATM    5  C14 UNL     1      -8.852  -9.564  -1.660  1.00  0.00     0.010 C 
HETATM    6  C15 UNL     1      -9.234 -10.142  -0.285  1.00  0.00     0.010 C 
HETATM    7  C16 UNL     1      -8.529  -9.528   0.924  1.00  0.00     0.036 C 
HETATM    8  C17 UNL     1      -7.128 -10.059   1.202  1.00  0.00    -0.067 C 
HETATM    9  C18 UNL     1      -6.221 -10.311   0.224  1.00  0.00    -0.076 C 
HETATM   10  C19 UNL     1      -4.860 -10.918   0.518  1.00  0.00     0.037 C 
HETATM   11  C20 UNL     1      -4.707 -11.526   1.904  1.00  0.00     0.037 C 
HETATM   12  C21 UNL     1      -5.291 -10.600   2.958  1.00  0.00     0.130 C 
HETATM   13  C22 UNL     1      -6.808 -10.318   2.702  1.00  0.00     0.002 C 
HETATM   14  C23 UNL     1      -7.224  -9.114   3.581  1.00  0.00     0.022 C 
HETATM   15  C24 UNL     1      -7.608 -11.561   3.165  1.00  0.00     0.022 C 
HETATM   16  C25 UNL     1      -6.361 -10.005  -1.262  1.00  0.00     0.039 C 
HETATM   17  C26 UNL     1      -7.413  -8.979  -1.720  1.00  0.00    -0.005 C 
HETATM   18  C27 UNL     1      -7.040  -8.465  -3.137  1.00  0.00     0.006 C 
HETATM   19  C28 UNL     1      -8.085  -7.544  -3.790  1.00  0.00     0.011 C 
HETATM   20  C29 UNL     1      -9.486  -8.171  -3.735  1.00  0.00    -0.022 C 
HETATM   21  C30 UNL     1      -9.457  -9.420  -4.673  1.00  0.00     0.017 C 
ENDROOT
BRANCH   1  22
HETATM   22  C2  UNL     1     -10.844  -6.604  -5.507  1.00  0.00    -0.014 C 
HETATM   23  C1  UNL     1     -10.725  -7.694  -6.588  1.00  0.00     0.010 C 
BRANCH  22  24
HETATM   24  C3  UNL     1     -10.036  -5.358  -5.932  1.00  0.00     0.007 C 
BRANCH  24  25
HETATM   25  C4  UNL     1      -9.689  -4.344  -4.848  1.00  0.00     0.035 C 
BRANCH  25  26
HETATM   26  C5  UNL     1     -10.191  -2.913  -5.103  1.00  0.00     0.151 C 
BRANCH  26  27
HETATM   27  O1  UNL     1     -10.980  -2.551  -3.950  1.00  0.00    -0.393 OA
HETATM   28  H10 UNL     1     -10.508  -1.826  -3.494  1.00  0.00     0.210 HD
ENDBRANCH  26  27
BRANCH  26  29
HETATM   29  C6  UNL     1      -9.142  -1.790  -5.368  1.00  0.00     0.076 C 
HETATM   30  C7  UNL     1      -9.734  -0.386  -5.237  1.00  0.00     0.048 C 
HETATM   31  C8  UNL     1      -8.403  -1.945  -6.698  1.00  0.00     0.048 C 
BRANCH  29  32
HETATM   32  O2  UNL     1      -8.129  -1.899  -4.342  1.00  0.00    -0.388 OA
HETATM   33  H17 UNL     1      -8.588  -2.087  -3.500  1.00  0.00     0.210 HD
ENDBRANCH  29  32
ENDBRANCH  26  29
ENDBRANCH  25  26
ENDBRANCH  24  25
ENDBRANCH  22  24
ENDBRANCH   1  22
BRANCH   4  34
HETATM   34  C13 UNL     1      -9.891  -7.310  -1.272  1.00  0.00     0.149 C 
HETATM   35  O3  UNL     1     -10.797  -6.954  -0.538  1.00  0.00    -0.649 OA
BRANCH  34  36
HETATM   36  O4  UNL     1      -8.774  -6.556  -1.315  1.00  0.00    -0.776 OA
HETATM   37  H23 UNL     1      -8.960  -5.833  -0.677  1.00  0.00     0.167 HD
ENDBRANCH  34  36
ENDBRANCH   4  34
BRANCH  12  38
HETATM   38  O5  UNL     1      -4.532  -9.387   2.991  1.00  0.00    -0.394 OA
HETATM   39  H34 UNL     1      -3.608  -9.623   3.171  1.00  0.00     0.210 HD
ENDBRANCH  12  38
TORSDOF 10
ENDMDL
MODEL 9
REMARK minimizedAffinity -6.7420516
REMARK CNNscore 0.307989687
REMARK CNNaffinity 6.32342482
REMARK  10 active torsions:
REMARK  status: ('A' for Active; 'I' for Inactive)
REMARK    1  A    between atoms: C2_2  and  C3_3 
REMARK    2  A    between atoms: C2_2  and  C9_11 
REMARK    3  A    between atoms: C3_3  and  C4_4 
REMARK    4  A    between atoms: C4_4  and  C5_5 
REMARK    5  A    between atoms: C5_5  and  O1_6 
REMARK    6  A    between atoms: C5_5  and  C6_7 
REMARK    7  A    between atoms: C6_7  and  O2_10 
REMARK    8  A    between atoms: C12_14  and  C13_15 
REMARK    9  A    between atoms: C13_15  and  O4_17 
REMARK   10  A    between atoms: C21_25  and  O5_26 
ROOT
HETATM    1  C9  UNL     1       4.198  15.434   2.141  1.00  0.00    -0.001 C 
HETATM    2  C10 UNL     1       4.204  16.882   1.585  1.00  0.00     0.007 C 
HETATM    3  C11 UNL     1       2.923  17.568   2.130  1.00  0.00     0.022 C 
HETATM    4  C12 UNL     1       2.449  16.642   3.271  1.00  0.00     0.057 C 
HETATM    5  C14 UNL     1       0.963  16.739   3.725  1.00  0.00     0.010 C 
HETATM    6  C15 UNL     1       0.529  18.133   4.212  1.00  0.00     0.010 C 
HETATM    7  C16 UNL     1       0.481  18.333   5.727  1.00  0.00     0.036 C 
HETATM    8  C17 UNL     1      -0.774  17.812   6.415  1.00  0.00    -0.067 C 
HETATM    9  C18 UNL     1      -1.364  16.633   6.092  1.00  0.00    -0.076 C 
HETATM   10  C19 UNL     1      -2.661  16.174   6.735  1.00  0.00     0.037 C 
HETATM   11  C20 UNL     1      -3.421  17.246   7.500  1.00  0.00     0.037 C 
HETATM   12  C21 UNL     1      -2.471  18.054   8.368  1.00  0.00     0.130 C 
HETATM   13  C22 UNL     1      -1.357  18.746   7.515  1.00  0.00     0.002 C 
HETATM   14  C23 UNL     1      -0.252  19.234   8.481  1.00  0.00     0.022 C 
HETATM   15  C24 UNL     1      -1.984  19.982   6.824  1.00  0.00     0.022 C 
HETATM   16  C25 UNL     1      -0.845  15.581   5.121  1.00  0.00     0.039 C 
HETATM   17  C26 UNL     1       0.642  15.593   4.727  1.00  0.00    -0.005 C 
HETATM   18  C27 UNL     1       1.035  14.196   4.175  1.00  0.00     0.006 C 
HETATM   19  C28 UNL     1       2.458  14.102   3.596  1.00  0.00     0.011 C 
HETATM   20  C29 UNL     1       2.724  15.233   2.593  1.00  0.00    -0.022 C 
HETATM   21  C30 UNL     1       1.805  14.963   1.358  1.00  0.00     0.017 C 
ENDROOT
BRANCH   1  22
HETATM   22  C2  UNL     1       4.993  14.342   1.371  1.00  0.00    -0.014 C 
HETATM   23  C1  UNL     1       6.217  13.912   2.201  1.00  0.00     0.010 C 
BRANCH  22  24
HETATM   24  C3  UNL     1       5.404  14.524  -0.106  1.00  0.00     0.007 C 
BRANCH  24  25
HETATM   25  C4  UNL     1       4.588  13.779  -1.158  1.00  0.00     0.035 C 
BRANCH  25  26
HETATM   26  C5  UNL     1       5.397  12.851  -2.078  1.00  0.00     0.151 C 
BRANCH  26  27
HETATM   27  O1  UNL     1       6.031  11.881  -1.218  1.00  0.00    -0.393 OA
HETATM   28  H10 UNL     1       5.639  11.010  -1.427  1.00  0.00     0.210 HD
ENDBRANCH  26  27
BRANCH  26  29
HETATM   29  C6  UNL     1       4.650  12.097  -3.222  1.00  0.00     0.076 C 
HETATM   30  C7  UNL     1       5.373  12.196  -4.566  1.00  0.00     0.048 C 
HETATM   31  C8  UNL     1       3.182  12.504  -3.365  1.00  0.00     0.048 C 
BRANCH  29  32
HETATM   32  O2  UNL     1       4.635  10.695  -2.872  1.00  0.00    -0.388 OA
HETATM   33  H17 UNL     1       5.513  10.478  -2.503  1.00  0.00     0.210 HD
ENDBRANCH  29  32
ENDBRANCH  26  29
ENDBRANCH  25  26
ENDBRANCH  24  25
ENDBRANCH  22  24
ENDBRANCH   1  22
BRANCH   4  34
HETATM   34  C13 UNL     1       3.340  16.937   4.513  1.00  0.00     0.149 C 
HETATM   35  O3  UNL     1       3.809  18.007   4.862  1.00  0.00    -0.649 OA
BRANCH  34  36
HETATM   36  O4  UNL     1       3.642  15.843   5.242  1.00  0.00    -0.776 OA
HETATM   37  H23 UNL     1       4.213  16.195   5.958  1.00  0.00     0.167 HD
ENDBRANCH  34  36
ENDBRANCH   4  34
BRANCH  12  38
HETATM   38  O5  UNL     1      -1.908  17.201   9.370  1.00  0.00    -0.394 OA
HETATM   39  H34 UNL     1      -2.643  16.818   9.876  1.00  0.00     0.210 HD
ENDBRANCH  12  38
TORSDOF 10
ENDMDL
