MODEL 1
REMARK minimizedAffinity -9.6996994
REMARK  5 active torsions:
REMARK  status: ('A' for Active; 'I' for Inactive)
REMARK    1  A    between atoms: C2_2  and  C4_4 
REMARK    2  A    between atoms: C7_7  and  C8_8 
REMARK    3  A    between atoms: C8_8  and  O2_10 
REMARK    4  A    between atoms: C11_13  and  C12_14 
REMARK    5  A    between atoms: C12_14  and  O4_16 
ROOT
HETATM    1  C4  UNL     1       0.480  52.399 -22.899  1.00  0.00     0.019 C 
HETATM    2  C5  UNL     1       0.887  53.498 -23.916  1.00  0.00     0.011 C 
HETATM    3  C6  UNL     1      -0.283  53.650 -24.901  1.00  0.00     0.021 C 
HETATM    4  C7  UNL     1      -1.011  52.303 -24.820  1.00  0.00     0.050 C 
HETATM    5  C9  UNL     1      -2.475  52.324 -25.281  1.00  0.00     0.022 C 
HETATM    6  C10 UNL     1      -3.185  51.005 -24.906  1.00  0.00     0.023 C 
HETATM    7  C11 UNL     1      -3.144  50.671 -23.371  1.00  0.00     0.057 C 
HETATM    8  C13 UNL     1      -1.628  50.710 -22.908  1.00  0.00     0.011 C 
HETATM    9  C14 UNL     1      -1.431  50.315 -21.437  1.00  0.00     0.007 C 
HETATM   10  C15 UNL     1      -2.122  49.002 -21.065  1.00  0.00     0.006 C 
HETATM   11  C16 UNL     1      -3.612  48.967 -21.474  1.00  0.00     0.003 C 
HETATM   12  C17 UNL     1      -4.427  47.771 -20.819  1.00  0.00    -0.035 C 
HETATM   13  C18 UNL     1      -3.738  46.395 -21.045  1.00  0.00     0.016 C 
HETATM   14  C19 UNL     1      -4.439  47.982 -19.266  1.00  0.00     0.017 C 
HETATM   15  C20 UNL     1      -5.605  47.311 -18.566  1.00  0.00     0.080 C 
HETATM   16  C21 UNL     1      -6.940  47.804 -19.079  1.00  0.00     0.135 C 
HETATM   17  O5  UNL     1      -7.941  47.681 -18.365  1.00  0.00    -0.297 OA
HETATM   18  C22 UNL     1      -7.002  48.400 -20.500  1.00  0.00     0.017 C 
HETATM   19  C23 UNL     1      -6.881  49.925 -20.385  1.00  0.00     0.023 C 
HETATM   20  C24 UNL     1      -8.415  48.101 -21.058  1.00  0.00     0.023 C 
HETATM   21  C25 UNL     1      -5.905  47.668 -21.362  1.00  0.00     0.009 C 
HETATM   22  C26 UNL     1      -5.983  47.896 -22.886  1.00  0.00     0.007 C 
HETATM   23  C27 UNL     1      -5.282  49.156 -23.378  1.00  0.00     0.011 C 
HETATM   24  C28 UNL     1      -3.778  49.221 -23.020  1.00  0.00    -0.022 C 
HETATM   25  C29 UNL     1      -3.065  48.127 -23.871  1.00  0.00     0.017 C 
HETATM   26  C30 UNL     1      -0.978  52.060 -23.293  1.00  0.00     0.018 C 
ENDROOT
BRANCH   4  27
HETATM   27  C8  UNL     1      -0.248  51.347 -25.752  1.00  0.00     0.149 C 
HETATM   28  O1  UNL     1       0.960  51.366 -25.942  1.00  0.00    -0.649 OA
BRANCH  27  29
HETATM   29  O2  UNL     1      -0.988  50.413 -26.366  1.00  0.00    -0.776 OA
HETATM   30  H11 UNL     1      -0.331  49.877 -26.857  1.00  0.00     0.167 HD
ENDBRANCH  27  29
ENDBRANCH   4  27
BRANCH   1  31
HETATM   31  C2  UNL     1       0.730  52.854 -21.471  1.00  0.00    -0.088 C 
HETATM   32  C1  UNL     1       1.023  54.135 -21.195  1.00  0.00     0.014 C 
HETATM   33  C3  UNL     1       0.605  51.849 -20.356  1.00  0.00     0.043 C 
ENDBRANCH   1  31
BRANCH   7  34
HETATM   34  C12 UNL     1      -3.947  51.785 -22.639  1.00  0.00     0.149 C 
HETATM   35  O3  UNL     1      -4.787  52.530 -23.121  1.00  0.00    -0.649 OA
BRANCH  34  36
HETATM   36  O4  UNL     1      -3.657  51.914 -21.329  1.00  0.00    -0.776 OA
HETATM   37  H16 UNL     1      -4.245  52.636 -21.024  1.00  0.00     0.167 HD
ENDBRANCH  34  36
ENDBRANCH   7  34
TORSDOF 5
ENDMDL
MODEL 2
REMARK minimizedAffinity -8.17755604
REMARK  5 active torsions:
REMARK  status: ('A' for Active; 'I' for Inactive)
REMARK    1  A    between atoms: C2_2  and  C4_4 
REMARK    2  A    between atoms: C7_7  and  C8_8 
REMARK    3  A    between atoms: C8_8  and  O2_10 
REMARK    4  A    between atoms: C11_13  and  C12_14 
REMARK    5  A    between atoms: C12_14  and  O4_16 
ROOT
HETATM    1  C4  UNL     1      -7.400  47.173 -20.260  1.00  0.00     0.019 C 
HETATM    2  C5  UNL     1      -7.789  47.037 -18.764  1.00  0.00     0.011 C 
HETATM    3  C6  UNL     1      -6.714  47.778 -17.953  1.00  0.00     0.021 C 
HETATM    4  C7  UNL     1      -5.491  47.780 -18.878  1.00  0.00     0.050 C 
HETATM    5  C9  UNL     1      -4.448  48.865 -18.577  1.00  0.00     0.022 C 
HETATM    6  C10 UNL     1      -3.408  48.954 -19.716  1.00  0.00     0.023 C 
HETATM    7  C11 UNL     1      -4.033  49.234 -21.131  1.00  0.00     0.057 C 
HETATM    8  C13 UNL     1      -5.145  48.134 -21.394  1.00  0.00     0.011 C 
HETATM    9  C14 UNL     1      -5.783  48.236 -22.787  1.00  0.00     0.007 C 
HETATM   10  C15 UNL     1      -4.756  48.312 -23.919  1.00  0.00     0.006 C 
HETATM   11  C16 UNL     1      -3.690  49.409 -23.695  1.00  0.00     0.003 C 
HETATM   12  C17 UNL     1      -2.820  49.728 -24.984  1.00  0.00    -0.035 C 
HETATM   13  C18 UNL     1      -2.201  48.446 -25.610  1.00  0.00     0.016 C 
HETATM   14  C19 UNL     1      -3.774  50.310 -26.084  1.00  0.00     0.017 C 
HETATM   15  C20 UNL     1      -3.070  51.180 -27.107  1.00  0.00     0.080 C 
HETATM   16  C21 UNL     1      -2.373  52.362 -26.470  1.00  0.00     0.135 C 
HETATM   17  O5  UNL     1      -2.118  53.354 -27.161  1.00  0.00    -0.297 OA
HETATM   18  C22 UNL     1      -1.964  52.256 -24.986  1.00  0.00     0.017 C 
HETATM   19  C23 UNL     1      -3.070  52.902 -24.140  1.00  0.00     0.023 C 
HETATM   20  C24 UNL     1      -0.693  53.120 -24.801  1.00  0.00     0.023 C 
HETATM   21  C25 UNL     1      -1.646  50.742 -24.695  1.00  0.00     0.009 C 
HETATM   22  C26 UNL     1      -0.939  50.447 -23.356  1.00  0.00     0.007 C 
HETATM   23  C27 UNL     1      -1.873  50.302 -22.161  1.00  0.00     0.011 C 
HETATM   24  C28 UNL     1      -2.939  49.192 -22.326  1.00  0.00    -0.022 C 
HETATM   25  C29 UNL     1      -2.182  47.830 -22.285  1.00  0.00     0.017 C 
HETATM   26  C30 UNL     1      -6.166  48.106 -20.231  1.00  0.00     0.018 C 
ENDROOT
BRANCH   4  27
HETATM   27  C8  UNL     1      -4.807  46.416 -18.686  1.00  0.00     0.149 C 
HETATM   28  O1  UNL     1      -4.831  45.498 -19.492  1.00  0.00    -0.649 OA
BRANCH  27  29
HETATM   29  O2  UNL     1      -4.114  46.265 -17.549  1.00  0.00    -0.776 OA
HETATM   30  H11 UNL     1      -3.712  45.375 -17.634  1.00  0.00     0.167 HD
ENDBRANCH  27  29
ENDBRANCH   4  27
BRANCH   1  31
HETATM   31  C2  UNL     1      -8.589  47.614 -21.098  1.00  0.00    -0.088 C 
HETATM   32  C1  UNL     1      -9.836  47.580 -20.599  1.00  0.00     0.014 C 
HETATM   33  C3  UNL     1      -8.344  48.128 -22.492  1.00  0.00     0.043 C 
ENDBRANCH   1  31
BRANCH   7  34
HETATM   34  C12 UNL     1      -4.690  50.644 -21.070  1.00  0.00     0.149 C 
HETATM   35  O3  UNL     1      -4.215  51.662 -20.591  1.00  0.00    -0.649 OA
BRANCH  34  36
HETATM   36  O4  UNL     1      -5.920  50.710 -21.616  1.00  0.00    -0.776 OA
HETATM   37  H16 UNL     1      -6.180  51.648 -21.506  1.00  0.00     0.167 HD
ENDBRANCH  34  36
ENDBRANCH   7  34
TORSDOF 5
ENDMDL
MODEL 3
REMARK minimizedAffinity -8.02217674
REMARK  5 active torsions:
REMARK  status: ('A' for Active; 'I' for Inactive)
REMARK    1  A    between atoms: C2_2  and  C4_4 
REMARK    2  A    between atoms: C7_7  and  C8_8 
REMARK    3  A    between atoms: C8_8  and  O2_10 
REMARK    4  A    between atoms: C11_13  and  C12_14 
REMARK    5  A    between atoms: C12_14  and  O4_16 
ROOT
HETATM    1  C4  UNL     1      -0.360  50.818 -21.361  1.00  0.00     0.019 C 
HETATM    2  C5  UNL     1      -1.161  50.433 -22.633  1.00  0.00     0.011 C 
HETATM    3  C6  UNL     1      -2.423  49.694 -22.159  1.00  0.00     0.021 C 
HETATM    4  C7  UNL     1      -2.038  49.155 -20.776  1.00  0.00     0.050 C 
HETATM    5  C9  UNL     1      -3.218  48.827 -19.853  1.00  0.00     0.022 C 
HETATM    6  C10 UNL     1      -2.727  48.557 -18.413  1.00  0.00     0.023 C 
HETATM    7  C11 UNL     1      -1.908  49.743 -17.784  1.00  0.00     0.057 C 
HETATM    8  C13 UNL     1      -0.729  50.098 -18.784  1.00  0.00     0.011 C 
HETATM    9  C14 UNL     1       0.210  51.191 -18.252  1.00  0.00     0.007 C 
HETATM   10  C15 UNL     1       0.708  50.921 -16.831  1.00  0.00     0.006 C 
HETATM   11  C16 UNL     1      -0.435  50.614 -15.837  1.00  0.00     0.003 C 
HETATM   12  C17 UNL     1       0.013  50.653 -14.314  1.00  0.00    -0.035 C 
HETATM   13  C18 UNL     1       1.262  49.766 -14.044  1.00  0.00     0.016 C 
HETATM   14  C19 UNL     1       0.460  52.117 -13.975  1.00  0.00     0.017 C 
HETATM   15  C20 UNL     1       0.357  52.464 -12.502  1.00  0.00     0.080 C 
HETATM   16  C21 UNL     1      -1.054  52.310 -11.977  1.00  0.00     0.135 C 
HETATM   17  O5  UNL     1      -1.385  52.923 -10.956  1.00  0.00    -0.297 OA
HETATM   18  C22 UNL     1      -2.008  51.350 -12.717  1.00  0.00     0.017 C 
HETATM   19  C23 UNL     1      -2.843  52.175 -13.705  1.00  0.00     0.023 C 
HETATM   20  C24 UNL     1      -2.990  50.782 -11.662  1.00  0.00     0.023 C 
HETATM   21  C25 UNL     1      -1.130  50.195 -13.328  1.00  0.00     0.009 C 
HETATM   22  C26 UNL     1      -1.903  48.971 -13.861  1.00  0.00     0.007 C 
HETATM   23  C27 UNL     1      -2.407  49.109 -15.291  1.00  0.00     0.011 C 
HETATM   24  C28 UNL     1      -1.292  49.386 -16.329  1.00  0.00    -0.022 C 
HETATM   25  C29 UNL     1      -0.441  48.084 -16.433  1.00  0.00     0.017 C 
HETATM   26  C30 UNL     1      -1.284  50.377 -20.201  1.00  0.00     0.018 C 
ENDROOT
BRANCH   4  27
HETATM   27  C8  UNL     1      -1.270  47.845 -21.027  1.00  0.00     0.149 C 
HETATM   28  O1  UNL     1      -0.097  47.653 -20.743  1.00  0.00    -0.649 OA
BRANCH  27  29
HETATM   29  O2  UNL     1      -1.979  46.847 -21.571  1.00  0.00    -0.776 OA
HETATM   30  H11 UNL     1      -1.349  46.097 -21.598  1.00  0.00     0.167 HD
ENDBRANCH  27  29
ENDBRANCH   4  27
BRANCH   1  31
HETATM   31  C2  UNL     1       0.064  52.277 -21.400  1.00  0.00    -0.088 C 
HETATM   32  C1  UNL     1       0.770  52.763 -22.434  1.00  0.00     0.014 C 
HETATM   33  C3  UNL     1      -0.355  53.185 -20.275  1.00  0.00     0.043 C 
ENDBRANCH   1  31
BRANCH   7  34
HETATM   34  C12 UNL     1      -2.878  50.954 -17.662  1.00  0.00     0.149 C 
HETATM   35  O3  UNL     1      -2.865  51.983 -18.319  1.00  0.00    -0.649 OA
BRANCH  34  36
HETATM   36  O4  UNL     1      -3.825  50.816 -16.713  1.00  0.00    -0.776 OA
HETATM   37  H16 UNL     1      -4.347  51.644 -16.774  1.00  0.00     0.167 HD
ENDBRANCH  34  36
ENDBRANCH   7  34
TORSDOF 5
ENDMDL
MODEL 4
REMARK minimizedAffinity -7.97708511
REMARK  5 active torsions:
REMARK  status: ('A' for Active; 'I' for Inactive)
REMARK    1  A    between atoms: C2_2  and  C4_4 
REMARK    2  A    between atoms: C7_7  and  C8_8 
REMARK    3  A    between atoms: C8_8  and  O2_10 
REMARK    4  A    between atoms: C11_13  and  C12_14 
REMARK    5  A    between atoms: C12_14  and  O4_16 
ROOT
HETATM    1  C4  UNL     1      -2.521  50.479 -26.117  1.00  0.00     0.019 C 
HETATM    2  C5  UNL     1      -1.210  50.986 -26.774  1.00  0.00     0.011 C 
HETATM    3  C6  UNL     1      -0.200  51.214 -25.637  1.00  0.00     0.021 C 
HETATM    4  C7  UNL     1      -1.079  51.424 -24.399  1.00  0.00     0.050 C 
HETATM    5  C9  UNL     1      -0.385  51.166 -23.055  1.00  0.00     0.022 C 
HETATM    6  C10 UNL     1      -1.415  51.138 -21.905  1.00  0.00     0.023 C 
HETATM    7  C11 UNL     1      -2.557  50.074 -22.095  1.00  0.00     0.057 C 
HETATM    8  C13 UNL     1      -3.221  50.327 -23.513  1.00  0.00     0.011 C 
HETATM    9  C14 UNL     1      -4.417  49.408 -23.797  1.00  0.00     0.007 C 
HETATM   10  C15 UNL     1      -5.446  49.387 -22.664  1.00  0.00     0.006 C 
HETATM   11  C16 UNL     1      -4.818  49.100 -21.282  1.00  0.00     0.003 C 
HETATM   12  C17 UNL     1      -5.881  48.751 -20.155  1.00  0.00    -0.035 C 
HETATM   13  C18 UNL     1      -7.011  49.816 -20.061  1.00  0.00     0.016 C 
HETATM   14  C19 UNL     1      -6.598  47.416 -20.558  1.00  0.00     0.017 C 
HETATM   15  C20 UNL     1      -7.183  46.657 -19.383  1.00  0.00     0.080 C 
HETATM   16  C21 UNL     1      -6.131  46.291 -18.359  1.00  0.00     0.135 C 
HETATM   17  O5  UNL     1      -6.347  45.352 -17.584  1.00  0.00    -0.297 OA
HETATM   18  C22 UNL     1      -4.846  47.141 -18.296  1.00  0.00     0.017 C 
HETATM   19  C23 UNL     1      -3.768  46.441 -19.134  1.00  0.00     0.023 C 
HETATM   20  C24 UNL     1      -4.358  47.119 -16.826  1.00  0.00     0.023 C 
HETATM   21  C25 UNL     1      -5.232  48.606 -18.724  1.00  0.00     0.009 C 
HETATM   22  C26 UNL     1      -4.168  49.690 -18.455  1.00  0.00     0.007 C 
HETATM   23  C27 UNL     1      -3.115  49.834 -19.546  1.00  0.00     0.011 C 
HETATM   24  C28 UNL     1      -3.696  50.154 -20.944  1.00  0.00    -0.022 C 
HETATM   25  C29 UNL     1      -4.260  51.606 -20.876  1.00  0.00     0.017 C 
HETATM   26  C30 UNL     1      -2.144  50.325 -24.624  1.00  0.00     0.018 C 
ENDROOT
BRANCH   4  27
HETATM   27  C8  UNL     1      -1.505  52.902 -24.422  1.00  0.00     0.149 C 
HETATM   28  O1  UNL     1      -2.638  53.310 -24.217  1.00  0.00    -0.649 OA
BRANCH  27  29
HETATM   29  O2  UNL     1      -0.528  53.788 -24.659  1.00  0.00    -0.776 OA
HETATM   30  H11 UNL     1      -0.972  54.657 -24.577  1.00  0.00     0.167 HD
ENDBRANCH  27  29
ENDBRANCH   4  27
BRANCH   1  31
HETATM   31  C2  UNL     1      -3.053  49.248 -26.833  1.00  0.00    -0.088 C 
HETATM   32  C1  UNL     1      -2.838  48.017 -26.342  1.00  0.00     0.014 C 
HETATM   33  C3  UNL     1      -3.862  49.432 -28.090  1.00  0.00     0.043 C 
ENDBRANCH   1  31
BRANCH   7  34
HETATM   34  C12 UNL     1      -1.884  48.671 -22.071  1.00  0.00     0.149 C 
HETATM   35  O3  UNL     1      -2.274  47.654 -22.622  1.00  0.00    -0.649 OA
BRANCH  34  36
HETATM   36  O4  UNL     1      -0.746  48.610 -21.351  1.00  0.00    -0.776 OA
HETATM   37  H16 UNL     1      -0.452  47.680 -21.447  1.00  0.00     0.167 HD
ENDBRANCH  34  36
ENDBRANCH   7  34
TORSDOF 5
ENDMDL
MODEL 5
REMARK minimizedAffinity -7.90825462
REMARK  5 active torsions:
REMARK  status: ('A' for Active; 'I' for Inactive)
REMARK    1  A    between atoms: C2_2  and  C4_4 
REMARK    2  A    between atoms: C7_7  and  C8_8 
REMARK    3  A    between atoms: C8_8  and  O2_10 
REMARK    4  A    between atoms: C11_13  and  C12_14 
REMARK    5  A    between atoms: C12_14  and  O4_16 
ROOT
HETATM    1  C4  UNL     1      -5.023  47.793 -28.064  1.00  0.00     0.019 C 
HETATM    2  C5  UNL     1      -4.197  48.849 -28.844  1.00  0.00     0.011 C 
HETATM    3  C6  UNL     1      -5.069  49.319 -30.020  1.00  0.00     0.021 C 
HETATM    4  C7  UNL     1      -6.045  48.158 -30.243  1.00  0.00     0.050 C 
HETATM    5  C9  UNL     1      -7.338  48.525 -30.983  1.00  0.00     0.022 C 
HETATM    6  C10 UNL     1      -8.355  47.365 -30.913  1.00  0.00     0.023 C 
HETATM    7  C11 UNL     1      -8.720  46.922 -29.449  1.00  0.00     0.057 C 
HETATM    8  C13 UNL     1      -7.365  46.601 -28.690  1.00  0.00     0.011 C 
HETATM    9  C14 UNL     1      -7.577  46.069 -27.266  1.00  0.00     0.007 C 
HETATM   10  C15 UNL     1      -8.575  44.912 -27.194  1.00  0.00     0.006 C 
HETATM   11  C16 UNL     1      -9.917  45.227 -27.895  1.00  0.00     0.003 C 
HETATM   12  C17 UNL     1     -11.072  44.190 -27.560  1.00  0.00    -0.035 C 
HETATM   13  C18 UNL     1     -10.631  42.718 -27.800  1.00  0.00     0.016 C 
HETATM   14  C19 UNL     1     -11.384  44.287 -26.027  1.00  0.00     0.017 C 
HETATM   15  C20 UNL     1     -12.784  43.833 -25.657  1.00  0.00     0.080 C 
HETATM   16  C21 UNL     1     -13.851  44.637 -26.367  1.00  0.00     0.135 C 
HETATM   17  O5  UNL     1     -14.989  44.681 -25.888  1.00  0.00    -0.297 OA
HETATM   18  C22 UNL     1     -13.481  45.332 -27.694  1.00  0.00     0.017 C 
HETATM   19  C23 UNL     1     -13.094  46.784 -27.380  1.00  0.00     0.023 C 
HETATM   20  C24 UNL     1     -14.767  45.384 -28.554  1.00  0.00     0.023 C 
HETATM   21  C25 UNL     1     -12.385  44.446 -28.397  1.00  0.00     0.009 C 
HETATM   22  C26 UNL     1     -12.079  44.793 -29.868  1.00  0.00     0.007 C 
HETATM   23  C27 UNL     1     -11.057  45.906 -30.061  1.00  0.00     0.011 C 
HETATM   24  C28 UNL     1      -9.685  45.620 -29.403  1.00  0.00    -0.022 C 
HETATM   25  C29 UNL     1      -9.029  44.462 -30.214  1.00  0.00     0.017 C 
HETATM   26  C30 UNL     1      -6.396  47.805 -28.778  1.00  0.00     0.018 C 
ENDROOT
BRANCH   4  27
HETATM   27  C8  UNL     1      -5.295  47.129 -31.107  1.00  0.00     0.149 C 
HETATM   28  O1  UNL     1      -4.388  47.391 -31.883  1.00  0.00    -0.649 OA
BRANCH  27  29
HETATM   29  O2  UNL     1      -5.669  45.851 -30.951  1.00  0.00    -0.776 OA
HETATM   30  H11 UNL     1      -5.052  45.353 -31.526  1.00  0.00     0.167 HD
ENDBRANCH  27  29
ENDBRANCH   4  27
BRANCH   1  31
HETATM   31  C2  UNL     1      -5.011  48.080 -26.571  1.00  0.00    -0.088 C 
HETATM   32  C1  UNL     1      -3.868  48.390 -25.937  1.00  0.00     0.014 C 
HETATM   33  C3  UNL     1      -6.312  48.051 -25.815  1.00  0.00     0.043 C 
ENDBRANCH   1  31
BRANCH   7  34
HETATM   34  C12 UNL     1      -9.432  48.127 -28.770  1.00  0.00     0.149 C 
HETATM   35  O3  UNL     1     -10.521  48.128 -28.218  1.00  0.00    -0.649 OA
BRANCH  34  36
HETATM   36  O4  UNL     1      -8.740  49.283 -28.817  1.00  0.00    -0.776 OA
HETATM   37  H16 UNL     1      -9.312  49.923 -28.345  1.00  0.00     0.167 HD
ENDBRANCH  34  36
ENDBRANCH   7  34
TORSDOF 5
ENDMDL
MODEL 6
REMARK minimizedAffinity -7.88532019
REMARK  5 active torsions:
REMARK  status: ('A' for Active; 'I' for Inactive)
REMARK    1  A    between atoms: C2_2  and  C4_4 
REMARK    2  A    between atoms: C7_7  and  C8_8 
REMARK    3  A    between atoms: C8_8  and  O2_10 
REMARK    4  A    between atoms: C11_13  and  C12_14 
REMARK    5  A    between atoms: C12_14  and  O4_16 
ROOT
HETATM    1  C4  UNL     1      -1.490  52.370 -23.171  1.00  0.00     0.019 C 
HETATM    2  C5  UNL     1      -0.046  52.912 -23.342  1.00  0.00     0.011 C 
HETATM    3  C6  UNL     1       0.847  52.117 -22.376  1.00  0.00     0.021 C 
HETATM    4  C7  UNL     1      -0.125  51.616 -21.302  1.00  0.00     0.050 C 
HETATM    5  C9  UNL     1       0.356  50.397 -20.504  1.00  0.00     0.022 C 
HETATM    6  C10 UNL     1      -0.793  49.813 -19.653  1.00  0.00     0.023 C 
HETATM    7  C11 UNL     1      -2.062  49.403 -20.485  1.00  0.00     0.057 C 
HETATM    8  C13 UNL     1      -2.505  50.663 -21.341  1.00  0.00     0.011 C 
HETATM    9  C14 UNL     1      -3.793  50.429 -22.143  1.00  0.00     0.007 C 
HETATM   10  C15 UNL     1      -4.937  49.863 -21.300  1.00  0.00     0.006 C 
HETATM   11  C16 UNL     1      -4.530  48.609 -20.492  1.00  0.00     0.003 C 
HETATM   12  C17 UNL     1      -5.760  47.818 -19.874  1.00  0.00    -0.035 C 
HETATM   13  C18 UNL     1      -6.706  48.744 -19.058  1.00  0.00     0.016 C 
HETATM   14  C19 UNL     1      -6.631  47.271 -21.057  1.00  0.00     0.017 C 
HETATM   15  C20 UNL     1      -7.465  46.057 -20.693  1.00  0.00     0.080 C 
HETATM   16  C21 UNL     1      -6.613  44.903 -20.213  1.00  0.00     0.135 C 
HETATM   17  O5  UNL     1      -7.068  43.755 -20.273  1.00  0.00    -0.297 OA
HETATM   18  C22 UNL     1      -5.224  45.216 -19.621  1.00  0.00     0.017 C 
HETATM   19  C23 UNL     1      -4.183  45.059 -20.738  1.00  0.00     0.023 C 
HETATM   20  C24 UNL     1      -4.921  44.124 -18.567  1.00  0.00     0.023 C 
HETATM   21  C25 UNL     1      -5.315  46.631 -18.935  1.00  0.00     0.009 C 
HETATM   22  C26 UNL     1      -4.129  47.019 -18.029  1.00  0.00     0.007 C 
HETATM   23  C27 UNL     1      -2.945  47.640 -18.760  1.00  0.00     0.011 C 
HETATM   24  C28 UNL     1      -3.299  48.919 -19.558  1.00  0.00    -0.022 C 
HETATM   25  C29 UNL     1      -3.625  50.027 -18.511  1.00  0.00     0.017 C 
HETATM   26  C30 UNL     1      -1.320  51.189 -22.186  1.00  0.00     0.018 C 
ENDROOT
BRANCH   4  27
HETATM   27  C8  UNL     1      -0.300  52.777 -20.308  1.00  0.00     0.149 C 
HETATM   28  O1  UNL     1       0.353  53.810 -20.313  1.00  0.00    -0.649 OA
BRANCH  27  29
HETATM   29  O2  UNL     1      -1.272  52.627 -19.398  1.00  0.00    -0.776 OA
HETATM   30  H11 UNL     1      -1.269  53.474 -18.906  1.00  0.00     0.167 HD
ENDBRANCH  27  29
ENDBRANCH   4  27
BRANCH   1  31
HETATM   31  C2  UNL     1      -2.126  52.070 -24.518  1.00  0.00    -0.088 C 
HETATM   32  C1  UNL     1      -1.454  51.391 -25.463  1.00  0.00     0.014 C 
HETATM   33  C3  UNL     1      -3.543  52.513 -24.768  1.00  0.00     0.043 C 
ENDBRANCH   1  31
BRANCH   7  34
HETATM   34  C12 UNL     1      -1.632  48.246 -21.433  1.00  0.00     0.149 C 
HETATM   35  O3  UNL     1      -2.122  47.954 -22.513  1.00  0.00    -0.649 OA
BRANCH  34  36
HETATM   36  O4  UNL     1      -0.602  47.505 -20.979  1.00  0.00    -0.776 OA
HETATM   37  H16 UNL     1      -0.455  46.842 -21.685  1.00  0.00     0.167 HD
ENDBRANCH  34  36
ENDBRANCH   7  34
TORSDOF 5
ENDMDL
MODEL 7
REMARK minimizedAffinity -7.78119087
REMARK  5 active torsions:
REMARK  status: ('A' for Active; 'I' for Inactive)
REMARK    1  A    between atoms: C2_2  and  C4_4 
REMARK    2  A    between atoms: C7_7  and  C8_8 
REMARK    3  A    between atoms: C8_8  and  O2_10 
REMARK    4  A    between atoms: C11_13  and  C12_14 
REMARK    5  A    between atoms: C12_14  and  O4_16 
ROOT
HETATM    1  C4  UNL     1      -5.201  47.222 -19.702  1.00  0.00     0.019 C 
HETATM    2  C5  UNL     1      -6.552  46.534 -19.371  1.00  0.00     0.011 C 
HETATM    3  C6  UNL     1      -7.567  47.015 -20.420  1.00  0.00     0.021 C 
HETATM    4  C7  UNL     1      -6.990  48.349 -20.907  1.00  0.00     0.050 C 
HETATM    5  C9  UNL     1      -7.486  48.811 -22.284  1.00  0.00     0.022 C 
HETATM    6  C10 UNL     1      -6.649  50.004 -22.794  1.00  0.00     0.023 C 
HETATM    7  C11 UNL     1      -5.107  49.713 -22.885  1.00  0.00     0.057 C 
HETATM    8  C13 UNL     1      -4.631  49.186 -21.466  1.00  0.00     0.011 C 
HETATM    9  C14 UNL     1      -3.118  48.941 -21.385  1.00  0.00     0.007 C 
HETATM   10  C15 UNL     1      -2.285  50.126 -21.878  1.00  0.00     0.006 C 
HETATM   11  C16 UNL     1      -2.711  50.623 -23.278  1.00  0.00     0.003 C 
HETATM   12  C17 UNL     1      -1.673  51.621 -23.947  1.00  0.00    -0.035 C 
HETATM   13  C18 UNL     1      -1.302  52.804 -23.007  1.00  0.00     0.016 C 
HETATM   14  C19 UNL     1      -0.333  50.842 -24.185  1.00  0.00     0.017 C 
HETATM   15  C20 UNL     1       0.524  51.423 -25.294  1.00  0.00     0.080 C 
HETATM   16  C21 UNL     1      -0.202  51.452 -26.621  1.00  0.00     0.135 C 
HETATM   17  O5  UNL     1       0.458  51.499 -27.665  1.00  0.00    -0.297 OA
HETATM   18  C22 UNL     1      -1.744  51.469 -26.611  1.00  0.00     0.017 C 
HETATM   19  C23 UNL     1      -2.238  50.025 -26.772  1.00  0.00     0.023 C 
HETATM   20  C24 UNL     1      -2.199  52.244 -27.871  1.00  0.00     0.023 C 
HETATM   21  C25 UNL     1      -2.195  52.228 -25.307  1.00  0.00     0.009 C 
HETATM   22  C26 UNL     1      -3.685  52.619 -25.235  1.00  0.00     0.007 C 
HETATM   23  C27 UNL     1      -4.606  51.525 -24.710  1.00  0.00     0.011 C 
HETATM   24  C28 UNL     1      -4.237  51.017 -23.295  1.00  0.00    -0.022 C 
HETATM   25  C29 UNL     1      -4.551  52.179 -22.304  1.00  0.00     0.017 C 
HETATM   26  C30 UNL     1      -5.492  47.980 -21.019  1.00  0.00     0.018 C 
ENDROOT
BRANCH   4  27
HETATM   27  C8  UNL     1      -7.430  49.407 -19.880  1.00  0.00     0.149 C 
HETATM   28  O1  UNL     1      -8.234  49.219 -18.979  1.00  0.00    -0.649 OA
BRANCH  27  29
HETATM   29  O2  UNL     1      -6.847  50.608 -19.991  1.00  0.00    -0.776 OA
HETATM   30  H11 UNL     1      -7.203  51.115 -19.232  1.00  0.00     0.167 HD
ENDBRANCH  27  29
ENDBRANCH   4  27
BRANCH   1  31
HETATM   31  C2  UNL     1      -4.061  46.217 -19.712  1.00  0.00    -0.088 C 
HETATM   32  C1  UNL     1      -3.865  45.406 -20.765  1.00  0.00     0.014 C 
HETATM   33  C3  UNL     1      -3.125  46.167 -18.534  1.00  0.00     0.043 C 
ENDBRANCH   1  31
BRANCH   7  34
HETATM   34  C12 UNL     1      -4.914  48.597 -23.953  1.00  0.00     0.149 C 
HETATM   35  O3  UNL     1      -5.767  48.120 -24.687  1.00  0.00    -0.649 OA
BRANCH  34  36
HETATM   36  O4  UNL     1      -3.655  48.128 -24.050  1.00  0.00    -0.776 OA
HETATM   37  H16 UNL     1      -3.704  47.455 -24.760  1.00  0.00     0.167 HD
ENDBRANCH  34  36
ENDBRANCH   7  34
TORSDOF 5
ENDMDL
MODEL 8
REMARK minimizedAffinity -7.77655602
REMARK  5 active torsions:
REMARK  status: ('A' for Active; 'I' for Inactive)
REMARK    1  A    between atoms: C2_2  and  C4_4 
REMARK    2  A    between atoms: C7_7  and  C8_8 
REMARK    3  A    between atoms: C8_8  and  O2_10 
REMARK    4  A    between atoms: C11_13  and  C12_14 
REMARK    5  A    between atoms: C12_14  and  O4_16 
ROOT
HETATM    1  C4  UNL     1      -7.714  47.492 -33.311  1.00  0.00     0.019 C 
HETATM    2  C5  UNL     1      -6.248  47.301 -33.784  1.00  0.00     0.011 C 
HETATM    3  C6  UNL     1      -5.495  46.609 -32.636  1.00  0.00     0.021 C 
HETATM    4  C7  UNL     1      -6.317  46.962 -31.390  1.00  0.00     0.050 C 
HETATM    5  C9  UNL     1      -6.124  46.020 -30.194  1.00  0.00     0.022 C 
HETATM    6  C10 UNL     1      -7.184  46.297 -29.105  1.00  0.00     0.023 C 
HETATM    7  C11 UNL     1      -8.668  46.173 -29.611  1.00  0.00     0.057 C 
HETATM    8  C13 UNL     1      -8.825  47.113 -30.879  1.00  0.00     0.011 C 
HETATM    9  C14 UNL     1     -10.258  47.156 -31.429  1.00  0.00     0.007 C 
HETATM   10  C15 UNL     1     -11.310  47.442 -30.356  1.00  0.00     0.006 C 
HETATM   11  C16 UNL     1     -11.194  46.506 -29.131  1.00  0.00     0.003 C 
HETATM   12  C17 UNL     1     -12.452  46.558 -28.164  1.00  0.00    -0.035 C 
HETATM   13  C18 UNL     1     -12.812  48.011 -27.742  1.00  0.00     0.016 C 
HETATM   14  C19 UNL     1     -13.699  46.034 -28.958  1.00  0.00     0.017 C 
HETATM   15  C20 UNL     1     -14.799  45.479 -28.072  1.00  0.00     0.080 C 
HETATM   16  C21 UNL     1     -14.316  44.329 -27.216  1.00  0.00     0.135 C 
HETATM   17  O5  UNL     1     -15.142  43.526 -26.768  1.00  0.00    -0.297 OA
HETATM   18  C22 UNL     1     -12.810  44.237 -26.896  1.00  0.00     0.017 C 
HETATM   19  C23 UNL     1     -12.164  43.287 -27.914  1.00  0.00     0.023 C 
HETATM   20  C24 UNL     1     -12.679  43.566 -25.508  1.00  0.00     0.023 C 
HETATM   21  C25 UNL     1     -12.250  45.708 -26.850  1.00  0.00     0.009 C 
HETATM   22  C26 UNL     1     -10.833  45.872 -26.263  1.00  0.00     0.007 C 
HETATM   23  C27 UNL     1      -9.702  45.657 -27.259  1.00  0.00     0.011 C 
HETATM   24  C28 UNL     1      -9.758  46.596 -28.489  1.00  0.00    -0.022 C 
HETATM   25  C29 UNL     1      -9.438  48.032 -27.973  1.00  0.00     0.017 C 
HETATM   26  C30 UNL     1      -7.750  46.775 -31.941  1.00  0.00     0.018 C 
ENDROOT
BRANCH   4  27
HETATM   27  C8  UNL     1      -5.853  48.362 -30.954  1.00  0.00     0.149 C 
HETATM   28  O1  UNL     1      -4.692  48.743 -30.932  1.00  0.00    -0.649 OA
BRANCH  27  29
HETATM   29  O2  UNL     1      -6.824  49.218 -30.607  1.00  0.00    -0.776 OA
HETATM   30  H11 UNL     1      -6.347  50.054 -30.423  1.00  0.00     0.167 HD
ENDBRANCH  27  29
ENDBRANCH   4  27
BRANCH   1  31
HETATM   31  C2  UNL     1      -8.697  47.022 -34.371  1.00  0.00    -0.088 C 
HETATM   32  C1  UNL     1      -9.697  46.181 -34.061  1.00  0.00     0.014 C 
HETATM   33  C3  UNL     1      -8.556  47.546 -35.776  1.00  0.00     0.043 C 
ENDBRANCH   1  31
BRANCH   7  34
HETATM   34  C12 UNL     1      -8.888  44.689 -30.024  1.00  0.00     0.149 C 
HETATM   35  O3  UNL     1      -8.389  43.697 -29.515  1.00  0.00    -0.649 OA
BRANCH  34  36
HETATM   36  O4  UNL     1      -9.730  44.517 -31.063  1.00  0.00    -0.776 OA
HETATM   37  H16 UNL     1      -9.765  43.546 -31.184  1.00  0.00     0.167 HD
ENDBRANCH  34  36
ENDBRANCH   7  34
TORSDOF 5
ENDMDL
MODEL 9
REMARK minimizedAffinity -7.67539167
REMARK  5 active torsions:
REMARK  status: ('A' for Active; 'I' for Inactive)
REMARK    1  A    between atoms: C2_2  and  C4_4 
REMARK    2  A    between atoms: C7_7  and  C8_8 
REMARK    3  A    between atoms: C8_8  and  O2_10 
REMARK    4  A    between atoms: C11_13  and  C12_14 
REMARK    5  A    between atoms: C12_14  and  O4_16 
ROOT
HETATM    1  C4  UNL     1      -1.699  49.482 -22.790  1.00  0.00     0.019 C 
HETATM    2  C5  UNL     1      -1.178  50.785 -23.453  1.00  0.00     0.011 C 
HETATM    3  C6  UNL     1      -2.413  51.623 -23.823  1.00  0.00     0.021 C 
HETATM    4  C7  UNL     1      -3.540  50.590 -23.933  1.00  0.00     0.050 C 
HETATM    5  C9  UNL     1      -4.959  51.154 -23.784  1.00  0.00     0.022 C 
HETATM    6  C10 UNL     1      -5.989  50.012 -23.637  1.00  0.00     0.023 C 
HETATM    7  C11 UNL     1      -5.702  49.043 -22.434  1.00  0.00     0.057 C 
HETATM    8  C13 UNL     1      -4.213  48.517 -22.582  1.00  0.00     0.011 C 
HETATM    9  C14 UNL     1      -3.823  47.486 -21.513  1.00  0.00     0.007 C 
HETATM   10  C15 UNL     1      -4.835  46.347 -21.373  1.00  0.00     0.006 C 
HETATM   11  C16 UNL     1      -6.285  46.846 -21.187  1.00  0.00     0.003 C 
HETATM   12  C17 UNL     1      -7.296  45.714 -20.718  1.00  0.00    -0.035 C 
HETATM   13  C18 UNL     1      -7.236  44.455 -21.630  1.00  0.00     0.016 C 
HETATM   14  C19 UNL     1      -6.852  45.222 -19.297  1.00  0.00     0.017 C 
HETATM   15  C20 UNL     1      -7.976  44.609 -18.483  1.00  0.00     0.080 C 
HETATM   16  C21 UNL     1      -9.119  45.576 -18.268  1.00  0.00     0.135 C 
HETATM   17  O5  UNL     1      -9.890  45.393 -17.320  1.00  0.00    -0.297 OA
HETATM   18  C22 UNL     1      -9.301  46.728 -19.278  1.00  0.00     0.017 C 
HETATM   19  C23 UNL     1      -8.606  47.973 -18.711  1.00  0.00     0.023 C 
HETATM   20  C24 UNL     1     -10.816  47.045 -19.337  1.00  0.00     0.023 C 
HETATM   21  C25 UNL     1      -8.794  46.210 -20.676  1.00  0.00     0.009 C 
HETATM   22  C26 UNL     1      -9.150  47.091 -21.891  1.00  0.00     0.007 C 
HETATM   23  C27 UNL     1      -8.179  48.235 -22.155  1.00  0.00     0.011 C 
HETATM   24  C28 UNL     1      -6.717  47.780 -22.380  1.00  0.00    -0.022 C 
HETATM   25  C29 UNL     1      -6.684  47.033 -23.748  1.00  0.00     0.017 C 
HETATM   26  C30 UNL     1      -3.228  49.704 -22.704  1.00  0.00     0.018 C 
ENDROOT
BRANCH   4  27
HETATM   27  C8  UNL     1      -3.430  49.986 -25.344  1.00  0.00     0.149 C 
HETATM   28  O1  UNL     1      -3.119  48.831 -25.592  1.00  0.00    -0.649 OA
BRANCH  27  29
HETATM   29  O2  UNL     1      -3.736  50.808 -26.357  1.00  0.00    -0.776 OA
HETATM   30  H11 UNL     1      -3.666  50.240 -27.152  1.00  0.00     0.167 HD
ENDBRANCH  27  29
ENDBRANCH   4  27
BRANCH   1  31
HETATM   31  C2  UNL     1      -0.961  49.195 -21.492  1.00  0.00    -0.088 C 
HETATM   32  C1  UNL     1      -0.819  47.937 -21.043  1.00  0.00     0.014 C 
HETATM   33  C3  UNL     1      -0.355  50.344 -20.731  1.00  0.00     0.043 C 
ENDBRANCH   1  31
BRANCH   7  34
HETATM   34  C12 UNL     1      -5.838  49.881 -21.129  1.00  0.00     0.149 C 
HETATM   35  O3  UNL     1      -5.137  49.815 -20.131  1.00  0.00    -0.649 OA
BRANCH  34  36
HETATM   36  O4  UNL     1      -6.853  50.766 -21.138  1.00  0.00    -0.776 OA
HETATM   37  H16 UNL     1      -6.792  51.209 -20.266  1.00  0.00     0.167 HD
ENDBRANCH  34  36
ENDBRANCH   7  34
TORSDOF 5
ENDMDL
