MODEL 1
REMARK minimizedAffinity -7.43419886
REMARK CNNscore 0.626620948
REMARK CNNaffinity 7.00421
REMARK  7 active torsions:
REMARK  status: ('A' for Active; 'I' for Inactive)
REMARK    1  A    between atoms: C4_4  and  C5_5 
REMARK    2  A    between atoms: C5_5  and  O1_6 
REMARK    3  A    between atoms: C5_5  and  C6_7 
REMARK    4  A    between atoms: C6_7  and  C7_8 
REMARK    5  A    between atoms: C7_8  and  C8_9 
REMARK    6  A    between atoms: C7_8  and  C9_11 
REMARK    7  A    between atoms: C8_9  and  O2_10 
ROOT
HETATM    1  C9  UNL     1      -1.437  52.652 -10.839  1.00  0.00     0.001 C 
HETATM    2  C10 UNL     1      -2.366  52.338  -9.631  1.00  0.00     0.007 C 
HETATM    3  C11 UNL     1      -1.758  53.044  -8.408  1.00  0.00     0.015 C 
HETATM    4  C12 UNL     1      -0.301  53.347  -8.812  1.00  0.00    -0.013 C 
HETATM    5  C13 UNL     1       0.499  52.027  -8.589  1.00  0.00     0.021 C 
HETATM    6  C14 UNL     1       0.444  54.438  -8.068  1.00  0.00    -0.070 C 
HETATM    7  C15 UNL     1       0.083  54.925  -6.871  1.00  0.00    -0.022 C 
HETATM    8  C16 UNL     1       0.825  56.059  -6.240  1.00  0.00     0.034 C 
HETATM    9  C17 UNL     1       2.365  56.016  -6.432  1.00  0.00     0.013 C 
HETATM   10  C18 UNL     1       3.039  57.404  -6.169  1.00  0.00     0.018 C 
HETATM   11  C19 UNL     1       2.755  57.863  -4.718  1.00  0.00     0.023 C 
HETATM   12  C20 UNL     1       2.564  58.538  -7.095  1.00  0.00     0.023 C 
HETATM   13  C21 UNL     1       4.557  57.235  -6.318  1.00  0.00     0.135 C 
HETATM   14  O3  UNL     1       5.359  57.690  -5.497  1.00  0.00    -0.297 OA
HETATM   15  C22 UNL     1       5.090  56.495  -7.519  1.00  0.00     0.080 C 
HETATM   16  C23 UNL     1       4.012  55.980  -8.457  1.00  0.00     0.017 C 
HETATM   17  C24 UNL     1       2.839  55.256  -7.749  1.00  0.00    -0.031 C 
HETATM   18  C25 UNL     1       3.371  53.862  -7.289  1.00  0.00     0.016 C 
HETATM   19  C26 UNL     1       1.642  55.075  -8.764  1.00  0.00     0.024 C 
HETATM   20  C27 UNL     1       2.032  54.409 -10.114  1.00  0.00     0.010 C 
HETATM   21  C28 UNL     1       0.892  53.848 -10.996  1.00  0.00     0.011 C 
HETATM   22  C29 UNL     1      -0.488  53.778 -10.313  1.00  0.00    -0.029 C 
HETATM   23  C30 UNL     1      -1.165  55.171 -10.470  1.00  0.00     0.016 C 
ENDROOT
BRANCH   1  24
HETATM   24  C7  UNL     1      -2.198  52.739 -12.193  1.00  0.00     0.017 C 
BRANCH  24  25
HETATM   25  C6  UNL     1      -1.936  51.597 -13.213  1.00  0.00     0.043 C 
BRANCH  25  26
HETATM   26  C5  UNL     1      -0.553  51.665 -13.890  1.00  0.00     0.141 C 
BRANCH  26  27
HETATM   27  C4  UNL     1      -0.589  51.000 -15.238  1.00  0.00     0.006 C 
HETATM   28  C2  UNL     1       0.267  51.144 -16.269  1.00  0.00    -0.089 C 
HETATM   29  C1  UNL     1       1.483  52.030 -16.283  1.00  0.00     0.042 C 
HETATM   30  C3  UNL     1       0.049  50.383 -17.553  1.00  0.00     0.042 C 
ENDBRANCH  26  27
BRANCH  26  31
HETATM   31  O1  UNL     1       0.385  50.942 -13.095  1.00  0.00    -0.392 OA
HETATM   32  H9  UNL     1       1.170  50.798 -13.654  1.00  0.00     0.210 HD
ENDBRANCH  26  31
ENDBRANCH  25  26
ENDBRANCH  24  25
BRANCH  24  33
HETATM   33  C8  UNL     1      -3.706  52.941 -11.974  1.00  0.00     0.169 C 
BRANCH  33  34
HETATM   34  O2  UNL     1      -4.275  53.720 -13.021  1.00  0.00    -0.400 OA
HETATM   35  H15 UNL     1      -3.766  54.554 -13.059  1.00  0.00     0.209 HD
ENDBRANCH  33  34
ENDBRANCH  24  33
ENDBRANCH   1  24
TORSDOF 7
ENDMDL
MODEL 2
REMARK minimizedAffinity -7.01006794
REMARK CNNscore 0.572921932
REMARK CNNaffinity 6.99861097
REMARK  7 active torsions:
REMARK  status: ('A' for Active; 'I' for Inactive)
REMARK    1  A    between atoms: C4_4  and  C5_5 
REMARK    2  A    between atoms: C5_5  and  O1_6 
REMARK    3  A    between atoms: C5_5  and  C6_7 
REMARK    4  A    between atoms: C6_7  and  C7_8 
REMARK    5  A    between atoms: C7_8  and  C8_9 
REMARK    6  A    between atoms: C7_8  and  C9_11 
REMARK    7  A    between atoms: C8_9  and  O2_10 
ROOT
HETATM    1  C9  UNL     1      -1.840  53.163 -10.665  1.00  0.00     0.001 C 
HETATM    2  C10 UNL     1      -2.270  54.626 -10.355  1.00  0.00     0.007 C 
HETATM    3  C11 UNL     1      -1.066  55.311  -9.688  1.00  0.00     0.015 C 
HETATM    4  C12 UNL     1      -0.165  54.152  -9.216  1.00  0.00    -0.013 C 
HETATM    5  C13 UNL     1      -0.768  53.649  -7.870  1.00  0.00     0.021 C 
HETATM    6  C14 UNL     1       1.302  54.436  -8.957  1.00  0.00    -0.070 C 
HETATM    7  C15 UNL     1       1.817  55.660  -8.763  1.00  0.00    -0.022 C 
HETATM    8  C16 UNL     1       3.288  55.863  -8.594  1.00  0.00     0.034 C 
HETATM    9  C17 UNL     1       4.004  54.768  -7.757  1.00  0.00     0.013 C 
HETATM   10  C18 UNL     1       5.554  54.763  -7.982  1.00  0.00     0.018 C 
HETATM   11  C19 UNL     1       6.151  56.134  -7.581  1.00  0.00     0.023 C 
HETATM   12  C20 UNL     1       5.994  54.493  -9.432  1.00  0.00     0.023 C 
HETATM   13  C21 UNL     1       6.167  53.698  -7.064  1.00  0.00     0.135 C 
HETATM   14  O3  UNL     1       7.164  53.916  -6.369  1.00  0.00    -0.297 OA
HETATM   15  C22 UNL     1       5.534  52.330  -7.015  1.00  0.00     0.080 C 
HETATM   16  C23 UNL     1       4.314  52.181  -7.907  1.00  0.00     0.017 C 
HETATM   17  C24 UNL     1       3.295  53.344  -7.799  1.00  0.00    -0.031 C 
HETATM   18  C25 UNL     1       2.553  53.178  -6.436  1.00  0.00     0.016 C 
HETATM   19  C26 UNL     1       2.266  53.255  -8.995  1.00  0.00     0.024 C 
HETATM   20  C27 UNL     1       1.581  51.869  -9.159  1.00  0.00     0.010 C 
HETATM   21  C28 UNL     1       0.305  51.794 -10.031  1.00  0.00     0.011 C 
HETATM   22  C29 UNL     1      -0.294  53.158 -10.428  1.00  0.00    -0.029 C 
HETATM   23  C30 UNL     1       0.448  53.648 -11.705  1.00  0.00     0.016 C 
ENDROOT
BRANCH   1  24
HETATM   24  C7  UNL     1      -2.510  52.583 -11.944  1.00  0.00     0.017 C 
BRANCH  24  25
HETATM   25  C6  UNL     1      -2.365  51.053 -12.171  1.00  0.00     0.043 C 
BRANCH  25  26
HETATM   26  C5  UNL     1      -1.934  50.670 -13.601  1.00  0.00     0.141 C 
BRANCH  26  27
HETATM   27  C4  UNL     1      -0.582  51.246 -13.919  1.00  0.00     0.006 C 
HETATM   28  C2  UNL     1       0.301  50.849 -14.858  1.00  0.00    -0.089 C 
HETATM   29  C1  UNL     1       0.106  49.708 -15.818  1.00  0.00     0.042 C 
HETATM   30  C3  UNL     1       1.618  51.565 -15.015  1.00  0.00     0.042 C 
ENDBRANCH  26  27
BRANCH  26  31
HETATM   31  O1  UNL     1      -2.857  51.237 -14.529  1.00  0.00    -0.392 OA
HETATM   32  H9  UNL     1      -2.436  51.187 -15.405  1.00  0.00     0.210 HD
ENDBRANCH  26  31
ENDBRANCH  25  26
ENDBRANCH  24  25
BRANCH  24  33
HETATM   33  C8  UNL     1      -3.982  53.014 -12.046  1.00  0.00     0.169 C 
BRANCH  33  34
HETATM   34  O2  UNL     1      -4.230  53.700 -13.269  1.00  0.00    -0.400 OA
HETATM   35  H15 UNL     1      -3.597  54.444 -13.307  1.00  0.00     0.209 HD
ENDBRANCH  33  34
ENDBRANCH  24  33
ENDBRANCH   1  24
TORSDOF 7
ENDMDL
MODEL 3
REMARK minimizedAffinity -9.18680573
REMARK CNNscore 0.532944202
REMARK CNNaffinity 7.24990654
REMARK  7 active torsions:
REMARK  status: ('A' for Active; 'I' for Inactive)
REMARK    1  A    between atoms: C4_4  and  C5_5 
REMARK    2  A    between atoms: C5_5  and  O1_6 
REMARK    3  A    between atoms: C5_5  and  C6_7 
REMARK    4  A    between atoms: C6_7  and  C7_8 
REMARK    5  A    between atoms: C7_8  and  C8_9 
REMARK    6  A    between atoms: C7_8  and  C9_11 
REMARK    7  A    between atoms: C8_9  and  O2_10 
ROOT
HETATM    1  C9  UNL     1      -3.855  50.336 -24.891  1.00  0.00     0.001 C 
HETATM    2  C10 UNL     1      -4.309  51.803 -24.641  1.00  0.00     0.007 C 
HETATM    3  C11 UNL     1      -4.217  52.043 -23.125  1.00  0.00     0.015 C 
HETATM    4  C12 UNL     1      -4.168  50.632 -22.505  1.00  0.00    -0.013 C 
HETATM    5  C13 UNL     1      -5.642  50.126 -22.450  1.00  0.00     0.021 C 
HETATM    6  C14 UNL     1      -3.603  50.476 -21.107  1.00  0.00    -0.070 C 
HETATM    7  C15 UNL     1      -3.463  51.480 -20.226  1.00  0.00    -0.022 C 
HETATM    8  C16 UNL     1      -2.820  51.259 -18.895  1.00  0.00     0.034 C 
HETATM    9  C17 UNL     1      -3.177  49.907 -18.217  1.00  0.00     0.013 C 
HETATM   10  C18 UNL     1      -2.164  49.521 -17.087  1.00  0.00     0.018 C 
HETATM   11  C19 UNL     1      -2.153  50.614 -15.990  1.00  0.00     0.023 C 
HETATM   12  C20 UNL     1      -0.709  49.347 -17.556  1.00  0.00     0.023 C 
HETATM   13  C21 UNL     1      -2.644  48.215 -16.441  1.00  0.00     0.135 C 
HETATM   14  O3  UNL     1      -2.698  48.060 -15.217  1.00  0.00    -0.297 OA
HETATM   15  C22 UNL     1      -3.056  47.071 -17.335  1.00  0.00     0.080 C 
HETATM   16  C23 UNL     1      -2.951  47.378 -18.819  1.00  0.00     0.017 C 
HETATM   17  C24 UNL     1      -3.553  48.743 -19.235  1.00  0.00    -0.031 C 
HETATM   18  C25 UNL     1      -5.106  48.594 -19.184  1.00  0.00     0.016 C 
HETATM   19  C26 UNL     1      -3.089  49.098 -20.703  1.00  0.00     0.024 C 
HETATM   20  C27 UNL     1      -3.348  47.981 -21.754  1.00  0.00     0.010 C 
HETATM   21  C28 UNL     1      -3.288  48.371 -23.249  1.00  0.00     0.011 C 
HETATM   22  C29 UNL     1      -3.235  49.886 -23.528  1.00  0.00    -0.029 C 
HETATM   23  C30 UNL     1      -1.747  50.333 -23.438  1.00  0.00     0.016 C 
ENDROOT
BRANCH   1  24
HETATM   24  C7  UNL     1      -3.141  50.138 -26.260  1.00  0.00     0.017 C 
BRANCH  24  25
HETATM   25  C6  UNL     1      -1.633  50.508 -26.317  1.00  0.00     0.043 C 
BRANCH  25  26
HETATM   26  C5  UNL     1      -1.280  51.536 -27.410  1.00  0.00     0.141 C 
BRANCH  26  27
HETATM   27  C4  UNL     1       0.199  51.535 -27.681  1.00  0.00     0.006 C 
HETATM   28  C2  UNL     1       1.212  51.742 -26.816  1.00  0.00    -0.089 C 
HETATM   29  C1  UNL     1       1.066  52.023 -25.345  1.00  0.00     0.042 C 
HETATM   30  C3  UNL     1       2.642  51.705 -27.294  1.00  0.00     0.042 C 
ENDBRANCH  26  27
BRANCH  26  31
HETATM   31  O1  UNL     1      -1.617  52.840 -26.942  1.00  0.00    -0.392 OA
HETATM   32  H9  UNL     1      -1.170  53.471 -27.534  1.00  0.00     0.210 HD
ENDBRANCH  26  31
ENDBRANCH  25  26
ENDBRANCH  24  25
BRANCH  24  33
HETATM   33  C8  UNL     1      -3.380  48.725 -26.814  1.00  0.00     0.169 C 
BRANCH  33  34
HETATM   34  O2  UNL     1      -3.701  48.767 -28.200  1.00  0.00    -0.400 OA
HETATM   35  H15 UNL     1      -4.471  49.362 -28.292  1.00  0.00     0.209 HD
ENDBRANCH  33  34
ENDBRANCH  24  33
ENDBRANCH   1  24
TORSDOF 7
ENDMDL
MODEL 4
REMARK minimizedAffinity -7.46553373
REMARK CNNscore 0.442135632
REMARK CNNaffinity 6.72727203
REMARK  7 active torsions:
REMARK  status: ('A' for Active; 'I' for Inactive)
REMARK    1  A    between atoms: C4_4  and  C5_5 
REMARK    2  A    between atoms: C5_5  and  O1_6 
REMARK    3  A    between atoms: C5_5  and  C6_7 
REMARK    4  A    between atoms: C6_7  and  C7_8 
REMARK    5  A    between atoms: C7_8  and  C8_9 
REMARK    6  A    between atoms: C7_8  and  C9_11 
REMARK    7  A    between atoms: C8_9  and  O2_10 
ROOT
HETATM    1  C9  UNL     1       1.791  55.530  -9.457  1.00  0.00     0.001 C 
HETATM    2  C10 UNL     1       1.296  55.797  -8.007  1.00  0.00     0.007 C 
HETATM    3  C11 UNL     1       0.150  54.807  -7.739  1.00  0.00     0.015 C 
HETATM    4  C12 UNL     1      -0.292  54.330  -9.137  1.00  0.00    -0.013 C 
HETATM    5  C13 UNL     1      -1.231  55.438  -9.703  1.00  0.00     0.021 C 
HETATM    6  C14 UNL     1      -1.049  53.020  -9.248  1.00  0.00    -0.070 C 
HETATM    7  C15 UNL     1      -1.673  52.414  -8.226  1.00  0.00    -0.022 C 
HETATM    8  C16 UNL     1      -2.329  51.082  -8.400  1.00  0.00     0.034 C 
HETATM    9  C17 UNL     1      -3.066  50.892  -9.754  1.00  0.00     0.013 C 
HETATM   10  C18 UNL     1      -3.334  49.384 -10.081  1.00  0.00     0.018 C 
HETATM   11  C19 UNL     1      -4.209  48.750  -8.972  1.00  0.00     0.023 C 
HETATM   12  C20 UNL     1      -2.070  48.515 -10.201  1.00  0.00     0.023 C 
HETATM   13  C21 UNL     1      -4.122  49.313 -11.396  1.00  0.00     0.135 C 
HETATM   14  O3  UNL     1      -5.120  48.600 -11.533  1.00  0.00    -0.297 OA
HETATM   15  C22 UNL     1      -3.652  50.137 -12.568  1.00  0.00     0.080 C 
HETATM   16  C23 UNL     1      -2.419  50.975 -12.281  1.00  0.00     0.017 C 
HETATM   17  C24 UNL     1      -2.476  51.763 -10.948  1.00  0.00    -0.031 C 
HETATM   18  C25 UNL     1      -3.465  52.952 -11.161  1.00  0.00     0.016 C 
HETATM   19  C26 UNL     1      -1.035  52.310 -10.598  1.00  0.00     0.024 C 
HETATM   20  C27 UNL     1      -0.349  53.110 -11.740  1.00  0.00     0.010 C 
HETATM   21  C28 UNL     1       0.865  53.995 -11.372  1.00  0.00     0.011 C 
HETATM   22  C29 UNL     1       1.098  54.187  -9.860  1.00  0.00    -0.029 C 
HETATM   23  C30 UNL     1       1.932  52.976  -9.351  1.00  0.00     0.016 C 
ENDROOT
BRANCH   1  24
HETATM   24  C7  UNL     1       3.312  55.796  -9.647  1.00  0.00     0.017 C 
BRANCH  24  25
HETATM   25  C6  UNL     1       4.256  54.571  -9.498  1.00  0.00     0.043 C 
BRANCH  25  26
HETATM   26  C5  UNL     1       5.580  54.883  -8.773  1.00  0.00     0.141 C 
BRANCH  26  27
HETATM   27  C4  UNL     1       5.417  56.064  -7.856  1.00  0.00     0.006 C 
HETATM   28  C2  UNL     1       6.223  56.467  -6.853  1.00  0.00    -0.089 C 
HETATM   29  C1  UNL     1       7.500  55.795  -6.431  1.00  0.00     0.042 C 
HETATM   30  C3  UNL     1       5.874  57.688  -6.041  1.00  0.00     0.042 C 
ENDBRANCH  26  27
BRANCH  26  31
HETATM   31  O1  UNL     1       6.563  55.241  -9.742  1.00  0.00    -0.392 OA
HETATM   32  H9  UNL     1       7.295  55.658  -9.254  1.00  0.00     0.210 HD
ENDBRANCH  26  31
ENDBRANCH  25  26
ENDBRANCH  24  25
BRANCH  24  33
HETATM   33  C8  UNL     1       3.588  56.543 -10.961  1.00  0.00     0.169 C 
BRANCH  33  34
HETATM   34  O2  UNL     1       4.287  55.713 -11.883  1.00  0.00    -0.400 OA
HETATM   35  H15 UNL     1       5.095  55.404 -11.427  1.00  0.00     0.209 HD
ENDBRANCH  33  34
ENDBRANCH  24  33
ENDBRANCH   1  24
TORSDOF 7
ENDMDL
MODEL 5
REMARK minimizedAffinity -8.57039356
REMARK CNNscore 0.43178612
REMARK CNNaffinity 6.74870825
REMARK  7 active torsions:
REMARK  status: ('A' for Active; 'I' for Inactive)
REMARK    1  A    between atoms: C4_4  and  C5_5 
REMARK    2  A    between atoms: C5_5  and  O1_6 
REMARK    3  A    between atoms: C5_5  and  C6_7 
REMARK    4  A    between atoms: C6_7  and  C7_8 
REMARK    5  A    between atoms: C7_8  and  C8_9 
REMARK    6  A    between atoms: C7_8  and  C9_11 
REMARK    7  A    between atoms: C8_9  and  O2_10 
ROOT
HETATM    1  C9  UNL     1      -0.881  50.894 -21.313  1.00  0.00     0.001 C 
HETATM    2  C10 UNL     1      -0.041  49.731 -20.710  1.00  0.00     0.007 C 
HETATM    3  C11 UNL     1      -1.003  48.550 -20.502  1.00  0.00     0.015 C 
HETATM    4  C12 UNL     1      -2.411  49.178 -20.544  1.00  0.00    -0.013 C 
HETATM    5  C13 UNL     1      -2.665  49.780 -19.128  1.00  0.00     0.021 C 
HETATM    6  C14 UNL     1      -3.594  48.280 -20.852  1.00  0.00    -0.070 C 
HETATM    7  C15 UNL     1      -3.580  46.942 -20.750  1.00  0.00    -0.022 C 
HETATM    8  C16 UNL     1      -4.764  46.122 -21.152  1.00  0.00     0.034 C 
HETATM    9  C17 UNL     1      -6.140  46.741 -20.781  1.00  0.00     0.013 C 
HETATM   10  C18 UNL     1      -7.318  46.108 -21.595  1.00  0.00     0.018 C 
HETATM   11  C19 UNL     1      -7.392  44.586 -21.320  1.00  0.00     0.023 C 
HETATM   12  C20 UNL     1      -7.214  46.280 -23.120  1.00  0.00     0.023 C 
HETATM   13  C21 UNL     1      -8.629  46.736 -21.105  1.00  0.00     0.135 C 
HETATM   14  O3  UNL     1      -9.629  46.063 -20.839  1.00  0.00    -0.297 OA
HETATM   15  C22 UNL     1      -8.703  48.235 -20.954  1.00  0.00     0.080 C 
HETATM   16  C23 UNL     1      -7.414  48.957 -21.307  1.00  0.00     0.017 C 
HETATM   17  C24 UNL     1      -6.139  48.330 -20.689  1.00  0.00    -0.031 C 
HETATM   18  C25 UNL     1      -6.144  48.686 -19.169  1.00  0.00     0.016 C 
HETATM   19  C26 UNL     1      -4.860  48.941 -21.387  1.00  0.00     0.024 C 
HETATM   20  C27 UNL     1      -4.814  50.495 -21.412  1.00  0.00     0.010 C 
HETATM   21  C28 UNL     1      -3.457  51.171 -21.716  1.00  0.00     0.011 C 
HETATM   22  C29 UNL     1      -2.240  50.226 -21.703  1.00  0.00    -0.029 C 
HETATM   23  C30 UNL     1      -2.134  49.571 -23.111  1.00  0.00     0.016 C 
ENDROOT
BRANCH   1  24
HETATM   24  C7  UNL     1      -0.067  51.803 -22.279  1.00  0.00     0.017 C 
BRANCH  24  25
HETATM   25  C6  UNL     1      -0.884  52.795 -23.153  1.00  0.00     0.043 C 
BRANCH  25  26
HETATM   26  C5  UNL     1      -0.756  52.548 -24.669  1.00  0.00     0.141 C 
BRANCH  26  27
HETATM   27  C4  UNL     1       0.635  52.093 -25.017  1.00  0.00     0.006 C 
HETATM   28  C2  UNL     1       1.076  51.544 -26.166  1.00  0.00    -0.089 C 
HETATM   29  C1  UNL     1       0.239  51.266 -27.384  1.00  0.00     0.042 C 
HETATM   30  C3  UNL     1       2.524  51.149 -26.314  1.00  0.00     0.042 C 
ENDBRANCH  26  27
BRANCH  26  31
HETATM   31  O1  UNL     1      -0.976  53.777 -25.357  1.00  0.00    -0.392 OA
HETATM   32  H9  UNL     1      -0.657  53.647 -26.267  1.00  0.00     0.210 HD
ENDBRANCH  26  31
ENDBRANCH  25  26
ENDBRANCH  24  25
BRANCH  24  33
HETATM   33  C8  UNL     1       1.066  52.531 -21.538  1.00  0.00     0.169 C 
BRANCH  33  34
HETATM   34  O2  UNL     1       1.240  53.851 -22.042  1.00  0.00    -0.400 OA
HETATM   35  H15 UNL     1       1.388  53.767 -23.005  1.00  0.00     0.209 HD
ENDBRANCH  33  34
ENDBRANCH  24  33
ENDBRANCH   1  24
TORSDOF 7
ENDMDL
MODEL 6
REMARK minimizedAffinity -8.21735191
REMARK CNNscore 0.414618164
REMARK CNNaffinity 7.19774246
REMARK  7 active torsions:
REMARK  status: ('A' for Active; 'I' for Inactive)
REMARK    1  A    between atoms: C4_4  and  C5_5 
REMARK    2  A    between atoms: C5_5  and  O1_6 
REMARK    3  A    between atoms: C5_5  and  C6_7 
REMARK    4  A    between atoms: C6_7  and  C7_8 
REMARK    5  A    between atoms: C7_8  and  C8_9 
REMARK    6  A    between atoms: C7_8  and  C9_11 
REMARK    7  A    between atoms: C8_9  and  O2_10 
ROOT
HETATM    1  C9  UNL     1      -2.308  50.046 -22.651  1.00  0.00     0.001 C 
HETATM    2  C10 UNL     1      -3.065  48.686 -22.638  1.00  0.00     0.007 C 
HETATM    3  C11 UNL     1      -3.201  48.268 -21.165  1.00  0.00     0.015 C 
HETATM    4  C12 UNL     1      -2.154  49.117 -20.416  1.00  0.00    -0.013 C 
HETATM    5  C13 UNL     1      -0.785  48.397 -20.611  1.00  0.00     0.021 C 
HETATM    6  C14 UNL     1      -2.326  49.326 -18.924  1.00  0.00    -0.070 C 
HETATM    7  C15 UNL     1      -3.099  48.565 -18.134  1.00  0.00    -0.022 C 
HETATM    8  C16 UNL     1      -3.280  48.888 -16.685  1.00  0.00     0.034 C 
HETATM    9  C17 UNL     1      -2.000  49.396 -15.967  1.00  0.00     0.013 C 
HETATM   10  C18 UNL     1      -2.322  50.134 -14.625  1.00  0.00     0.018 C 
HETATM   11  C19 UNL     1      -3.059  49.177 -13.658  1.00  0.00     0.023 C 
HETATM   12  C20 UNL     1      -3.206  51.385 -14.773  1.00  0.00     0.023 C 
HETATM   13  C21 UNL     1      -0.993  50.532 -13.968  1.00  0.00     0.135 C 
HETATM   14  O3  UNL     1      -0.761  50.337 -12.771  1.00  0.00    -0.297 OA
HETATM   15  C22 UNL     1       0.065  51.196 -14.813  1.00  0.00     0.080 C 
HETATM   16  C23 UNL     1      -0.331  51.380 -16.267  1.00  0.00     0.017 C 
HETATM   17  C24 UNL     1      -0.958  50.126 -16.925  1.00  0.00    -0.031 C 
HETATM   18  C25 UNL     1       0.202  49.110 -17.173  1.00  0.00     0.016 C 
HETATM   19  C26 UNL     1      -1.631  50.530 -18.296  1.00  0.00     0.024 C 
HETATM   20  C27 UNL     1      -0.705  51.318 -19.266  1.00  0.00     0.010 C 
HETATM   21  C28 UNL     1      -1.133  51.417 -20.749  1.00  0.00     0.011 C 
HETATM   22  C29 UNL     1      -2.302  50.498 -21.154  1.00  0.00    -0.029 C 
HETATM   23  C30 UNL     1      -3.628  51.237 -20.809  1.00  0.00     0.016 C 
ENDROOT
BRANCH   1  24
HETATM   24  C7  UNL     1      -2.735  50.977 -23.823  1.00  0.00     0.017 C 
BRANCH  24  25
HETATM   25  C6  UNL     1      -1.932  50.842 -25.146  1.00  0.00     0.043 C 
BRANCH  25  26
HETATM   26  C5  UNL     1      -1.185  52.125 -25.559  1.00  0.00     0.141 C 
BRANCH  26  27
HETATM   27  C4  UNL     1       0.297  51.878 -25.626  1.00  0.00     0.006 C 
HETATM   28  C2  UNL     1       1.068  51.683 -26.715  1.00  0.00    -0.089 C 
HETATM   29  C1  UNL     1       0.588  51.676 -28.140  1.00  0.00     0.042 C 
HETATM   30  C3  UNL     1       2.549  51.445 -26.565  1.00  0.00     0.042 C 
ENDBRANCH  26  27
BRANCH  26  31
HETATM   31  O1  UNL     1      -1.396  53.123 -24.563  1.00  0.00    -0.392 OA
HETATM   32  H9  UNL     1      -0.733  53.819 -24.722  1.00  0.00     0.210 HD
ENDBRANCH  26  31
ENDBRANCH  25  26
ENDBRANCH  24  25
BRANCH  24  33
HETATM   33  C8  UNL     1      -4.246  50.881 -24.088  1.00  0.00     0.169 C 
BRANCH  33  34
HETATM   34  O2  UNL     1      -4.504  50.395 -25.401  1.00  0.00    -0.400 OA
HETATM   35  H15 UNL     1      -4.032  50.988 -26.018  1.00  0.00     0.209 HD
ENDBRANCH  33  34
ENDBRANCH  24  33
ENDBRANCH   1  24
TORSDOF 7
ENDMDL
MODEL 7
REMARK minimizedAffinity -8.804492
REMARK CNNscore 0.391411453
REMARK CNNaffinity 6.6742692
REMARK  7 active torsions:
REMARK  status: ('A' for Active; 'I' for Inactive)
REMARK    1  A    between atoms: C4_4  and  C5_5 
REMARK    2  A    between atoms: C5_5  and  O1_6 
REMARK    3  A    between atoms: C5_5  and  C6_7 
REMARK    4  A    between atoms: C6_7  and  C7_8 
REMARK    5  A    between atoms: C7_8  and  C8_9 
REMARK    6  A    between atoms: C7_8  and  C9_11 
REMARK    7  A    between atoms: C8_9  and  O2_10 
ROOT
HETATM    1  C9  UNL     1      -2.720  50.718 -24.481  1.00  0.00     0.001 C 
HETATM    2  C10 UNL     1      -2.821  49.571 -25.527  1.00  0.00     0.007 C 
HETATM    3  C11 UNL     1      -3.770  48.515 -24.938  1.00  0.00     0.015 C 
HETATM    4  C12 UNL     1      -3.826  48.833 -23.430  1.00  0.00    -0.013 C 
HETATM    5  C13 UNL     1      -2.549  48.199 -22.801  1.00  0.00     0.021 C 
HETATM    6  C14 UNL     1      -5.006  48.322 -22.627  1.00  0.00    -0.070 C 
HETATM    7  C15 UNL     1      -5.823  47.332 -23.021  1.00  0.00    -0.022 C 
HETATM    8  C16 UNL     1      -7.015  46.941 -22.207  1.00  0.00     0.034 C 
HETATM    9  C17 UNL     1      -6.788  46.959 -20.671  1.00  0.00     0.013 C 
HETATM   10  C18 UNL     1      -8.132  46.994 -19.869  1.00  0.00     0.018 C 
HETATM   11  C19 UNL     1      -8.982  45.746 -20.208  1.00  0.00     0.023 C 
HETATM   12  C20 UNL     1      -9.016  48.223 -20.145  1.00  0.00     0.023 C 
HETATM   13  C21 UNL     1      -7.798  46.940 -18.373  1.00  0.00     0.135 C 
HETATM   14  O3  UNL     1      -8.382  46.185 -17.589  1.00  0.00    -0.297 OA
HETATM   15  C22 UNL     1      -6.721  47.850 -17.836  1.00  0.00     0.080 C 
HETATM   16  C23 UNL     1      -6.072  48.729 -18.891  1.00  0.00     0.017 C 
HETATM   17  C24 UNL     1      -5.668  47.982 -20.187  1.00  0.00    -0.031 C 
HETATM   18  C25 UNL     1      -4.405  47.129 -19.849  1.00  0.00     0.016 C 
HETATM   19  C26 UNL     1      -5.329  49.033 -21.317  1.00  0.00     0.024 C 
HETATM   20  C27 UNL     1      -4.297  50.120 -20.903  1.00  0.00     0.010 C 
HETATM   21  C28 UNL     1      -3.623  50.940 -22.029  1.00  0.00     0.011 C 
HETATM   22  C29 UNL     1      -3.859  50.405 -23.455  1.00  0.00    -0.029 C 
HETATM   23  C30 UNL     1      -5.213  50.982 -23.960  1.00  0.00     0.016 C 
ENDROOT
BRANCH   1  24
HETATM   24  C7  UNL     1      -2.512  52.120 -25.124  1.00  0.00     0.017 C 
BRANCH  24  25
HETATM   25  C6  UNL     1      -1.291  52.940 -24.622  1.00  0.00     0.043 C 
BRANCH  25  26
HETATM   26  C5  UNL     1      -0.334  53.391 -25.743  1.00  0.00     0.141 C 
BRANCH  26  27
HETATM   27  C4  UNL     1       0.925  52.568 -25.730  1.00  0.00     0.006 C 
HETATM   28  C2  UNL     1       1.471  51.852 -26.733  1.00  0.00    -0.089 C 
HETATM   29  C1  UNL     1       0.917  51.727 -28.125  1.00  0.00     0.042 C 
HETATM   30  C3  UNL     1       2.750  51.084 -26.510  1.00  0.00     0.042 C 
ENDBRANCH  26  27
BRANCH  26  31
HETATM   31  O1  UNL     1       0.051  54.743 -25.505  1.00  0.00    -0.392 OA
HETATM   32  H9  UNL     1       0.822  54.917 -26.073  1.00  0.00     0.210 HD
ENDBRANCH  26  31
ENDBRANCH  25  26
ENDBRANCH  24  25
BRANCH  24  33
HETATM   33  C8  UNL     1      -2.521  52.036 -26.658  1.00  0.00     0.169 C 
BRANCH  33  34
HETATM   34  O2  UNL     1      -2.480  53.335 -27.241  1.00  0.00    -0.400 OA
HETATM   35  H15 UNL     1      -3.234  53.834 -26.868  1.00  0.00     0.209 HD
ENDBRANCH  33  34
ENDBRANCH  24  33
ENDBRANCH   1  24
TORSDOF 7
ENDMDL
MODEL 8
REMARK minimizedAffinity -7.31021643
REMARK CNNscore 0.382232606
REMARK CNNaffinity 6.79240656
REMARK  7 active torsions:
REMARK  status: ('A' for Active; 'I' for Inactive)
REMARK    1  A    between atoms: C4_4  and  C5_5 
REMARK    2  A    between atoms: C5_5  and  O1_6 
REMARK    3  A    between atoms: C5_5  and  C6_7 
REMARK    4  A    between atoms: C6_7  and  C7_8 
REMARK    5  A    between atoms: C7_8  and  C8_9 
REMARK    6  A    between atoms: C7_8  and  C9_11 
REMARK    7  A    between atoms: C8_9  and  O2_10 
ROOT
HETATM    1  C9  UNL     1      -1.627  51.979 -11.041  1.00  0.00     0.001 C 
HETATM    2  C10 UNL     1      -2.340  51.868  -9.662  1.00  0.00     0.007 C 
HETATM    3  C11 UNL     1      -1.406  52.513  -8.626  1.00  0.00     0.015 C 
HETATM    4  C12 UNL     1      -0.026  52.558  -9.315  1.00  0.00    -0.013 C 
HETATM    5  C13 UNL     1       0.591  51.136  -9.153  1.00  0.00     0.021 C 
HETATM    6  C14 UNL     1       1.007  53.541  -8.800  1.00  0.00    -0.070 C 
HETATM    7  C15 UNL     1       0.964  54.127  -7.593  1.00  0.00    -0.022 C 
HETATM    8  C16 UNL     1       1.979  55.149  -7.191  1.00  0.00     0.034 C 
HETATM    9  C17 UNL     1       3.427  54.848  -7.663  1.00  0.00     0.013 C 
HETATM   10  C18 UNL     1       4.343  56.117  -7.627  1.00  0.00     0.018 C 
HETATM   11  C19 UNL     1       4.421  56.673  -6.185  1.00  0.00     0.023 C 
HETATM   12  C20 UNL     1       3.875  57.276  -8.526  1.00  0.00     0.023 C 
HETATM   13  C21 UNL     1       5.759  55.697  -8.044  1.00  0.00     0.135 C 
HETATM   14  O3  UNL     1       6.765  56.047  -7.420  1.00  0.00    -0.297 OA
HETATM   15  C22 UNL     1       5.929  54.834  -9.269  1.00  0.00     0.080 C 
HETATM   16  C23 UNL     1       4.624  54.465  -9.951  1.00  0.00     0.017 C 
HETATM   17  C24 UNL     1       3.514  53.971  -8.989  1.00  0.00    -0.031 C 
HETATM   18  C25 UNL     1       3.906  52.527  -8.541  1.00  0.00     0.016 C 
HETATM   19  C26 UNL     1       2.129  53.947  -9.749  1.00  0.00     0.024 C 
HETATM   20  C27 UNL     1       2.142  53.174 -11.099  1.00  0.00     0.010 C 
HETATM   21  C28 UNL     1       0.780  52.772 -11.712  1.00  0.00     0.011 C 
HETATM   22  C29 UNL     1      -0.434  52.955 -10.781  1.00  0.00    -0.029 C 
HETATM   23  C30 UNL     1      -0.909  54.432 -10.905  1.00  0.00     0.016 C 
ENDROOT
BRANCH   1  24
HETATM   24  C7  UNL     1      -2.615  52.136 -12.233  1.00  0.00     0.017 C 
BRANCH  24  25
HETATM   25  C6  UNL     1      -3.113  50.824 -12.901  1.00  0.00     0.043 C 
BRANCH  25  26
HETATM   26  C5  UNL     1      -2.752  50.705 -14.395  1.00  0.00     0.141 C 
BRANCH  26  27
HETATM   27  C4  UNL     1      -1.338  51.157 -14.637  1.00  0.00     0.006 C 
HETATM   28  C2  UNL     1      -0.424  50.641 -15.483  1.00  0.00    -0.089 C 
HETATM   29  C1  UNL     1      -0.639  49.465 -16.395  1.00  0.00     0.042 C 
HETATM   30  C3  UNL     1       0.955  51.244 -15.573  1.00  0.00     0.042 C 
ENDBRANCH  26  27
BRANCH  26  31
HETATM   31  O1  UNL     1      -3.601  51.572 -15.145  1.00  0.00    -0.392 OA
HETATM   32  H9  UNL     1      -3.199  51.658 -16.028  1.00  0.00     0.210 HD
ENDBRANCH  26  31
ENDBRANCH  25  26
ENDBRANCH  24  25
BRANCH  24  33
HETATM   33  C8  UNL     1      -3.799  53.043 -11.860  1.00  0.00     0.169 C 
BRANCH  33  34
HETATM   34  O2  UNL     1      -4.280  53.749 -12.999  1.00  0.00    -0.400 OA
HETATM   35  H15 UNL     1      -3.516  54.230 -13.375  1.00  0.00     0.209 HD
ENDBRANCH  33  34
ENDBRANCH  24  33
ENDBRANCH   1  24
TORSDOF 7
ENDMDL
MODEL 9
REMARK minimizedAffinity -8.49727726
REMARK CNNscore 0.369048417
REMARK CNNaffinity 6.69461775
REMARK  7 active torsions:
REMARK  status: ('A' for Active; 'I' for Inactive)
REMARK    1  A    between atoms: C4_4  and  C5_5 
REMARK    2  A    between atoms: C5_5  and  O1_6 
REMARK    3  A    between atoms: C5_5  and  C6_7 
REMARK    4  A    between atoms: C6_7  and  C7_8 
REMARK    5  A    between atoms: C7_8  and  C8_9 
REMARK    6  A    between atoms: C7_8  and  C9_11 
REMARK    7  A    between atoms: C8_9  and  O2_10 
ROOT
HETATM    1  C9  UNL     1      -2.711  51.900 -22.899  1.00  0.00     0.001 C 
HETATM    2  C10 UNL     1      -1.624  51.462 -21.875  1.00  0.00     0.007 C 
HETATM    3  C11 UNL     1      -2.184  50.241 -21.128  1.00  0.00     0.015 C 
HETATM    4  C12 UNL     1      -3.703  50.283 -21.389  1.00  0.00    -0.013 C 
HETATM    5  C13 UNL     1      -4.293  51.313 -20.379  1.00  0.00     0.021 C 
HETATM    6  C14 UNL     1      -4.501  49.004 -21.221  1.00  0.00    -0.070 C 
HETATM    7  C15 UNL     1      -4.080  47.929 -20.536  1.00  0.00    -0.022 C 
HETATM    8  C16 UNL     1      -4.892  46.675 -20.487  1.00  0.00     0.034 C 
HETATM    9  C17 UNL     1      -6.426  46.898 -20.375  1.00  0.00     0.013 C 
HETATM   10  C18 UNL     1      -7.244  45.625 -20.777  1.00  0.00     0.018 C 
HETATM   11  C19 UNL     1      -6.869  44.441 -19.854  1.00  0.00     0.023 C 
HETATM   12  C20 UNL     1      -7.025  45.148 -22.224  1.00  0.00     0.023 C 
HETATM   13  C21 UNL     1      -8.733  45.929 -20.567  1.00  0.00     0.135 C 
HETATM   14  O3  UNL     1      -9.495  45.146 -19.991  1.00  0.00    -0.297 OA
HETATM   15  C22 UNL     1      -9.291  47.228 -21.094  1.00  0.00     0.080 C 
HETATM   16  C23 UNL     1      -8.262  48.109 -21.780  1.00  0.00     0.017 C 
HETATM   17  C24 UNL     1      -6.935  48.272 -20.998  1.00  0.00    -0.031 C 
HETATM   18  C25 UNL     1      -7.225  49.223 -19.795  1.00  0.00     0.016 C 
HETATM   19  C26 UNL     1      -5.841  48.909 -21.944  1.00  0.00     0.024 C 
HETATM   20  C27 UNL     1      -6.282  50.218 -22.658  1.00  0.00     0.010 C 
HETATM   21  C28 UNL     1      -5.180  51.105 -23.283  1.00  0.00     0.011 C 
HETATM   22  C29 UNL     1      -3.738  50.721 -22.899  1.00  0.00    -0.029 C 
HETATM   23  C30 UNL     1      -3.271  49.600 -23.872  1.00  0.00     0.016 C 
ENDROOT
BRANCH   1  24
HETATM   24  C7  UNL     1      -2.118  52.517 -24.199  1.00  0.00     0.017 C 
BRANCH  24  25
HETATM   25  C6  UNL     1      -0.576  52.436 -24.366  1.00  0.00     0.043 C 
BRANCH  25  26
HETATM   26  C5  UNL     1       0.026  53.586 -25.197  1.00  0.00     0.141 C 
BRANCH  26  27
HETATM   27  C4  UNL     1       0.352  53.120 -26.590  1.00  0.00     0.006 C 
HETATM   28  C2  UNL     1       1.208  52.152 -26.973  1.00  0.00    -0.089 C 
HETATM   29  C1  UNL     1       2.042  51.304 -26.052  1.00  0.00     0.042 C 
HETATM   30  C3  UNL     1       1.397  51.838 -28.436  1.00  0.00     0.042 C 
ENDBRANCH  26  27
BRANCH  26  31
HETATM   31  O1  UNL     1       1.254  53.995 -24.598  1.00  0.00    -0.392 OA
HETATM   32  H9  UNL     1       1.719  54.537 -25.259  1.00  0.00     0.210 HD
ENDBRANCH  26  31
ENDBRANCH  25  26
ENDBRANCH  24  25
BRANCH  24  33
HETATM   33  C8  UNL     1      -2.833  51.978 -25.448  1.00  0.00     0.169 C 
BRANCH  33  34
HETATM   34  O2  UNL     1      -3.104  53.026 -26.374  1.00  0.00    -0.400 OA
HETATM   35  H15 UNL     1      -3.614  53.704 -25.889  1.00  0.00     0.209 HD
ENDBRANCH  33  34
ENDBRANCH  24  33
ENDBRANCH   1  24
TORSDOF 7
ENDMDL
