MODEL 1
REMARK minimizedAffinity -8.73924065
REMARK  5 active torsions:
REMARK  status: ('A' for Active; 'I' for Inactive)
REMARK    1  A    between atoms: N2_12  and  C9_13 
REMARK    2  A    between atoms: C9_13  and  C10_14 
REMARK    3  A    between atoms: C10_14  and  C11_15 
REMARK    4  A    between atoms: C11_15  and  N3_16 
REMARK    5  A    between atoms: N4_19  and  C14_20 
ROOT
HETATM    1  C9  UNL     1      -1.523  51.537 -19.267  1.00  0.00     0.139 C 
ENDROOT
BRANCH   1   2
HETATM    2  N2  UNL     1      -0.335  51.810 -18.467  1.00  0.00    -0.266 N 
HETATM    3  C1  UNL     1       0.484  52.859 -18.856  1.00  0.00     0.329 A 
HETATM    4  O1  UNL     1       0.285  53.562 -19.845  1.00  0.00    -0.246 OA
HETATM    5  N1  UNL     1       1.577  53.107 -18.075  1.00  0.00    -0.307 N 
HETATM    6  C2  UNL     1       1.890  52.391 -16.925  1.00  0.00     0.052 A 
HETATM    7  H1  UNL     1       2.164  53.872 -18.384  1.00  0.00     0.170 HD
HETATM    8  C3  UNL     1       3.031  52.712 -16.190  1.00  0.00     0.030 A 
HETATM    9  C7  UNL     1       1.057  51.358 -16.509  1.00  0.00     0.059 A 
HETATM   10  C4  UNL     1       3.333  51.990 -15.033  1.00  0.00     0.002 A 
HETATM   11  C5  UNL     1       2.498  50.952 -14.614  1.00  0.00     0.001 A 
HETATM   12  C6  UNL     1       1.357  50.635 -15.350  1.00  0.00     0.019 A 
HETATM   13  C8  UNL     1      -0.143  51.053 -17.312  1.00  0.00     0.264 A 
HETATM   14  O2  UNL     1      -0.910  50.169 -16.934  1.00  0.00    -0.267 OA
ENDBRANCH   1   2
BRANCH   1  15
HETATM   15  C10 UNL     1      -1.169  50.844 -20.587  1.00  0.00     0.050 C 
BRANCH  15  16
HETATM   16  C11 UNL     1      -2.433  50.329 -21.286  1.00  0.00     0.274 C 
BRANCH  16  17
HETATM   17  N3  UNL     1      -2.612  50.897 -22.631  1.00  0.00     0.091 N 
HETATM   18  C12 UNL     1      -2.393  49.888 -23.695  1.00  0.00     0.292 C 
HETATM   19  C13 UNL     1      -1.930  50.471 -25.051  1.00  0.00     0.153 C 
HETATM   20  N4  UNL     1      -0.654  51.186 -24.897  1.00  0.00    -0.378 N 
HETATM   21  C20 UNL     1      -0.417  51.818 -23.589  1.00  0.00     0.153 C 
HETATM   22  C21 UNL     1      -1.747  52.080 -22.843  1.00  0.00     0.292 C 
BRANCH  20  23
HETATM   23  C14 UNL     1       0.210  51.386 -25.961  1.00  0.00     0.030 A 
HETATM   24  C15 UNL     1      -0.263  51.578 -27.270  1.00  0.00     0.029 A 
HETATM   25  C16 UNL     1       0.601  51.784 -28.353  1.00  0.00     0.002 A 
HETATM   26  C17 UNL     1       1.976  51.805 -28.152  1.00  0.00     0.000 A 
HETATM   27  C18 UNL     1       2.478  51.623 -26.870  1.00  0.00     0.002 A 
HETATM   28  C19 UNL     1       1.605  51.417 -25.794  1.00  0.00     0.029 A 
ENDBRANCH  20  23
ENDBRANCH  16  17
ENDBRANCH  15  16
ENDBRANCH   1  15
TORSDOF 5
ENDMDL
MODEL 2
REMARK minimizedAffinity -8.66365814
REMARK  5 active torsions:
REMARK  status: ('A' for Active; 'I' for Inactive)
REMARK    1  A    between atoms: N2_12  and  C9_13 
REMARK    2  A    between atoms: C9_13  and  C10_14 
REMARK    3  A    between atoms: C10_14  and  C11_15 
REMARK    4  A    between atoms: C11_15  and  N3_16 
REMARK    5  A    between atoms: N4_19  and  C14_20 
ROOT
HETATM    1  C9  UNL     1      -2.062  52.570 -23.120  1.00  0.00     0.139 C 
ENDROOT
BRANCH   1   2
HETATM    2  N2  UNL     1      -1.429  52.361 -24.417  1.00  0.00    -0.266 N 
HETATM    3  C1  UNL     1      -2.230  52.411 -25.547  1.00  0.00     0.329 A 
HETATM    4  O1  UNL     1      -3.445  52.600 -25.526  1.00  0.00    -0.246 OA
HETATM    5  N1  UNL     1      -1.608  52.235 -26.751  1.00  0.00    -0.307 N 
HETATM    6  C2  UNL     1      -0.239  52.035 -26.895  1.00  0.00     0.052 A 
HETATM    7  H1  UNL     1      -2.215  52.268 -27.560  1.00  0.00     0.170 HD
HETATM    8  C3  UNL     1       0.311  51.860 -28.165  1.00  0.00     0.030 A 
HETATM    9  C7  UNL     1       0.577  52.015 -25.770  1.00  0.00     0.059 A 
HETATM   10  C4  UNL     1       1.687  51.664 -28.301  1.00  0.00     0.002 A 
HETATM   11  C5  UNL     1       2.509  51.644 -27.172  1.00  0.00     0.001 A 
HETATM   12  C6  UNL     1       1.956  51.821 -25.904  1.00  0.00     0.019 A 
HETATM   13  C8  UNL     1      -0.043  52.209 -24.446  1.00  0.00     0.264 A 
HETATM   14  O2  UNL     1       0.672  52.234 -23.446  1.00  0.00    -0.267 OA
ENDBRANCH   1   2
BRANCH   1  15
HETATM   15  C10 UNL     1      -2.490  51.246 -22.480  1.00  0.00     0.050 C 
BRANCH  15  16
HETATM   16  C11 UNL     1      -1.472  50.799 -21.425  1.00  0.00     0.274 C 
BRANCH  16  17
HETATM   17  N3  UNL     1      -1.268  51.801 -20.368  1.00  0.00     0.091 N 
HETATM   18  C12 UNL     1       0.104  52.361 -20.389  1.00  0.00     0.292 C 
HETATM   19  C13 UNL     1       0.608  52.887 -19.024  1.00  0.00     0.153 C 
HETATM   20  N4  UNL     1       0.623  51.804 -18.028  1.00  0.00    -0.378 N 
HETATM   21  C20 UNL     1      -0.390  50.750 -18.198  1.00  0.00     0.153 C 
HETATM   22  C21 UNL     1      -1.592  51.257 -19.030  1.00  0.00     0.292 C 
BRANCH  20  23
HETATM   23  C14 UNL     1       1.441  51.845 -16.910  1.00  0.00     0.030 A 
HETATM   24  C15 UNL     1       1.102  51.173 -15.724  1.00  0.00     0.029 A 
HETATM   25  C16 UNL     1       1.922  51.204 -14.589  1.00  0.00     0.002 A 
HETATM   26  C17 UNL     1       3.116  51.915 -14.612  1.00  0.00     0.000 A 
HETATM   27  C18 UNL     1       3.484  52.588 -15.770  1.00  0.00     0.002 A 
HETATM   28  C19 UNL     1       2.656  52.550 -16.900  1.00  0.00     0.029 A 
ENDBRANCH  20  23
ENDBRANCH  16  17
ENDBRANCH  15  16
ENDBRANCH   1  15
TORSDOF 5
ENDMDL
MODEL 3
REMARK minimizedAffinity -8.50773907
REMARK  5 active torsions:
REMARK  status: ('A' for Active; 'I' for Inactive)
REMARK    1  A    between atoms: N2_12  and  C9_13 
REMARK    2  A    between atoms: C9_13  and  C10_14 
REMARK    3  A    between atoms: C10_14  and  C11_15 
REMARK    4  A    between atoms: C11_15  and  N3_16 
REMARK    5  A    between atoms: N4_19  and  C14_20 
ROOT
HETATM    1  C9  UNL     1      -1.487  51.836 -19.116  1.00  0.00     0.139 C 
ENDROOT
BRANCH   1   2
HETATM    2  N2  UNL     1      -0.560  51.627 -18.009  1.00  0.00    -0.266 N 
HETATM    3  C1  UNL     1      -0.898  50.687 -17.047  1.00  0.00     0.329 A 
HETATM    4  O1  UNL     1      -1.939  50.032 -17.055  1.00  0.00    -0.246 OA
HETATM    5  N1  UNL     1      -0.001  50.494 -16.035  1.00  0.00    -0.307 N 
HETATM    6  C2  UNL     1       1.215  51.163 -15.936  1.00  0.00     0.052 A 
HETATM    7  H1  UNL     1      -0.273  49.810 -15.341  1.00  0.00     0.170 HD
HETATM    8  C3  UNL     1       2.069  50.905 -14.863  1.00  0.00     0.030 A 
HETATM    9  C7  UNL     1       1.576  52.083 -16.913  1.00  0.00     0.059 A 
HETATM   10  C4  UNL     1       3.289  51.578 -14.776  1.00  0.00     0.002 A 
HETATM   11  C5  UNL     1       3.654  52.502 -15.756  1.00  0.00     0.001 A 
HETATM   12  C6  UNL     1       2.799  52.756 -16.828  1.00  0.00     0.019 A 
HETATM   13  C8  UNL     1       0.647  52.323 -18.034  1.00  0.00     0.264 A 
HETATM   14  O2  UNL     1       0.972  53.104 -18.926  1.00  0.00    -0.267 OA
ENDBRANCH   1   2
BRANCH   1  15
HETATM   15  C10 UNL     1      -1.033  51.099 -20.379  1.00  0.00     0.050 C 
BRANCH  15  16
HETATM   16  C11 UNL     1      -2.224  50.428 -21.073  1.00  0.00     0.274 C 
BRANCH  16  17
HETATM   17  N3  UNL     1      -2.465  50.952 -22.426  1.00  0.00     0.091 N 
HETATM   18  C12 UNL     1      -2.262  49.917 -23.469  1.00  0.00     0.292 C 
HETATM   19  C13 UNL     1      -1.862  50.470 -24.857  1.00  0.00     0.153 C 
HETATM   20  N4  UNL     1      -0.598  51.219 -24.770  1.00  0.00    -0.378 N 
HETATM   21  C20 UNL     1      -0.329  51.894 -23.490  1.00  0.00     0.153 C 
HETATM   22  C21 UNL     1      -1.637  52.147 -22.704  1.00  0.00     0.292 C 
BRANCH  20  23
HETATM   23  C14 UNL     1       0.222  51.406 -25.871  1.00  0.00     0.030 A 
HETATM   24  C15 UNL     1       1.621  51.455 -25.749  1.00  0.00     0.029 A 
HETATM   25  C16 UNL     1       2.461  51.639 -26.855  1.00  0.00     0.002 A 
HETATM   26  C17 UNL     1       1.916  51.780 -28.126  1.00  0.00     0.000 A 
HETATM   27  C18 UNL     1       0.537  51.733 -28.284  1.00  0.00     0.002 A 
HETATM   28  C19 UNL     1      -0.293  51.547 -27.170  1.00  0.00     0.029 A 
ENDBRANCH  20  23
ENDBRANCH  16  17
ENDBRANCH  15  16
ENDBRANCH   1  15
TORSDOF 5
ENDMDL
MODEL 4
REMARK minimizedAffinity -8.49725151
REMARK  5 active torsions:
REMARK  status: ('A' for Active; 'I' for Inactive)
REMARK    1  A    between atoms: N2_12  and  C9_13 
REMARK    2  A    between atoms: C9_13  and  C10_14 
REMARK    3  A    between atoms: C10_14  and  C11_15 
REMARK    4  A    between atoms: C11_15  and  N3_16 
REMARK    5  A    between atoms: N4_19  and  C14_20 
ROOT
HETATM    1  C9  UNL     1      -2.457  52.434 -23.331  1.00  0.00     0.139 C 
ENDROOT
BRANCH   1   2
HETATM    2  N2  UNL     1      -1.714  52.289 -24.578  1.00  0.00    -0.266 N 
HETATM    3  C1  UNL     1      -2.406  52.449 -25.769  1.00  0.00     0.329 A 
HETATM    4  O1  UNL     1      -3.610  52.685 -25.843  1.00  0.00    -0.246 OA
HETATM    5  N1  UNL     1      -1.681  52.333 -26.921  1.00  0.00    -0.307 N 
HETATM    6  C2  UNL     1      -0.312  52.088 -26.957  1.00  0.00     0.052 A 
HETATM    7  H1  UNL     1      -2.210  52.445 -27.777  1.00  0.00     0.170 HD
HETATM    8  C3  UNL     1       0.346  51.981 -28.182  1.00  0.00     0.030 A 
HETATM    9  C7  UNL     1       0.395  51.959 -25.767  1.00  0.00     0.059 A 
HETATM   10  C4  UNL     1       1.722  51.740 -28.207  1.00  0.00     0.002 A 
HETATM   11  C5  UNL     1       2.435  51.609 -27.013  1.00  0.00     0.001 A 
HETATM   12  C6  UNL     1       1.773  51.720 -25.791  1.00  0.00     0.019 A 
HETATM   13  C8  UNL     1      -0.338  52.085 -24.493  1.00  0.00     0.264 A 
HETATM   14  O2  UNL     1       0.282  52.013 -23.434  1.00  0.00    -0.267 OA
ENDBRANCH   1   2
BRANCH   1  15
HETATM   15  C10 UNL     1      -3.601  51.420 -23.235  1.00  0.00     0.050 C 
BRANCH  15  16
HETATM   16  C11 UNL     1      -3.057  49.986 -23.242  1.00  0.00     0.274 C 
BRANCH  16  17
HETATM   17  N3  UNL     1      -2.894  49.431 -21.890  1.00  0.00     0.091 N 
HETATM   18  C12 UNL     1      -3.338  50.379 -20.841  1.00  0.00     0.292 C 
HETATM   19  C13 UNL     1      -2.649  50.192 -19.468  1.00  0.00     0.153 C 
HETATM   20  N4  UNL     1      -1.194  50.370 -19.593  1.00  0.00    -0.378 N 
HETATM   21  C20 UNL     1      -0.601  49.994 -20.887  1.00  0.00     0.153 C 
HETATM   22  C21 UNL     1      -1.502  48.991 -21.646  1.00  0.00     0.292 C 
BRANCH  20  23
HETATM   23  C14 UNL     1      -0.402  50.728 -18.514  1.00  0.00     0.030 A 
HETATM   24  C15 UNL     1       0.258  51.967 -18.462  1.00  0.00     0.029 A 
HETATM   25  C16 UNL     1       1.057  52.342 -17.374  1.00  0.00     0.002 A 
HETATM   26  C17 UNL     1       1.217  51.477 -16.298  1.00  0.00     0.000 A 
HETATM   27  C18 UNL     1       0.575  50.245 -16.314  1.00  0.00     0.002 A 
HETATM   28  C19 UNL     1      -0.222  49.882 -17.407  1.00  0.00     0.029 A 
ENDBRANCH  20  23
ENDBRANCH  16  17
ENDBRANCH  15  16
ENDBRANCH   1  15
TORSDOF 5
ENDMDL
MODEL 5
REMARK minimizedAffinity -8.32662392
REMARK  5 active torsions:
REMARK  status: ('A' for Active; 'I' for Inactive)
REMARK    1  A    between atoms: N2_12  and  C9_13 
REMARK    2  A    between atoms: C9_13  and  C10_14 
REMARK    3  A    between atoms: C10_14  and  C11_15 
REMARK    4  A    between atoms: C11_15  and  N3_16 
REMARK    5  A    between atoms: N4_19  and  C14_20 
ROOT
HETATM    1  C9  UNL     1      -0.411  52.564 -27.149  1.00  0.00     0.139 C 
ENDROOT
BRANCH   1   2
HETATM    2  N2  UNL     1       0.065  53.091 -25.875  1.00  0.00    -0.266 N 
HETATM    3  C1  UNL     1       0.338  54.447 -25.793  1.00  0.00     0.329 A 
HETATM    4  O1  UNL     1       0.224  55.233 -26.732  1.00  0.00    -0.246 OA
HETATM    5  N1  UNL     1       0.759  54.918 -24.582  1.00  0.00    -0.307 N 
HETATM    6  C2  UNL     1       0.903  54.126 -23.448  1.00  0.00     0.052 A 
HETATM    7  H1  UNL     1       0.959  55.910 -24.550  1.00  0.00     0.170 HD
HETATM    8  C3  UNL     1       1.344  54.692 -22.252  1.00  0.00     0.030 A 
HETATM    9  C7  UNL     1       0.601  52.771 -23.512  1.00  0.00     0.059 A 
HETATM   10  C4  UNL     1       1.481  53.889 -21.117  1.00  0.00     0.002 A 
HETATM   11  C5  UNL     1       1.177  52.528 -21.179  1.00  0.00     0.001 A 
HETATM   12  C6  UNL     1       0.736  51.965 -22.376  1.00  0.00     0.019 A 
HETATM   13  C8  UNL     1       0.133  52.212 -24.794  1.00  0.00     0.264 A 
HETATM   14  O2  UNL     1      -0.177  51.023 -24.855  1.00  0.00    -0.267 OA
ENDBRANCH   1   2
BRANCH   1  15
HETATM   15  C10 UNL     1      -1.162  51.241 -26.968  1.00  0.00     0.050 C 
BRANCH  15  16
HETATM   16  C11 UNL     1      -2.541  51.304 -27.635  1.00  0.00     0.274 C 
BRANCH  16  17
HETATM   17  N3  UNL     1      -3.616  50.794 -26.771  1.00  0.00     0.091 N 
HETATM   18  C12 UNL     1      -3.547  51.359 -25.402  1.00  0.00     0.292 C 
HETATM   19  C13 UNL     1      -4.165  50.464 -24.302  1.00  0.00     0.153 C 
HETATM   20  N4  UNL     1      -3.475  49.166 -24.246  1.00  0.00    -0.378 N 
HETATM   21  C20 UNL     1      -2.917  48.669 -25.514  1.00  0.00     0.153 C 
HETATM   22  C21 UNL     1      -3.626  49.314 -26.729  1.00  0.00     0.292 C 
BRANCH  20  23
HETATM   23  C14 UNL     1      -3.478  48.381 -23.103  1.00  0.00     0.030 A 
HETATM   24  C15 UNL     1      -4.672  47.905 -22.539  1.00  0.00     0.029 A 
HETATM   25  C16 UNL     1      -4.687  47.107 -21.387  1.00  0.00     0.002 A 
HETATM   26  C17 UNL     1      -3.494  46.763 -20.764  1.00  0.00     0.000 A 
HETATM   27  C18 UNL     1      -2.293  47.214 -21.298  1.00  0.00     0.002 A 
HETATM   28  C19 UNL     1      -2.290  48.010 -22.451  1.00  0.00     0.029 A 
ENDBRANCH  20  23
ENDBRANCH  16  17
ENDBRANCH  15  16
ENDBRANCH   1  15
TORSDOF 5
ENDMDL
MODEL 6
REMARK minimizedAffinity -8.17694187
REMARK  5 active torsions:
REMARK  status: ('A' for Active; 'I' for Inactive)
REMARK    1  A    between atoms: N2_12  and  C9_13 
REMARK    2  A    between atoms: C9_13  and  C10_14 
REMARK    3  A    between atoms: C10_14  and  C11_15 
REMARK    4  A    between atoms: C11_15  and  N3_16 
REMARK    5  A    between atoms: N4_19  and  C14_20 
ROOT
HETATM    1  C9  UNL     1      -3.176  49.037 -21.235  1.00  0.00     0.139 C 
ENDROOT
BRANCH   1   2
HETATM    2  N2  UNL     1      -2.366  50.144 -20.740  1.00  0.00    -0.266 N 
HETATM    3  C1  UNL     1      -2.778  50.783 -19.581  1.00  0.00     0.329 A 
HETATM    4  O1  UNL     1      -3.794  50.490 -18.953  1.00  0.00    -0.246 OA
HETATM    5  N1  UNL     1      -1.988  51.801 -19.125  1.00  0.00    -0.307 N 
HETATM    6  C2  UNL     1      -0.808  52.203 -19.742  1.00  0.00     0.052 A 
HETATM    7  H1  UNL     1      -2.314  52.257 -18.283  1.00  0.00     0.170 HD
HETATM    8  C3  UNL     1      -0.065  53.257 -19.208  1.00  0.00     0.030 A 
HETATM    9  C7  UNL     1      -0.370  51.547 -20.886  1.00  0.00     0.059 A 
HETATM   10  C4  UNL     1       1.121  53.650 -19.831  1.00  0.00     0.002 A 
HETATM   11  C5  UNL     1       1.563  52.993 -20.981  1.00  0.00     0.001 A 
HETATM   12  C6  UNL     1       0.819  51.938 -21.511  1.00  0.00     0.019 A 
HETATM   13  C8  UNL     1      -1.181  50.434 -21.415  1.00  0.00     0.264 A 
HETATM   14  O2  UNL     1      -0.785  49.819 -22.404  1.00  0.00    -0.267 OA
ENDBRANCH   1   2
BRANCH   1  15
HETATM   15  C10 UNL     1      -4.356  49.533 -22.076  1.00  0.00     0.050 C 
BRANCH  15  16
HETATM   16  C11 UNL     1      -4.111  50.966 -22.563  1.00  0.00     0.274 C 
BRANCH  16  17
HETATM   17  N3  UNL     1      -3.866  51.043 -24.011  1.00  0.00     0.091 N 
HETATM   18  C12 UNL     1      -3.065  49.896 -24.502  1.00  0.00     0.292 C 
HETATM   19  C13 UNL     1      -2.238  50.185 -25.777  1.00  0.00     0.153 C 
HETATM   20  N4  UNL     1      -1.284  51.278 -25.537  1.00  0.00    -0.378 N 
HETATM   21  C20 UNL     1      -1.694  52.296 -24.556  1.00  0.00     0.153 C 
HETATM   22  C21 UNL     1      -3.232  52.326 -24.389  1.00  0.00     0.292 C 
BRANCH  20  23
HETATM   23  C14 UNL     1      -0.133  51.429 -26.294  1.00  0.00     0.030 A 
HETATM   24  C15 UNL     1      -0.185  51.651 -27.680  1.00  0.00     0.029 A 
HETATM   25  C16 UNL     1       0.971  51.809 -28.454  1.00  0.00     0.002 A 
HETATM   26  C17 UNL     1       2.223  51.749 -27.855  1.00  0.00     0.000 A 
HETATM   27  C18 UNL     1       2.312  51.534 -26.485  1.00  0.00     0.002 A 
HETATM   28  C19 UNL     1       1.149  51.378 -25.720  1.00  0.00     0.029 A 
ENDBRANCH  20  23
ENDBRANCH  16  17
ENDBRANCH  15  16
ENDBRANCH   1  15
TORSDOF 5
ENDMDL
MODEL 7
REMARK minimizedAffinity -8.14714336
REMARK  5 active torsions:
REMARK  status: ('A' for Active; 'I' for Inactive)
REMARK    1  A    between atoms: N2_12  and  C9_13 
REMARK    2  A    between atoms: C9_13  and  C10_14 
REMARK    3  A    between atoms: C10_14  and  C11_15 
REMARK    4  A    between atoms: C11_15  and  N3_16 
REMARK    5  A    between atoms: N4_19  and  C14_20 
ROOT
HETATM    1  C9  UNL     1      -3.855  49.007 -22.354  1.00  0.00     0.139 C 
ENDROOT
BRANCH   1   2
HETATM    2  N2  UNL     1      -4.566  48.618 -23.567  1.00  0.00    -0.266 N 
HETATM    3  C1  UNL     1      -5.889  48.220 -23.446  1.00  0.00     0.329 A 
HETATM    4  O1  UNL     1      -6.497  48.154 -22.379  1.00  0.00    -0.246 OA
HETATM    5  N1  UNL     1      -6.538  47.885 -24.600  1.00  0.00    -0.307 N 
HETATM    6  C2  UNL     1      -5.957  47.942 -25.863  1.00  0.00     0.052 A 
HETATM    7  H1  UNL     1      -7.499  47.590 -24.486  1.00  0.00     0.170 HD
HETATM    8  C3  UNL     1      -6.695  47.576 -26.989  1.00  0.00     0.030 A 
HETATM    9  C7  UNL     1      -4.641  48.370 -25.997  1.00  0.00     0.059 A 
HETATM   10  C4  UNL     1      -6.105  47.641 -28.253  1.00  0.00     0.002 A 
HETATM   11  C5  UNL     1      -4.784  48.071 -28.390  1.00  0.00     0.001 A 
HETATM   12  C6  UNL     1      -4.049  48.438 -27.263  1.00  0.00     0.019 A 
HETATM   13  C8  UNL     1      -3.897  48.753 -24.783  1.00  0.00     0.264 A 
HETATM   14  O2  UNL     1      -2.746  49.172 -24.891  1.00  0.00    -0.267 OA
ENDBRANCH   1   2
BRANCH   1  15
HETATM   15  C10 UNL     1      -4.159  50.456 -21.962  1.00  0.00     0.050 C 
BRANCH  15  16
HETATM   16  C11 UNL     1      -2.952  51.093 -21.263  1.00  0.00     0.274 C 
BRANCH  16  17
HETATM   17  N3  UNL     1      -2.302  52.130 -22.079  1.00  0.00     0.091 N 
HETATM   18  C12 UNL     1      -2.872  52.202 -23.445  1.00  0.00     0.292 C 
HETATM   19  C13 UNL     1      -1.902  52.746 -24.521  1.00  0.00     0.153 C 
HETATM   20  N4  UNL     1      -0.709  51.891 -24.620  1.00  0.00    -0.378 N 
HETATM   21  C20 UNL     1      -0.292  51.211 -23.383  1.00  0.00     0.153 C 
HETATM   22  C21 UNL     1      -0.834  51.941 -22.132  1.00  0.00     0.292 C 
BRANCH  20  23
HETATM   23  C14 UNL     1       0.067  51.843 -25.767  1.00  0.00     0.030 A 
HETATM   24  C15 UNL     1      -0.503  51.925 -27.048  1.00  0.00     0.029 A 
HETATM   25  C16 UNL     1       0.272  51.882 -28.214  1.00  0.00     0.002 A 
HETATM   26  C17 UNL     1       1.653  51.755 -28.127  1.00  0.00     0.000 A 
HETATM   27  C18 UNL     1       2.251  51.674 -26.876  1.00  0.00     0.002 A 
HETATM   28  C19 UNL     1       1.466  51.719 -25.716  1.00  0.00     0.029 A 
ENDBRANCH  20  23
ENDBRANCH  16  17
ENDBRANCH  15  16
ENDBRANCH   1  15
TORSDOF 5
ENDMDL
MODEL 8
REMARK minimizedAffinity -8.14080143
REMARK  5 active torsions:
REMARK  status: ('A' for Active; 'I' for Inactive)
REMARK    1  A    between atoms: N2_12  and  C9_13 
REMARK    2  A    between atoms: C9_13  and  C10_14 
REMARK    3  A    between atoms: C10_14  and  C11_15 
REMARK    4  A    between atoms: C11_15  and  N3_16 
REMARK    5  A    between atoms: N4_19  and  C14_20 
ROOT
HETATM    1  C9  UNL     1      -0.544  52.457 -25.095  1.00  0.00     0.139 C 
ENDROOT
BRANCH   1   2
HETATM    2  N2  UNL     1      -0.079  52.688 -23.732  1.00  0.00    -0.266 N 
HETATM    3  C1  UNL     1       0.813  53.727 -23.516  1.00  0.00     0.329 A 
HETATM    4  O1  UNL     1       1.253  54.456 -24.404  1.00  0.00    -0.246 OA
HETATM    5  N1  UNL     1       1.214  53.936 -22.228  1.00  0.00    -0.307 N 
HETATM    6  C2  UNL     1       0.766  53.188 -21.144  1.00  0.00     0.052 A 
HETATM    7  H1  UNL     1       1.871  54.695 -22.097  1.00  0.00     0.170 HD
HETATM    8  C3  UNL     1       1.233  53.469 -19.860  1.00  0.00     0.030 A 
HETATM    9  C7  UNL     1      -0.153  52.164 -21.346  1.00  0.00     0.059 A 
HETATM   10  C4  UNL     1       0.773  52.716 -18.777  1.00  0.00     0.002 A 
HETATM   11  C5  UNL     1      -0.150  51.687 -18.978  1.00  0.00     0.001 A 
HETATM   12  C6  UNL     1      -0.616  51.410 -20.263  1.00  0.00     0.019 A 
HETATM   13  C8  UNL     1      -0.626  51.902 -22.719  1.00  0.00     0.264 A 
HETATM   14  O2  UNL     1      -1.469  51.027 -22.907  1.00  0.00    -0.267 OA
ENDBRANCH   1   2
BRANCH   1  15
HETATM   15  C10 UNL     1       0.261  51.354 -25.788  1.00  0.00     0.050 C 
BRANCH  15  16
HETATM   16  C11 UNL     1      -0.618  50.580 -26.777  1.00  0.00     0.274 C 
BRANCH  16  17
HETATM   17  N3  UNL     1      -2.014  50.461 -26.327  1.00  0.00     0.091 N 
HETATM   18  C12 UNL     1      -2.331  49.094 -25.850  1.00  0.00     0.292 C 
HETATM   19  C13 UNL     1      -3.822  48.697 -25.972  1.00  0.00     0.153 C 
HETATM   20  N4  UNL     1      -4.256  48.752 -27.377  1.00  0.00    -0.378 N 
HETATM   21  C20 UNL     1      -3.581  49.744 -28.229  1.00  0.00     0.153 C 
HETATM   22  C21 UNL     1      -2.964  50.882 -27.382  1.00  0.00     0.292 C 
BRANCH  20  23
HETATM   23  C14 UNL     1      -5.339  48.022 -27.840  1.00  0.00     0.030 A 
HETATM   24  C15 UNL     1      -5.486  47.701 -29.199  1.00  0.00     0.029 A 
HETATM   25  C16 UNL     1      -6.574  46.960 -29.679  1.00  0.00     0.002 A 
HETATM   26  C17 UNL     1      -7.553  46.515 -28.799  1.00  0.00     0.000 A 
HETATM   27  C18 UNL     1      -7.438  46.810 -27.447  1.00  0.00     0.002 A 
HETATM   28  C19 UNL     1      -6.345  47.552 -26.979  1.00  0.00     0.029 A 
ENDBRANCH  20  23
ENDBRANCH  16  17
ENDBRANCH  15  16
ENDBRANCH   1  15
TORSDOF 5
ENDMDL
MODEL 9
REMARK minimizedAffinity -8.11450958
REMARK  5 active torsions:
REMARK  status: ('A' for Active; 'I' for Inactive)
REMARK    1  A    between atoms: N2_12  and  C9_13 
REMARK    2  A    between atoms: C9_13  and  C10_14 
REMARK    3  A    between atoms: C10_14  and  C11_15 
REMARK    4  A    between atoms: C11_15  and  N3_16 
REMARK    5  A    between atoms: N4_19  and  C14_20 
ROOT
HETATM    1  C9  UNL     1      -1.576  49.614 -21.549  1.00  0.00     0.139 C 
ENDROOT
BRANCH   1   2
HETATM    2  N2  UNL     1      -1.145  49.671 -20.157  1.00  0.00    -0.266 N 
HETATM    3  C1  UNL     1      -1.329  48.542 -19.373  1.00  0.00     0.329 A 
HETATM    4  O1  UNL     1      -1.852  47.502 -19.770  1.00  0.00    -0.246 OA
HETATM    5  N1  UNL     1      -0.895  48.614 -18.080  1.00  0.00    -0.307 N 
HETATM    6  C2  UNL     1      -0.271  49.730 -17.531  1.00  0.00     0.052 A 
HETATM    7  H1  UNL     1      -1.047  47.781 -17.526  1.00  0.00     0.170 HD
HETATM    8  C3  UNL     1       0.138  49.716 -16.197  1.00  0.00     0.030 A 
HETATM    9  C7  UNL     1      -0.053  50.854 -18.318  1.00  0.00     0.059 A 
HETATM   10  C4  UNL     1       0.767  50.839 -15.656  1.00  0.00     0.002 A 
HETATM   11  C5  UNL     1       0.987  51.969 -16.445  1.00  0.00     0.001 A 
HETATM   12  C6  UNL     1       0.579  51.979 -17.779  1.00  0.00     0.019 A 
HETATM   13  C8  UNL     1      -0.495  50.826 -19.725  1.00  0.00     0.264 A 
HETATM   14  O2  UNL     1      -0.272  51.799 -20.445  1.00  0.00    -0.267 OA
ENDBRANCH   1   2
BRANCH   1  15
HETATM   15  C10 UNL     1      -3.102  49.666 -21.670  1.00  0.00     0.050 C 
BRANCH  15  16
HETATM   16  C11 UNL     1      -3.568  51.071 -22.068  1.00  0.00     0.274 C 
BRANCH  16  17
HETATM   17  N3  UNL     1      -3.465  51.318 -23.514  1.00  0.00     0.091 N 
HETATM   18  C12 UNL     1      -2.897  50.155 -24.239  1.00  0.00     0.292 C 
HETATM   19  C13 UNL     1      -2.173  50.509 -25.560  1.00  0.00     0.153 C 
HETATM   20  N4  UNL     1      -1.048  51.421 -25.302  1.00  0.00    -0.378 N 
HETATM   21  C20 UNL     1      -1.199  52.336 -24.160  1.00  0.00     0.153 C 
HETATM   22  C21 UNL     1      -2.691  52.546 -23.804  1.00  0.00     0.292 C 
BRANCH  20  23
HETATM   23  C14 UNL     1       0.029  51.523 -26.169  1.00  0.00     0.030 A 
HETATM   24  C15 UNL     1       1.355  51.462 -25.709  1.00  0.00     0.029 A 
HETATM   25  C16 UNL     1       2.451  51.559 -26.576  1.00  0.00     0.002 A 
HETATM   26  C17 UNL     1       2.245  51.720 -27.941  1.00  0.00     0.000 A 
HETATM   27  C18 UNL     1       0.947  51.779 -28.431  1.00  0.00     0.002 A 
HETATM   28  C19 UNL     1      -0.141  51.681 -27.555  1.00  0.00     0.029 A 
ENDBRANCH  20  23
ENDBRANCH  16  17
ENDBRANCH  15  16
ENDBRANCH   1  15
TORSDOF 5
ENDMDL
