MODEL 1
REMARK minimizedAffinity -6.53735256
REMARK CNNscore 0.6750862
REMARK CNNaffinity 5.95746183
REMARK  4 active torsions:
REMARK  status: ('A' for Active; 'I' for Inactive)
REMARK    1  A    between atoms: C2_2  and  C3_3 
REMARK    2  A    between atoms: C6_6  and  C7_7 
REMARK    3  A    between atoms: C7_7  and  O1_9 
REMARK    4  A    between atoms: C23_29  and  O6_30 
ROOT
HETATM    1  C3  UNL     1     -21.485   0.270  12.421  1.00  0.00     0.008 C 
HETATM    2  C4  UNL     1     -20.680   0.108  11.157  1.00  0.00    -0.023 C 
HETATM    3  C5  UNL     1     -20.018  -0.964  10.686  1.00  0.00     0.004 C 
HETATM    4  C6  UNL     1     -19.884  -2.379  11.196  1.00  0.00     0.182 C 
HETATM    5  O2  UNL     1     -19.180  -2.432  12.458  1.00  0.00    -0.308 OA
HETATM    6  C9  UNL     1     -17.833  -2.223  12.418  1.00  0.00     0.276 C 
HETATM    7  O3  UNL     1     -17.200  -1.943  11.403  1.00  0.00    -0.264 OA
HETATM    8  C10 UNL     1     -17.160  -2.419  13.816  1.00  0.00     0.095 C 
HETATM    9  C11 UNL     1     -18.137  -2.955  14.885  1.00  0.00     0.036 C 
HETATM   10  C12 UNL     1     -16.168  -3.538  13.559  1.00  0.00     0.003 C 
HETATM   11  C13 UNL     1     -14.947  -3.763  14.050  1.00  0.00     0.072 C 
HETATM   12  C14 UNL     1     -14.177  -2.990  15.030  1.00  0.00     0.245 C 
HETATM   13  O4  UNL     1     -13.210  -3.528  15.570  1.00  0.00    -0.268 OA
HETATM   14  N1  UNL     1     -14.463  -1.700  15.302  1.00  0.00    -0.320 N 
HETATM   15  C15 UNL     1     -15.430  -0.811  14.906  1.00  0.00     0.098 C 
HETATM   16  C16 UNL     1     -16.577  -1.077  14.259  1.00  0.00     0.045 C 
HETATM   17  C17 UNL     1     -17.508   0.075  14.042  1.00  0.00     0.194 C 
HETATM   18  O5  UNL     1     -18.707  -0.119  13.919  1.00  0.00    -0.287 OA
HETATM   19  C18 UNL     1     -17.023   1.453  14.081  1.00  0.00     0.046 A 
HETATM   20  C19 UNL     1     -15.884   1.710  14.826  1.00  0.00     0.032 A 
HETATM   21  C20 UNL     1     -15.457   3.028  15.040  1.00  0.00     0.026 A 
HETATM   22  C21 UNL     1     -16.151   4.102  14.468  1.00  0.00    -0.027 A 
HETATM   23  C22 UNL     1     -15.656   5.507  14.666  1.00  0.00     0.051 C 
HETATM   24  C23 UNL     1     -17.248   3.828  13.643  1.00  0.00     0.086 A 
HETATM   25  C24 UNL     1     -17.714   2.515  13.478  1.00  0.00     0.059 A 
HETATM   26  C25 UNL     1     -18.772   2.274  12.478  1.00  0.00     0.163 C 
HETATM   27  O7  UNL     1     -18.379   1.988  11.349  1.00  0.00    -0.292 OA
HETATM   28  C26 UNL     1     -20.223   2.598  12.804  1.00  0.00     0.084 C 
HETATM   29  C27 UNL     1     -21.090   1.461  13.350  1.00  0.00     0.016 C 
HETATM   30  C28 UNL     1     -15.110   0.588  15.371  1.00  0.00     0.210 C 
HETATM   31  O8  UNL     1     -14.186   0.785  16.154  1.00  0.00    -0.285 OA
HETATM   32  H20 UNL     1     -13.748  -1.291  15.907  1.00  0.00     0.169 HD
ENDROOT
BRANCH   4  33
HETATM   33  C7  UNL     1     -21.223  -3.132  11.386  1.00  0.00     0.147 C 
HETATM   34  C8  UNL     1     -21.880  -3.532  10.072  1.00  0.00     0.042 C 
BRANCH  33  35
HETATM   35  O1  UNL     1     -20.989  -4.339  12.132  1.00  0.00    -0.393 OA
HETATM   36  H14 UNL     1     -20.566  -4.059  12.964  1.00  0.00     0.210 HD
ENDBRANCH  33  35
ENDBRANCH   4  33
BRANCH   1  37
HETATM   37  C2  UNL     1     -22.997   0.306  12.087  1.00  0.00     0.004 C 
HETATM   38  C1  UNL     1     -23.358  -0.100  10.662  1.00  0.00     0.006 C 
ENDBRANCH   1  37
BRANCH  24  39
HETATM   39  O6  UNL     1     -17.817   4.884  12.982  1.00  0.00    -0.359 OA
HETATM   40  H25 UNL     1     -18.060   4.600  12.078  1.00  0.00     0.217 HD
ENDBRANCH  24  39
TORSDOF 4
ENDMDL
MODEL 2
REMARK minimizedAffinity -9.74852753
REMARK CNNscore 0.643541396
REMARK CNNaffinity 7.36753511
REMARK  4 active torsions:
REMARK  status: ('A' for Active; 'I' for Inactive)
REMARK    1  A    between atoms: C2_2  and  C3_3 
REMARK    2  A    between atoms: C6_6  and  C7_7 
REMARK    3  A    between atoms: C7_7  and  O1_9 
REMARK    4  A    between atoms: C23_29  and  O6_30 
ROOT
HETATM    1  C3  UNL     1      -9.516   6.789  12.979  1.00  0.00     0.008 C 
HETATM    2  C4  UNL     1      -9.520   6.231  14.380  1.00  0.00    -0.023 C 
HETATM    3  C5  UNL     1      -9.076   6.776  15.528  1.00  0.00     0.004 C 
HETATM    4  C6  UNL     1      -8.483   8.127  15.848  1.00  0.00     0.182 C 
HETATM    5  O2  UNL     1      -7.205   8.321  15.200  1.00  0.00    -0.308 OA
HETATM    6  C9  UNL     1      -6.146   7.634  15.715  1.00  0.00     0.276 C 
HETATM    7  O3  UNL     1      -6.219   6.833  16.643  1.00  0.00    -0.264 OA
HETATM    8  C10 UNL     1      -4.799   8.008  15.015  1.00  0.00     0.095 C 
HETATM    9  C11 UNL     1      -4.943   9.176  14.015  1.00  0.00     0.036 C 
HETATM   10  C12 UNL     1      -3.960   8.543  16.161  1.00  0.00     0.003 C 
HETATM   11  C13 UNL     1      -2.651   8.451  16.413  1.00  0.00     0.072 C 
HETATM   12  C14 UNL     1      -1.592   7.809  15.628  1.00  0.00     0.245 C 
HETATM   13  O4  UNL     1      -0.422   8.099  15.878  1.00  0.00    -0.268 OA
HETATM   14  N1  UNL     1      -1.865   6.873  14.696  1.00  0.00    -0.320 N 
HETATM   15  C15 UNL     1      -3.007   6.322  14.172  1.00  0.00     0.098 C 
HETATM   16  C16 UNL     1      -4.269   6.765  14.301  1.00  0.00     0.045 C 
HETATM   17  C17 UNL     1      -5.321   6.028  13.532  1.00  0.00     0.194 C 
HETATM   18  O5  UNL     1      -6.350   6.596  13.200  1.00  0.00    -0.287 OA
HETATM   19  C18 UNL     1      -5.098   4.659  13.072  1.00  0.00     0.046 A 
HETATM   20  C19 UNL     1      -3.788   4.258  12.868  1.00  0.00     0.032 A 
HETATM   21  C20 UNL     1      -3.508   3.019  12.275  1.00  0.00     0.026 A 
HETATM   22  C21 UNL     1      -4.547   2.150  11.920  1.00  0.00    -0.027 A 
HETATM   23  C22 UNL     1      -4.234   0.805  11.328  1.00  0.00     0.051 C 
HETATM   24  C23 UNL     1      -5.864   2.525  12.211  1.00  0.00     0.086 A 
HETATM   25  C24 UNL     1      -6.150   3.790  12.748  1.00  0.00     0.059 A 
HETATM   26  C25 UNL     1      -7.534   4.065  13.176  1.00  0.00     0.163 C 
HETATM   27  O7  UNL     1      -7.786   3.810  14.352  1.00  0.00    -0.292 OA
HETATM   28  C26 UNL     1      -8.601   4.417  12.148  1.00  0.00     0.084 C 
HETATM   29  C27 UNL     1      -8.854   5.901  11.879  1.00  0.00     0.016 C 
HETATM   30  C28 UNL     1      -2.690   5.131  13.301  1.00  0.00     0.210 C 
HETATM   31  O8  UNL     1      -1.528   4.873  13.002  1.00  0.00    -0.285 OA
HETATM   32  H20 UNL     1      -1.003   6.449  14.346  1.00  0.00     0.169 HD
ENDROOT
BRANCH   4  33
HETATM   33  C7  UNL     1      -9.376   9.335  15.472  1.00  0.00     0.147 C 
HETATM   34  C8  UNL     1     -10.373   9.707  16.561  1.00  0.00     0.042 C 
BRANCH  33  35
HETATM   35  O1  UNL     1      -8.546  10.486  15.240  1.00  0.00    -0.393 OA
HETATM   36  H14 UNL     1      -7.916  10.223  14.545  1.00  0.00     0.210 HD
ENDBRANCH  33  35
ENDBRANCH   4  33
BRANCH   1  37
HETATM   37  C2  UNL     1     -10.951   7.202  12.569  1.00  0.00     0.004 C 
HETATM   38  C1  UNL     1     -12.008   7.050  13.658  1.00  0.00     0.006 C 
ENDBRANCH   1  37
BRANCH  24  39
HETATM   39  O6  UNL     1      -6.847   1.597  11.987  1.00  0.00    -0.359 OA
HETATM   40  H25 UNL     1      -7.500   1.645  12.714  1.00  0.00     0.217 HD
ENDBRANCH  24  39
TORSDOF 4
ENDMDL
MODEL 3
REMARK minimizedAffinity -10.7267265
REMARK CNNscore 0.428950489
REMARK CNNaffinity 6.91124868
REMARK  4 active torsions:
REMARK  status: ('A' for Active; 'I' for Inactive)
REMARK    1  A    between atoms: C2_2  and  C3_3 
REMARK    2  A    between atoms: C6_6  and  C7_7 
REMARK    3  A    between atoms: C7_7  and  O1_9 
REMARK    4  A    between atoms: C23_29  and  O6_30 
ROOT
HETATM    1  C3  UNL     1      -0.814   7.907  15.389  1.00  0.00     0.008 C 
HETATM    2  C4  UNL     1      -1.161   8.681  14.142  1.00  0.00    -0.023 C 
HETATM    3  C5  UNL     1      -2.300   9.313  13.806  1.00  0.00     0.004 C 
HETATM    4  C6  UNL     1      -3.596   9.532  14.549  1.00  0.00     0.182 C 
HETATM    5  O2  UNL     1      -4.295   8.289  14.791  1.00  0.00    -0.308 OA
HETATM    6  C9  UNL     1      -4.903   7.709  13.717  1.00  0.00     0.276 C 
HETATM    7  O3  UNL     1      -4.850   8.140  12.568  1.00  0.00    -0.264 OA
HETATM    8  C10 UNL     1      -5.723   6.438  14.114  1.00  0.00     0.095 C 
HETATM    9  C11 UNL     1      -5.791   6.217  15.640  1.00  0.00     0.036 C 
HETATM   10  C12 UNL     1      -7.133   6.798  13.683  1.00  0.00     0.003 C 
HETATM   11  C13 UNL     1      -8.116   6.051  13.173  1.00  0.00     0.072 C 
HETATM   12  C14 UNL     1      -8.144   4.614  12.886  1.00  0.00     0.245 C 
HETATM   13  O4  UNL     1      -9.237   4.074  12.707  1.00  0.00    -0.268 OA
HETATM   14  N1  UNL     1      -7.012   3.893  12.751  1.00  0.00    -0.320 N 
HETATM   15  C15 UNL     1      -5.671   4.151  12.876  1.00  0.00     0.098 C 
HETATM   16  C16 UNL     1      -5.088   5.226  13.432  1.00  0.00     0.045 C 
HETATM   17  C17 UNL     1      -3.595   5.203  13.534  1.00  0.00     0.194 C 
HETATM   18  O5  UNL     1      -3.028   5.849  14.401  1.00  0.00    -0.287 OA
HETATM   19  C18 UNL     1      -2.795   4.332  12.676  1.00  0.00     0.046 A 
HETATM   20  C19 UNL     1      -3.399   3.186  12.186  1.00  0.00     0.032 A 
HETATM   21  C20 UNL     1      -2.648   2.226  11.493  1.00  0.00     0.026 A 
HETATM   22  C21 UNL     1      -1.284   2.432  11.249  1.00  0.00    -0.027 A 
HETATM   23  C22 UNL     1      -0.499   1.418  10.465  1.00  0.00     0.051 C 
HETATM   24  C23 UNL     1      -0.701   3.634  11.670  1.00  0.00     0.086 A 
HETATM   25  C24 UNL     1      -1.436   4.567  12.416  1.00  0.00     0.059 A 
HETATM   26  C25 UNL     1      -0.816   5.876  12.694  1.00  0.00     0.163 C 
HETATM   27  O7  UNL     1      -1.048   6.759  11.870  1.00  0.00    -0.292 OA
HETATM   28  C26 UNL     1       0.218   6.016  13.803  1.00  0.00     0.084 C 
HETATM   29  C27 UNL     1      -0.285   6.454  15.180  1.00  0.00     0.016 C 
HETATM   30  C28 UNL     1      -4.842   2.995  12.375  1.00  0.00     0.210 C 
HETATM   31  O8  UNL     1      -5.377   1.928  12.085  1.00  0.00    -0.285 OA
HETATM   32  H20 UNL     1      -7.223   2.946  12.427  1.00  0.00     0.169 HD
ENDROOT
BRANCH   4  33
HETATM   33  C7  UNL     1      -3.452  10.248  15.914  1.00  0.00     0.147 C 
HETATM   34  C8  UNL     1      -4.248  11.544  16.000  1.00  0.00     0.042 C 
BRANCH  33  35
HETATM   35  O1  UNL     1      -3.928   9.383  16.959  1.00  0.00    -0.393 OA
HETATM   36  H14 UNL     1      -3.409   8.563  16.881  1.00  0.00     0.210 HD
ENDBRANCH  33  35
ENDBRANCH   4  33
BRANCH   1  37
HETATM   37  C2  UNL     1       0.157   8.730  16.271  1.00  0.00     0.004 C 
HETATM   38  C1  UNL     1      -0.423  10.014  16.854  1.00  0.00     0.006 C 
ENDBRANCH   1  37
BRANCH  24  39
HETATM   39  O6  UNL     1       0.594   3.872  11.291  1.00  0.00    -0.359 OA
HETATM   40  H25 UNL     1       0.687   4.815  11.054  1.00  0.00     0.217 HD
ENDBRANCH  24  39
TORSDOF 4
ENDMDL
MODEL 4
REMARK minimizedAffinity -10.4531307
REMARK CNNscore 0.377281249
REMARK CNNaffinity 6.68569183
REMARK  4 active torsions:
REMARK  status: ('A' for Active; 'I' for Inactive)
REMARK    1  A    between atoms: C2_2  and  C3_3 
REMARK    2  A    between atoms: C6_6  and  C7_7 
REMARK    3  A    between atoms: C7_7  and  O1_9 
REMARK    4  A    between atoms: C23_29  and  O6_30 
ROOT
HETATM    1  C3  UNL     1      -3.834   9.920  15.255  1.00  0.00     0.008 C 
HETATM    2  C4  UNL     1      -3.158   9.096  16.322  1.00  0.00    -0.023 C 
HETATM    3  C5  UNL     1      -1.848   8.889  16.553  1.00  0.00     0.004 C 
HETATM    4  C6  UNL     1      -0.603   9.432  15.895  1.00  0.00     0.182 C 
HETATM    5  O2  UNL     1      -0.484   8.991  14.522  1.00  0.00    -0.308 OA
HETATM    6  C9  UNL     1      -0.130   7.689  14.325  1.00  0.00     0.276 C 
HETATM    7  O3  UNL     1       0.037   6.868  15.222  1.00  0.00    -0.264 OA
HETATM    8  C10 UNL     1       0.082   7.355  12.812  1.00  0.00     0.095 C 
HETATM    9  C11 UNL     1       0.000   8.600  11.902  1.00  0.00     0.036 C 
HETATM   10  C12 UNL     1       1.530   6.902  12.767  1.00  0.00     0.003 C 
HETATM   11  C13 UNL     1       2.137   5.965  12.033  1.00  0.00     0.072 C 
HETATM   12  C14 UNL     1       1.583   5.081  11.003  1.00  0.00     0.245 C 
HETATM   13  O4  UNL     1       2.364   4.511  10.240  1.00  0.00    -0.268 OA
HETATM   14  N1  UNL     1       0.261   4.832  10.916  1.00  0.00    -0.320 N 
HETATM   15  C15 UNL     1      -0.860   5.272  11.571  1.00  0.00     0.098 C 
HETATM   16  C16 UNL     1      -0.970   6.327  12.396  1.00  0.00     0.045 C 
HETATM   17  C17 UNL     1      -2.344   6.649  12.895  1.00  0.00     0.194 C 
HETATM   18  O5  UNL     1      -2.626   7.791  13.226  1.00  0.00    -0.287 OA
HETATM   19  C18 UNL     1      -3.401   5.640  12.896  1.00  0.00     0.046 A 
HETATM   20  C19 UNL     1      -3.303   4.610  11.977  1.00  0.00     0.032 A 
HETATM   21  C20 UNL     1      -4.357   3.701  11.812  1.00  0.00     0.026 A 
HETATM   22  C21 UNL     1      -5.508   3.795  12.605  1.00  0.00    -0.027 A 
HETATM   23  C22 UNL     1      -6.612   2.787  12.453  1.00  0.00     0.051 C 
HETATM   24  C23 UNL     1      -5.561   4.785  13.594  1.00  0.00     0.086 A 
HETATM   25  C24 UNL     1      -4.534   5.733  13.719  1.00  0.00     0.059 A 
HETATM   26  C25 UNL     1      -4.572   6.649  14.874  1.00  0.00     0.163 C 
HETATM   27  O7  UNL     1      -3.970   6.266  15.875  1.00  0.00    -0.292 OA
HETATM   28  C26 UNL     1      -5.495   7.860  14.863  1.00  0.00     0.084 C 
HETATM   29  C27 UNL     1      -4.905   9.188  14.387  1.00  0.00     0.016 C 
HETATM   30  C28 UNL     1      -2.073   4.460  11.190  1.00  0.00     0.210 C 
HETATM   31  O8  UNL     1      -2.013   3.652  10.267  1.00  0.00    -0.285 OA
HETATM   32  H20 UNL     1       0.076   4.099  10.227  1.00  0.00     0.169 HD
ENDROOT
BRANCH   4  33
HETATM   33  C7  UNL     1      -0.488  10.976  15.892  1.00  0.00     0.147 C 
HETATM   34  C8  UNL     1       0.813  11.483  16.499  1.00  0.00     0.042 C 
BRANCH  33  35
HETATM   35  O1  UNL     1      -0.543  11.455  14.537  1.00  0.00    -0.393 OA
HETATM   36  H14 UNL     1      -1.379  11.116  14.170  1.00  0.00     0.210 HD
ENDBRANCH  33  35
ENDBRANCH   4  33
BRANCH   1  37
HETATM   37  C2  UNL     1      -4.412  11.216  15.874  1.00  0.00     0.004 C 
HETATM   38  C1  UNL     1      -3.857  11.588  17.244  1.00  0.00     0.006 C 
ENDBRANCH   1  37
BRANCH  24  39
HETATM   39  O6  UNL     1      -6.630   4.763  14.450  1.00  0.00    -0.359 OA
HETATM   40  H25 UNL     1      -6.321   4.979  15.351  1.00  0.00     0.217 HD
ENDBRANCH  24  39
TORSDOF 4
ENDMDL
MODEL 5
REMARK minimizedAffinity -6.33972931
REMARK CNNscore 0.372721374
REMARK CNNaffinity 6.20702505
REMARK  4 active torsions:
REMARK  status: ('A' for Active; 'I' for Inactive)
REMARK    1  A    between atoms: C2_2  and  C3_3 
REMARK    2  A    between atoms: C6_6  and  C7_7 
REMARK    3  A    between atoms: C7_7  and  O1_9 
REMARK    4  A    between atoms: C23_29  and  O6_30 
ROOT
HETATM    1  C3  UNL     1     -15.520   7.081  23.334  1.00  0.00     0.008 C 
HETATM    2  C4  UNL     1     -16.625   6.080  23.104  1.00  0.00    -0.023 C 
HETATM    3  C5  UNL     1     -17.755   5.866  23.802  1.00  0.00     0.004 C 
HETATM    4  C6  UNL     1     -18.356   6.562  24.999  1.00  0.00     0.182 C 
HETATM    5  O2  UNL     1     -17.536   6.406  26.180  1.00  0.00    -0.308 OA
HETATM    6  C9  UNL     1     -17.545   5.179  26.775  1.00  0.00     0.276 C 
HETATM    7  O3  UNL     1     -18.151   4.201  26.347  1.00  0.00    -0.264 OA
HETATM    8  C10 UNL     1     -16.720   5.157  28.103  1.00  0.00     0.095 C 
HETATM    9  C11 UNL     1     -16.216   6.556  28.523  1.00  0.00     0.036 C 
HETATM   10  C12 UNL     1     -17.756   4.761  29.138  1.00  0.00     0.003 C 
HETATM   11  C13 UNL     1     -17.661   4.005  30.235  1.00  0.00     0.072 C 
HETATM   12  C14 UNL     1     -16.492   3.328  30.805  1.00  0.00     0.245 C 
HETATM   13  O4  UNL     1     -16.551   2.942  31.973  1.00  0.00    -0.268 OA
HETATM   14  N1  UNL     1     -15.393   3.066  30.068  1.00  0.00    -0.320 N 
HETATM   15  C15 UNL     1     -14.991   3.338  28.786  1.00  0.00     0.098 C 
HETATM   16  C16 UNL     1     -15.539   4.204  27.918  1.00  0.00     0.045 C 
HETATM   17  C17 UNL     1     -14.831   4.385  26.611  1.00  0.00     0.194 C 
HETATM   18  O5  UNL     1     -14.944   5.430  25.990  1.00  0.00    -0.287 OA
HETATM   19  C18 UNL     1     -13.911   3.368  26.106  1.00  0.00     0.046 A 
HETATM   20  C19 UNL     1     -13.297   2.543  27.034  1.00  0.00     0.032 A 
HETATM   21  C20 UNL     1     -12.285   1.657  26.639  1.00  0.00     0.026 A 
HETATM   22  C21 UNL     1     -11.910   1.561  25.292  1.00  0.00    -0.027 A 
HETATM   23  C22 UNL     1     -10.857   0.575  24.873  1.00  0.00     0.051 C 
HETATM   24  C23 UNL     1     -12.598   2.334  24.348  1.00  0.00     0.086 A 
HETATM   25  C24 UNL     1     -13.568   3.265  24.750  1.00  0.00     0.059 A 
HETATM   26  C25 UNL     1     -14.364   3.933  23.703  1.00  0.00     0.163 C 
HETATM   27  O7  UNL     1     -15.417   3.374  23.401  1.00  0.00    -0.292 OA
HETATM   28  C26 UNL     1     -13.776   5.096  22.917  1.00  0.00     0.084 C 
HETATM   29  C27 UNL     1     -14.071   6.508  23.426  1.00  0.00     0.016 C 
HETATM   30  C28 UNL     1     -13.731   2.585  28.436  1.00  0.00     0.210 C 
HETATM   31  O8  UNL     1     -13.110   1.979  29.304  1.00  0.00    -0.285 OA
HETATM   32  H20 UNL     1     -14.738   2.480  30.592  1.00  0.00     0.169 HD
ENDROOT
BRANCH   4  33
HETATM   33  C7  UNL     1     -18.607   8.078  24.813  1.00  0.00     0.147 C 
HETATM   34  C8  UNL     1     -19.964   8.532  25.336  1.00  0.00     0.042 C 
BRANCH  33  35
HETATM   35  O1  UNL     1     -17.604   8.819  25.530  1.00  0.00    -0.393 OA
HETATM   36  H14 UNL     1     -16.748   8.510  25.183  1.00  0.00     0.210 HD
ENDBRANCH  33  35
ENDBRANCH   4  33
BRANCH   1  37
HETATM   37  C2  UNL     1     -15.603   8.213  22.281  1.00  0.00     0.004 C 
HETATM   38  C1  UNL     1     -14.268   8.653  21.691  1.00  0.00     0.006 C 
ENDBRANCH   1  37
BRANCH  24  39
HETATM   39  O6  UNL     1     -12.312   2.114  23.027  1.00  0.00    -0.359 OA
HETATM   40  H25 UNL     1     -13.141   2.155  22.511  1.00  0.00     0.217 HD
ENDBRANCH  24  39
TORSDOF 4
ENDMDL
MODEL 6
REMARK minimizedAffinity -10.237813
REMARK CNNscore 0.35762769
REMARK CNNaffinity 6.94676828
REMARK  4 active torsions:
REMARK  status: ('A' for Active; 'I' for Inactive)
REMARK    1  A    between atoms: C2_2  and  C3_3 
REMARK    2  A    between atoms: C6_6  and  C7_7 
REMARK    3  A    between atoms: C7_7  and  O1_9 
REMARK    4  A    between atoms: C23_29  and  O6_30 
ROOT
HETATM    1  C3  UNL     1      -2.317   9.418  14.440  1.00  0.00     0.008 C 
HETATM    2  C4  UNL     1      -1.971   8.485  15.573  1.00  0.00    -0.023 C 
HETATM    3  C5  UNL     1      -0.949   7.619  15.697  1.00  0.00     0.004 C 
HETATM    4  C6  UNL     1       0.231   7.307  14.809  1.00  0.00     0.182 C 
HETATM    5  O2  UNL     1      -0.181   6.723  13.552  1.00  0.00    -0.308 OA
HETATM    6  C9  UNL     1      -0.609   5.429  13.589  1.00  0.00     0.276 C 
HETATM    7  O3  UNL     1      -0.718   4.758  14.612  1.00  0.00    -0.264 OA
HETATM    8  C10 UNL     1      -0.916   4.864  12.163  1.00  0.00     0.095 C 
HETATM    9  C11 UNL     1      -0.518   5.837  11.031  1.00  0.00     0.036 C 
HETATM   10  C12 UNL     1       0.035   3.687  12.054  1.00  0.00     0.003 C 
HETATM   11  C13 UNL     1      -0.102   2.496  11.467  1.00  0.00     0.072 C 
HETATM   12  C14 UNL     1      -1.233   1.953  10.707  1.00  0.00     0.245 C 
HETATM   13  O4  UNL     1      -1.040   0.965   9.997  1.00  0.00    -0.268 OA
HETATM   14  N1  UNL     1      -2.475   2.465  10.818  1.00  0.00    -0.320 N 
HETATM   15  C15 UNL     1      -3.039   3.521  11.487  1.00  0.00     0.098 C 
HETATM   16  C16 UNL     1      -2.410   4.547  12.086  1.00  0.00     0.045 C 
HETATM   17  C17 UNL     1      -3.276   5.627  12.655  1.00  0.00     0.194 C 
HETATM   18  O5  UNL     1      -2.845   6.763  12.772  1.00  0.00    -0.287 OA
HETATM   19  C18 UNL     1      -4.679   5.374  12.979  1.00  0.00     0.046 A 
HETATM   20  C19 UNL     1      -5.324   4.364  12.285  1.00  0.00     0.032 A 
HETATM   21  C20 UNL     1      -6.706   4.174  12.427  1.00  0.00     0.026 A 
HETATM   22  C21 UNL     1      -7.447   4.976  13.306  1.00  0.00    -0.027 A 
HETATM   23  C22 UNL     1      -8.919   4.733  13.485  1.00  0.00     0.051 C 
HETATM   24  C23 UNL     1      -6.771   5.935  14.070  1.00  0.00     0.086 A 
HETATM   25  C24 UNL     1      -5.400   6.167  13.884  1.00  0.00     0.059 A 
HETATM   26  C25 UNL     1      -4.717   7.077  14.823  1.00  0.00     0.163 C 
HETATM   27  O7  UNL     1      -4.215   6.541  15.809  1.00  0.00    -0.292 OA
HETATM   28  C26 UNL     1      -4.849   8.585  14.665  1.00  0.00     0.084 C 
HETATM   29  C27 UNL     1      -3.763   9.305  13.864  1.00  0.00     0.016 C 
HETATM   30  C28 UNL     1      -4.545   3.474  11.416  1.00  0.00     0.210 C 
HETATM   31  O8  UNL     1      -5.106   2.669  10.678  1.00  0.00    -0.285 OA
HETATM   32  H20 UNL     1      -3.152   1.883  10.319  1.00  0.00     0.169 HD
ENDROOT
BRANCH   4  33
HETATM   33  C7  UNL     1       1.133   8.521  14.476  1.00  0.00     0.147 C 
HETATM   34  C8  UNL     1       2.621   8.212  14.588  1.00  0.00     0.042 C 
BRANCH  33  35
HETATM   35  O1  UNL     1       0.884   8.942  13.124  1.00  0.00    -0.393 OA
HETATM   36  H14 UNL     1      -0.070   9.130  13.076  1.00  0.00     0.210 HD
ENDBRANCH  33  35
ENDBRANCH   4  33
BRANCH   1  37
HETATM   37  C2  UNL     1      -1.991  10.879  14.839  1.00  0.00     0.004 C 
HETATM   38  C1  UNL     1      -3.173  11.691  15.357  1.00  0.00     0.006 C 
ENDBRANCH   1  37
BRANCH  24  39
HETATM   39  O6  UNL     1      -7.494   6.603  15.023  1.00  0.00    -0.359 OA
HETATM   40  H25 UNL     1      -6.940   6.712  15.822  1.00  0.00     0.217 HD
ENDBRANCH  24  39
TORSDOF 4
ENDMDL
MODEL 7
REMARK minimizedAffinity -6.78547812
REMARK CNNscore 0.256358117
REMARK CNNaffinity 5.43176079
REMARK  4 active torsions:
REMARK  status: ('A' for Active; 'I' for Inactive)
REMARK    1  A    between atoms: C2_2  and  C3_3 
REMARK    2  A    between atoms: C6_6  and  C7_7 
REMARK    3  A    between atoms: C7_7  and  O1_9 
REMARK    4  A    between atoms: C23_29  and  O6_30 
ROOT
HETATM    1  C3  UNL     1     -12.602   7.750  23.018  1.00  0.00     0.008 C 
HETATM    2  C4  UNL     1     -13.724   8.756  23.078  1.00  0.00    -0.023 C 
HETATM    3  C5  UNL     1     -14.586   9.146  22.121  1.00  0.00     0.004 C 
HETATM    4  C6  UNL     1     -14.790   8.698  20.694  1.00  0.00     0.182 C 
HETATM    5  O2  UNL     1     -13.646   9.007  19.864  1.00  0.00    -0.308 OA
HETATM    6  C9  UNL     1     -13.472  10.316  19.523  1.00  0.00     0.276 C 
HETATM    7  O3  UNL     1     -14.181  11.239  19.915  1.00  0.00    -0.264 OA
HETATM    8  C10 UNL     1     -12.279  10.518  18.532  1.00  0.00     0.095 C 
HETATM    9  C11 UNL     1     -11.671   9.185  18.042  1.00  0.00     0.036 C 
HETATM   10  C12 UNL     1     -12.948  11.140  17.321  1.00  0.00     0.003 C 
HETATM   11  C13 UNL     1     -12.521  12.065  16.457  1.00  0.00     0.072 C 
HETATM   12  C14 UNL     1     -11.233  12.763  16.397  1.00  0.00     0.245 C 
HETATM   13  O4  UNL     1     -10.931  13.345  15.355  1.00  0.00    -0.268 OA
HETATM   14  N1  UNL     1     -10.413  12.836  17.466  1.00  0.00    -0.320 N 
HETATM   15  C15 UNL     1     -10.424  12.329  18.740  1.00  0.00     0.098 C 
HETATM   16  C16 UNL     1     -11.213  11.359  19.233  1.00  0.00     0.045 C 
HETATM   17  C17 UNL     1     -10.940  10.921  20.639  1.00  0.00     0.194 C 
HETATM   18  O5  UNL     1     -11.238   9.793  21.000  1.00  0.00    -0.287 OA
HETATM   19  C18 UNL     1     -10.219  11.786  21.570  1.00  0.00     0.046 A 
HETATM   20  C19 UNL     1      -9.350  12.721  21.034  1.00  0.00     0.032 A 
HETATM   21  C20 UNL     1      -8.509  13.470  21.868  1.00  0.00     0.026 A 
HETATM   22  C21 UNL     1      -8.565  13.315  23.259  1.00  0.00    -0.027 A 
HETATM   23  C22 UNL     1      -7.692  14.157  24.146  1.00  0.00     0.051 C 
HETATM   24  C23 UNL     1      -9.510  12.433  23.798  1.00  0.00     0.086 A 
HETATM   25  C24 UNL     1     -10.309  11.638  22.962  1.00  0.00     0.059 A 
HETATM   26  C25 UNL     1     -11.389  10.846  23.583  1.00  0.00     0.163 C 
HETATM   27  O7  UNL     1     -12.483  11.402  23.648  1.00  0.00    -0.292 OA
HETATM   28  C26 UNL     1     -11.071   9.536  24.290  1.00  0.00     0.084 C 
HETATM   29  C27 UNL     1     -11.195   8.250  23.472  1.00  0.00     0.016 C 
HETATM   30  C28 UNL     1      -9.333  12.941  19.583  1.00  0.00     0.210 C 
HETATM   31  O8  UNL     1      -8.475  13.651  19.066  1.00  0.00    -0.285 OA
HETATM   32  H20 UNL     1      -9.630  13.466  17.278  1.00  0.00     0.169 HD
ENDROOT
BRANCH   4  33
HETATM   33  C7  UNL     1     -15.086   7.188  20.522  1.00  0.00     0.147 C 
HETATM   34  C8  UNL     1     -16.191   6.904  19.513  1.00  0.00     0.042 C 
BRANCH  33  35
HETATM   35  O1  UNL     1     -13.900   6.520  20.057  1.00  0.00    -0.393 OA
HETATM   36  H14 UNL     1     -13.209   6.719  20.714  1.00  0.00     0.210 HD
ENDBRANCH  33  35
ENDBRANCH   4  33
BRANCH   1  37
HETATM   37  C2  UNL     1     -13.005   6.461  23.777  1.00  0.00     0.004 C 
HETATM   38  C1  UNL     1     -14.053   6.649  24.869  1.00  0.00     0.006 C 
ENDBRANCH   1  37
BRANCH  24  39
HETATM   39  O6  UNL     1      -9.643  12.409  25.161  1.00  0.00    -0.359 OA
HETATM   40  H25 UNL     1     -10.591  12.327  25.386  1.00  0.00     0.217 HD
ENDBRANCH  24  39
TORSDOF 4
ENDMDL
MODEL 8
REMARK minimizedAffinity -8.81379986
REMARK CNNscore 0.246955037
REMARK CNNaffinity 6.87111998
REMARK  4 active torsions:
REMARK  status: ('A' for Active; 'I' for Inactive)
REMARK    1  A    between atoms: C2_2  and  C3_3 
REMARK    2  A    between atoms: C6_6  and  C7_7 
REMARK    3  A    between atoms: C7_7  and  O1_9 
REMARK    4  A    between atoms: C23_29  and  O6_30 
ROOT
HETATM    1  C3  UNL     1      -7.330   5.247  12.745  1.00  0.00     0.008 C 
HETATM    2  C4  UNL     1      -6.982   4.797  14.142  1.00  0.00    -0.023 C 
HETATM    3  C5  UNL     1      -6.572   5.515  15.204  1.00  0.00     0.004 C 
HETATM    4  C6  UNL     1      -6.373   6.998  15.411  1.00  0.00     0.182 C 
HETATM    5  O2  UNL     1      -5.308   7.518  14.582  1.00  0.00    -0.308 OA
HETATM    6  C9  UNL     1      -4.034   7.203  14.951  1.00  0.00     0.276 C 
HETATM    7  O3  UNL     1      -3.741   6.473  15.894  1.00  0.00    -0.264 OA
HETATM    8  C10 UNL     1      -2.964   7.912  14.057  1.00  0.00     0.095 C 
HETATM    9  C11 UNL     1      -3.582   8.925  13.068  1.00  0.00     0.036 C 
HETATM   10  C12 UNL     1      -2.179   8.737  15.061  1.00  0.00     0.003 C 
HETATM   11  C13 UNL     1      -0.881   9.047  15.123  1.00  0.00     0.072 C 
HETATM   12  C14 UNL     1       0.208   8.697  14.205  1.00  0.00     0.245 C 
HETATM   13  O4  UNL     1       1.260   9.331  14.278  1.00  0.00    -0.268 OA
HETATM   14  N1  UNL     1       0.105   7.668  13.339  1.00  0.00    -0.320 N 
HETATM   15  C15 UNL     1      -0.879   6.777  12.996  1.00  0.00     0.098 C 
HETATM   16  C16 UNL     1      -2.187   6.838  13.297  1.00  0.00     0.045 C 
HETATM   17  C17 UNL     1      -3.064   5.781  12.701  1.00  0.00     0.194 C 
HETATM   18  O5  UNL     1      -4.250   6.002  12.511  1.00  0.00    -0.287 OA
HETATM   19  C18 UNL     1      -2.506   4.512  12.238  1.00  0.00     0.046 A 
HETATM   20  C19 UNL     1      -1.175   4.501  11.855  1.00  0.00     0.032 A 
HETATM   21  C20 UNL     1      -0.619   3.364  11.251  1.00  0.00     0.026 A 
HETATM   22  C21 UNL     1      -1.390   2.209  11.065  1.00  0.00    -0.027 A 
HETATM   23  C22 UNL     1      -0.771   0.981  10.458  1.00  0.00     0.051 C 
HETATM   24  C23 UNL     1      -2.708   2.200  11.536  1.00  0.00     0.086 A 
HETATM   25  C24 UNL     1      -3.284   3.355  12.085  1.00  0.00     0.059 A 
HETATM   26  C25 UNL     1      -4.619   3.239  12.704  1.00  0.00     0.163 C 
HETATM   27  O7  UNL     1      -4.624   2.992  13.908  1.00  0.00    -0.292 OA
HETATM   28  C26 UNL     1      -5.867   3.201  11.834  1.00  0.00     0.084 C 
HETATM   29  C27 UNL     1      -6.585   4.527  11.578  1.00  0.00     0.016 C 
HETATM   30  C28 UNL     1      -0.341   5.681  12.110  1.00  0.00     0.210 C 
HETATM   31  O8  UNL     1       0.796   5.756  11.651  1.00  0.00    -0.285 OA
HETATM   32  H20 UNL     1       1.000   7.494  12.877  1.00  0.00     0.169 HD
ENDROOT
BRANCH   4  33
HETATM   33  C7  UNL     1      -7.626   7.867  15.146  1.00  0.00     0.147 C 
HETATM   34  C8  UNL     1      -8.688   7.736  16.229  1.00  0.00     0.042 C 
BRANCH  33  35
HETATM   35  O1  UNL     1      -7.242   9.251  15.089  1.00  0.00    -0.393 OA
HETATM   36  H14 UNL     1      -6.562   9.309  14.394  1.00  0.00     0.210 HD
ENDBRANCH  33  35
ENDBRANCH   4  33
BRANCH   1  37
HETATM   37  C2  UNL     1      -8.864   5.196  12.540  1.00  0.00     0.004 C 
HETATM   38  C1  UNL     1      -9.608   6.485  12.870  1.00  0.00     0.006 C 
ENDBRANCH   1  37
BRANCH  24  39
HETATM   39  O6  UNL     1      -3.390   1.013  11.473  1.00  0.00    -0.359 OA
HETATM   40  H25 UNL     1      -3.925   0.911  12.285  1.00  0.00     0.217 HD
ENDBRANCH  24  39
TORSDOF 4
ENDMDL
MODEL 9
REMARK minimizedAffinity -7.70553923
REMARK CNNscore 0.240195006
REMARK CNNaffinity 5.54588366
REMARK  4 active torsions:
REMARK  status: ('A' for Active; 'I' for Inactive)
REMARK    1  A    between atoms: C2_2  and  C3_3 
REMARK    2  A    between atoms: C6_6  and  C7_7 
REMARK    3  A    between atoms: C7_7  and  O1_9 
REMARK    4  A    between atoms: C23_29  and  O6_30 
ROOT
HETATM    1  C3  UNL     1      -0.968  12.719  18.527  1.00  0.00     0.008 C 
HETATM    2  C4  UNL     1      -0.673  11.406  19.206  1.00  0.00    -0.023 C 
HETATM    3  C5  UNL     1       0.500  10.770  19.386  1.00  0.00     0.004 C 
HETATM    4  C6  UNL     1       1.921  11.147  19.042  1.00  0.00     0.182 C 
HETATM    5  O2  UNL     1       2.125  11.230  17.613  1.00  0.00    -0.308 OA
HETATM    6  C9  UNL     1       2.176  10.050  16.931  1.00  0.00     0.276 C 
HETATM    7  O3  UNL     1       2.008   8.944  17.437  1.00  0.00    -0.264 OA
HETATM    8  C10 UNL     1       2.516  10.254  15.418  1.00  0.00     0.095 C 
HETATM    9  C11 UNL     1       2.871  11.716  15.071  1.00  0.00     0.036 C 
HETATM   10  C12 UNL     1       3.801   9.463  15.252  1.00  0.00     0.003 C 
HETATM   11  C13 UNL     1       4.261   8.735  14.231  1.00  0.00     0.072 C 
HETATM   12  C14 UNL     1       3.663   8.487  12.916  1.00  0.00     0.245 C 
HETATM   13  O4  UNL     1       4.383   8.045  12.020  1.00  0.00    -0.268 OA
HETATM   14  N1  UNL     1       2.346   8.669  12.688  1.00  0.00    -0.320 N 
HETATM   15  C15 UNL     1       1.284   9.130  13.421  1.00  0.00     0.098 C 
HETATM   16  C16 UNL     1       1.317   9.790  14.592  1.00  0.00     0.045 C 
HETATM   17  C17 UNL     1       0.005  10.276  15.126  1.00  0.00     0.194 C 
HETATM   18  O5  UNL     1      -0.035  11.244  15.868  1.00  0.00    -0.287 OA
HETATM   19  C18 UNL     1      -1.254   9.677  14.689  1.00  0.00     0.046 A 
HETATM   20  C19 UNL     1      -1.278   9.077  13.441  1.00  0.00     0.032 A 
HETATM   21  C20 UNL     1      -2.487   8.627  12.892  1.00  0.00     0.026 A 
HETATM   22  C21 UNL     1      -3.682   8.739  13.614  1.00  0.00    -0.027 A 
HETATM   23  C22 UNL     1      -4.964   8.212  13.035  1.00  0.00     0.051 C 
HETATM   24  C23 UNL     1      -3.634   9.266  14.911  1.00  0.00     0.086 A 
HETATM   25  C24 UNL     1      -2.436   9.772  15.438  1.00  0.00     0.059 A 
HETATM   26  C25 UNL     1      -2.416  10.168  16.859  1.00  0.00     0.163 C 
HETATM   27  O7  UNL     1      -2.076   9.290  17.649  1.00  0.00    -0.292 OA
HETATM   28  C26 UNL     1      -3.006  11.503  17.292  1.00  0.00     0.084 C 
HETATM   29  C27 UNL     1      -2.049  12.691  17.401  1.00  0.00     0.016 C 
HETATM   30  C28 UNL     1      -0.022   8.890  12.706  1.00  0.00     0.210 C 
HETATM   31  O8  UNL     1      -0.028   8.499  11.542  1.00  0.00    -0.285 OA
HETATM   32  H20 UNL     1       2.090   8.326  11.759  1.00  0.00     0.169 HD
ENDROOT
BRANCH   4  33
HETATM   33  C7  UNL     1       2.407  12.483  19.653  1.00  0.00     0.147 C 
HETATM   34  C8  UNL     1       2.121  12.602  21.144  1.00  0.00     0.042 C 
BRANCH  33  35
HETATM   35  O1  UNL     1       3.830  12.597  19.480  1.00  0.00    -0.393 OA
HETATM   36  H14 UNL     1       3.987  12.515  18.522  1.00  0.00     0.210 HD
ENDBRANCH  33  35
ENDBRANCH   4  33
BRANCH   1  37
HETATM   37  C2  UNL     1      -1.297  13.801  19.585  1.00  0.00     0.004 C 
HETATM   38  C1  UNL     1      -0.365  15.008  19.592  1.00  0.00     0.006 C 
ENDBRANCH   1  37
BRANCH  24  39
HETATM   39  O6  UNL     1      -4.789   9.229  15.648  1.00  0.00    -0.359 OA
HETATM   40  H25 UNL     1      -4.568   9.001  16.572  1.00  0.00     0.217 HD
ENDBRANCH  24  39
TORSDOF 4
ENDMDL
