MODEL 1
REMARK minimizedAffinity -6.94760466
REMARK CNNscore 0.633321762
REMARK CNNaffinity 6.26287889
REMARK  15 active torsions:
REMARK  status: ('A' for Active; 'I' for Inactive)
REMARK    1  A    between atoms: C19_20  and  O2_21 
REMARK    2  A    between atoms: C19_20  and  C20_22 
REMARK    3  A    between atoms: C20_22  and  C21_24 
REMARK    4  A    between atoms: C21_24  and  O4_25 
REMARK    5  A    between atoms: O4_25  and  C22_26 
REMARK    6  A    between atoms: C22_26  and  C23_28 
REMARK    7  A    between atoms: C23_28  and  C24_29 
REMARK    8  A    between atoms: C24_29  and  C25_30 
REMARK       I    between atoms: C25_30  and  N1_32 
REMARK    9  A    between atoms: N1_32  and  C26_33 
REMARK   10  A    between atoms: C26_33  and  C27_34 
REMARK   11  A    between atoms: C27_34  and  C28_35 
REMARK   12  A    between atoms: C28_35  and  C29_36 
REMARK   13  A    between atoms: C29_36  and  C30_37 
REMARK   14  A    between atoms: C30_37  and  C31_38 
REMARK   15  A    between atoms: C31_38  and  O8_40 
ROOT
HETATM    1  C1  UNL     1      -2.895  48.634 -24.665  1.00  0.00     0.020 C 
HETATM    2  C2  UNL     1      -3.148  49.586 -23.457  1.00  0.00    -0.016 C 
HETATM    3  C3  UNL     1      -3.148  51.019 -24.078  1.00  0.00     0.022 C 
HETATM    4  C4  UNL     1      -2.605  52.135 -23.198  1.00  0.00     0.084 C 
HETATM    5  C5  UNL     1      -1.308  51.736 -22.544  1.00  0.00     0.149 C 
HETATM    6  O1  UNL     1      -0.402  52.538 -22.333  1.00  0.00    -0.293 OA
HETATM    7  C6  UNL     1      -1.184  50.347 -22.046  1.00  0.00     0.053 C 
HETATM    8  C7  UNL     1      -2.041  49.384 -22.424  1.00  0.00    -0.068 C 
HETATM    9  C8  UNL     1      -1.991  48.018 -21.774  1.00  0.00     0.035 C 
HETATM   10  C9  UNL     1      -3.347  47.629 -21.165  1.00  0.00     0.010 C 
HETATM   11  C10 UNL     1      -4.512  47.798 -22.162  1.00  0.00    -0.004 C 
HETATM   12  C11 UNL     1      -4.523  49.225 -22.778  1.00  0.00     0.002 C 
HETATM   13  C12 UNL     1      -5.000  50.279 -21.749  1.00  0.00     0.007 C 
HETATM   14  C13 UNL     1      -5.838  49.755 -20.579  1.00  0.00     0.013 C 
HETATM   15  C14 UNL     1      -6.726  48.545 -20.905  1.00  0.00    -0.002 C 
HETATM   16  C15 UNL     1      -7.887  49.012 -21.820  1.00  0.00     0.019 C 
HETATM   17  C16 UNL     1      -5.927  47.429 -21.659  1.00  0.00     0.002 C 
HETATM   18  C17 UNL     1      -6.033  46.161 -20.802  1.00  0.00     0.009 C 
HETATM   19  C18 UNL     1      -7.346  46.344 -20.055  1.00  0.00     0.047 C 
HETATM   20  C19 UNL     1      -7.279  47.816 -19.626  1.00  0.00     0.128 C 
ENDROOT
BRANCH  20  21
HETATM   21  O2  UNL     1      -6.329  47.889 -18.554  1.00  0.00    -0.381 OA
HETATM   22  H27 UNL     1      -6.694  47.394 -17.791  1.00  0.00     0.211 HD
ENDBRANCH  20  21
BRANCH  20  23
HETATM   23  C20 UNL     1      -8.630  48.340 -19.105  1.00  0.00     0.185 C 
HETATM   24  O3  UNL     1      -8.725  49.364 -18.422  1.00  0.00    -0.292 OA
BRANCH  23  25
HETATM   25  C21 UNL     1      -9.871  47.534 -19.493  1.00  0.00     0.260 C 
BRANCH  25  26
HETATM   26  O4  UNL     1     -10.923  47.636 -18.534  1.00  0.00    -0.314 OA
BRANCH  26  27
HETATM   27  C22 UNL     1     -12.160  47.376 -19.043  1.00  0.00     0.259 C 
HETATM   28  O5  UNL     1     -12.482  47.510 -20.219  1.00  0.00    -0.265 OA
BRANCH  27  29
HETATM   29  C23 UNL     1     -13.093  46.928 -17.952  1.00  0.00     0.120 C 
BRANCH  29  30
HETATM   30  C24 UNL     1     -13.946  48.096 -17.483  1.00  0.00     0.112 C 
BRANCH  30  31
HETATM   31  C25 UNL     1     -15.296  48.094 -18.167  1.00  0.00     0.217 C 
HETATM   32  O6  UNL     1     -16.160  48.939 -17.958  1.00  0.00    -0.274 OA
HETATM   33  N1  UNL     1     -15.453  47.047 -19.054  1.00  0.00    -0.361 N 
HETATM   34  H34 UNL     1     -14.618  46.554 -19.346  1.00  0.00     0.162 HD
BRANCH  33  35
HETATM   35  C26 UNL     1     -16.605  47.013 -19.933  1.00  0.00     0.122 C 
BRANCH  35  36
HETATM   36  C27 UNL     1     -16.220  46.583 -21.344  1.00  0.00     0.020 C 
BRANCH  36  37
HETATM   37  C28 UNL     1     -17.186  45.556 -21.947  1.00  0.00     0.002 C 
BRANCH  37  38
HETATM   38  C29 UNL     1     -18.658  45.980 -21.993  1.00  0.00     0.010 C 
BRANCH  38  39
HETATM   39  C30 UNL     1     -19.357  45.608 -23.300  1.00  0.00     0.110 C 
BRANCH  39  40
HETATM   40  C31 UNL     1     -18.897  46.471 -24.447  1.00  0.00     0.139 C 
HETATM   41  O7  UNL     1     -17.754  46.733 -24.773  1.00  0.00    -0.650 OA
BRANCH  40  42
HETATM   42  O8  UNL     1     -19.938  46.968 -25.146  1.00  0.00    -0.776 OA
HETATM   43  H45 UNL     1     -19.513  47.495 -25.857  1.00  0.00     0.167 HD
ENDBRANCH  40  42
ENDBRANCH  39  40
ENDBRANCH  38  39
ENDBRANCH  37  38
ENDBRANCH  36  37
ENDBRANCH  35  36
ENDBRANCH  33  35
ENDBRANCH  30  31
ENDBRANCH  29  30
ENDBRANCH  27  29
ENDBRANCH  26  27
ENDBRANCH  25  26
ENDBRANCH  23  25
ENDBRANCH  20  23
TORSDOF 15
ENDMDL
MODEL 2
REMARK minimizedAffinity -8.17788982
REMARK CNNscore 0.50659585
REMARK CNNaffinity 6.45960999
REMARK  15 active torsions:
REMARK  status: ('A' for Active; 'I' for Inactive)
REMARK    1  A    between atoms: C19_20  and  O2_21 
REMARK    2  A    between atoms: C19_20  and  C20_22 
REMARK    3  A    between atoms: C20_22  and  C21_24 
REMARK    4  A    between atoms: C21_24  and  O4_25 
REMARK    5  A    between atoms: O4_25  and  C22_26 
REMARK    6  A    between atoms: C22_26  and  C23_28 
REMARK    7  A    between atoms: C23_28  and  C24_29 
REMARK    8  A    between atoms: C24_29  and  C25_30 
REMARK       I    between atoms: C25_30  and  N1_32 
REMARK    9  A    between atoms: N1_32  and  C26_33 
REMARK   10  A    between atoms: C26_33  and  C27_34 
REMARK   11  A    between atoms: C27_34  and  C28_35 
REMARK   12  A    between atoms: C28_35  and  C29_36 
REMARK   13  A    between atoms: C29_36  and  C30_37 
REMARK   14  A    between atoms: C30_37  and  C31_38 
REMARK   15  A    between atoms: C31_38  and  O8_40 
ROOT
HETATM    1  C1  UNL     1       1.460  51.055 -25.900  1.00  0.00     0.020 C 
HETATM    2  C2  UNL     1       0.123  51.816 -26.153  1.00  0.00    -0.016 C 
HETATM    3  C3  UNL     1       0.230  52.321 -27.627  1.00  0.00     0.022 C 
HETATM    4  C4  UNL     1      -0.442  53.651 -27.935  1.00  0.00     0.084 C 
HETATM    5  C5  UNL     1      -0.111  54.687 -26.892  1.00  0.00     0.149 C 
HETATM    6  O1  UNL     1       0.027  55.876 -27.166  1.00  0.00    -0.293 OA
HETATM    7  C6  UNL     1      -0.063  54.253 -25.478  1.00  0.00     0.053 C 
HETATM    8  C7  UNL     1      -0.001  52.953 -25.141  1.00  0.00    -0.068 C 
HETATM    9  C8  UNL     1      -0.120  52.533 -23.692  1.00  0.00     0.035 C 
HETATM   10  C9  UNL     1      -1.263  51.526 -23.485  1.00  0.00     0.010 C 
HETATM   11  C10 UNL     1      -1.190  50.341 -24.470  1.00  0.00    -0.004 C 
HETATM   12  C11 UNL     1      -1.092  50.836 -25.940  1.00  0.00     0.002 C 
HETATM   13  C12 UNL     1      -2.444  51.410 -26.433  1.00  0.00     0.007 C 
HETATM   14  C13 UNL     1      -3.693  50.944 -25.680  1.00  0.00     0.013 C 
HETATM   15  C14 UNL     1      -3.625  49.513 -25.126  1.00  0.00    -0.002 C 
HETATM   16  C15 UNL     1      -3.692  48.517 -26.312  1.00  0.00     0.019 C 
HETATM   17  C16 UNL     1      -2.289  49.259 -24.349  1.00  0.00     0.002 C 
HETATM   18  C17 UNL     1      -2.683  48.849 -22.925  1.00  0.00     0.009 C 
HETATM   19  C18 UNL     1      -4.059  48.224 -23.101  1.00  0.00     0.047 C 
HETATM   20  C19 UNL     1      -4.743  49.202 -24.067  1.00  0.00     0.128 C 
ENDROOT
BRANCH  20  21
HETATM   21  O2  UNL     1      -5.060  50.376 -23.306  1.00  0.00    -0.381 OA
HETATM   22  H27 UNL     1      -5.732  50.131 -22.636  1.00  0.00     0.211 HD
ENDBRANCH  20  21
BRANCH  20  23
HETATM   23  C20 UNL     1      -6.054  48.638 -24.644  1.00  0.00     0.185 C 
HETATM   24  O3  UNL     1      -6.096  48.015 -25.709  1.00  0.00    -0.292 OA
BRANCH  23  25
HETATM   25  C21 UNL     1      -7.321  48.870 -23.819  1.00  0.00     0.260 C 
BRANCH  25  26
HETATM   26  O4  UNL     1      -8.502  48.940 -24.617  1.00  0.00    -0.314 OA
BRANCH  26  27
HETATM   27  C22 UNL     1      -9.200  47.772 -24.675  1.00  0.00     0.259 C 
HETATM   28  O5  UNL     1      -9.064  46.830 -23.901  1.00  0.00    -0.265 OA
BRANCH  27  29
HETATM   29  C23 UNL     1     -10.145  47.782 -25.843  1.00  0.00     0.120 C 
BRANCH  29  30
HETATM   30  C24 UNL     1     -10.370  46.364 -26.344  1.00  0.00     0.112 C 
BRANCH  30  31
HETATM   31  C25 UNL     1     -11.813  45.944 -26.160  1.00  0.00     0.217 C 
HETATM   32  O6  UNL     1     -12.146  44.837 -25.751  1.00  0.00    -0.274 OA
HETATM   33  N1  UNL     1     -12.713  46.935 -26.496  1.00  0.00    -0.361 N 
HETATM   34  H34 UNL     1     -12.357  47.879 -26.582  1.00  0.00     0.162 HD
BRANCH  33  35
HETATM   35  C26 UNL     1     -14.120  46.765 -26.190  1.00  0.00     0.122 C 
BRANCH  35  36
HETATM   36  C27 UNL     1     -14.351  46.584 -24.695  1.00  0.00     0.020 C 
BRANCH  36  37
HETATM   37  C28 UNL     1     -15.512  47.428 -24.156  1.00  0.00     0.002 C 
BRANCH  37  38
HETATM   38  C29 UNL     1     -16.795  46.656 -23.829  1.00  0.00     0.010 C 
BRANCH  38  39
HETATM   39  C30 UNL     1     -18.025  47.180 -24.569  1.00  0.00     0.110 C 
BRANCH  39  40
HETATM   40  C31 UNL     1     -19.240  46.325 -24.312  1.00  0.00     0.139 C 
HETATM   41  O7  UNL     1     -19.471  45.629 -23.341  1.00  0.00    -0.650 OA
BRANCH  40  42
HETATM   42  O8  UNL     1     -20.128  46.403 -25.324  1.00  0.00    -0.776 OA
HETATM   43  H45 UNL     1     -20.864  45.820 -25.035  1.00  0.00     0.167 HD
ENDBRANCH  40  42
ENDBRANCH  39  40
ENDBRANCH  38  39
ENDBRANCH  37  38
ENDBRANCH  36  37
ENDBRANCH  35  36
ENDBRANCH  33  35
ENDBRANCH  30  31
ENDBRANCH  29  30
ENDBRANCH  27  29
ENDBRANCH  26  27
ENDBRANCH  25  26
ENDBRANCH  23  25
ENDBRANCH  20  23
TORSDOF 15
ENDMDL
MODEL 3
REMARK minimizedAffinity -7.04616594
REMARK CNNscore 0.482681036
REMARK CNNaffinity 6.94695473
REMARK  15 active torsions:
REMARK  status: ('A' for Active; 'I' for Inactive)
REMARK    1  A    between atoms: C19_20  and  O2_21 
REMARK    2  A    between atoms: C19_20  and  C20_22 
REMARK    3  A    between atoms: C20_22  and  C21_24 
REMARK    4  A    between atoms: C21_24  and  O4_25 
REMARK    5  A    between atoms: O4_25  and  C22_26 
REMARK    6  A    between atoms: C22_26  and  C23_28 
REMARK    7  A    between atoms: C23_28  and  C24_29 
REMARK    8  A    between atoms: C24_29  and  C25_30 
REMARK       I    between atoms: C25_30  and  N1_32 
REMARK    9  A    between atoms: N1_32  and  C26_33 
REMARK   10  A    between atoms: C26_33  and  C27_34 
REMARK   11  A    between atoms: C27_34  and  C28_35 
REMARK   12  A    between atoms: C28_35  and  C29_36 
REMARK   13  A    between atoms: C29_36  and  C30_37 
REMARK   14  A    between atoms: C30_37  and  C31_38 
REMARK   15  A    between atoms: C31_38  and  O8_40 
ROOT
HETATM    1  C1  UNL     1       3.387  56.406  -7.237  1.00  0.00     0.020 C 
HETATM    2  C2  UNL     1       3.505  55.094  -8.069  1.00  0.00    -0.016 C 
HETATM    3  C3  UNL     1       4.402  54.156  -7.199  1.00  0.00     0.022 C 
HETATM    4  C4  UNL     1       5.315  53.204  -7.957  1.00  0.00     0.084 C 
HETATM    5  C5  UNL     1       6.044  53.913  -9.069  1.00  0.00     0.149 C 
HETATM    6  O1  UNL     1       7.192  53.621  -9.395  1.00  0.00    -0.293 OA
HETATM    7  C6  UNL     1       5.294  54.917  -9.857  1.00  0.00     0.053 C 
HETATM    8  C7  UNL     1       4.124  55.420  -9.426  1.00  0.00    -0.068 C 
HETATM    9  C8  UNL     1       3.301  56.317 -10.325  1.00  0.00     0.035 C 
HETATM   10  C9  UNL     1       1.878  55.773 -10.521  1.00  0.00     0.010 C 
HETATM   11  C10 UNL     1       1.187  55.433  -9.183  1.00  0.00    -0.004 C 
HETATM   12  C11 UNL     1       2.070  54.493  -8.316  1.00  0.00     0.002 C 
HETATM   13  C12 UNL     1       2.092  53.054  -8.889  1.00  0.00     0.007 C 
HETATM   14  C13 UNL     1       0.922  52.669  -9.800  1.00  0.00     0.013 C 
HETATM   15  C14 UNL     1      -0.417  53.338  -9.459  1.00  0.00    -0.002 C 
HETATM   16  C15 UNL     1      -0.953  52.731  -8.136  1.00  0.00     0.019 C 
HETATM   17  C16 UNL     1      -0.257  54.883  -9.258  1.00  0.00     0.002 C 
HETATM   18  C17 UNL     1      -1.187  55.555 -10.275  1.00  0.00     0.009 C 
HETATM   19  C18 UNL     1      -2.283  54.522 -10.494  1.00  0.00     0.047 C 
HETATM   20  C19 UNL     1      -1.485  53.215 -10.606  1.00  0.00     0.128 C 
ENDROOT
BRANCH  20  21
HETATM   21  O2  UNL     1      -0.848  53.230 -11.891  1.00  0.00    -0.381 OA
HETATM   22  H27 UNL     1      -1.548  53.188 -12.577  1.00  0.00     0.211 HD
ENDBRANCH  20  21
BRANCH  20  23
HETATM   23  C20 UNL     1      -2.385  51.967 -10.533  1.00  0.00     0.185 C 
HETATM   24  O3  UNL     1      -3.503  51.986 -10.010  1.00  0.00    -0.292 OA
BRANCH  23  25
HETATM   25  C21 UNL     1      -1.832  50.688 -11.163  1.00  0.00     0.260 C 
BRANCH  25  26
HETATM   26  O4  UNL     1      -1.711  50.773 -12.583  1.00  0.00    -0.314 OA
BRANCH  26  27
HETATM   27  C22 UNL     1      -2.570  49.962 -13.260  1.00  0.00     0.259 C 
HETATM   28  O5  UNL     1      -3.583  49.455 -12.788  1.00  0.00    -0.265 OA
BRANCH  27  29
HETATM   29  C23 UNL     1      -2.090  49.746 -14.668  1.00  0.00     0.120 C 
BRANCH  29  30
HETATM   30  C24 UNL     1      -0.814  50.537 -14.911  1.00  0.00     0.112 C 
BRANCH  30  31
HETATM   31  C25 UNL     1      -0.271  50.281 -16.300  1.00  0.00     0.217 C 
HETATM   32  O6  UNL     1       0.588  49.440 -16.544  1.00  0.00    -0.274 OA
HETATM   33  N1  UNL     1      -0.845  51.086 -17.264  1.00  0.00    -0.361 N 
HETATM   34  H34 UNL     1      -1.704  51.564 -17.021  1.00  0.00     0.162 HD
BRANCH  33  35
HETATM   35  C26 UNL     1      -0.582  50.831 -18.667  1.00  0.00     0.122 C 
BRANCH  35  36
HETATM   36  C27 UNL     1      -0.847  52.067 -19.519  1.00  0.00     0.020 C 
BRANCH  36  37
HETATM   37  C28 UNL     1       0.072  52.164 -20.743  1.00  0.00     0.002 C 
BRANCH  37  38
HETATM   38  C29 UNL     1      -0.625  52.049 -22.104  1.00  0.00     0.010 C 
BRANCH  38  39
HETATM   39  C30 UNL     1       0.315  52.263 -23.289  1.00  0.00     0.110 C 
BRANCH  39  40
HETATM   40  C31 UNL     1      -0.414  52.177 -24.605  1.00  0.00     0.139 C 
HETATM   41  O7  UNL     1      -0.503  51.217 -25.348  1.00  0.00    -0.650 OA
BRANCH  40  42
HETATM   42  O8  UNL     1      -1.016  53.343 -24.920  1.00  0.00    -0.776 OA
HETATM   43  H45 UNL     1      -1.456  53.155 -25.777  1.00  0.00     0.167 HD
ENDBRANCH  40  42
ENDBRANCH  39  40
ENDBRANCH  38  39
ENDBRANCH  37  38
ENDBRANCH  36  37
ENDBRANCH  35  36
ENDBRANCH  33  35
ENDBRANCH  30  31
ENDBRANCH  29  30
ENDBRANCH  27  29
ENDBRANCH  26  27
ENDBRANCH  25  26
ENDBRANCH  23  25
ENDBRANCH  20  23
TORSDOF 15
ENDMDL
MODEL 4
REMARK minimizedAffinity -7.30211878
REMARK CNNscore 0.470310509
REMARK CNNaffinity 6.22882843
REMARK  15 active torsions:
REMARK  status: ('A' for Active; 'I' for Inactive)
REMARK    1  A    between atoms: C19_20  and  O2_21 
REMARK    2  A    between atoms: C19_20  and  C20_22 
REMARK    3  A    between atoms: C20_22  and  C21_24 
REMARK    4  A    between atoms: C21_24  and  O4_25 
REMARK    5  A    between atoms: O4_25  and  C22_26 
REMARK    6  A    between atoms: C22_26  and  C23_28 
REMARK    7  A    between atoms: C23_28  and  C24_29 
REMARK    8  A    between atoms: C24_29  and  C25_30 
REMARK       I    between atoms: C25_30  and  N1_32 
REMARK    9  A    between atoms: N1_32  and  C26_33 
REMARK   10  A    between atoms: C26_33  and  C27_34 
REMARK   11  A    between atoms: C27_34  and  C28_35 
REMARK   12  A    between atoms: C28_35  and  C29_36 
REMARK   13  A    between atoms: C29_36  and  C30_37 
REMARK   14  A    between atoms: C30_37  and  C31_38 
REMARK   15  A    between atoms: C31_38  and  O8_40 
ROOT
HETATM    1  C1  UNL     1      -2.695  49.370 -25.055  1.00  0.00     0.020 C 
HETATM    2  C2  UNL     1      -3.584  49.451 -23.777  1.00  0.00    -0.016 C 
HETATM    3  C3  UNL     1      -4.432  48.141 -23.804  1.00  0.00     0.022 C 
HETATM    4  C4  UNL     1      -5.840  48.237 -23.233  1.00  0.00     0.084 C 
HETATM    5  C5  UNL     1      -6.557  49.458 -23.746  1.00  0.00     0.149 C 
HETATM    6  O1  UNL     1      -7.765  49.467 -23.969  1.00  0.00    -0.293 OA
HETATM    7  C6  UNL     1      -5.781  50.712 -23.875  1.00  0.00     0.053 C 
HETATM    8  C7  UNL     1      -4.438  50.716 -23.845  1.00  0.00    -0.068 C 
HETATM    9  C8  UNL     1      -3.678  52.024 -23.813  1.00  0.00     0.035 C 
HETATM   10  C9  UNL     1      -2.732  52.101 -22.605  1.00  0.00     0.010 C 
HETATM   11  C10 UNL     1      -1.828  50.857 -22.482  1.00  0.00    -0.004 C 
HETATM   12  C11 UNL     1      -2.667  49.548 -22.500  1.00  0.00     0.002 C 
HETATM   13  C12 UNL     1      -3.436  49.355 -21.170  1.00  0.00     0.007 C 
HETATM   14  C13 UNL     1      -2.884  50.101 -19.951  1.00  0.00     0.013 C 
HETATM   15  C14 UNL     1      -1.359  50.281 -19.935  1.00  0.00    -0.002 C 
HETATM   16  C15 UNL     1      -0.698  48.904 -19.675  1.00  0.00     0.019 C 
HETATM   17  C16 UNL     1      -0.828  50.828 -21.303  1.00  0.00     0.002 C 
HETATM   18  C17 UNL     1      -0.103  52.144 -20.997  1.00  0.00     0.009 C 
HETATM   19  C18 UNL     1       0.363  51.968 -19.559  1.00  0.00     0.047 C 
HETATM   20  C19 UNL     1      -0.869  51.346 -18.887  1.00  0.00     0.128 C 
ENDROOT
BRANCH  20  21
HETATM   21  O2  UNL     1      -1.835  52.397 -18.747  1.00  0.00    -0.381 OA
HETATM   22  H27 UNL     1      -1.477  53.055 -18.115  1.00  0.00     0.211 HD
ENDBRANCH  20  21
BRANCH  20  23
HETATM   23  C20 UNL     1      -0.558  50.791 -17.485  1.00  0.00     0.185 C 
HETATM   24  O3  UNL     1       0.590  50.528 -17.116  1.00  0.00    -0.292 OA
BRANCH  23  25
HETATM   25  C21 UNL     1      -1.751  50.595 -16.548  1.00  0.00     0.260 C 
BRANCH  25  26
HETATM   26  O4  UNL     1      -1.408  50.746 -15.170  1.00  0.00    -0.314 OA
BRANCH  26  27
HETATM   27  C22 UNL     1      -2.354  51.394 -14.434  1.00  0.00     0.259 C 
HETATM   28  O5  UNL     1      -3.496  51.637 -14.810  1.00  0.00    -0.265 OA
BRANCH  27  29
HETATM   29  C23 UNL     1      -1.794  51.800 -13.100  1.00  0.00     0.120 C 
BRANCH  29  30
HETATM   30  C24 UNL     1      -2.908  51.875 -12.068  1.00  0.00     0.112 C 
BRANCH  30  31
HETATM   31  C25 UNL     1      -2.950  53.237 -11.409  1.00  0.00     0.217 C 
HETATM   32  O6  UNL     1      -3.991  53.842 -11.177  1.00  0.00    -0.274 OA
HETATM   33  N1  UNL     1      -1.698  53.725 -11.093  1.00  0.00    -0.361 N 
HETATM   34  H34 UNL     1      -0.928  53.067 -11.090  1.00  0.00     0.162 HD
BRANCH  33  35
HETATM   35  C26 UNL     1      -1.573  54.921 -10.282  1.00  0.00     0.122 C 
BRANCH  35  36
HETATM   36  C27 UNL     1      -0.122  55.193  -9.906  1.00  0.00     0.020 C 
BRANCH  36  37
HETATM   37  C28 UNL     1       0.800  53.992 -10.145  1.00  0.00     0.002 C 
BRANCH  37  38
HETATM   38  C29 UNL     1       2.194  54.325 -10.689  1.00  0.00     0.010 C 
BRANCH  38  39
HETATM   39  C30 UNL     1       2.595  55.784 -10.479  1.00  0.00     0.110 C 
BRANCH  39  40
HETATM   40  C31 UNL     1       3.390  55.970  -9.212  1.00  0.00     0.139 C 
HETATM   41  O7  UNL     1       3.271  56.850  -8.379  1.00  0.00    -0.650 OA
BRANCH  40  42
HETATM   42  O8  UNL     1       4.316  55.002  -9.057  1.00  0.00    -0.776 OA
HETATM   43  H45 UNL     1       4.750  55.228  -8.205  1.00  0.00     0.167 HD
ENDBRANCH  40  42
ENDBRANCH  39  40
ENDBRANCH  38  39
ENDBRANCH  37  38
ENDBRANCH  36  37
ENDBRANCH  35  36
ENDBRANCH  33  35
ENDBRANCH  30  31
ENDBRANCH  29  30
ENDBRANCH  27  29
ENDBRANCH  26  27
ENDBRANCH  25  26
ENDBRANCH  23  25
ENDBRANCH  20  23
TORSDOF 15
ENDMDL
MODEL 5
REMARK minimizedAffinity -7.39448071
REMARK CNNscore 0.463952094
REMARK CNNaffinity 6.56028748
REMARK  15 active torsions:
REMARK  status: ('A' for Active; 'I' for Inactive)
REMARK    1  A    between atoms: C19_20  and  O2_21 
REMARK    2  A    between atoms: C19_20  and  C20_22 
REMARK    3  A    between atoms: C20_22  and  C21_24 
REMARK    4  A    between atoms: C21_24  and  O4_25 
REMARK    5  A    between atoms: O4_25  and  C22_26 
REMARK    6  A    between atoms: C22_26  and  C23_28 
REMARK    7  A    between atoms: C23_28  and  C24_29 
REMARK    8  A    between atoms: C24_29  and  C25_30 
REMARK       I    between atoms: C25_30  and  N1_32 
REMARK    9  A    between atoms: N1_32  and  C26_33 
REMARK   10  A    between atoms: C26_33  and  C27_34 
REMARK   11  A    between atoms: C27_34  and  C28_35 
REMARK   12  A    between atoms: C28_35  and  C29_36 
REMARK   13  A    between atoms: C29_36  and  C30_37 
REMARK   14  A    between atoms: C30_37  and  C31_38 
REMARK   15  A    between atoms: C31_38  and  O8_40 
ROOT
HETATM    1  C1  UNL     1       1.130  50.727 -26.292  1.00  0.00     0.020 C 
HETATM    2  C2  UNL     1      -0.111  51.666 -26.215  1.00  0.00    -0.016 C 
HETATM    3  C3  UNL     1      -0.189  52.332 -27.625  1.00  0.00     0.022 C 
HETATM    4  C4  UNL     1      -0.713  53.760 -27.668  1.00  0.00     0.084 C 
HETATM    5  C5  UNL     1      -0.067  54.613 -26.608  1.00  0.00     0.149 C 
HETATM    6  O1  UNL     1       0.186  55.802 -26.784  1.00  0.00    -0.293 OA
HETATM    7  C6  UNL     1       0.162  54.006 -25.278  1.00  0.00     0.053 C 
HETATM    8  C7  UNL     1       0.100  52.677 -25.089  1.00  0.00    -0.068 C 
HETATM    9  C8  UNL     1       0.174  52.099 -23.693  1.00  0.00     0.035 C 
HETATM   10  C9  UNL     1      -1.045  51.217 -23.378  1.00  0.00     0.010 C 
HETATM   11  C10 UNL     1      -1.308  50.162 -24.472  1.00  0.00    -0.004 C 
HETATM   12  C11 UNL     1      -1.395  50.819 -25.878  1.00  0.00     0.002 C 
HETATM   13  C12 UNL     1      -2.719  51.605 -26.050  1.00  0.00     0.007 C 
HETATM   14  C13 UNL     1      -3.873  51.202 -25.128  1.00  0.00     0.013 C 
HETATM   15  C14 UNL     1      -3.910  49.717 -24.742  1.00  0.00    -0.002 C 
HETATM   16  C15 UNL     1      -4.318  48.889 -25.988  1.00  0.00     0.019 C 
HETATM   17  C16 UNL     1      -2.509  49.211 -24.257  1.00  0.00     0.002 C 
HETATM   18  C17 UNL     1      -2.706  48.679 -22.832  1.00  0.00     0.009 C 
HETATM   19  C18 UNL     1      -4.165  48.248 -22.810  1.00  0.00     0.047 C 
HETATM   20  C19 UNL     1      -4.862  49.412 -23.529  1.00  0.00     0.128 C 
ENDROOT
BRANCH  20  21
HETATM   21  O2  UNL     1      -4.877  50.513 -22.610  1.00  0.00    -0.381 OA
HETATM   22  H27 UNL     1      -5.452  50.270 -21.854  1.00  0.00     0.211 HD
ENDBRANCH  20  21
BRANCH  20  23
HETATM   23  C20 UNL     1      -6.319  49.083 -23.906  1.00  0.00     0.185 C 
HETATM   24  O3  UNL     1      -7.199  49.946 -23.966  1.00  0.00    -0.292 OA
BRANCH  23  25
HETATM   25  C21 UNL     1      -6.628  47.620 -24.227  1.00  0.00     0.260 C 
BRANCH  25  26
HETATM   26  O4  UNL     1      -7.924  47.436 -24.796  1.00  0.00    -0.314 OA
BRANCH  26  27
HETATM   27  C22 UNL     1      -7.940  47.482 -26.157  1.00  0.00     0.259 C 
HETATM   28  O5  UNL     1      -7.148  46.902 -26.893  1.00  0.00    -0.265 OA
BRANCH  27  29
HETATM   29  C23 UNL     1      -9.052  48.371 -26.640  1.00  0.00     0.120 C 
BRANCH  29  30
HETATM   30  C24 UNL     1     -10.376  47.627 -26.587  1.00  0.00     0.112 C 
BRANCH  30  31
HETATM   31  C25 UNL     1     -10.448  46.567 -27.665  1.00  0.00     0.217 C 
HETATM   32  O6  UNL     1     -10.603  45.373 -27.429  1.00  0.00    -0.274 OA
HETATM   33  N1  UNL     1     -10.327  47.081 -28.941  1.00  0.00    -0.361 N 
HETATM   34  H34 UNL     1     -10.453  48.080 -29.055  1.00  0.00     0.162 HD
BRANCH  33  35
HETATM   35  C26 UNL     1     -10.573  46.230 -30.088  1.00  0.00     0.122 C 
BRANCH  35  36
HETATM   36  C27 UNL     1     -10.592  47.031 -31.385  1.00  0.00     0.020 C 
BRANCH  36  37
HETATM   37  C28 UNL     1     -10.134  46.219 -32.603  1.00  0.00     0.002 C 
BRANCH  37  38
HETATM   38  C29 UNL     1     -11.207  45.957 -33.665  1.00  0.00     0.010 C 
BRANCH  38  39
HETATM   39  C30 UNL     1     -10.746  45.016 -34.777  1.00  0.00     0.110 C 
BRANCH  39  40
HETATM   40  C31 UNL     1     -11.305  43.627 -34.602  1.00  0.00     0.139 C 
HETATM   41  O7  UNL     1     -12.475  43.293 -34.563  1.00  0.00    -0.650 OA
BRANCH  40  42
HETATM   42  O8  UNL     1     -10.326  42.705 -34.489  1.00  0.00    -0.776 OA
HETATM   43  H45 UNL     1     -10.813  41.858 -34.392  1.00  0.00     0.167 HD
ENDBRANCH  40  42
ENDBRANCH  39  40
ENDBRANCH  38  39
ENDBRANCH  37  38
ENDBRANCH  36  37
ENDBRANCH  35  36
ENDBRANCH  33  35
ENDBRANCH  30  31
ENDBRANCH  29  30
ENDBRANCH  27  29
ENDBRANCH  26  27
ENDBRANCH  25  26
ENDBRANCH  23  25
ENDBRANCH  20  23
TORSDOF 15
ENDMDL
MODEL 6
REMARK minimizedAffinity -7.37991714
REMARK CNNscore 0.457021773
REMARK CNNaffinity 6.4496994
REMARK  15 active torsions:
REMARK  status: ('A' for Active; 'I' for Inactive)
REMARK    1  A    between atoms: C19_20  and  O2_21 
REMARK    2  A    between atoms: C19_20  and  C20_22 
REMARK    3  A    between atoms: C20_22  and  C21_24 
REMARK    4  A    between atoms: C21_24  and  O4_25 
REMARK    5  A    between atoms: O4_25  and  C22_26 
REMARK    6  A    between atoms: C22_26  and  C23_28 
REMARK    7  A    between atoms: C23_28  and  C24_29 
REMARK    8  A    between atoms: C24_29  and  C25_30 
REMARK       I    between atoms: C25_30  and  N1_32 
REMARK    9  A    between atoms: N1_32  and  C26_33 
REMARK   10  A    between atoms: C26_33  and  C27_34 
REMARK   11  A    between atoms: C27_34  and  C28_35 
REMARK   12  A    between atoms: C28_35  and  C29_36 
REMARK   13  A    between atoms: C29_36  and  C30_37 
REMARK   14  A    between atoms: C30_37  and  C31_38 
REMARK   15  A    between atoms: C31_38  and  O8_40 
ROOT
HETATM    1  C1  UNL     1       1.426  50.942 -26.073  1.00  0.00     0.020 C 
HETATM    2  C2  UNL     1       0.101  51.749 -26.225  1.00  0.00    -0.016 C 
HETATM    3  C3  UNL     1       0.140  52.298 -27.686  1.00  0.00     0.022 C 
HETATM    4  C4  UNL     1      -0.508  53.656 -27.914  1.00  0.00     0.084 C 
HETATM    5  C5  UNL     1      -0.085  54.648 -26.861  1.00  0.00     0.149 C 
HETATM    6  O1  UNL     1       0.074  55.841 -27.107  1.00  0.00    -0.293 OA
HETATM    7  C6  UNL     1       0.030  54.167 -25.466  1.00  0.00     0.053 C 
HETATM    8  C7  UNL     1       0.070  52.856 -25.173  1.00  0.00    -0.068 C 
HETATM    9  C8  UNL     1       0.021  52.393 -23.733  1.00  0.00     0.035 C 
HETATM   10  C9  UNL     1      -1.139  51.414 -23.491  1.00  0.00     0.010 C 
HETATM   11  C10 UNL     1      -1.159  50.260 -24.515  1.00  0.00    -0.004 C 
HETATM   12  C11 UNL     1      -1.129  50.799 -25.972  1.00  0.00     0.002 C 
HETATM   13  C12 UNL     1      -2.489  51.428 -26.368  1.00  0.00     0.007 C 
HETATM   14  C13 UNL     1      -3.707  50.974 -25.558  1.00  0.00     0.013 C 
HETATM   15  C14 UNL     1      -3.651  49.525 -25.054  1.00  0.00    -0.002 C 
HETATM   16  C15 UNL     1      -3.817  48.570 -26.263  1.00  0.00     0.019 C 
HETATM   17  C16 UNL     1      -2.282  49.206 -24.363  1.00  0.00     0.002 C 
HETATM   18  C17 UNL     1      -2.607  48.763 -22.932  1.00  0.00     0.009 C 
HETATM   19  C18 UNL     1      -4.009  48.184 -23.047  1.00  0.00     0.047 C 
HETATM   20  C19 UNL     1      -4.717  49.212 -23.941  1.00  0.00     0.128 C 
ENDROOT
BRANCH  20  21
HETATM   21  O2  UNL     1      -4.953  50.370 -23.128  1.00  0.00    -0.381 OA
HETATM   22  H27 UNL     1      -5.593  50.123 -22.428  1.00  0.00     0.211 HD
ENDBRANCH  20  21
BRANCH  20  23
HETATM   23  C20 UNL     1      -6.076  48.706 -24.459  1.00  0.00     0.185 C 
HETATM   24  O3  UNL     1      -6.171  47.862 -25.355  1.00  0.00    -0.292 OA
BRANCH  23  25
HETATM   25  C21 UNL     1      -7.322  49.289 -23.791  1.00  0.00     0.260 C 
BRANCH  25  26
HETATM   26  O4  UNL     1      -8.526  48.634 -24.190  1.00  0.00    -0.314 OA
BRANCH  26  27
HETATM   27  C22 UNL     1      -8.871  47.582 -23.397  1.00  0.00     0.259 C 
HETATM   28  O5  UNL     1      -8.761  47.553 -22.175  1.00  0.00    -0.265 OA
BRANCH  27  29
HETATM   29  C23 UNL     1      -9.379  46.439 -24.231  1.00  0.00     0.120 C 
BRANCH  29  30
HETATM   30  C24 UNL     1     -10.879  46.573 -24.440  1.00  0.00     0.112 C 
BRANCH  30  31
HETATM   31  C25 UNL     1     -11.556  45.220 -24.412  1.00  0.00     0.217 C 
HETATM   32  O6  UNL     1     -11.649  44.533 -23.400  1.00  0.00    -0.274 OA
HETATM   33  N1  UNL     1     -12.061  44.841 -25.640  1.00  0.00    -0.361 N 
HETATM   34  H34 UNL     1     -12.160  45.560 -26.346  1.00  0.00     0.162 HD
BRANCH  33  35
HETATM   35  C26 UNL     1     -12.908  43.668 -25.740  1.00  0.00     0.122 C 
BRANCH  35  36
HETATM   36  C27 UNL     1     -12.588  42.851 -26.987  1.00  0.00     0.020 C 
BRANCH  36  37
HETATM   37  C28 UNL     1     -13.651  42.981 -28.084  1.00  0.00     0.002 C 
BRANCH  37  38
HETATM   38  C29 UNL     1     -14.944  43.694 -27.671  1.00  0.00     0.010 C 
BRANCH  38  39
HETATM   39  C30 UNL     1     -15.284  44.895 -28.551  1.00  0.00     0.110 C 
BRANCH  39  40
HETATM   40  C31 UNL     1     -14.301  46.022 -28.366  1.00  0.00     0.139 C 
HETATM   41  O7  UNL     1     -14.067  46.649 -27.349  1.00  0.00    -0.650 OA
BRANCH  40  42
HETATM   42  O8  UNL     1     -13.641  46.302 -29.509  1.00  0.00    -0.776 OA
HETATM   43  H45 UNL     1     -13.035  47.033 -29.257  1.00  0.00     0.167 HD
ENDBRANCH  40  42
ENDBRANCH  39  40
ENDBRANCH  38  39
ENDBRANCH  37  38
ENDBRANCH  36  37
ENDBRANCH  35  36
ENDBRANCH  33  35
ENDBRANCH  30  31
ENDBRANCH  29  30
ENDBRANCH  27  29
ENDBRANCH  26  27
ENDBRANCH  25  26
ENDBRANCH  23  25
ENDBRANCH  20  23
TORSDOF 15
ENDMDL
MODEL 7
REMARK minimizedAffinity -7.14415741
REMARK CNNscore 0.320998341
REMARK CNNaffinity 5.89333916
REMARK  15 active torsions:
REMARK  status: ('A' for Active; 'I' for Inactive)
REMARK    1  A    between atoms: C19_20  and  O2_21 
REMARK    2  A    between atoms: C19_20  and  C20_22 
REMARK    3  A    between atoms: C20_22  and  C21_24 
REMARK    4  A    between atoms: C21_24  and  O4_25 
REMARK    5  A    between atoms: O4_25  and  C22_26 
REMARK    6  A    between atoms: C22_26  and  C23_28 
REMARK    7  A    between atoms: C23_28  and  C24_29 
REMARK    8  A    between atoms: C24_29  and  C25_30 
REMARK       I    between atoms: C25_30  and  N1_32 
REMARK    9  A    between atoms: N1_32  and  C26_33 
REMARK   10  A    between atoms: C26_33  and  C27_34 
REMARK   11  A    between atoms: C27_34  and  C28_35 
REMARK   12  A    between atoms: C28_35  and  C29_36 
REMARK   13  A    between atoms: C29_36  and  C30_37 
REMARK   14  A    between atoms: C30_37  and  C31_38 
REMARK   15  A    between atoms: C31_38  and  O8_40 
ROOT
HETATM    1  C1  UNL     1      -6.472  45.993 -30.674  1.00  0.00     0.020 C 
HETATM    2  C2  UNL     1      -7.883  46.216 -31.298  1.00  0.00    -0.016 C 
HETATM    3  C3  UNL     1      -8.023  45.087 -32.368  1.00  0.00     0.022 C 
HETATM    4  C4  UNL     1      -8.828  45.434 -33.612  1.00  0.00     0.084 C 
HETATM    5  C5  UNL     1      -8.429  46.776 -34.166  1.00  0.00     0.149 C 
HETATM    6  O1  UNL     1      -8.419  47.015 -35.371  1.00  0.00    -0.293 OA
HETATM    7  C6  UNL     1      -8.150  47.866 -33.204  1.00  0.00     0.053 C 
HETATM    8  C7  UNL     1      -7.946  47.618 -31.899  1.00  0.00    -0.068 C 
HETATM    9  C8  UNL     1      -7.827  48.761 -30.914  1.00  0.00     0.035 C 
HETATM   10  C9  UNL     1      -8.852  48.638 -29.775  1.00  0.00     0.010 C 
HETATM   11  C10 UNL     1      -8.833  47.244 -29.113  1.00  0.00    -0.004 C 
HETATM   12  C11 UNL     1      -8.980  46.116 -30.172  1.00  0.00     0.002 C 
HETATM   13  C12 UNL     1     -10.427  46.046 -30.722  1.00  0.00     0.007 C 
HETATM   14  C13 UNL     1     -11.519  46.652 -29.837  1.00  0.00     0.013 C 
HETATM   15  C14 UNL     1     -11.268  46.545 -28.326  1.00  0.00    -0.002 C 
HETATM   16  C15 UNL     1     -11.430  45.063 -27.899  1.00  0.00     0.019 C 
HETATM   17  C16 UNL     1      -9.821  47.008 -27.947  1.00  0.00     0.002 C 
HETATM   18  C17 UNL     1      -9.978  48.159 -26.947  1.00  0.00     0.009 C 
HETATM   19  C18 UNL     1     -11.315  47.873 -26.280  1.00  0.00     0.047 C 
HETATM   20  C19 UNL     1     -12.199  47.480 -27.472  1.00  0.00     0.128 C 
ENDROOT
BRANCH  20  21
HETATM   21  O2  UNL     1     -12.490  48.690 -28.185  1.00  0.00    -0.381 OA
HETATM   22  H27 UNL     1     -13.041  49.258 -27.606  1.00  0.00     0.211 HD
ENDBRANCH  20  21
BRANCH  20  23
HETATM   23  C20 UNL     1     -13.534  46.851 -27.032  1.00  0.00     0.185 C 
HETATM   24  O3  UNL     1     -14.370  46.435 -27.840  1.00  0.00    -0.292 OA
BRANCH  23  25
HETATM   25  C21 UNL     1     -13.776  46.744 -25.525  1.00  0.00     0.260 C 
BRANCH  25  26
HETATM   26  O4  UNL     1     -14.709  47.709 -25.041  1.00  0.00    -0.314 OA
BRANCH  26  27
HETATM   27  C22 UNL     1     -15.426  47.291 -23.960  1.00  0.00     0.259 C 
HETATM   28  O5  UNL     1     -15.196  47.605 -22.797  1.00  0.00    -0.265 OA
BRANCH  27  29
HETATM   29  C23 UNL     1     -16.526  46.360 -24.388  1.00  0.00     0.120 C 
BRANCH  29  30
HETATM   30  C24 UNL     1     -17.853  47.102 -24.422  1.00  0.00     0.112 C 
BRANCH  30  31
HETATM   31  C25 UNL     1     -18.900  46.311 -25.176  1.00  0.00     0.217 C 
HETATM   32  O6  UNL     1     -20.105  46.513 -25.068  1.00  0.00    -0.274 OA
HETATM   33  N1  UNL     1     -18.360  45.343 -25.999  1.00  0.00    -0.361 N 
HETATM   34  H34 UNL     1     -17.372  45.411 -26.213  1.00  0.00     0.162 HD
BRANCH  33  35
HETATM   35  C26 UNL     1     -19.211  44.635 -26.935  1.00  0.00     0.122 C 
BRANCH  35  36
HETATM   36  C27 UNL     1     -19.351  43.164 -26.562  1.00  0.00     0.020 C 
BRANCH  36  37
HETATM   37  C28 UNL     1     -19.924  42.305 -27.696  1.00  0.00     0.002 C 
BRANCH  37  38
HETATM   38  C29 UNL     1     -20.418  43.077 -28.925  1.00  0.00     0.010 C 
BRANCH  38  39
HETATM   39  C30 UNL     1     -19.938  42.485 -30.249  1.00  0.00     0.110 C 
BRANCH  39  40
HETATM   40  C31 UNL     1     -19.005  43.420 -30.975  1.00  0.00     0.139 C 
HETATM   41  O7  UNL     1     -18.944  43.633 -32.172  1.00  0.00    -0.650 OA
BRANCH  40  42
HETATM   42  O8  UNL     1     -18.177  44.060 -30.124  1.00  0.00    -0.776 OA
HETATM   43  H45 UNL     1     -17.638  44.635 -30.710  1.00  0.00     0.167 HD
ENDBRANCH  40  42
ENDBRANCH  39  40
ENDBRANCH  38  39
ENDBRANCH  37  38
ENDBRANCH  36  37
ENDBRANCH  35  36
ENDBRANCH  33  35
ENDBRANCH  30  31
ENDBRANCH  29  30
ENDBRANCH  27  29
ENDBRANCH  26  27
ENDBRANCH  25  26
ENDBRANCH  23  25
ENDBRANCH  20  23
TORSDOF 15
ENDMDL
MODEL 8
REMARK minimizedAffinity -7.44903612
REMARK CNNscore 0.263811886
REMARK CNNaffinity 6.16545725
REMARK  15 active torsions:
REMARK  status: ('A' for Active; 'I' for Inactive)
REMARK    1  A    between atoms: C19_20  and  O2_21 
REMARK    2  A    between atoms: C19_20  and  C20_22 
REMARK    3  A    between atoms: C20_22  and  C21_24 
REMARK    4  A    between atoms: C21_24  and  O4_25 
REMARK    5  A    between atoms: O4_25  and  C22_26 
REMARK    6  A    between atoms: C22_26  and  C23_28 
REMARK    7  A    between atoms: C23_28  and  C24_29 
REMARK    8  A    between atoms: C24_29  and  C25_30 
REMARK       I    between atoms: C25_30  and  N1_32 
REMARK    9  A    between atoms: N1_32  and  C26_33 
REMARK   10  A    between atoms: C26_33  and  C27_34 
REMARK   11  A    between atoms: C27_34  and  C28_35 
REMARK   12  A    between atoms: C28_35  and  C29_36 
REMARK   13  A    between atoms: C29_36  and  C30_37 
REMARK   14  A    between atoms: C30_37  and  C31_38 
REMARK   15  A    between atoms: C31_38  and  O8_40 
ROOT
HETATM    1  C1  UNL     1       1.281  50.965 -25.971  1.00  0.00     0.020 C 
HETATM    2  C2  UNL     1       0.010  51.867 -25.947  1.00  0.00    -0.016 C 
HETATM    3  C3  UNL     1      -0.132  52.385 -27.413  1.00  0.00     0.022 C 
HETATM    4  C4  UNL     1      -0.707  53.785 -27.580  1.00  0.00     0.084 C 
HETATM    5  C5  UNL     1      -0.060  54.760 -26.632  1.00  0.00     0.149 C 
HETATM    6  O1  UNL     1       0.146  55.933 -26.932  1.00  0.00    -0.293 OA
HETATM    7  C6  UNL     1       0.229  54.297 -25.256  1.00  0.00     0.053 C 
HETATM    8  C7  UNL     1       0.218  52.992 -24.934  1.00  0.00    -0.068 C 
HETATM    9  C8  UNL     1       0.353  52.559 -23.491  1.00  0.00     0.035 C 
HETATM   10  C9  UNL     1      -0.824  51.675 -23.050  1.00  0.00     0.010 C 
HETATM   11  C10 UNL     1      -1.082  50.508 -24.025  1.00  0.00    -0.004 C 
HETATM   12  C11 UNL     1      -1.234  51.017 -25.486  1.00  0.00     0.002 C 
HETATM   13  C12 UNL     1      -2.588  51.740 -25.692  1.00  0.00     0.007 C 
HETATM   14  C13 UNL     1      -3.700  51.395 -24.698  1.00  0.00     0.013 C 
HETATM   15  C14 UNL     1      -3.674  49.955 -24.165  1.00  0.00    -0.002 C 
HETATM   16  C15 UNL     1      -4.088  48.994 -25.309  1.00  0.00     0.019 C 
HETATM   17  C16 UNL     1      -2.243  49.546 -23.678  1.00  0.00     0.002 C 
HETATM   18  C17 UNL     1      -2.379  49.153 -22.202  1.00  0.00     0.009 C 
HETATM   19  C18 UNL     1      -3.821  48.681 -22.090  1.00  0.00     0.047 C 
HETATM   20  C19 UNL     1      -4.579  49.743 -22.898  1.00  0.00     0.128 C 
ENDROOT
BRANCH  20  21
HETATM   21  O2  UNL     1      -4.606  50.930 -22.092  1.00  0.00    -0.381 OA
HETATM   22  H27 UNL     1      -5.149  50.745 -21.298  1.00  0.00     0.211 HD
ENDBRANCH  20  21
BRANCH  20  23
HETATM   23  C20 UNL     1      -6.034  49.332 -23.192  1.00  0.00     0.185 C 
HETATM   24  O3  UNL     1      -6.832  50.082 -23.761  1.00  0.00    -0.292 OA
BRANCH  23  25
HETATM   25  C21 UNL     1      -6.447  47.925 -22.760  1.00  0.00     0.260 C 
BRANCH  25  26
HETATM   26  O4  UNL     1      -6.809  47.088 -23.858  1.00  0.00    -0.314 OA
BRANCH  26  27
HETATM   27  C22 UNL     1      -7.822  46.221 -23.581  1.00  0.00     0.259 C 
HETATM   28  O5  UNL     1      -7.678  45.051 -23.240  1.00  0.00    -0.265 OA
BRANCH  27  29
HETATM   29  C23 UNL     1      -9.154  46.889 -23.780  1.00  0.00     0.120 C 
BRANCH  29  30
HETATM   30  C24 UNL     1     -10.136  45.915 -24.413  1.00  0.00     0.112 C 
BRANCH  30  31
HETATM   31  C25 UNL     1     -11.383  46.631 -24.887  1.00  0.00     0.217 C 
HETATM   32  O6  UNL     1     -12.196  47.144 -24.126  1.00  0.00    -0.274 OA
HETATM   33  N1  UNL     1     -11.507  46.651 -26.262  1.00  0.00    -0.361 N 
HETATM   34  H34 UNL     1     -10.683  46.430 -26.808  1.00  0.00     0.162 HD
BRANCH  33  35
HETATM   35  C26 UNL     1     -12.535  47.464 -26.881  1.00  0.00     0.122 C 
BRANCH  35  36
HETATM   36  C27 UNL     1     -13.871  46.731 -26.938  1.00  0.00     0.020 C 
BRANCH  36  37
HETATM   37  C28 UNL     1     -13.773  45.347 -27.591  1.00  0.00     0.002 C 
BRANCH  37  38
HETATM   38  C29 UNL     1     -14.945  44.960 -28.499  1.00  0.00     0.010 C 
BRANCH  38  39
HETATM   39  C30 UNL     1     -15.408  43.517 -28.313  1.00  0.00     0.110 C 
BRANCH  39  40
HETATM   40  C31 UNL     1     -16.897  43.377 -28.503  1.00  0.00     0.139 C 
HETATM   41  O7  UNL     1     -17.659  42.634 -27.911  1.00  0.00    -0.650 OA
BRANCH  40  42
HETATM   42  O8  UNL     1     -17.360  44.212 -29.456  1.00  0.00    -0.776 OA
HETATM   43  H45 UNL     1     -18.325  44.033 -29.476  1.00  0.00     0.167 HD
ENDBRANCH  40  42
ENDBRANCH  39  40
ENDBRANCH  38  39
ENDBRANCH  37  38
ENDBRANCH  36  37
ENDBRANCH  35  36
ENDBRANCH  33  35
ENDBRANCH  30  31
ENDBRANCH  29  30
ENDBRANCH  27  29
ENDBRANCH  26  27
ENDBRANCH  25  26
ENDBRANCH  23  25
ENDBRANCH  20  23
TORSDOF 15
ENDMDL
MODEL 9
REMARK minimizedAffinity -7.76195526
REMARK CNNscore 0.259319216
REMARK CNNaffinity 6.39004374
REMARK  15 active torsions:
REMARK  status: ('A' for Active; 'I' for Inactive)
REMARK    1  A    between atoms: C19_20  and  O2_21 
REMARK    2  A    between atoms: C19_20  and  C20_22 
REMARK    3  A    between atoms: C20_22  and  C21_24 
REMARK    4  A    between atoms: C21_24  and  O4_25 
REMARK    5  A    between atoms: O4_25  and  C22_26 
REMARK    6  A    between atoms: C22_26  and  C23_28 
REMARK    7  A    between atoms: C23_28  and  C24_29 
REMARK    8  A    between atoms: C24_29  and  C25_30 
REMARK       I    between atoms: C25_30  and  N1_32 
REMARK    9  A    between atoms: N1_32  and  C26_33 
REMARK   10  A    between atoms: C26_33  and  C27_34 
REMARK   11  A    between atoms: C27_34  and  C28_35 
REMARK   12  A    between atoms: C28_35  and  C29_36 
REMARK   13  A    between atoms: C29_36  and  C30_37 
REMARK   14  A    between atoms: C30_37  and  C31_38 
REMARK   15  A    between atoms: C31_38  and  O8_40 
ROOT
HETATM    1  C1  UNL     1       1.256  50.846 -26.215  1.00  0.00     0.020 C 
HETATM    2  C2  UNL     1      -0.023  51.737 -26.211  1.00  0.00    -0.016 C 
HETATM    3  C3  UNL     1      -0.095  52.331 -27.652  1.00  0.00     0.022 C 
HETATM    4  C4  UNL     1      -0.674  53.733 -27.776  1.00  0.00     0.084 C 
HETATM    5  C5  UNL     1      -0.087  54.661 -26.745  1.00  0.00     0.149 C 
HETATM    6  O1  UNL     1       0.122  55.850 -26.972  1.00  0.00    -0.293 OA
HETATM    7  C6  UNL     1       0.135  54.128 -25.382  1.00  0.00     0.053 C 
HETATM    8  C7  UNL     1       0.121  52.808 -25.131  1.00  0.00    -0.068 C 
HETATM    9  C8  UNL     1       0.185  52.300 -23.707  1.00  0.00     0.035 C 
HETATM   10  C9  UNL     1      -1.004  51.386 -23.375  1.00  0.00     0.010 C 
HETATM   11  C10 UNL     1      -1.200  50.270 -24.422  1.00  0.00    -0.004 C 
HETATM   12  C11 UNL     1      -1.280  50.855 -25.860  1.00  0.00     0.002 C 
HETATM   13  C12 UNL     1      -2.629  51.578 -26.099  1.00  0.00     0.007 C 
HETATM   14  C13 UNL     1      -3.788  51.172 -25.183  1.00  0.00     0.013 C 
HETATM   15  C14 UNL     1      -3.775  49.706 -24.726  1.00  0.00    -0.002 C 
HETATM   16  C15 UNL     1      -4.120  48.804 -25.938  1.00  0.00     0.019 C 
HETATM   17  C16 UNL     1      -2.366  49.282 -24.187  1.00  0.00     0.002 C 
HETATM   18  C17 UNL     1      -2.575  48.811 -22.743  1.00  0.00     0.009 C 
HETATM   19  C18 UNL     1      -4.016  48.322 -22.731  1.00  0.00     0.047 C 
HETATM   20  C19 UNL     1      -4.742  49.421 -23.520  1.00  0.00     0.128 C 
ENDROOT
BRANCH  20  21
HETATM   21  O2  UNL     1      -4.822  50.563 -22.656  1.00  0.00    -0.381 OA
HETATM   22  H27 UNL     1      -5.404  50.332 -21.902  1.00  0.00     0.211 HD
ENDBRANCH  20  21
BRANCH  20  23
HETATM   23  C20 UNL     1      -6.175  49.015 -23.911  1.00  0.00     0.185 C 
HETATM   24  O3  UNL     1      -6.415  48.049 -24.641  1.00  0.00    -0.292 OA
BRANCH  23  25
HETATM   25  C21 UNL     1      -7.308  49.864 -23.332  1.00  0.00     0.260 C 
BRANCH  25  26
HETATM   26  O4  UNL     1      -7.322  49.877 -21.905  1.00  0.00    -0.314 OA
BRANCH  26  27
HETATM   27  C22 UNL     1      -7.833  48.744 -21.348  1.00  0.00     0.259 C 
HETATM   28  O5  UNL     1      -8.641  47.995 -21.887  1.00  0.00    -0.265 OA
BRANCH  27  29
HETATM   29  C23 UNL     1      -7.290  48.551 -19.959  1.00  0.00     0.120 C 
BRANCH  29  30
HETATM   30  C24 UNL     1      -8.408  48.692 -18.939  1.00  0.00     0.112 C 
BRANCH  30  31
HETATM   31  C25 UNL     1      -8.947  47.337 -18.531  1.00  0.00     0.217 C 
HETATM   32  O6  UNL     1      -8.356  46.577 -17.771  1.00  0.00    -0.274 OA
HETATM   33  N1  UNL     1     -10.173  47.048 -19.097  1.00  0.00    -0.361 N 
HETATM   34  H34 UNL     1     -10.693  47.818 -19.501  1.00  0.00     0.162 HD
BRANCH  33  35
HETATM   35  C26 UNL     1     -10.915  45.884 -18.655  1.00  0.00     0.122 C 
BRANCH  35  36
HETATM   36  C27 UNL     1     -11.771  46.196 -17.433  1.00  0.00     0.020 C 
BRANCH  36  37
HETATM   37  C28 UNL     1     -12.547  47.513 -17.560  1.00  0.00     0.002 C 
BRANCH  37  38
HETATM   38  C29 UNL     1     -14.064  47.374 -17.722  1.00  0.00     0.010 C 
BRANCH  38  39
HETATM   39  C30 UNL     1     -14.706  48.544 -18.464  1.00  0.00     0.110 C 
BRANCH  39  40
HETATM   40  C31 UNL     1     -14.083  48.758 -19.820  1.00  0.00     0.139 C 
HETATM   41  O7  UNL     1     -13.845  47.922 -20.672  1.00  0.00    -0.650 OA
BRANCH  40  42
HETATM   42  O8  UNL     1     -13.791  50.057 -20.036  1.00  0.00    -0.776 OA
HETATM   43  H45 UNL     1     -13.407  50.064 -20.940  1.00  0.00     0.167 HD
ENDBRANCH  40  42
ENDBRANCH  39  40
ENDBRANCH  38  39
ENDBRANCH  37  38
ENDBRANCH  36  37
ENDBRANCH  35  36
ENDBRANCH  33  35
ENDBRANCH  30  31
ENDBRANCH  29  30
ENDBRANCH  27  29
ENDBRANCH  26  27
ENDBRANCH  25  26
ENDBRANCH  23  25
ENDBRANCH  20  23
TORSDOF 15
ENDMDL
