MODEL 1
REMARK minimizedAffinity -9.0745945
REMARK  11 active torsions:
REMARK  status: ('A' for Active; 'I' for Inactive)
REMARK    1  A    between atoms: C3_3  and  C4_4 
REMARK    2  A    between atoms: C5_5  and  C6_6 
REMARK    3  A    between atoms: C6_6  and  O1_7 
REMARK       I    between atoms: N1_12  and  C11_13 
REMARK    4  A    between atoms: C11_13  and  C12_15 
REMARK    5  A    between atoms: C12_15  and  C14_17 
REMARK    6  A    between atoms: C14_17  and  C15_19 
REMARK    7  A    between atoms: C15_19  and  C16_20 
REMARK    8  A    between atoms: C16_20  and  C17_21 
REMARK    9  A    between atoms: C17_21  and  C18_22 
REMARK   10  A    between atoms: C18_22  and  C19_23 
REMARK   11  A    between atoms: C27_32  and  O5_34 
ROOT
HETATM    1  C6  UNL     1       0.334  51.604 -17.526  1.00  0.00     0.069 C 
HETATM    2  C7  UNL     1      -0.441  51.296 -18.587  1.00  0.00    -0.026 C 
HETATM    3  C8  UNL     1      -0.781  52.345 -19.681  1.00  0.00     0.044 C 
HETATM    4  C9  UNL     1       0.459  53.048 -20.278  1.00  0.00     0.031 C 
HETATM    5  C10 UNL     1       0.749  52.292 -21.559  1.00  0.00     0.127 C 
HETATM    6  N1  UNL     1      -0.570  51.998 -22.079  1.00  0.00    -0.344 N 
HETATM    7  C11 UNL     1      -0.963  52.143 -23.399  1.00  0.00     0.231 C 
HETATM    8  O2  UNL     1      -2.144  52.325 -23.698  1.00  0.00    -0.273 OA
HETATM    9  C22 UNL     1      -1.551  51.866 -20.989  1.00  0.00     0.118 C 
HETATM   10  C23 UNL     1      -2.138  50.445 -20.859  1.00  0.00     0.102 C 
HETATM   11  C24 UNL     1      -2.699  49.763 -22.092  1.00  0.00     0.034 C 
HETATM   12  C25 UNL     1      -1.050  49.636 -20.195  1.00  0.00     0.156 C 
HETATM   13  O4  UNL     1      -0.180  48.985 -20.753  1.00  0.00    -0.296 OA
HETATM   14  C26 UNL     1      -1.099  49.924 -18.717  1.00  0.00     0.130 C 
HETATM   15  C27 UNL     1      -2.625  49.917 -18.458  1.00  0.00     0.130 C 
HETATM   16  C28 UNL     1      -3.082  50.710 -17.236  1.00  0.00     0.055 C 
HETATM   17  C29 UNL     1      -3.185  50.496 -19.759  1.00  0.00     0.179 C 
HETATM   18  O6  UNL     1      -4.322  50.934 -19.882  1.00  0.00    -0.293 OA
ENDROOT
BRANCH   7  19
HETATM   19  C12 UNL     1       0.120  52.116 -24.469  1.00  0.00     0.143 C 
HETATM   20  C13 UNL     1       0.354  53.558 -24.922  1.00  0.00     0.028 C 
BRANCH  19  21
HETATM   21  C14 UNL     1      -0.234  51.155 -25.602  1.00  0.00     0.139 C 
HETATM   22  O3  UNL     1       0.639  50.633 -26.303  1.00  0.00    -0.297 OA
BRANCH  21  23
HETATM   23  C15 UNL     1      -1.689  50.964 -25.985  1.00  0.00     0.079 C 
BRANCH  23  24
HETATM   24  C16 UNL     1      -1.940  49.536 -26.463  1.00  0.00     0.008 C 
BRANCH  24  25
HETATM   25  C17 UNL     1      -2.882  48.757 -25.544  1.00  0.00     0.004 C 
BRANCH  25  26
HETATM   26  C18 UNL     1      -4.228  48.421 -26.193  1.00  0.00     0.027 C 
BRANCH  26  27
HETATM   27  C19 UNL     1      -4.128  48.478 -27.690  1.00  0.00    -0.031 C 
HETATM   28  C20 UNL     1      -5.026  48.062 -28.596  1.00  0.00    -0.035 C 
HETATM   29  C21 UNL     1      -6.356  47.423 -28.348  1.00  0.00     0.036 C 
ENDBRANCH  26  27
ENDBRANCH  25  26
ENDBRANCH  24  25
ENDBRANCH  23  24
ENDBRANCH  21  23
ENDBRANCH  19  21
ENDBRANCH   7  19
BRANCH   1  30
HETATM   30  C5  UNL     1       0.642  50.708 -16.428  1.00  0.00     0.037 C 
HETATM   31  C4  UNL     1       1.657  50.794 -15.547  1.00  0.00     0.002 C 
BRANCH  31  32
HETATM   32  C3  UNL     1       2.757  51.730 -15.602  1.00  0.00    -0.004 C 
HETATM   33  C2  UNL     1       3.947  51.593 -14.998  1.00  0.00    -0.031 C 
HETATM   34  C1  UNL     1       4.417  50.497 -14.095  1.00  0.00     0.036 C 
ENDBRANCH  31  32
ENDBRANCH   1  30
BRANCH   1  35
HETATM   35  O1  UNL     1       0.767  52.904 -17.349  1.00  0.00    -0.360 OA
HETATM   36  H8  UNL     1       1.294  52.940 -16.529  1.00  0.00     0.217 HD
ENDBRANCH   1  35
BRANCH  15  37
HETATM   37  O5  UNL     1      -3.058  48.565 -18.319  1.00  0.00    -0.381 OA
HETATM   38  H39 UNL     1      -3.998  48.562 -18.052  1.00  0.00     0.211 HD
ENDBRANCH  15  37
TORSDOF 11
ENDMDL
MODEL 2
REMARK minimizedAffinity -8.97990131
REMARK  11 active torsions:
REMARK  status: ('A' for Active; 'I' for Inactive)
REMARK    1  A    between atoms: C3_3  and  C4_4 
REMARK    2  A    between atoms: C5_5  and  C6_6 
REMARK    3  A    between atoms: C6_6  and  O1_7 
REMARK       I    between atoms: N1_12  and  C11_13 
REMARK    4  A    between atoms: C11_13  and  C12_15 
REMARK    5  A    between atoms: C12_15  and  C14_17 
REMARK    6  A    between atoms: C14_17  and  C15_19 
REMARK    7  A    between atoms: C15_19  and  C16_20 
REMARK    8  A    between atoms: C16_20  and  C17_21 
REMARK    9  A    between atoms: C17_21  and  C18_22 
REMARK   10  A    between atoms: C18_22  and  C19_23 
REMARK   11  A    between atoms: C27_32  and  O5_34 
ROOT
HETATM    1  C6  UNL     1      -1.257  52.471 -23.846  1.00  0.00     0.069 C 
HETATM    2  C7  UNL     1      -1.912  51.826 -22.857  1.00  0.00    -0.026 C 
HETATM    3  C8  UNL     1      -3.396  52.139 -22.523  1.00  0.00     0.044 C 
HETATM    4  C9  UNL     1      -4.340  52.066 -23.745  1.00  0.00     0.031 C 
HETATM    5  C10 UNL     1      -4.957  50.685 -23.673  1.00  0.00     0.127 C 
HETATM    6  N1  UNL     1      -5.158  50.483 -22.253  1.00  0.00    -0.344 N 
HETATM    7  C11 UNL     1      -6.301  49.963 -21.670  1.00  0.00     0.231 C 
HETATM    8  O2  UNL     1      -6.603  50.230 -20.506  1.00  0.00    -0.273 OA
HETATM    9  C22 UNL     1      -4.154  51.220 -21.467  1.00  0.00     0.118 C 
HETATM   10  C23 UNL     1      -3.203  50.303 -20.671  1.00  0.00     0.102 C 
HETATM   11  C24 UNL     1      -3.791  49.214 -19.794  1.00  0.00     0.034 C 
HETATM   12  C25 UNL     1      -2.237  49.762 -21.698  1.00  0.00     0.156 C 
HETATM   13  O4  UNL     1      -2.350  48.723 -22.330  1.00  0.00    -0.296 OA
HETATM   14  C26 UNL     1      -1.199  50.822 -21.955  1.00  0.00     0.130 C 
HETATM   15  C27 UNL     1      -0.922  51.331 -20.520  1.00  0.00     0.130 C 
HETATM   16  C28 UNL     1      -0.367  52.750 -20.427  1.00  0.00     0.055 C 
HETATM   17  C29 UNL     1      -2.294  51.208 -19.854  1.00  0.00     0.179 C 
HETATM   18  O6  UNL     1      -2.602  51.765 -18.809  1.00  0.00    -0.293 OA
ENDROOT
BRANCH   7  19
HETATM   19  C12 UNL     1      -7.201  49.087 -22.531  1.00  0.00     0.143 C 
HETATM   20  C13 UNL     1      -8.339  48.583 -21.642  1.00  0.00     0.028 C 
BRANCH  19  21
HETATM   21  C14 UNL     1      -6.409  47.977 -23.220  1.00  0.00     0.139 C 
HETATM   22  O3  UNL     1      -5.628  47.255 -22.593  1.00  0.00    -0.297 OA
BRANCH  21  23
HETATM   23  C15 UNL     1      -6.452  47.866 -24.732  1.00  0.00     0.079 C 
BRANCH  23  24
HETATM   24  C16 UNL     1      -5.061  48.063 -25.329  1.00  0.00     0.008 C 
BRANCH  24  25
HETATM   25  C17 UNL     1      -5.083  48.217 -26.851  1.00  0.00     0.004 C 
BRANCH  25  26
HETATM   26  C18 UNL     1      -3.686  48.295 -27.476  1.00  0.00     0.027 C 
BRANCH  26  27
HETATM   27  C19 UNL     1      -2.710  48.923 -26.525  1.00  0.00    -0.031 C 
HETATM   28  C20 UNL     1      -2.398  50.222 -26.399  1.00  0.00    -0.035 C 
HETATM   29  C21 UNL     1      -2.936  51.379 -27.180  1.00  0.00     0.036 C 
ENDBRANCH  26  27
ENDBRANCH  25  26
ENDBRANCH  24  25
ENDBRANCH  23  24
ENDBRANCH  21  23
ENDBRANCH  19  21
ENDBRANCH   7  19
BRANCH   1  30
HETATM   30  C5  UNL     1       0.144  52.290 -24.176  1.00  0.00     0.037 C 
HETATM   31  C4  UNL     1       0.799  52.719 -25.271  1.00  0.00     0.002 C 
BRANCH  31  32
HETATM   32  C3  UNL     1       0.204  53.332 -26.437  1.00  0.00    -0.004 C 
HETATM   33  C2  UNL     1       0.258  52.866 -27.693  1.00  0.00    -0.031 C 
HETATM   34  C1  UNL     1       0.969  51.659 -28.213  1.00  0.00     0.036 C 
ENDBRANCH  31  32
ENDBRANCH   1  30
BRANCH   1  35
HETATM   35  O1  UNL     1      -1.882  53.500 -24.524  1.00  0.00    -0.360 OA
HETATM   36  H8  UNL     1      -1.256  53.854 -25.183  1.00  0.00     0.217 HD
ENDBRANCH   1  35
BRANCH  15  37
HETATM   37  O5  UNL     1      -0.009  50.436 -19.887  1.00  0.00    -0.381 OA
HETATM   38  H39 UNL     1       0.247  50.810 -19.022  1.00  0.00     0.211 HD
ENDBRANCH  15  37
TORSDOF 11
ENDMDL
MODEL 3
REMARK minimizedAffinity -8.88813972
REMARK  11 active torsions:
REMARK  status: ('A' for Active; 'I' for Inactive)
REMARK    1  A    between atoms: C3_3  and  C4_4 
REMARK    2  A    between atoms: C5_5  and  C6_6 
REMARK    3  A    between atoms: C6_6  and  O1_7 
REMARK       I    between atoms: N1_12  and  C11_13 
REMARK    4  A    between atoms: C11_13  and  C12_15 
REMARK    5  A    between atoms: C12_15  and  C14_17 
REMARK    6  A    between atoms: C14_17  and  C15_19 
REMARK    7  A    between atoms: C15_19  and  C16_20 
REMARK    8  A    between atoms: C16_20  and  C17_21 
REMARK    9  A    between atoms: C17_21  and  C18_22 
REMARK   10  A    between atoms: C18_22  and  C19_23 
REMARK   11  A    between atoms: C27_32  and  O5_34 
ROOT
HETATM    1  C6  UNL     1      -0.630  52.692 -24.306  1.00  0.00     0.069 C 
HETATM    2  C7  UNL     1      -1.392  52.008 -23.426  1.00  0.00    -0.026 C 
HETATM    3  C8  UNL     1      -2.885  52.364 -23.191  1.00  0.00     0.044 C 
HETATM    4  C9  UNL     1      -3.724  52.424 -24.488  1.00  0.00     0.031 C 
HETATM    5  C10 UNL     1      -4.400  51.070 -24.571  1.00  0.00     0.127 C 
HETATM    6  N1  UNL     1      -4.728  50.777 -23.192  1.00  0.00    -0.344 N 
HETATM    7  C11 UNL     1      -5.937  50.269 -22.744  1.00  0.00     0.231 C 
HETATM    8  O2  UNL     1      -6.325  50.465 -21.592  1.00  0.00    -0.273 OA
HETATM    9  C22 UNL     1      -3.766  51.408 -22.273  1.00  0.00     0.118 C 
HETATM   10  C23 UNL     1      -2.923  50.393 -21.474  1.00  0.00     0.102 C 
HETATM   11  C24 UNL     1      -3.626  49.271 -20.733  1.00  0.00     0.034 C 
HETATM   12  C25 UNL     1      -1.896  49.883 -22.457  1.00  0.00     0.156 C 
HETATM   13  O4  UNL     1      -1.997  48.898 -23.173  1.00  0.00    -0.296 OA
HETATM   14  C26 UNL     1      -0.798  50.909 -22.548  1.00  0.00     0.130 C 
HETATM   15  C27 UNL     1      -0.624  51.300 -21.060  1.00  0.00     0.130 C 
HETATM   16  C28 UNL     1      -0.022  52.681 -20.815  1.00  0.00     0.055 C 
HETATM   17  C29 UNL     1      -2.051  51.192 -20.520  1.00  0.00     0.179 C 
HETATM   18  O6  UNL     1      -2.424  51.686 -19.463  1.00  0.00    -0.293 OA
ENDROOT
BRANCH   7  19
HETATM   19  C12 UNL     1      -6.795  49.500 -23.739  1.00  0.00     0.143 C 
HETATM   20  C13 UNL     1      -8.168  49.291 -23.098  1.00  0.00     0.028 C 
BRANCH  19  21
HETATM   21  C14 UNL     1      -6.113  48.209 -24.187  1.00  0.00     0.139 C 
HETATM   22  O3  UNL     1      -5.592  47.437 -23.375  1.00  0.00    -0.297 OA
BRANCH  21  23
HETATM   23  C15 UNL     1      -5.920  47.947 -25.669  1.00  0.00     0.079 C 
BRANCH  23  24
HETATM   24  C16 UNL     1      -4.497  48.292 -26.099  1.00  0.00     0.008 C 
BRANCH  24  25
HETATM   25  C17 UNL     1      -4.317  48.289 -27.619  1.00  0.00     0.004 C 
BRANCH  25  26
HETATM   26  C18 UNL     1      -5.581  47.880 -28.382  1.00  0.00     0.027 C 
BRANCH  26  27
HETATM   27  C19 UNL     1      -5.433  48.159 -29.849  1.00  0.00    -0.031 C 
HETATM   28  C20 UNL     1      -5.694  47.338 -30.878  1.00  0.00    -0.035 C 
HETATM   29  C21 UNL     1      -6.189  45.927 -30.827  1.00  0.00     0.036 C 
ENDBRANCH  26  27
ENDBRANCH  25  26
ENDBRANCH  24  25
ENDBRANCH  23  24
ENDBRANCH  21  23
ENDBRANCH  19  21
ENDBRANCH   7  19
BRANCH   1  30
HETATM   30  C5  UNL     1       0.785  52.470 -24.534  1.00  0.00     0.037 C 
HETATM   31  C4  UNL     1       1.366  51.788 -25.540  1.00  0.00     0.002 C 
BRANCH  31  32
HETATM   32  C3  UNL     1       0.685  50.996 -26.539  1.00  0.00    -0.004 C 
HETATM   33  C2  UNL     1       0.226  51.432 -27.721  1.00  0.00    -0.031 C 
HETATM   34  C1  UNL     1       0.248  52.820 -28.278  1.00  0.00     0.036 C 
ENDBRANCH  31  32
ENDBRANCH   1  30
BRANCH   1  35
HETATM   35  O1  UNL     1      -1.154  53.794 -24.953  1.00  0.00    -0.360 OA
HETATM   36  H8  UNL     1      -0.461  54.166 -25.530  1.00  0.00     0.217 HD
ENDBRANCH   1  35
BRANCH  15  37
HETATM   37  O5  UNL     1       0.195  50.320 -20.425  1.00  0.00    -0.381 OA
HETATM   38  H39 UNL     1       0.393  50.619 -19.515  1.00  0.00     0.211 HD
ENDBRANCH  15  37
TORSDOF 11
ENDMDL
MODEL 4
REMARK minimizedAffinity -8.61002731
REMARK  11 active torsions:
REMARK  status: ('A' for Active; 'I' for Inactive)
REMARK    1  A    between atoms: C3_3  and  C4_4 
REMARK    2  A    between atoms: C5_5  and  C6_6 
REMARK    3  A    between atoms: C6_6  and  O1_7 
REMARK       I    between atoms: N1_12  and  C11_13 
REMARK    4  A    between atoms: C11_13  and  C12_15 
REMARK    5  A    between atoms: C12_15  and  C14_17 
REMARK    6  A    between atoms: C14_17  and  C15_19 
REMARK    7  A    between atoms: C15_19  and  C16_20 
REMARK    8  A    between atoms: C16_20  and  C17_21 
REMARK    9  A    between atoms: C17_21  and  C18_22 
REMARK   10  A    between atoms: C18_22  and  C19_23 
REMARK   11  A    between atoms: C27_32  and  O5_34 
ROOT
HETATM    1  C6  UNL     1      -0.131  52.356 -24.471  1.00  0.00     0.069 C 
HETATM    2  C7  UNL     1      -1.157  51.619 -23.993  1.00  0.00    -0.026 C 
HETATM    3  C8  UNL     1      -0.943  50.538 -22.898  1.00  0.00     0.044 C 
HETATM    4  C9  UNL     1      -0.203  51.058 -21.645  1.00  0.00     0.031 C 
HETATM    5  C10 UNL     1      -1.303  51.376 -20.652  1.00  0.00     0.127 C 
HETATM    6  N1  UNL     1      -2.262  50.313 -20.866  1.00  0.00    -0.344 N 
HETATM    7  C11 UNL     1      -2.903  49.596 -19.870  1.00  0.00     0.231 C 
HETATM    8  O2  UNL     1      -3.325  48.457 -20.071  1.00  0.00    -0.273 OA
HETATM    9  C22 UNL     1      -2.219  49.833 -22.259  1.00  0.00     0.118 C 
HETATM   10  C23 UNL     1      -3.518  50.107 -23.043  1.00  0.00     0.102 C 
HETATM   11  C24 UNL     1      -4.847  49.696 -22.437  1.00  0.00     0.034 C 
HETATM   12  C25 UNL     1      -3.466  51.579 -23.379  1.00  0.00     0.156 C 
HETATM   13  O4  UNL     1      -3.934  52.495 -22.720  1.00  0.00    -0.296 OA
HETATM   14  C26 UNL     1      -2.563  51.746 -24.573  1.00  0.00     0.130 C 
HETATM   15  C27 UNL     1      -3.004  50.553 -25.456  1.00  0.00     0.130 C 
HETATM   16  C28 UNL     1      -1.962  50.065 -26.459  1.00  0.00     0.055 C 
HETATM   17  C29 UNL     1      -3.347  49.482 -24.419  1.00  0.00     0.179 C 
HETATM   18  O6  UNL     1      -3.465  48.291 -24.675  1.00  0.00    -0.293 OA
ENDROOT
BRANCH   7  19
HETATM   19  C12 UNL     1      -3.028  50.246 -18.498  1.00  0.00     0.143 C 
HETATM   20  C13 UNL     1      -2.728  51.737 -18.666  1.00  0.00     0.028 C 
BRANCH  19  21
HETATM   21  C14 UNL     1      -2.149  49.546 -17.464  1.00  0.00     0.139 C 
HETATM   22  O3  UNL     1      -2.551  49.325 -16.317  1.00  0.00    -0.297 OA
BRANCH  21  23
HETATM   23  C15 UNL     1      -0.695  49.265 -17.795  1.00  0.00     0.079 C 
BRANCH  23  24
HETATM   24  C16 UNL     1       0.203  50.390 -17.288  1.00  0.00     0.008 C 
BRANCH  24  25
HETATM   25  C17 UNL     1       0.773  50.116 -15.895  1.00  0.00     0.004 C 
BRANCH  25  26
HETATM   26  C18 UNL     1       1.379  51.356 -15.229  1.00  0.00     0.027 C 
BRANCH  26  27
HETATM   27  C19 UNL     1       1.753  52.384 -16.257  1.00  0.00    -0.031 C 
HETATM   28  C20 UNL     1       2.982  52.793 -16.608  1.00  0.00    -0.035 C 
HETATM   29  C21 UNL     1       4.297  52.338 -16.058  1.00  0.00     0.036 C 
ENDBRANCH  26  27
ENDBRANCH  25  26
ENDBRANCH  24  25
ENDBRANCH  23  24
ENDBRANCH  21  23
ENDBRANCH  19  21
ENDBRANCH   7  19
BRANCH   1  30
HETATM   30  C5  UNL     1      -0.232  53.333 -25.538  1.00  0.00     0.037 C 
HETATM   31  C4  UNL     1      -0.165  53.120 -26.866  1.00  0.00     0.002 C 
BRANCH  31  32
HETATM   32  C3  UNL     1       0.173  51.872 -27.514  1.00  0.00    -0.004 C 
HETATM   33  C2  UNL     1       1.389  51.308 -27.563  1.00  0.00    -0.031 C 
HETATM   34  C1  UNL     1       2.684  51.829 -27.025  1.00  0.00     0.036 C 
ENDBRANCH  31  32
ENDBRANCH   1  30
BRANCH   1  35
HETATM   35  O1  UNL     1       1.157  52.091 -24.050  1.00  0.00    -0.360 OA
HETATM   36  H8  UNL     1       1.760  52.705 -24.509  1.00  0.00     0.217 HD
ENDBRANCH   1  35
BRANCH  15  37
HETATM   37  O5  UNL     1      -4.188  50.921 -26.161  1.00  0.00    -0.381 OA
HETATM   38  H39 UNL     1      -4.408  50.211 -26.795  1.00  0.00     0.211 HD
ENDBRANCH  15  37
TORSDOF 11
ENDMDL
MODEL 5
REMARK minimizedAffinity -8.58346748
REMARK  11 active torsions:
REMARK  status: ('A' for Active; 'I' for Inactive)
REMARK    1  A    between atoms: C3_3  and  C4_4 
REMARK    2  A    between atoms: C5_5  and  C6_6 
REMARK    3  A    between atoms: C6_6  and  O1_7 
REMARK       I    between atoms: N1_12  and  C11_13 
REMARK    4  A    between atoms: C11_13  and  C12_15 
REMARK    5  A    between atoms: C12_15  and  C14_17 
REMARK    6  A    between atoms: C14_17  and  C15_19 
REMARK    7  A    between atoms: C15_19  and  C16_20 
REMARK    8  A    between atoms: C16_20  and  C17_21 
REMARK    9  A    between atoms: C17_21  and  C18_22 
REMARK   10  A    between atoms: C18_22  and  C19_23 
REMARK   11  A    between atoms: C27_32  and  O5_34 
ROOT
HETATM    1  C6  UNL     1      -0.507  51.379 -21.282  1.00  0.00     0.069 C 
HETATM    2  C7  UNL     1      -1.117  51.243 -22.479  1.00  0.00    -0.026 C 
HETATM    3  C8  UNL     1      -1.527  49.851 -23.032  1.00  0.00     0.044 C 
HETATM    4  C9  UNL     1      -2.377  49.014 -22.048  1.00  0.00     0.031 C 
HETATM    5  C10 UNL     1      -3.809  49.244 -22.486  1.00  0.00     0.127 C 
HETATM    6  N1  UNL     1      -3.714  49.280 -23.931  1.00  0.00    -0.344 N 
HETATM    7  C11 UNL     1      -4.573  48.640 -24.809  1.00  0.00     0.231 C 
HETATM    8  O2  UNL     1      -4.209  48.322 -25.941  1.00  0.00    -0.273 OA
HETATM    9  C22 UNL     1      -2.398  49.781 -24.362  1.00  0.00     0.118 C 
HETATM   10  C23 UNL     1      -2.468  51.127 -25.111  1.00  0.00     0.102 C 
HETATM   11  C24 UNL     1      -3.439  51.280 -26.266  1.00  0.00     0.034 C 
HETATM   12  C25 UNL     1      -2.686  52.160 -24.030  1.00  0.00     0.156 C 
HETATM   13  O4  UNL     1      -3.760  52.581 -23.630  1.00  0.00    -0.296 OA
HETATM   14  C26 UNL     1      -1.353  52.445 -23.391  1.00  0.00     0.130 C 
HETATM   15  C27 UNL     1      -0.427  52.501 -24.630  1.00  0.00     0.130 C 
HETATM   16  C28 UNL     1       1.046  52.210 -24.356  1.00  0.00     0.055 C 
HETATM   17  C29 UNL     1      -1.054  51.461 -25.560  1.00  0.00     0.179 C 
HETATM   18  O6  UNL     1      -0.485  50.973 -26.528  1.00  0.00    -0.293 OA
ENDROOT
BRANCH   7  19
HETATM   19  C12 UNL     1      -5.970  48.297 -24.310  1.00  0.00     0.143 C 
HETATM   20  C13 UNL     1      -5.814  47.514 -23.005  1.00  0.00     0.028 C 
BRANCH  19  21
HETATM   21  C14 UNL     1      -6.785  47.572 -25.379  1.00  0.00     0.139 C 
HETATM   22  O3  UNL     1      -7.618  46.709 -25.083  1.00  0.00    -0.297 OA
BRANCH  21  23
HETATM   23  C15 UNL     1      -6.451  47.792 -26.842  1.00  0.00     0.079 C 
BRANCH  23  24
HETATM   24  C16 UNL     1      -7.357  46.950 -27.737  1.00  0.00     0.008 C 
BRANCH  24  25
HETATM   25  C17 UNL     1      -6.994  47.055 -29.220  1.00  0.00     0.004 C 
BRANCH  25  26
HETATM   26  C18 UNL     1      -7.357  48.407 -29.842  1.00  0.00     0.027 C 
BRANCH  26  27
HETATM   27  C19 UNL     1      -8.846  48.595 -29.881  1.00  0.00    -0.031 C 
HETATM   28  C20 UNL     1      -9.719  48.094 -30.768  1.00  0.00    -0.035 C 
HETATM   29  C21 UNL     1      -9.434  47.228 -31.954  1.00  0.00     0.036 C 
ENDBRANCH  26  27
ENDBRANCH  25  26
ENDBRANCH  24  25
ENDBRANCH  23  24
ENDBRANCH  21  23
ENDBRANCH  19  21
ENDBRANCH   7  19
BRANCH   1  30
HETATM   30  C5  UNL     1      -0.031  52.631 -20.725  1.00  0.00     0.037 C 
HETATM   31  C4  UNL     1       0.264  52.907 -19.440  1.00  0.00     0.002 C 
BRANCH  31  32
HETATM   32  C3  UNL     1       0.023  52.046 -18.305  1.00  0.00    -0.004 C 
HETATM   33  C2  UNL     1       0.803  51.926 -17.220  1.00  0.00    -0.031 C 
HETATM   34  C1  UNL     1       2.112  52.588 -16.932  1.00  0.00     0.036 C 
ENDBRANCH  31  32
ENDBRANCH   1  30
BRANCH   1  35
HETATM   35  O1  UNL     1      -0.150  50.254 -20.564  1.00  0.00    -0.360 OA
HETATM   36  H8  UNL     1       0.290  50.544 -19.743  1.00  0.00     0.217 HD
ENDBRANCH   1  35
BRANCH  15  37
HETATM   37  O5  UNL     1      -0.540  53.792 -25.225  1.00  0.00    -0.381 OA
HETATM   38  H39 UNL     1       0.119  53.866 -25.942  1.00  0.00     0.211 HD
ENDBRANCH  15  37
TORSDOF 11
ENDMDL
MODEL 6
REMARK minimizedAffinity -8.50495529
REMARK  11 active torsions:
REMARK  status: ('A' for Active; 'I' for Inactive)
REMARK    1  A    between atoms: C3_3  and  C4_4 
REMARK    2  A    between atoms: C5_5  and  C6_6 
REMARK    3  A    between atoms: C6_6  and  O1_7 
REMARK       I    between atoms: N1_12  and  C11_13 
REMARK    4  A    between atoms: C11_13  and  C12_15 
REMARK    5  A    between atoms: C12_15  and  C14_17 
REMARK    6  A    between atoms: C14_17  and  C15_19 
REMARK    7  A    between atoms: C15_19  and  C16_20 
REMARK    8  A    between atoms: C16_20  and  C17_21 
REMARK    9  A    between atoms: C17_21  and  C18_22 
REMARK   10  A    between atoms: C18_22  and  C19_23 
REMARK   11  A    between atoms: C27_32  and  O5_34 
ROOT
HETATM    1  C6  UNL     1      -1.440  52.021 -22.594  1.00  0.00     0.069 C 
HETATM    2  C7  UNL     1      -1.491  51.321 -21.441  1.00  0.00    -0.026 C 
HETATM    3  C8  UNL     1      -0.206  50.963 -20.646  1.00  0.00     0.044 C 
HETATM    4  C9  UNL     1       0.697  52.179 -20.339  1.00  0.00     0.031 C 
HETATM    5  C10 UNL     1       0.331  52.582 -18.925  1.00  0.00     0.127 C 
HETATM    6  N1  UNL     1       0.118  51.313 -18.261  1.00  0.00    -0.344 N 
HETATM    7  C11 UNL     1       0.592  50.974 -17.005  1.00  0.00     0.231 C 
HETATM    8  O2  UNL     1       0.785  49.799 -16.689  1.00  0.00    -0.273 OA
HETATM    9  C22 UNL     1      -0.355  50.291 -19.211  1.00  0.00     0.118 C 
HETATM   10  C23 UNL     1      -1.787  49.798 -18.920  1.00  0.00     0.102 C 
HETATM   11  C24 UNL     1      -2.140  49.345 -17.516  1.00  0.00     0.034 C 
HETATM   12  C25 UNL     1      -2.687  50.906 -19.414  1.00  0.00     0.156 C 
HETATM   13  O4  UNL     1      -3.116  51.844 -18.760  1.00  0.00    -0.296 OA
HETATM   14  C26 UNL     1      -2.810  50.765 -20.908  1.00  0.00     0.130 C 
HETATM   15  C27 UNL     1      -2.968  49.233 -21.057  1.00  0.00     0.130 C 
HETATM   16  C28 UNL     1      -2.559  48.664 -22.414  1.00  0.00     0.055 C 
HETATM   17  C29 UNL     1      -2.091  48.697 -19.924  1.00  0.00     0.179 C 
HETATM   18  O6  UNL     1      -1.697  47.541 -19.848  1.00  0.00    -0.293 OA
ENDROOT
BRANCH   7  19
HETATM   19  C12 UNL     1       0.912  52.107 -16.039  1.00  0.00     0.143 C 
HETATM   20  C13 UNL     1       2.425  52.330 -16.077  1.00  0.00     0.028 C 
BRANCH  19  21
HETATM   21  C14 UNL     1       0.357  51.829 -14.643  1.00  0.00     0.139 C 
HETATM   22  O3  UNL     1       1.093  51.785 -13.652  1.00  0.00    -0.297 OA
BRANCH  21  23
HETATM   23  C15 UNL     1      -1.099  51.431 -14.490  1.00  0.00     0.079 C 
BRANCH  23  24
HETATM   24  C16 UNL     1      -1.686  52.011 -13.206  1.00  0.00     0.008 C 
BRANCH  24  25
HETATM   25  C17 UNL     1      -3.214  51.945 -13.167  1.00  0.00     0.004 C 
BRANCH  25  26
HETATM   26  C18 UNL     1      -3.865  53.212 -12.601  1.00  0.00     0.027 C 
BRANCH  26  27
HETATM   27  C19 UNL     1      -4.025  53.110 -11.112  1.00  0.00    -0.031 C 
HETATM   28  C20 UNL     1      -3.293  53.707 -10.159  1.00  0.00    -0.035 C 
HETATM   29  C21 UNL     1      -2.121  54.619 -10.334  1.00  0.00     0.036 C 
ENDBRANCH  26  27
ENDBRANCH  25  26
ENDBRANCH  24  25
ENDBRANCH  23  24
ENDBRANCH  21  23
ENDBRANCH  19  21
ENDBRANCH   7  19
BRANCH   1  30
HETATM   30  C5  UNL     1      -2.581  52.337 -23.431  1.00  0.00     0.037 C 
HETATM   31  C4  UNL     1      -2.757  52.051 -24.735  1.00  0.00     0.002 C 
BRANCH  31  32
HETATM   32  C3  UNL     1      -1.767  51.490 -25.627  1.00  0.00    -0.004 C 
HETATM   33  C2  UNL     1      -1.795  50.267 -26.176  1.00  0.00    -0.031 C 
HETATM   34  C1  UNL     1      -2.797  49.175 -25.975  1.00  0.00     0.036 C 
ENDBRANCH  31  32
ENDBRANCH   1  30
BRANCH   1  35
HETATM   35  O1  UNL     1      -0.214  52.355 -23.138  1.00  0.00    -0.360 OA
HETATM   36  H8  UNL     1      -0.373  52.838 -23.970  1.00  0.00     0.217 HD
ENDBRANCH   1  35
BRANCH  15  37
HETATM   37  O5  UNL     1      -4.328  48.888 -20.803  1.00  0.00    -0.381 OA
HETATM   38  H39 UNL     1      -4.453  47.939 -20.998  1.00  0.00     0.211 HD
ENDBRANCH  15  37
TORSDOF 11
ENDMDL
MODEL 7
REMARK minimizedAffinity -8.28604031
REMARK  11 active torsions:
REMARK  status: ('A' for Active; 'I' for Inactive)
REMARK    1  A    between atoms: C3_3  and  C4_4 
REMARK    2  A    between atoms: C5_5  and  C6_6 
REMARK    3  A    between atoms: C6_6  and  O1_7 
REMARK       I    between atoms: N1_12  and  C11_13 
REMARK    4  A    between atoms: C11_13  and  C12_15 
REMARK    5  A    between atoms: C12_15  and  C14_17 
REMARK    6  A    between atoms: C14_17  and  C15_19 
REMARK    7  A    between atoms: C15_19  and  C16_20 
REMARK    8  A    between atoms: C16_20  and  C17_21 
REMARK    9  A    between atoms: C17_21  and  C18_22 
REMARK   10  A    between atoms: C18_22  and  C19_23 
REMARK   11  A    between atoms: C27_32  and  O5_34 
ROOT
HETATM    1  C6  UNL     1      -1.546  51.942 -23.834  1.00  0.00     0.069 C 
HETATM    2  C7  UNL     1      -1.912  51.117 -22.830  1.00  0.00    -0.026 C 
HETATM    3  C8  UNL     1      -0.867  50.495 -21.864  1.00  0.00     0.044 C 
HETATM    4  C9  UNL     1       0.074  51.533 -21.210  1.00  0.00     0.031 C 
HETATM    5  C10 UNL     1      -0.537  51.802 -19.850  1.00  0.00     0.127 C 
HETATM    6  N1  UNL     1      -1.015  50.500 -19.436  1.00  0.00    -0.344 N 
HETATM    7  C11 UNL     1      -0.853  49.947 -18.176  1.00  0.00     0.231 C 
HETATM    8  O2  UNL     1      -0.855  48.727 -18.008  1.00  0.00    -0.273 OA
HETATM    9  C22 UNL     1      -1.383  49.676 -20.601  1.00  0.00     0.118 C 
HETATM   10  C23 UNL     1      -2.887  49.345 -20.668  1.00  0.00     0.102 C 
HETATM   11  C24 UNL     1      -3.573  48.771 -19.443  1.00  0.00     0.034 C 
HETATM   12  C25 UNL     1      -3.542  50.615 -21.157  1.00  0.00     0.156 C 
HETATM   13  O4  UNL     1      -3.999  51.513 -20.466  1.00  0.00    -0.296 OA
HETATM   14  C26 UNL     1      -3.363  50.679 -22.651  1.00  0.00     0.130 C 
HETATM   15  C27 UNL     1      -3.646  49.211 -23.054  1.00  0.00     0.130 C 
HETATM   16  C28 UNL     1      -3.024  48.767 -24.375  1.00  0.00     0.055 C 
HETATM   17  C29 UNL     1      -3.087  48.428 -21.865  1.00  0.00     0.179 C 
HETATM   18  O6  UNL     1      -2.841  47.229 -21.887  1.00  0.00    -0.293 OA
ENDROOT
BRANCH   7  19
HETATM   19  C12 UNL     1      -0.626  50.899 -17.009  1.00  0.00     0.143 C 
HETATM   20  C13 UNL     1       0.661  50.465 -16.306  1.00  0.00     0.028 C 
BRANCH  19  21
HETATM   21  C14 UNL     1      -1.846  50.964 -16.093  1.00  0.00     0.139 C 
HETATM   22  O3  UNL     1      -2.986  51.115 -16.544  1.00  0.00    -0.297 OA
BRANCH  21  23
HETATM   23  C15 UNL     1      -1.643  51.014 -14.590  1.00  0.00     0.079 C 
BRANCH  23  24
HETATM   24  C16 UNL     1      -2.952  50.731 -13.858  1.00  0.00     0.008 C 
BRANCH  24  25
HETATM   25  C17 UNL     1      -3.022  51.400 -12.484  1.00  0.00     0.004 C 
BRANCH  25  26
HETATM   26  C18 UNL     1      -3.639  52.802 -12.518  1.00  0.00     0.027 C 
BRANCH  26  27
HETATM   27  C19 UNL     1      -4.108  53.213 -11.152  1.00  0.00    -0.031 C 
HETATM   28  C20 UNL     1      -3.445  53.932 -10.233  1.00  0.00    -0.035 C 
HETATM   29  C21 UNL     1      -2.065  54.500 -10.327  1.00  0.00     0.036 C 
ENDBRANCH  26  27
ENDBRANCH  25  26
ENDBRANCH  24  25
ENDBRANCH  23  24
ENDBRANCH  21  23
ENDBRANCH  19  21
ENDBRANCH   7  19
BRANCH   1  30
HETATM   30  C5  UNL     1      -2.448  52.508 -24.820  1.00  0.00     0.037 C 
HETATM   31  C4  UNL     1      -2.635  52.114 -26.094  1.00  0.00     0.002 C 
BRANCH  31  32
HETATM   32  C3  UNL     1      -1.859  51.124 -26.804  1.00  0.00    -0.004 C 
HETATM   33  C2  UNL     1      -0.726  51.344 -27.488  1.00  0.00    -0.031 C 
HETATM   34  C1  UNL     1      -0.019  52.639 -27.734  1.00  0.00     0.036 C 
ENDBRANCH  31  32
ENDBRANCH   1  30
BRANCH   1  35
HETATM   35  O1  UNL     1      -0.206  52.175 -24.075  1.00  0.00    -0.360 OA
HETATM   36  H8  UNL     1      -0.135  52.775 -24.841  1.00  0.00     0.217 HD
ENDBRANCH   1  35
BRANCH  15  37
HETATM   37  O5  UNL     1      -5.058  49.021 -23.121  1.00  0.00    -0.381 OA
HETATM   38  H39 UNL     1      -5.237  48.128 -23.476  1.00  0.00     0.211 HD
ENDBRANCH  15  37
TORSDOF 11
ENDMDL
MODEL 8
REMARK minimizedAffinity -8.15227222
REMARK  11 active torsions:
REMARK  status: ('A' for Active; 'I' for Inactive)
REMARK    1  A    between atoms: C3_3  and  C4_4 
REMARK    2  A    between atoms: C5_5  and  C6_6 
REMARK    3  A    between atoms: C6_6  and  O1_7 
REMARK       I    between atoms: N1_12  and  C11_13 
REMARK    4  A    between atoms: C11_13  and  C12_15 
REMARK    5  A    between atoms: C12_15  and  C14_17 
REMARK    6  A    between atoms: C14_17  and  C15_19 
REMARK    7  A    between atoms: C15_19  and  C16_20 
REMARK    8  A    between atoms: C16_20  and  C17_21 
REMARK    9  A    between atoms: C17_21  and  C18_22 
REMARK   10  A    between atoms: C18_22  and  C19_23 
REMARK   11  A    between atoms: C27_32  and  O5_34 
ROOT
HETATM    1  C6  UNL     1      -0.996  52.360 -24.095  1.00  0.00     0.069 C 
HETATM    2  C7  UNL     1      -1.635  51.774 -23.060  1.00  0.00    -0.026 C 
HETATM    3  C8  UNL     1      -3.139  52.041 -22.775  1.00  0.00     0.044 C 
HETATM    4  C9  UNL     1      -4.057  51.811 -23.997  1.00  0.00     0.031 C 
HETATM    5  C10 UNL     1      -4.607  50.412 -23.807  1.00  0.00     0.127 C 
HETATM    6  N1  UNL     1      -4.821  50.329 -22.378  1.00  0.00    -0.344 N 
HETATM    7  C11 UNL     1      -5.947  49.808 -21.763  1.00  0.00     0.231 C 
HETATM    8  O2  UNL     1      -6.282  50.162 -20.632  1.00  0.00    -0.273 OA
HETATM    9  C22 UNL     1      -3.868  51.184 -21.649  1.00  0.00     0.118 C 
HETATM   10  C23 UNL     1      -2.887  50.392 -20.761  1.00  0.00     0.102 C 
HETATM   11  C24 UNL     1      -3.435  49.357 -19.796  1.00  0.00     0.034 C 
HETATM   12  C25 UNL     1      -1.878  49.809 -21.723  1.00  0.00     0.156 C 
HETATM   13  O4  UNL     1      -1.930  48.713 -22.259  1.00  0.00    -0.296 OA
HETATM   14  C26 UNL     1      -0.889  50.892 -22.062  1.00  0.00     0.130 C 
HETATM   15  C27 UNL     1      -0.662  51.542 -20.676  1.00  0.00     0.130 C 
HETATM   16  C28 UNL     1      -0.179  52.990 -20.706  1.00  0.00     0.055 C 
HETATM   17  C29 UNL     1      -2.037  51.410 -20.019  1.00  0.00     0.179 C 
HETATM   18  O6  UNL     1      -2.390  52.043 -19.032  1.00  0.00    -0.293 OA
ENDROOT
BRANCH   7  19
HETATM   19  C12 UNL     1      -6.788  48.812 -22.552  1.00  0.00     0.143 C 
HETATM   20  C13 UNL     1      -7.886  49.603 -23.267  1.00  0.00     0.028 C 
BRANCH  19  21
HETATM   21  C14 UNL     1      -7.309  47.687 -21.660  1.00  0.00     0.139 C 
HETATM   22  O3  UNL     1      -6.631  46.682 -21.424  1.00  0.00    -0.297 OA
BRANCH  21  23
HETATM   23  C15 UNL     1      -8.751  47.722 -21.189  1.00  0.00     0.079 C 
BRANCH  23  24
HETATM   24  C16 UNL     1      -8.820  47.847 -19.669  1.00  0.00     0.008 C 
BRANCH  24  25
HETATM   25  C17 UNL     1     -10.139  48.449 -19.181  1.00  0.00     0.004 C 
BRANCH  25  26
HETATM   26  C18 UNL     1     -11.330  47.492 -19.305  1.00  0.00     0.027 C 
BRANCH  26  27
HETATM   27  C19 UNL     1     -12.492  48.169 -19.972  1.00  0.00    -0.031 C 
HETATM   28  C20 UNL     1     -13.716  48.395 -19.469  1.00  0.00    -0.035 C 
HETATM   29  C21 UNL     1     -14.241  48.021 -18.120  1.00  0.00     0.036 C 
ENDBRANCH  26  27
ENDBRANCH  25  26
ENDBRANCH  24  25
ENDBRANCH  23  24
ENDBRANCH  21  23
ENDBRANCH  19  21
ENDBRANCH   7  19
BRANCH   1  30
HETATM   30  C5  UNL     1       0.417  52.220 -24.390  1.00  0.00     0.037 C 
HETATM   31  C4  UNL     1       0.986  51.714 -25.501  1.00  0.00     0.002 C 
BRANCH  31  32
HETATM   32  C3  UNL     1       0.297  51.056 -26.589  1.00  0.00    -0.004 C 
HETATM   33  C2  UNL     1      -0.126  51.632 -27.724  1.00  0.00    -0.031 C 
HETATM   34  C1  UNL     1      -0.049  53.069 -28.128  1.00  0.00     0.036 C 
ENDBRANCH  31  32
ENDBRANCH   1  30
BRANCH   1  35
HETATM   35  O1  UNL     1      -1.659  53.290 -24.872  1.00  0.00    -0.360 OA
HETATM   36  H8  UNL     1      -1.041  53.614 -25.553  1.00  0.00     0.217 HD
ENDBRANCH   1  35
BRANCH  15  37
HETATM   37  O5  UNL     1       0.282  50.755 -19.953  1.00  0.00    -0.381 OA
HETATM   38  H39 UNL     1       0.506  51.218 -19.122  1.00  0.00     0.211 HD
ENDBRANCH  15  37
TORSDOF 11
ENDMDL
MODEL 9
REMARK minimizedAffinity -8.12729073
REMARK  11 active torsions:
REMARK  status: ('A' for Active; 'I' for Inactive)
REMARK    1  A    between atoms: C3_3  and  C4_4 
REMARK    2  A    between atoms: C5_5  and  C6_6 
REMARK    3  A    between atoms: C6_6  and  O1_7 
REMARK       I    between atoms: N1_12  and  C11_13 
REMARK    4  A    between atoms: C11_13  and  C12_15 
REMARK    5  A    between atoms: C12_15  and  C14_17 
REMARK    6  A    between atoms: C14_17  and  C15_19 
REMARK    7  A    between atoms: C15_19  and  C16_20 
REMARK    8  A    between atoms: C16_20  and  C17_21 
REMARK    9  A    between atoms: C17_21  and  C18_22 
REMARK   10  A    between atoms: C18_22  and  C19_23 
REMARK   11  A    between atoms: C27_32  and  O5_34 
ROOT
HETATM    1  C6  UNL     1      -0.125  51.450 -21.261  1.00  0.00     0.069 C 
HETATM    2  C7  UNL     1      -0.896  51.298 -22.359  1.00  0.00    -0.026 C 
HETATM    3  C8  UNL     1      -1.378  49.898 -22.829  1.00  0.00     0.044 C 
HETATM    4  C9  UNL     1      -2.082  49.077 -21.724  1.00  0.00     0.031 C 
HETATM    5  C10 UNL     1      -3.561  49.302 -21.962  1.00  0.00     0.127 C 
HETATM    6  N1  UNL     1      -3.669  49.317 -23.406  1.00  0.00    -0.344 N 
HETATM    7  C11 UNL     1      -4.641  48.665 -24.146  1.00  0.00     0.231 C 
HETATM    8  O2  UNL     1      -4.438  48.330 -25.313  1.00  0.00    -0.273 OA
HETATM    9  C22 UNL     1      -2.425  49.810 -24.024  1.00  0.00     0.118 C 
HETATM   10  C23 UNL     1      -2.600  51.145 -24.775  1.00  0.00     0.102 C 
HETATM   11  C24 UNL     1      -3.723  51.282 -25.786  1.00  0.00     0.034 C 
HETATM   12  C25 UNL     1      -2.666  52.194 -23.690  1.00  0.00     0.156 C 
HETATM   13  O4  UNL     1      -3.674  52.623 -23.150  1.00  0.00    -0.296 OA
HETATM   14  C26 UNL     1      -1.257  52.486 -23.247  1.00  0.00     0.130 C 
HETATM   15  C27 UNL     1      -0.513  52.523 -24.604  1.00  0.00     0.130 C 
HETATM   16  C28 UNL     1       0.984  52.233 -24.534  1.00  0.00     0.055 C 
HETATM   17  C29 UNL     1      -1.263  51.469 -25.421  1.00  0.00     0.179 C 
HETATM   18  O6  UNL     1      -0.833  50.967 -26.452  1.00  0.00    -0.293 OA
ENDROOT
BRANCH   7  19
HETATM   19  C12 UNL     1      -5.955  48.332 -23.452  1.00  0.00     0.143 C 
HETATM   20  C13 UNL     1      -6.794  47.507 -24.429  1.00  0.00     0.028 C 
BRANCH  19  21
HETATM   21  C14 UNL     1      -6.652  49.590 -22.938  1.00  0.00     0.139 C 
HETATM   22  O3  UNL     1      -6.519  50.680 -23.503  1.00  0.00    -0.297 OA
BRANCH  21  23
HETATM   23  C15 UNL     1      -7.388  49.540 -21.612  1.00  0.00     0.079 C 
BRANCH  23  24
HETATM   24  C16 UNL     1      -6.982  48.304 -20.814  1.00  0.00     0.008 C 
BRANCH  24  25
HETATM   25  C17 UNL     1      -8.162  47.379 -20.506  1.00  0.00     0.004 C 
BRANCH  25  26
HETATM   26  C18 UNL     1      -9.385  48.116 -19.951  1.00  0.00     0.027 C 
BRANCH  26  27
HETATM   27  C19 UNL     1      -9.052  48.805 -18.659  1.00  0.00    -0.031 C 
HETATM   28  C20 UNL     1      -9.384  48.431 -17.414  1.00  0.00    -0.035 C 
HETATM   29  C21 UNL     1     -10.181  47.238 -16.991  1.00  0.00     0.036 C 
ENDBRANCH  26  27
ENDBRANCH  25  26
ENDBRANCH  24  25
ENDBRANCH  23  24
ENDBRANCH  21  23
ENDBRANCH  19  21
ENDBRANCH   7  19
BRANCH   1  30
HETATM   30  C5  UNL     1       0.424  52.709 -20.795  1.00  0.00     0.037 C 
HETATM   31  C4  UNL     1       0.680  53.082 -19.526  1.00  0.00     0.002 C 
BRANCH  31  32
HETATM   32  C3  UNL     1       0.318  52.352 -18.332  1.00  0.00    -0.004 C 
HETATM   33  C2  UNL     1       1.062  52.227 -17.223  1.00  0.00    -0.031 C 
HETATM   34  C1  UNL     1       2.438  52.747 -16.956  1.00  0.00     0.036 C 
ENDBRANCH  31  32
ENDBRANCH   1  30
BRANCH   1  35
HETATM   35  O1  UNL     1       0.329  50.336 -20.583  1.00  0.00    -0.360 OA
HETATM   36  H8  UNL     1       0.880  50.637 -19.836  1.00  0.00     0.217 HD
ENDBRANCH   1  35
BRANCH  15  37
HETATM   37  O5  UNL     1      -0.709  53.805 -25.196  1.00  0.00    -0.381 OA
HETATM   38  H39 UNL     1      -0.156  53.867 -26.000  1.00  0.00     0.211 HD
ENDBRANCH  15  37
TORSDOF 11
ENDMDL
