MODEL 1
REMARK minimizedAffinity -6.49508905
REMARK CNNscore 0.840782344
REMARK CNNaffinity 7.16444397
REMARK  7 active torsions:
REMARK  status: ('A' for Active; 'I' for Inactive)
REMARK    1  A    between atoms: C2_2  and  C4_4 
REMARK    2  A    between atoms: C4_4  and  C6_6 
REMARK    3  A    between atoms: C6_6  and  O1_7 
REMARK    4  A    between atoms: C6_6  and  C7_8 
REMARK    5  A    between atoms: C7_8  and  C8_9 
REMARK    6  A    between atoms: C8_9  and  C10_11 
REMARK    7  A    between atoms: C16_17  and  O2_18 
ROOT
HETATM    1  C10 UNL     1     -14.100 -13.117  29.380  1.00  0.00    -0.002 C 
HETATM    2  C11 UNL     1     -13.235 -13.322  30.656  1.00  0.00     0.006 C 
HETATM    3  C12 UNL     1     -12.965 -11.937  31.263  1.00  0.00     0.011 C 
HETATM    4  C13 UNL     1     -13.930 -10.978  30.539  1.00  0.00    -0.030 C 
HETATM    5  C14 UNL     1     -15.301 -11.078  31.276  1.00  0.00     0.016 C 
HETATM    6  C15 UNL     1     -13.458  -9.492  30.483  1.00  0.00     0.032 C 
HETATM    7  C16 UNL     1     -13.513  -8.743  31.832  1.00  0.00     0.124 C 
HETATM    8  C17 UNL     1     -13.008  -7.308  31.681  1.00  0.00     0.038 C 
HETATM    9  C18 UNL     1     -13.980  -6.485  30.832  1.00  0.00     0.012 C 
HETATM   10  C19 UNL     1     -13.579  -4.985  30.660  1.00  0.00     0.018 C 
HETATM   11  C20 UNL     1     -13.519  -4.286  32.036  1.00  0.00     0.023 C 
HETATM   12  C21 UNL     1     -12.225  -4.776  29.964  1.00  0.00     0.023 C 
HETATM   13  C22 UNL     1     -14.661  -4.291  29.811  1.00  0.00     0.135 C 
HETATM   14  O3  UNL     1     -15.123  -3.185  30.100  1.00  0.00    -0.297 OA
HETATM   15  C23 UNL     1     -15.084  -4.972  28.528  1.00  0.00     0.080 C 
HETATM   16  C24 UNL     1     -15.455  -6.421  28.791  1.00  0.00     0.018 C 
HETATM   17  C25 UNL     1     -14.314  -7.150  29.488  1.00  0.00    -0.026 A 
HETATM   18  C26 UNL     1     -13.247  -7.732  28.599  1.00  0.00     0.021 A 
HETATM   19  C27 UNL     1     -14.159  -8.693  29.348  1.00  0.00    -0.025 A 
HETATM   20  C28 UNL     1     -15.229  -9.425  28.533  1.00  0.00     0.011 C 
HETATM   21  C29 UNL     1     -15.052 -10.932  28.288  1.00  0.00     0.011 C 
HETATM   22  C30 UNL     1     -13.924 -11.588  29.090  1.00  0.00    -0.032 C 
HETATM   23  C31 UNL     1     -12.587 -11.365  28.320  1.00  0.00     0.016 C 
ENDROOT
BRANCH   1  24
HETATM   24  C8  UNL     1     -13.771 -14.165  28.272  1.00  0.00    -0.011 C 
HETATM   25  C9  UNL     1     -14.855 -15.247  28.175  1.00  0.00     0.010 C 
BRANCH  24  26
HETATM   26  C7  UNL     1     -12.392 -14.845  28.538  1.00  0.00     0.037 C 
BRANCH  26  27
HETATM   27  C6  UNL     1     -11.356 -14.572  27.430  1.00  0.00     0.126 C 
BRANCH  27  28
HETATM   28  C4  UNL     1      -9.993 -15.302  27.611  1.00  0.00     0.038 C 
HETATM   29  C5  UNL     1      -9.672 -15.607  29.082  1.00  0.00     0.017 C 
BRANCH  28  30
HETATM   30  C2  UNL     1      -8.843 -14.631  26.861  1.00  0.00    -0.087 C 
HETATM   31  C1  UNL     1      -8.856 -13.305  26.637  1.00  0.00     0.014 C 
HETATM   32  C3  UNL     1      -7.708 -15.477  26.347  1.00  0.00     0.043 C 
ENDBRANCH  28  30
ENDBRANCH  27  28
BRANCH  27  33
HETATM   33  O1  UNL     1     -11.915 -14.926  26.162  1.00  0.00    -0.395 OA
HETATM   34  H11 UNL     1     -11.282 -14.653  25.477  1.00  0.00     0.210 HD
ENDBRANCH  27  33
ENDBRANCH  26  27
ENDBRANCH  24  26
ENDBRANCH   1  24
BRANCH   7  35
HETATM   35  O2  UNL     1     -12.702  -9.392  32.809  1.00  0.00    -0.395 OA
HETATM   36  H28 UNL     1     -11.787  -9.406  32.479  1.00  0.00     0.210 HD
ENDBRANCH   7  35
TORSDOF 7
ENDMDL
MODEL 2
REMARK minimizedAffinity -6.99970913
REMARK CNNscore 0.747416914
REMARK CNNaffinity 6.68678522
REMARK  7 active torsions:
REMARK  status: ('A' for Active; 'I' for Inactive)
REMARK    1  A    between atoms: C2_2  and  C4_4 
REMARK    2  A    between atoms: C4_4  and  C6_6 
REMARK    3  A    between atoms: C6_6  and  O1_7 
REMARK    4  A    between atoms: C6_6  and  C7_8 
REMARK    5  A    between atoms: C7_8  and  C8_9 
REMARK    6  A    between atoms: C8_9  and  C10_11 
REMARK    7  A    between atoms: C16_17  and  O2_18 
ROOT
HETATM    1  C10 UNL     1     -14.067   6.557  23.588  1.00  0.00    -0.002 C 
HETATM    2  C11 UNL     1     -14.424   6.795  25.083  1.00  0.00     0.006 C 
HETATM    3  C12 UNL     1     -13.977   8.218  25.448  1.00  0.00     0.011 C 
HETATM    4  C13 UNL     1     -13.666   8.907  24.105  1.00  0.00    -0.030 C 
HETATM    5  C14 UNL     1     -15.024   9.433  23.546  1.00  0.00     0.016 C 
HETATM    6  C15 UNL     1     -12.633  10.072  24.189  1.00  0.00     0.032 C 
HETATM    7  C16 UNL     1     -13.152  11.351  24.878  1.00  0.00     0.124 C 
HETATM    8  C17 UNL     1     -12.062  12.422  24.935  1.00  0.00     0.038 C 
HETATM    9  C18 UNL     1     -11.743  12.936  23.529  1.00  0.00     0.012 C 
HETATM   10  C19 UNL     1     -10.674  14.075  23.483  1.00  0.00     0.018 C 
HETATM   11  C20 UNL     1     -11.162  15.300  24.285  1.00  0.00     0.023 C 
HETATM   12  C21 UNL     1      -9.301  13.664  24.038  1.00  0.00     0.023 C 
HETATM   13  C22 UNL     1     -10.485  14.500  22.014  1.00  0.00     0.135 C 
HETATM   14  O3  UNL     1     -10.425  15.682  21.669  1.00  0.00    -0.297 OA
HETATM   15  C23 UNL     1     -10.270  13.405  20.994  1.00  0.00     0.080 C 
HETATM   16  C24 UNL     1     -11.355  12.347  21.112  1.00  0.00     0.018 C 
HETATM   17  C25 UNL     1     -11.428  11.809  22.534  1.00  0.00    -0.026 A 
HETATM   18  C26 UNL     1     -10.488  10.683  22.876  1.00  0.00     0.021 A 
HETATM   19  C27 UNL     1     -11.979  10.380  22.812  1.00  0.00    -0.025 A 
HETATM   20  C28 UNL     1     -12.482   9.585  21.603  1.00  0.00     0.011 C 
HETATM   21  C29 UNL     1     -12.936   8.134  21.826  1.00  0.00     0.011 C 
HETATM   22  C30 UNL     1     -13.049   7.710  23.293  1.00  0.00    -0.032 C 
HETATM   23  C31 UNL     1     -11.633   7.281  23.785  1.00  0.00     0.016 C 
ENDROOT
BRANCH   1  24
HETATM   24  C8  UNL     1     -13.670   5.074  23.307  1.00  0.00    -0.011 C 
HETATM   25  C9  UNL     1     -14.078   4.636  21.895  1.00  0.00     0.010 C 
BRANCH  24  26
HETATM   26  C7  UNL     1     -14.323   4.113  24.349  1.00  0.00     0.037 C 
BRANCH  26  27
HETATM   27  C6  UNL     1     -13.681   2.713  24.370  1.00  0.00     0.126 C 
BRANCH  27  28
HETATM   28  C4  UNL     1     -12.418   2.582  25.271  1.00  0.00     0.038 C 
HETATM   29  C5  UNL     1     -11.459   1.481  24.796  1.00  0.00     0.017 C 
BRANCH  28  30
HETATM   30  C2  UNL     1     -12.745   2.507  26.762  1.00  0.00    -0.087 C 
HETATM   31  C1  UNL     1     -13.566   3.409  27.328  1.00  0.00     0.014 C 
HETATM   32  C3  UNL     1     -12.111   1.427  27.600  1.00  0.00     0.043 C 
ENDBRANCH  28  30
ENDBRANCH  27  28
BRANCH  27  33
HETATM   33  O1  UNL     1     -14.656   1.752  24.784  1.00  0.00    -0.395 OA
HETATM   34  H11 UNL     1     -14.256   0.871  24.693  1.00  0.00     0.210 HD
ENDBRANCH  27  33
ENDBRANCH  26  27
ENDBRANCH  24  26
ENDBRANCH   1  24
BRANCH   7  35
HETATM   35  O2  UNL     1     -13.567  11.078  26.215  1.00  0.00    -0.395 OA
HETATM   36  H28 UNL     1     -12.801  10.731  26.702  1.00  0.00     0.210 HD
ENDBRANCH   7  35
TORSDOF 7
ENDMDL
MODEL 3
REMARK minimizedAffinity -9.23643303
REMARK CNNscore 0.678526938
REMARK CNNaffinity 7.36521482
REMARK  7 active torsions:
REMARK  status: ('A' for Active; 'I' for Inactive)
REMARK    1  A    between atoms: C2_2  and  C4_4 
REMARK    2  A    between atoms: C4_4  and  C6_6 
REMARK    3  A    between atoms: C6_6  and  O1_7 
REMARK    4  A    between atoms: C6_6  and  C7_8 
REMARK    5  A    between atoms: C7_8  and  C8_9 
REMARK    6  A    between atoms: C8_9  and  C10_11 
REMARK    7  A    between atoms: C16_17  and  O2_18 
ROOT
HETATM    1  C10 UNL     1       1.130   7.040  13.261  1.00  0.00    -0.002 C 
HETATM    2  C11 UNL     1       1.066   7.903  14.553  1.00  0.00     0.006 C 
HETATM    3  C12 UNL     1      -0.347   7.762  15.139  1.00  0.00     0.011 C 
HETATM    4  C13 UNL     1      -0.988   6.582  14.382  1.00  0.00    -0.030 C 
HETATM    5  C14 UNL     1      -0.516   5.279  15.100  1.00  0.00     0.016 C 
HETATM    6  C15 UNL     1      -2.545   6.619  14.306  1.00  0.00     0.032 C 
HETATM    7  C16 UNL     1      -3.266   6.329  15.639  1.00  0.00     0.124 C 
HETATM    8  C17 UNL     1      -4.784   6.415  15.470  1.00  0.00     0.038 C 
HETATM    9  C18 UNL     1      -5.289   5.269  14.590  1.00  0.00     0.012 C 
HETATM   10  C19 UNL     1      -6.839   5.236  14.397  1.00  0.00     0.018 C 
HETATM   11  C20 UNL     1      -7.545   5.071  15.760  1.00  0.00     0.023 C 
HETATM   12  C21 UNL     1      -7.409   6.491  13.718  1.00  0.00     0.023 C 
HETATM   13  C22 UNL     1      -7.190   4.020  13.518  1.00  0.00     0.135 C 
HETATM   14  O3  UNL     1      -8.126   3.262  13.780  1.00  0.00    -0.297 OA
HETATM   15  C23 UNL     1      -6.401   3.831  12.242  1.00  0.00     0.080 C 
HETATM   16  C24 UNL     1      -4.909   3.875  12.527  1.00  0.00     0.018 C 
HETATM   17  C25 UNL     1      -4.539   5.161  13.254  1.00  0.00    -0.026 A 
HETATM   18  C26 UNL     1      -4.268   6.366  12.392  1.00  0.00     0.021 A 
HETATM   19  C27 UNL     1      -3.100   5.745  13.146  1.00  0.00    -0.025 A 
HETATM   20  C28 UNL     1      -2.085   4.939  12.328  1.00  0.00     0.011 C 
HETATM   21  C29 UNL     1      -0.686   5.536  12.114  1.00  0.00     0.011 C 
HETATM   22  C30 UNL     1      -0.383   6.787  12.945  1.00  0.00    -0.032 C 
HETATM   23  C31 UNL     1      -0.962   8.023  12.191  1.00  0.00     0.016 C 
ENDROOT
BRANCH   1  24
HETATM   24  C8  UNL     1       2.058   7.672  12.178  1.00  0.00    -0.011 C 
HETATM   25  C9  UNL     1       1.252   8.425  11.110  1.00  0.00     0.010 C 
BRANCH  24  26
HETATM   26  C7  UNL     1       2.931   6.581  11.484  1.00  0.00     0.037 C 
BRANCH  26  27
HETATM   27  C6  UNL     1       3.483   7.024  10.114  1.00  0.00     0.126 C 
BRANCH  27  28
HETATM   28  C4  UNL     1       2.687   6.499   8.884  1.00  0.00     0.038 C 
HETATM   29  C5  UNL     1       3.181   5.128   8.398  1.00  0.00     0.017 C 
BRANCH  28  30
HETATM   30  C2  UNL     1       2.552   7.532   7.766  1.00  0.00    -0.087 C 
HETATM   31  C1  UNL     1       3.102   8.752   7.893  1.00  0.00     0.014 C 
HETATM   32  C3  UNL     1       1.768   7.178   6.530  1.00  0.00     0.043 C 
ENDBRANCH  28  30
ENDBRANCH  27  28
BRANCH  27  33
HETATM   33  O1  UNL     1       3.537   8.452  10.066  1.00  0.00    -0.395 OA
HETATM   34  H11 UNL     1       3.979   8.700   9.237  1.00  0.00     0.210 HD
ENDBRANCH  27  33
ENDBRANCH  26  27
ENDBRANCH  24  26
ENDBRANCH   1  24
BRANCH   7  35
HETATM   35  O2  UNL     1      -2.885   7.271  16.641  1.00  0.00    -0.395 OA
HETATM   36  H28 UNL     1      -3.123   8.159  16.325  1.00  0.00     0.210 HD
ENDBRANCH   7  35
TORSDOF 7
ENDMDL
MODEL 4
REMARK minimizedAffinity -6.74116993
REMARK CNNscore 0.623720944
REMARK CNNaffinity 6.19401789
REMARK  7 active torsions:
REMARK  status: ('A' for Active; 'I' for Inactive)
REMARK    1  A    between atoms: C2_2  and  C4_4 
REMARK    2  A    between atoms: C4_4  and  C6_6 
REMARK    3  A    between atoms: C6_6  and  O1_7 
REMARK    4  A    between atoms: C6_6  and  C7_8 
REMARK    5  A    between atoms: C7_8  and  C8_9 
REMARK    6  A    between atoms: C8_9  and  C10_11 
REMARK    7  A    between atoms: C16_17  and  O2_18 
ROOT
HETATM    1  C10 UNL     1     -10.102  -6.850  -5.272  1.00  0.00    -0.002 C 
HETATM    2  C11 UNL     1      -8.967  -7.130  -6.298  1.00  0.00     0.006 C 
HETATM    3  C12 UNL     1      -8.014  -8.158  -5.671  1.00  0.00     0.011 C 
HETATM    4  C13 UNL     1      -8.760  -8.710  -4.440  1.00  0.00    -0.030 C 
HETATM    5  C14 UNL     1      -9.704  -9.839  -4.955  1.00  0.00     0.016 C 
HETATM    6  C15 UNL     1      -7.839  -9.256  -3.305  1.00  0.00     0.032 C 
HETATM    7  C16 UNL     1      -7.124 -10.583  -3.633  1.00  0.00     0.124 C 
HETATM    8  C17 UNL     1      -6.227 -11.022  -2.475  1.00  0.00     0.038 C 
HETATM    9  C18 UNL     1      -7.074 -11.419  -1.264  1.00  0.00     0.012 C 
HETATM   10  C19 UNL     1      -6.251 -11.934  -0.039  1.00  0.00     0.018 C 
HETATM   11  C20 UNL     1      -5.445 -13.192  -0.427  1.00  0.00     0.023 C 
HETATM   12  C21 UNL     1      -5.268 -10.899   0.531  1.00  0.00     0.023 C 
HETATM   13  C22 UNL     1      -7.240 -12.315   1.079  1.00  0.00     0.135 C 
HETATM   14  O3  UNL     1      -7.131 -13.355   1.733  1.00  0.00    -0.297 OA
HETATM   15  C23 UNL     1      -8.316 -11.314   1.431  1.00  0.00     0.080 C 
HETATM   16  C24 UNL     1      -9.062 -10.872   0.183  1.00  0.00     0.018 C 
HETATM   17  C25 UNL     1      -8.091 -10.340  -0.862  1.00  0.00    -0.026 A 
HETATM   18  C26 UNL     1      -7.710  -8.888  -0.748  1.00  0.00     0.021 A 
HETATM   19  C27 UNL     1      -8.566  -9.314  -1.932  1.00  0.00    -0.025 A 
HETATM   20  C28 UNL     1     -10.047  -8.921  -1.906  1.00  0.00     0.011 C 
HETATM   21  C29 UNL     1     -10.528  -7.834  -2.880  1.00  0.00     0.011 C 
HETATM   22  C30 UNL     1      -9.505  -7.417  -3.940  1.00  0.00    -0.032 C 
HETATM   23  C31 UNL     1      -8.557  -6.352  -3.309  1.00  0.00     0.016 C 
ENDROOT
BRANCH   1  24
HETATM   24  C8  UNL     1     -10.602  -5.374  -5.337  1.00  0.00    -0.011 C 
HETATM   25  C9  UNL     1     -12.099  -5.296  -5.666  1.00  0.00     0.010 C 
BRANCH  24  26
HETATM   26  C7  UNL     1      -9.802  -4.559  -6.400  1.00  0.00     0.037 C 
BRANCH  26  27
HETATM   27  C6  UNL     1      -9.395  -3.155  -5.910  1.00  0.00     0.126 C 
BRANCH  27  28
HETATM   28  C4  UNL     1     -10.519  -2.081  -5.985  1.00  0.00     0.038 C 
HETATM   29  C5  UNL     1     -11.156  -1.983  -7.378  1.00  0.00     0.017 C 
BRANCH  28  30
HETATM   30  C2  UNL     1     -10.102  -0.729  -5.407  1.00  0.00    -0.087 C 
HETATM   31  C1  UNL     1     -10.717  -0.232  -4.319  1.00  0.00     0.014 C 
HETATM   32  C3  UNL     1      -9.013   0.057  -6.089  1.00  0.00     0.043 C 
ENDBRANCH  28  30
ENDBRANCH  27  28
BRANCH  27  33
HETATM   33  O1  UNL     1      -8.917  -3.244  -4.565  1.00  0.00    -0.395 OA
HETATM   34  H11 UNL     1      -8.575  -2.368  -4.317  1.00  0.00     0.210 HD
ENDBRANCH  27  33
ENDBRANCH  26  27
ENDBRANCH  24  26
ENDBRANCH   1  24
BRANCH   7  35
HETATM   35  O2  UNL     1      -6.305 -10.448  -4.794  1.00  0.00    -0.395 OA
HETATM   36  H28 UNL     1      -5.646  -9.756  -4.617  1.00  0.00     0.210 HD
ENDBRANCH   7  35
TORSDOF 7
ENDMDL
MODEL 5
REMARK minimizedAffinity -6.62516451
REMARK CNNscore 0.587652802
REMARK CNNaffinity 6.28316259
REMARK  7 active torsions:
REMARK  status: ('A' for Active; 'I' for Inactive)
REMARK    1  A    between atoms: C2_2  and  C4_4 
REMARK    2  A    between atoms: C4_4  and  C6_6 
REMARK    3  A    between atoms: C6_6  and  O1_7 
REMARK    4  A    between atoms: C6_6  and  C7_8 
REMARK    5  A    between atoms: C7_8  and  C8_9 
REMARK    6  A    between atoms: C8_9  and  C10_11 
REMARK    7  A    between atoms: C16_17  and  O2_18 
ROOT
HETATM    1  C10 UNL     1      -1.177  11.082  17.305  1.00  0.00    -0.002 C 
HETATM    2  C11 UNL     1      -0.580  11.832  16.080  1.00  0.00     0.006 C 
HETATM    3  C12 UNL     1       0.820  12.328  16.473  1.00  0.00     0.011 C 
HETATM    4  C13 UNL     1       1.159  11.597  17.787  1.00  0.00    -0.030 C 
HETATM    5  C14 UNL     1       1.722  10.197  17.389  1.00  0.00     0.016 C 
HETATM    6  C15 UNL     1       2.172  12.341  18.709  1.00  0.00     0.032 C 
HETATM    7  C16 UNL     1       3.625  12.363  18.190  1.00  0.00     0.124 C 
HETATM    8  C17 UNL     1       4.536  13.136  19.146  1.00  0.00     0.038 C 
HETATM    9  C18 UNL     1       4.691  12.377  20.466  1.00  0.00     0.012 C 
HETATM   10  C19 UNL     1       5.647  13.060  21.496  1.00  0.00     0.018 C 
HETATM   11  C20 UNL     1       7.068  13.186  20.907  1.00  0.00     0.023 C 
HETATM   12  C21 UNL     1       5.192  14.461  21.935  1.00  0.00     0.023 C 
HETATM   13  C22 UNL     1       5.719  12.170  22.751  1.00  0.00     0.135 C 
HETATM   14  O3  UNL     1       6.782  11.911  23.320  1.00  0.00    -0.297 OA
HETATM   15  C23 UNL     1       4.412  11.689  23.341  1.00  0.00     0.080 C 
HETATM   16  C24 UNL     1       3.552  11.039  22.270  1.00  0.00     0.018 C 
HETATM   17  C25 UNL     1       3.346  11.989  21.098  1.00  0.00    -0.026 A 
HETATM   18  C26 UNL     1       2.209  12.969  21.219  1.00  0.00     0.021 A 
HETATM   19  C27 UNL     1       2.092  11.858  20.185  1.00  0.00    -0.025 A 
HETATM   20  C28 UNL     1       1.127  10.709  20.495  1.00  0.00     0.011 C 
HETATM   21  C29 UNL     1      -0.172  10.612  19.680  1.00  0.00     0.011 C 
HETATM   22  C30 UNL     1      -0.254  11.556  18.478  1.00  0.00    -0.032 C 
HETATM   23  C31 UNL     1      -0.744  12.947  18.985  1.00  0.00     0.016 C 
ENDROOT
BRANCH   1  24
HETATM   24  C8  UNL     1      -2.723  11.261  17.407  1.00  0.00    -0.011 C 
HETATM   25  C9  UNL     1      -3.309  10.462  18.579  1.00  0.00     0.010 C 
BRANCH  24  26
HETATM   26  C7  UNL     1      -3.426  10.821  16.086  1.00  0.00     0.037 C 
BRANCH  26  27
HETATM   27  C6  UNL     1      -3.946   9.371  16.127  1.00  0.00     0.126 C 
BRANCH  27  28
HETATM   28  C4  UNL     1      -4.890   8.977  14.954  1.00  0.00     0.038 C 
HETATM   29  C5  UNL     1      -6.199   8.336  15.434  1.00  0.00     0.017 C 
BRANCH  28  30
HETATM   30  C2  UNL     1      -4.188   8.184  13.853  1.00  0.00    -0.087 C 
HETATM   31  C1  UNL     1      -4.448   6.876  13.681  1.00  0.00     0.014 C 
HETATM   32  C3  UNL     1      -3.174   8.877  12.980  1.00  0.00     0.043 C 
ENDBRANCH  28  30
ENDBRANCH  27  28
BRANCH  27  33
HETATM   33  O1  UNL     1      -2.834   8.472  16.159  1.00  0.00    -0.395 OA
HETATM   34  H11 UNL     1      -3.187   7.575  16.285  1.00  0.00     0.210 HD
ENDBRANCH  27  33
ENDBRANCH  26  27
ENDBRANCH  24  26
ENDBRANCH   1  24
BRANCH   7  35
HETATM   35  O2  UNL     1       3.701  12.991  16.911  1.00  0.00    -0.395 OA
HETATM   36  H28 UNL     1       3.372  13.901  17.004  1.00  0.00     0.210 HD
ENDBRANCH   7  35
TORSDOF 7
ENDMDL
MODEL 6
REMARK minimizedAffinity -9.30735683
REMARK CNNscore 0.547708869
REMARK CNNaffinity 7.26386452
REMARK  7 active torsions:
REMARK  status: ('A' for Active; 'I' for Inactive)
REMARK    1  A    between atoms: C2_2  and  C4_4 
REMARK    2  A    between atoms: C4_4  and  C6_6 
REMARK    3  A    between atoms: C6_6  and  O1_7 
REMARK    4  A    between atoms: C6_6  and  C7_8 
REMARK    5  A    between atoms: C7_8  and  C8_9 
REMARK    6  A    between atoms: C8_9  and  C10_11 
REMARK    7  A    between atoms: C16_17  and  O2_18 
ROOT
HETATM    1  C10 UNL     1      -3.204   8.141  15.106  1.00  0.00    -0.002 C 
HETATM    2  C11 UNL     1      -2.163   7.914  16.239  1.00  0.00     0.006 C 
HETATM    3  C12 UNL     1      -0.772   7.861  15.590  1.00  0.00     0.011 C 
HETATM    4  C13 UNL     1      -0.971   8.375  14.151  1.00  0.00    -0.030 C 
HETATM    5  C14 UNL     1      -0.925   9.933  14.220  1.00  0.00     0.016 C 
HETATM    6  C15 UNL     1       0.072   7.852  13.117  1.00  0.00     0.032 C 
HETATM    7  C16 UNL     1       1.490   8.440  13.273  1.00  0.00     0.124 C 
HETATM    8  C17 UNL     1       2.445   7.848  12.235  1.00  0.00     0.038 C 
HETATM    9  C18 UNL     1       2.067   8.322  10.830  1.00  0.00     0.012 C 
HETATM   10  C19 UNL     1       3.017   7.813   9.698  1.00  0.00     0.018 C 
HETATM   11  C20 UNL     1       4.457   8.311   9.943  1.00  0.00     0.023 C 
HETATM   12  C21 UNL     1       3.062   6.283   9.563  1.00  0.00     0.023 C 
HETATM   13  C22 UNL     1       2.524   8.393   8.358  1.00  0.00     0.135 C 
HETATM   14  O3  UNL     1       3.291   8.878   7.524  1.00  0.00    -0.297 OA
HETATM   15  C23 UNL     1       1.051   8.260   8.040  1.00  0.00     0.080 C 
HETATM   16  C24 UNL     1       0.209   8.780   9.193  1.00  0.00     0.018 C 
HETATM   17  C25 UNL     1       0.588   8.083  10.492  1.00  0.00    -0.026 A 
HETATM   18  C26 UNL     1      -0.092   6.769  10.773  1.00  0.00     0.021 A 
HETATM   19  C27 UNL     1      -0.442   7.960  11.653  1.00  0.00    -0.025 A 
HETATM   20  C28 UNL     1      -1.810   8.615  11.438  1.00  0.00     0.011 C 
HETATM   21  C29 UNL     1      -2.885   8.425  12.519  1.00  0.00     0.011 C 
HETATM   22  C30 UNL     1      -2.389   7.781  13.817  1.00  0.00    -0.032 C 
HETATM   23  C31 UNL     1      -2.392   6.234  13.625  1.00  0.00     0.016 C 
ENDROOT
BRANCH   1  24
HETATM   24  C8  UNL     1      -4.557   7.422  15.399  1.00  0.00    -0.011 C 
HETATM   25  C9  UNL     1      -4.344   5.961  15.818  1.00  0.00     0.010 C 
BRANCH  24  26
HETATM   26  C7  UNL     1      -5.494   7.464  14.152  1.00  0.00     0.037 C 
BRANCH  26  27
HETATM   27  C6  UNL     1      -6.876   6.830  14.408  1.00  0.00     0.126 C 
BRANCH  27  28
HETATM   28  C4  UNL     1      -7.395   5.904  13.269  1.00  0.00     0.038 C 
HETATM   29  C5  UNL     1      -8.921   5.954  13.111  1.00  0.00     0.017 C 
BRANCH  28  30
HETATM   30  C2  UNL     1      -6.833   4.485  13.342  1.00  0.00    -0.087 C 
HETATM   31  C1  UNL     1      -7.553   3.493  13.895  1.00  0.00     0.014 C 
HETATM   32  C3  UNL     1      -5.449   4.214  12.814  1.00  0.00     0.043 C 
ENDBRANCH  28  30
ENDBRANCH  27  28
BRANCH  27  33
HETATM   33  O1  UNL     1      -6.839   6.095  15.634  1.00  0.00    -0.395 OA
HETATM   34  H11 UNL     1      -7.743   5.791  15.820  1.00  0.00     0.210 HD
ENDBRANCH  27  33
ENDBRANCH  26  27
ENDBRANCH  24  26
ENDBRANCH   1  24
BRANCH   7  35
HETATM   35  O2  UNL     1       2.021   8.157  14.567  1.00  0.00    -0.395 OA
HETATM   36  H28 UNL     1       2.053   7.191  14.673  1.00  0.00     0.210 HD
ENDBRANCH   7  35
TORSDOF 7
ENDMDL
MODEL 7
REMARK minimizedAffinity -9.36220932
REMARK CNNscore 0.488170326
REMARK CNNaffinity 7.17907095
REMARK  7 active torsions:
REMARK  status: ('A' for Active; 'I' for Inactive)
REMARK    1  A    between atoms: C2_2  and  C4_4 
REMARK    2  A    between atoms: C4_4  and  C6_6 
REMARK    3  A    between atoms: C6_6  and  O1_7 
REMARK    4  A    between atoms: C6_6  and  C7_8 
REMARK    5  A    between atoms: C7_8  and  C8_9 
REMARK    6  A    between atoms: C8_9  and  C10_11 
REMARK    7  A    between atoms: C16_17  and  O2_18 
ROOT
HETATM    1  C10 UNL     1      -4.589   6.385  14.708  1.00  0.00    -0.002 C 
HETATM    2  C11 UNL     1      -4.899   5.169  13.788  1.00  0.00     0.006 C 
HETATM    3  C12 UNL     1      -3.700   4.979  12.847  1.00  0.00     0.011 C 
HETATM    4  C13 UNL     1      -2.578   5.860  13.430  1.00  0.00    -0.030 C 
HETATM    5  C14 UNL     1      -1.885   5.023  14.549  1.00  0.00     0.016 C 
HETATM    6  C15 UNL     1      -1.521   6.348  12.393  1.00  0.00     0.032 C 
HETATM    7  C16 UNL     1      -0.571   5.251  11.870  1.00  0.00     0.124 C 
HETATM    8  C17 UNL     1       0.408   5.819  10.841  1.00  0.00     0.038 C 
HETATM    9  C18 UNL     1       1.389   6.783  11.513  1.00  0.00     0.012 C 
HETATM   10  C19 UNL     1       2.467   7.381  10.553  1.00  0.00     0.018 C 
HETATM   11  C20 UNL     1       3.327   6.253   9.944  1.00  0.00     0.023 C 
HETATM   12  C21 UNL     1       1.884   8.207   9.396  1.00  0.00     0.023 C 
HETATM   13  C22 UNL     1       3.388   8.302  11.377  1.00  0.00     0.135 C 
HETATM   14  O3  UNL     1       4.615   8.287  11.262  1.00  0.00    -0.297 OA
HETATM   15  C23 UNL     1       2.728   9.319  12.281  1.00  0.00     0.080 C 
HETATM   16  C24 UNL     1       1.699   8.649  13.176  1.00  0.00     0.018 C 
HETATM   17  C25 UNL     1       0.690   7.870  12.343  1.00  0.00    -0.026 A 
HETATM   18  C26 UNL     1      -0.485   8.647  11.812  1.00  0.00     0.021 A 
HETATM   19  C27 UNL     1      -0.743   7.600  12.887  1.00  0.00    -0.025 A 
HETATM   20  C28 UNL     1      -1.055   8.106  14.299  1.00  0.00     0.011 C 
HETATM   21  C29 UNL     1      -2.489   7.949  14.828  1.00  0.00     0.011 C 
HETATM   22  C30 UNL     1      -3.408   7.088  13.957  1.00  0.00    -0.032 C 
HETATM   23  C31 UNL     1      -3.986   7.988  12.822  1.00  0.00     0.016 C 
ENDROOT
BRANCH   1  24
HETATM   24  C8  UNL     1      -5.875   7.192  15.069  1.00  0.00    -0.011 C 
HETATM   25  C9  UNL     1      -5.540   8.624  15.507  1.00  0.00     0.010 C 
BRANCH  24  26
HETATM   26  C7  UNL     1      -6.679   6.485  16.203  1.00  0.00     0.037 C 
BRANCH  26  27
HETATM   27  C6  UNL     1      -8.077   6.014  15.756  1.00  0.00     0.126 C 
BRANCH  27  28
HETATM   28  C4  UNL     1      -8.488   6.449  14.319  1.00  0.00     0.038 C 
HETATM   29  C5  UNL     1      -9.860   7.135  14.274  1.00  0.00     0.017 C 
BRANCH  28  30
HETATM   30  C2  UNL     1      -8.326   5.338  13.282  1.00  0.00    -0.087 C 
HETATM   31  C1  UNL     1      -8.526   5.587  11.976  1.00  0.00     0.014 C 
HETATM   32  C3  UNL     1      -7.968   3.949  13.744  1.00  0.00     0.043 C 
ENDBRANCH  28  30
ENDBRANCH  27  28
BRANCH  27  33
HETATM   33  O1  UNL     1      -8.151   4.590  15.857  1.00  0.00    -0.395 OA
HETATM   34  H11 UNL     1      -9.068   4.331  15.666  1.00  0.00     0.210 HD
ENDBRANCH  27  33
ENDBRANCH  26  27
ENDBRANCH  24  26
ENDBRANCH   1  24
BRANCH   7  35
HETATM   35  O2  UNL     1      -1.302   4.199  11.242  1.00  0.00    -0.395 OA
HETATM   36  H28 UNL     1      -1.801   4.580  10.501  1.00  0.00     0.210 HD
ENDBRANCH   7  35
TORSDOF 7
ENDMDL
MODEL 8
REMARK minimizedAffinity -7.56970358
REMARK CNNscore 0.459708095
REMARK CNNaffinity 6.62321234
REMARK  7 active torsions:
REMARK  status: ('A' for Active; 'I' for Inactive)
REMARK    1  A    between atoms: C2_2  and  C4_4 
REMARK    2  A    between atoms: C4_4  and  C6_6 
REMARK    3  A    between atoms: C6_6  and  O1_7 
REMARK    4  A    between atoms: C6_6  and  C7_8 
REMARK    5  A    between atoms: C7_8  and  C8_9 
REMARK    6  A    between atoms: C8_9  and  C10_11 
REMARK    7  A    between atoms: C16_17  and  O2_18 
ROOT
HETATM    1  C10 UNL     1       0.032   6.982  12.823  1.00  0.00    -0.002 C 
HETATM    2  C11 UNL     1      -0.128   5.890  13.918  1.00  0.00     0.006 C 
HETATM    3  C12 UNL     1      -0.795   6.545  15.137  1.00  0.00     0.011 C 
HETATM    4  C13 UNL     1      -1.310   7.909  14.637  1.00  0.00    -0.030 C 
HETATM    5  C14 UNL     1      -2.695   7.648  13.968  1.00  0.00     0.016 C 
HETATM    6  C15 UNL     1      -1.444   9.004  15.740  1.00  0.00     0.032 C 
HETATM    7  C16 UNL     1      -2.601   8.782  16.736  1.00  0.00     0.124 C 
HETATM    8  C17 UNL     1      -2.634   9.888  17.792  1.00  0.00     0.038 C 
HETATM    9  C18 UNL     1      -3.028  11.223  17.154  1.00  0.00     0.012 C 
HETATM   10  C19 UNL     1      -3.141  12.412  18.161  1.00  0.00     0.018 C 
HETATM   11  C20 UNL     1      -4.220  12.113  19.224  1.00  0.00     0.023 C 
HETATM   12  C21 UNL     1      -1.830  12.735  18.894  1.00  0.00     0.023 C 
HETATM   13  C22 UNL     1      -3.568  13.668  17.377  1.00  0.00     0.135 C 
HETATM   14  O3  UNL     1      -4.440  14.439  17.784  1.00  0.00    -0.297 OA
HETATM   15  C23 UNL     1      -2.804  13.995  16.113  1.00  0.00     0.080 C 
HETATM   16  C24 UNL     1      -2.748  12.783  15.197  1.00  0.00     0.018 C 
HETATM   17  C25 UNL     1      -2.170  11.582  15.932  1.00  0.00    -0.026 A 
HETATM   18  C26 UNL     1      -0.668  11.463  15.949  1.00  0.00     0.021 A 
HETATM   19  C27 UNL     1      -1.460  10.441  15.146  1.00  0.00    -0.025 A 
HETATM   20  C28 UNL     1      -1.426  10.569  13.619  1.00  0.00     0.011 C 
HETATM   21  C29 UNL     1      -0.645   9.515  12.819  1.00  0.00     0.011 C 
HETATM   22  C30 UNL     1      -0.168   8.308  13.632  1.00  0.00    -0.032 C 
HETATM   23  C31 UNL     1       1.174   8.691  14.328  1.00  0.00     0.016 C 
ENDROOT
BRANCH   1  24
HETATM   24  C8  UNL     1       1.323   6.775  11.971  1.00  0.00    -0.011 C 
HETATM   25  C9  UNL     1       2.318   7.928  12.161  1.00  0.00     0.010 C 
BRANCH  24  26
HETATM   26  C7  UNL     1       0.977   6.643  10.455  1.00  0.00     0.037 C 
BRANCH  26  27
HETATM   27  C6  UNL     1       1.839   5.597   9.723  1.00  0.00     0.126 C 
BRANCH  27  28
HETATM   28  C4  UNL     1       3.062   6.176   8.952  1.00  0.00     0.038 C 
HETATM   29  C5  UNL     1       4.244   6.506   9.874  1.00  0.00     0.017 C 
BRANCH  28  30
HETATM   30  C2  UNL     1       2.692   7.313   8.001  1.00  0.00    -0.087 C 
HETATM   31  C1  UNL     1       3.125   8.565   8.231  1.00  0.00     0.014 C 
HETATM   32  C3  UNL     1       1.809   7.022   6.816  1.00  0.00     0.043 C 
ENDBRANCH  28  30
ENDBRANCH  27  28
BRANCH  27  33
HETATM   33  O1  UNL     1       2.295   4.619  10.662  1.00  0.00    -0.395 OA
HETATM   34  H11 UNL     1       2.750   3.922  10.161  1.00  0.00     0.210 HD
ENDBRANCH  27  33
ENDBRANCH  26  27
ENDBRANCH  24  26
ENDBRANCH   1  24
BRANCH   7  35
HETATM   35  O2  UNL     1      -2.458   7.535  17.415  1.00  0.00    -0.395 OA
HETATM   36  H28 UNL     1      -1.611   7.548  17.893  1.00  0.00     0.210 HD
ENDBRANCH   7  35
TORSDOF 7
ENDMDL
MODEL 9
REMARK minimizedAffinity -9.53404903
REMARK CNNscore 0.420348048
REMARK CNNaffinity 7.05223703
REMARK  7 active torsions:
REMARK  status: ('A' for Active; 'I' for Inactive)
REMARK    1  A    between atoms: C2_2  and  C4_4 
REMARK    2  A    between atoms: C4_4  and  C6_6 
REMARK    3  A    between atoms: C6_6  and  O1_7 
REMARK    4  A    between atoms: C6_6  and  C7_8 
REMARK    5  A    between atoms: C7_8  and  C8_9 
REMARK    6  A    between atoms: C8_9  and  C10_11 
REMARK    7  A    between atoms: C16_17  and  O2_18 
ROOT
HETATM    1  C10 UNL     1       0.684   5.873  12.068  1.00  0.00    -0.002 C 
HETATM    2  C11 UNL     1       0.773   4.360  11.720  1.00  0.00     0.006 C 
HETATM    3  C12 UNL     1      -0.637   3.767  11.852  1.00  0.00     0.011 C 
HETATM    4  C13 UNL     1      -1.583   4.979  11.954  1.00  0.00    -0.030 C 
HETATM    5  C14 UNL     1      -1.872   5.447  10.494  1.00  0.00     0.016 C 
HETATM    6  C15 UNL     1      -2.922   4.705  12.705  1.00  0.00     0.032 C 
HETATM    7  C16 UNL     1      -3.925   3.818  11.939  1.00  0.00     0.124 C 
HETATM    8  C17 UNL     1      -5.191   3.584  12.764  1.00  0.00     0.038 C 
HETATM    9  C18 UNL     1      -5.981   4.887  12.911  1.00  0.00     0.012 C 
HETATM   10  C19 UNL     1      -7.324   4.745  13.698  1.00  0.00     0.018 C 
HETATM   11  C20 UNL     1      -8.264   3.755  12.978  1.00  0.00     0.023 C 
HETATM   12  C21 UNL     1      -7.149   4.262  15.147  1.00  0.00     0.023 C 
HETATM   13  C22 UNL     1      -8.008   6.124  13.737  1.00  0.00     0.135 C 
HETATM   14  O3  UNL     1      -9.213   6.272  13.519  1.00  0.00    -0.297 OA
HETATM   15  C23 UNL     1      -7.167   7.309  14.153  1.00  0.00     0.080 C 
HETATM   16  C24 UNL     1      -5.887   7.368  13.336  1.00  0.00     0.018 C 
HETATM   17  C25 UNL     1      -5.127   6.052  13.434  1.00  0.00    -0.026 A 
HETATM   18  C26 UNL     1      -4.202   5.896  14.612  1.00  0.00     0.021 A 
HETATM   19  C27 UNL     1      -3.585   6.012  13.225  1.00  0.00    -0.025 A 
HETATM   20  C28 UNL     1      -2.900   7.335  12.869  1.00  0.00     0.011 C 
HETATM   21  C29 UNL     1      -1.368   7.353  12.758  1.00  0.00     0.011 C 
HETATM   22  C30 UNL     1      -0.701   5.975  12.793  1.00  0.00    -0.032 C 
HETATM   23  C31 UNL     1      -0.529   5.556  14.285  1.00  0.00     0.016 C 
ENDROOT
BRANCH   1  24
HETATM   24  C8  UNL     1       1.975   6.391  12.775  1.00  0.00    -0.011 C 
HETATM   25  C9  UNL     1       1.682   7.602  13.671  1.00  0.00     0.010 C 
BRANCH  24  26
HETATM   26  C7  UNL     1       3.066   6.780  11.731  1.00  0.00     0.037 C 
BRANCH  26  27
HETATM   27  C6  UNL     1       2.848   6.130  10.351  1.00  0.00     0.126 C 
BRANCH  27  28
HETATM   28  C4  UNL     1       3.117   7.063   9.134  1.00  0.00     0.038 C 
HETATM   29  C5  UNL     1       3.954   8.296   9.504  1.00  0.00     0.017 C 
BRANCH  28  30
HETATM   30  C2  UNL     1       1.856   7.397   8.339  1.00  0.00    -0.087 C 
HETATM   31  C1  UNL     1       1.814   7.198   7.010  1.00  0.00     0.014 C 
HETATM   32  C3  UNL     1       0.667   7.981   9.056  1.00  0.00     0.043 C 
ENDBRANCH  28  30
ENDBRANCH  27  28
BRANCH  27  33
HETATM   33  O1  UNL     1       3.669   4.965  10.242  1.00  0.00    -0.395 OA
HETATM   34  H11 UNL     1       3.439   4.521   9.408  1.00  0.00     0.210 HD
ENDBRANCH  27  33
ENDBRANCH  26  27
ENDBRANCH  24  26
ENDBRANCH   1  24
BRANCH   7  35
HETATM   35  O2  UNL     1      -3.356   2.544  11.642  1.00  0.00    -0.395 OA
HETATM   36  H28 UNL     1      -3.118   2.118  12.482  1.00  0.00     0.210 HD
ENDBRANCH   7  35
TORSDOF 7
ENDMDL
