MODEL 1
REMARK minimizedAffinity -10.0077324
REMARK  7 active torsions:
REMARK  status: ('A' for Active; 'I' for Inactive)
REMARK    1  A    between atoms: N1_2  and  C2_3 
REMARK    2  A    between atoms: C4_5  and  N4_34 
REMARK    3  A    between atoms: C5_7  and  N2_12 
REMARK    4  A    between atoms: C7_9  and  O2_10 
REMARK    5  A    between atoms: C18_24  and  O3_25 
REMARK    6  A    between atoms: C19_26  and  C20_27 
REMARK    7  A    between atoms: C27_35  and  C28_36 
ROOT
HETATM    1  C2  UNL     1      11.272  -3.784  33.245  1.00  0.00     0.257 C 
HETATM    2  C3  UNL     1      11.251  -4.655  31.982  1.00  0.00     0.092 C 
HETATM    3  C4  UNL     1      10.036  -5.590  31.941  1.00  0.00     0.234 C 
HETATM    4  O1  UNL     1       9.271  -5.617  33.143  1.00  0.00    -0.333 OA
HETATM    5  C5  UNL     1       8.859  -4.348  33.710  1.00  0.00     0.168 C 
HETATM    6  C6  UNL     1       8.888  -4.710  35.214  1.00  0.00     0.074 C 
HETATM    7  C7  UNL     1       9.864  -3.179  33.439  1.00  0.00     0.209 C 
ENDROOT
BRANCH   1   8
HETATM    8  N1  UNL     1      12.270  -2.697  33.170  1.00  0.00     0.086 N 
HETATM    9  C1  UNL     1      12.031  -1.755  32.087  1.00  0.00     0.307 C 
HETATM   10  H4  UNL     1      12.279  -2.201  34.065  1.00  0.00     0.316 HD
ENDBRANCH   1   8
BRANCH   7  11
HETATM   11  O2  UNL     1       9.570  -2.460  32.217  1.00  0.00    -0.384 OA
HETATM   12  C8  UNL     1       8.191  -2.149  32.071  1.00  0.00     0.202 C 
ENDBRANCH   7  11
BRANCH   3  13
HETATM   13  N4  UNL     1       9.170  -5.452  30.773  1.00  0.00    -0.316 N 
HETATM   14  C26 UNL     1       9.613  -5.473  29.459  1.00  0.00     0.048 A 
HETATM   15  C21 UNL     1       8.474  -5.459  28.634  1.00  0.00     0.004 A 
HETATM   16  C25 UNL     1      10.915  -5.515  28.931  1.00  0.00     0.030 A 
HETATM   17  C20 UNL     1       7.325  -5.423  29.485  1.00  0.00     0.021 A 
HETATM   18  C22 UNL     1       8.673  -5.484  27.236  1.00  0.00     0.014 A 
HETATM   19  C27 UNL     1       7.812  -5.398  30.783  1.00  0.00     0.077 A 
HETATM   20  C23 UNL     1       9.966  -5.522  26.705  1.00  0.00     0.001 A 
HETATM   21  C24 UNL     1      11.072  -5.538  27.544  1.00  0.00     0.002 A 
BRANCH  17  22
HETATM   22  C19 UNL     1       5.926  -5.404  29.394  1.00  0.00     0.037 A 
HETATM   23  C16 UNL     1       5.132  -6.376  28.737  1.00  0.00    -0.012 A 
HETATM   24  C15 UNL     1       5.693  -7.492  28.101  1.00  0.00     0.015 A 
HETATM   25  C17 UNL     1       3.690  -5.979  28.901  1.00  0.00     0.162 A 
HETATM   26  C14 UNL     1       5.225  -8.653  27.428  1.00  0.00     0.004 A 
HETATM   27  C28 UNL     1       7.068  -7.583  28.120  1.00  0.00     0.077 A 
HETATM   28  C9  UNL     1       6.345  -9.437  27.090  1.00  0.00     0.049 A 
HETATM   29  C13 UNL     1       3.930  -9.124  27.118  1.00  0.00     0.014 A 
HETATM   30  N2  UNL     1       7.480  -8.724  27.477  1.00  0.00    -0.308 N 
HETATM   31  C10 UNL     1       6.167 -10.701  26.494  1.00  0.00     0.030 A 
HETATM   32  C11 UNL     1       4.872 -11.143  26.200  1.00  0.00     0.002 A 
HETATM   33  C12 UNL     1       3.766 -10.363  26.498  1.00  0.00     0.001 A 
HETATM   34  N3  UNL     1       3.687  -4.710  29.686  1.00  0.00    -0.366 N 
HETATM   35  C18 UNL     1       4.943  -4.478  29.906  1.00  0.00     0.148 A 
ATOM     36  H3  UNL     1       2.884  -4.155  29.980  1.00  0.00     0.162 HD
BRANCH  35  37
HETATM   37  O3  UNL     1       5.306  -3.402  30.591  1.00  0.00    -0.346 OA
HETATM   38  H22 UNL     1       4.492  -2.928  30.830  1.00  0.00     0.219 HD
ENDBRANCH  35  37
ENDBRANCH  17  22
ENDBRANCH   3  13
TORSDOF 7
ENDMDL
MODEL 2
REMARK minimizedAffinity -9.90887833
REMARK  7 active torsions:
REMARK  status: ('A' for Active; 'I' for Inactive)
REMARK    1  A    between atoms: N1_2  and  C2_3 
REMARK    2  A    between atoms: C4_5  and  N4_34 
REMARK    3  A    between atoms: C5_7  and  N2_12 
REMARK    4  A    between atoms: C7_9  and  O2_10 
REMARK    5  A    between atoms: C18_24  and  O3_25 
REMARK    6  A    between atoms: C19_26  and  C20_27 
REMARK    7  A    between atoms: C27_35  and  C28_36 
ROOT
HETATM    1  C2  UNL     1      11.081  -3.767  33.268  1.00  0.00     0.257 C 
HETATM    2  C3  UNL     1      11.727  -4.617  32.167  1.00  0.00     0.092 C 
HETATM    3  C4  UNL     1      10.952  -5.915  31.904  1.00  0.00     0.234 C 
HETATM    4  O1  UNL     1       9.910  -6.180  32.840  1.00  0.00    -0.333 OA
HETATM    5  C5  UNL     1       8.958  -5.120  33.109  1.00  0.00     0.168 C 
HETATM    6  C6  UNL     1       8.645  -5.418  34.595  1.00  0.00     0.074 C 
HETATM    7  C7  UNL     1       9.564  -3.681  32.986  1.00  0.00     0.209 C 
ENDROOT
BRANCH   1   8
HETATM    8  N1  UNL     1      11.647  -2.404  33.339  1.00  0.00     0.086 N 
HETATM    9  C1  UNL     1      12.336  -2.120  34.589  1.00  0.00     0.307 C 
HETATM   10  H4  UNL     1      12.289  -2.277  32.553  1.00  0.00     0.316 HD
ENDBRANCH   1   8
BRANCH   7  11
HETATM   11  O2  UNL     1       9.439  -3.133  31.652  1.00  0.00    -0.384 OA
HETATM   12  C8  UNL     1       8.767  -1.881  31.624  1.00  0.00     0.202 C 
ENDBRANCH   7  11
BRANCH   3  13
HETATM   13  N4  UNL     1      10.486  -6.108  30.534  1.00  0.00    -0.316 N 
HETATM   14  C26 UNL     1      10.671  -5.198  29.504  1.00  0.00     0.048 A 
HETATM   15  C21 UNL     1      10.215  -5.807  28.321  1.00  0.00     0.004 A 
HETATM   16  C25 UNL     1      11.209  -3.899  29.514  1.00  0.00     0.030 A 
HETATM   17  C20 UNL     1       9.743  -7.114  28.663  1.00  0.00     0.021 A 
HETATM   18  C22 UNL     1      10.309  -5.068  27.122  1.00  0.00     0.014 A 
HETATM   19  C27 UNL     1       9.913  -7.235  30.033  1.00  0.00     0.077 A 
HETATM   20  C23 UNL     1      10.840  -3.774  27.126  1.00  0.00     0.001 A 
HETATM   21  C24 UNL     1      11.285  -3.200  28.309  1.00  0.00     0.002 A 
BRANCH  17  22
HETATM   22  C19 UNL     1       9.186  -8.244  28.048  1.00  0.00     0.037 A 
HETATM   23  C16 UNL     1       7.800  -8.493  27.887  1.00  0.00    -0.012 A 
HETATM   24  C15 UNL     1       6.823  -7.593  28.336  1.00  0.00     0.015 A 
HETATM   25  C17 UNL     1       7.650  -9.802  27.161  1.00  0.00     0.162 A 
HETATM   26  C14 UNL     1       5.407  -7.485  28.291  1.00  0.00     0.004 A 
HETATM   27  C28 UNL     1       7.278  -6.460  28.974  1.00  0.00     0.077 A 
HETATM   28  C9  UNL     1       5.050  -6.255  28.878  1.00  0.00     0.049 A 
HETATM   29  C13 UNL     1       4.399  -8.316  27.753  1.00  0.00     0.014 A 
HETATM   30  N2  UNL     1       6.223  -5.666  29.348  1.00  0.00    -0.308 N 
HETATM   31  C10 UNL     1       3.703  -5.842  28.882  1.00  0.00     0.030 A 
HETATM   32  C11 UNL     1       2.726  -6.685  28.341  1.00  0.00     0.002 A 
HETATM   33  C12 UNL     1       3.065  -7.912  27.791  1.00  0.00     0.001 A 
HETATM   34  N3  UNL     1       9.031 -10.311  26.915  1.00  0.00    -0.366 N 
HETATM   35  C18 UNL     1       9.794  -9.399  27.432  1.00  0.00     0.148 A 
ATOM     36  H3  UNL     1       9.310 -11.175  26.450  1.00  0.00     0.162 HD
BRANCH  35  37
HETATM   37  O3  UNL     1      11.113  -9.539  27.389  1.00  0.00    -0.346 OA
HETATM   38  H22 UNL     1      11.295 -10.380  26.938  1.00  0.00     0.219 HD
ENDBRANCH  35  37
ENDBRANCH  17  22
ENDBRANCH   3  13
TORSDOF 7
ENDMDL
MODEL 3
REMARK minimizedAffinity -9.60482311
REMARK  7 active torsions:
REMARK  status: ('A' for Active; 'I' for Inactive)
REMARK    1  A    between atoms: N1_2  and  C2_3 
REMARK    2  A    between atoms: C4_5  and  N4_34 
REMARK    3  A    between atoms: C5_7  and  N2_12 
REMARK    4  A    between atoms: C7_9  and  O2_10 
REMARK    5  A    between atoms: C18_24  and  O3_25 
REMARK    6  A    between atoms: C19_26  and  C20_27 
REMARK    7  A    between atoms: C27_35  and  C28_36 
ROOT
HETATM    1  C2  UNL     1       7.329 -10.456  26.967  1.00  0.00     0.257 C 
HETATM    2  C3  UNL     1       6.569  -9.454  27.844  1.00  0.00     0.092 C 
HETATM    3  C4  UNL     1       7.431  -8.916  28.993  1.00  0.00     0.234 C 
HETATM    4  O1  UNL     1       8.686  -9.573  29.147  1.00  0.00    -0.333 OA
HETATM    5  C5  UNL     1       9.522  -9.719  27.971  1.00  0.00     0.168 C 
HETATM    6  C6  UNL     1      10.205 -11.068  28.299  1.00  0.00     0.074 C 
HETATM    7  C7  UNL     1       8.714  -9.857  26.637  1.00  0.00     0.209 C 
ENDROOT
BRANCH   1   8
HETATM    8  N1  UNL     1       6.615 -10.769  25.712  1.00  0.00     0.086 N 
HETATM    9  C1  UNL     1       5.348 -10.068  25.567  1.00  0.00     0.307 C 
HETATM   10  H4  UNL     1       7.228 -10.543  24.924  1.00  0.00     0.316 HD
ENDBRANCH   1   8
BRANCH   7  11
HETATM   11  O2  UNL     1       8.455  -8.582  26.004  1.00  0.00    -0.384 OA
HETATM   12  C8  UNL     1       9.150  -8.415  24.776  1.00  0.00     0.202 C 
ENDBRANCH   7  11
BRANCH   3  13
HETATM   13  N4  UNL     1       7.592  -7.465  29.039  1.00  0.00    -0.316 N 
HETATM   14  C26 UNL     1       6.567  -6.568  29.298  1.00  0.00     0.048 A 
HETATM   15  C21 UNL     1       7.146  -5.289  29.400  1.00  0.00     0.004 A 
HETATM   16  C25 UNL     1       5.186  -6.776  29.463  1.00  0.00     0.030 A 
HETATM   17  C20 UNL     1       8.553  -5.436  29.189  1.00  0.00     0.021 A 
HETATM   18  C22 UNL     1       6.290  -4.200  29.671  1.00  0.00     0.014 A 
HETATM   19  C27 UNL     1       8.766  -6.785  28.951  1.00  0.00     0.077 A 
HETATM   20  C23 UNL     1       4.916  -4.400  29.832  1.00  0.00     0.001 A 
HETATM   21  C24 UNL     1       4.373  -5.673  29.730  1.00  0.00     0.002 A 
BRANCH  17  22
HETATM   22  C19 UNL     1       9.716  -4.653  29.152  1.00  0.00     0.037 A 
HETATM   23  C16 UNL     1      10.367  -4.095  30.280  1.00  0.00    -0.012 A 
HETATM   24  C15 UNL     1       9.895  -4.289  31.586  1.00  0.00     0.015 A 
HETATM   25  C17 UNL     1      11.580  -3.353  29.790  1.00  0.00     0.162 A 
HETATM   26  C14 UNL     1      10.307  -3.952  32.903  1.00  0.00     0.004 A 
HETATM   27  C28 UNL     1       8.740  -5.030  31.718  1.00  0.00     0.077 A 
HETATM   28  C9  UNL     1       9.396  -4.539  33.804  1.00  0.00     0.049 A 
HETATM   29  C13 UNL     1      11.412  -3.231  33.407  1.00  0.00     0.014 A 
HETATM   30  N2  UNL     1       8.401  -5.152  33.043  1.00  0.00    -0.308 N 
HETATM   31  C10 UNL     1       9.618  -4.446  35.191  1.00  0.00     0.030 A 
HETATM   32  C11 UNL     1      10.722  -3.726  35.662  1.00  0.00     0.002 A 
HETATM   33  C12 UNL     1      11.605  -3.117  34.783  1.00  0.00     0.001 A 
HETATM   34  N3  UNL     1      11.595  -3.501  28.305  1.00  0.00    -0.366 N 
HETATM   35  C18 UNL     1      10.547  -4.220  28.054  1.00  0.00     0.148 A 
ATOM     36  H3  UNL     1      12.273  -3.123  27.642  1.00  0.00     0.162 HD
BRANCH  35  37
HETATM   37  O3  UNL     1      10.253  -4.545  26.802  1.00  0.00    -0.346 OA
HETATM   38  H22 UNL     1      10.936  -4.148  26.237  1.00  0.00     0.219 HD
ENDBRANCH  35  37
ENDBRANCH  17  22
ENDBRANCH   3  13
TORSDOF 7
ENDMDL
MODEL 4
REMARK minimizedAffinity -9.20977116
REMARK  7 active torsions:
REMARK  status: ('A' for Active; 'I' for Inactive)
REMARK    1  A    between atoms: N1_2  and  C2_3 
REMARK    2  A    between atoms: C4_5  and  N4_34 
REMARK    3  A    between atoms: C5_7  and  N2_12 
REMARK    4  A    between atoms: C7_9  and  O2_10 
REMARK    5  A    between atoms: C18_24  and  O3_25 
REMARK    6  A    between atoms: C19_26  and  C20_27 
REMARK    7  A    between atoms: C27_35  and  C28_36 
ROOT
HETATM    1  C2  UNL     1      10.047  -3.582  33.554  1.00  0.00     0.257 C 
HETATM    2  C3  UNL     1       8.914  -4.039  32.625  1.00  0.00     0.092 C 
HETATM    3  C4  UNL     1       9.036  -3.435  31.220  1.00  0.00     0.234 C 
HETATM    4  O1  UNL     1      10.042  -2.435  31.092  1.00  0.00    -0.333 OA
HETATM    5  C5  UNL     1      11.372  -2.748  31.577  1.00  0.00     0.168 C 
HETATM    6  C6  UNL     1      11.819  -1.344  32.048  1.00  0.00     0.074 C 
HETATM    7  C7  UNL     1      11.385  -3.732  32.795  1.00  0.00     0.209 C 
ENDROOT
BRANCH   1   8
HETATM    8  N1  UNL     1      10.102  -4.360  34.809  1.00  0.00     0.086 N 
HETATM    9  C1  UNL     1       8.827  -4.440  35.506  1.00  0.00     0.307 C 
HETATM   10  H4  UNL     1      10.437  -5.302  34.592  1.00  0.00     0.316 HD
ENDBRANCH   1   8
BRANCH   7  11
HETATM   11  O2  UNL     1      11.459  -5.120  32.393  1.00  0.00    -0.384 OA
HETATM   12  C8  UNL     1      12.481  -5.370  31.437  1.00  0.00     0.202 C 
ENDBRANCH   7  11
BRANCH   3  13
HETATM   13  N4  UNL     1       9.111  -4.396  30.123  1.00  0.00    -0.316 N 
HETATM   14  C26 UNL     1       9.948  -4.272  29.025  1.00  0.00     0.048 A 
HETATM   15  C21 UNL     1       9.834  -5.457  28.276  1.00  0.00     0.004 A 
HETATM   16  C25 UNL     1      10.802  -3.224  28.636  1.00  0.00     0.030 A 
HETATM   17  C20 UNL     1       8.898  -6.304  28.949  1.00  0.00     0.021 A 
HETATM   18  C22 UNL     1      10.608  -5.570  27.101  1.00  0.00     0.014 A 
HETATM   19  C27 UNL     1       8.472  -5.594  30.061  1.00  0.00     0.077 A 
HETATM   20  C23 UNL     1      11.456  -4.530  26.707  1.00  0.00     0.001 A 
HETATM   21  C24 UNL     1      11.550  -3.372  27.468  1.00  0.00     0.002 A 
BRANCH  17  22
HETATM   22  C19 UNL     1       8.316  -7.573  28.817  1.00  0.00     0.037 A 
HETATM   23  C16 UNL     1       8.996  -8.808  28.963  1.00  0.00    -0.012 A 
HETATM   24  C15 UNL     1      10.361  -8.876  29.274  1.00  0.00     0.015 A 
HETATM   25  C17 UNL     1       7.993  -9.910  28.761  1.00  0.00     0.162 A 
HETATM   26  C14 UNL     1      11.317  -9.890  29.548  1.00  0.00     0.004 A 
HETATM   27  C28 UNL     1      11.023  -7.674  29.401  1.00  0.00     0.077 A 
HETATM   28  C9  UNL     1      12.534  -9.259  29.874  1.00  0.00     0.049 A 
HETATM   29  C13 UNL     1      11.234 -11.300  29.592  1.00  0.00     0.014 A 
HETATM   30  N2  UNL     1      12.342  -7.887  29.717  1.00  0.00    -0.308 N 
HETATM   31  C10 UNL     1      13.639 -10.029  30.286  1.00  0.00     0.030 A 
HETATM   32  C11 UNL     1      13.527 -11.424  30.321  1.00  0.00     0.002 A 
HETATM   33  C12 UNL     1      12.343 -12.055  29.970  1.00  0.00     0.001 A 
HETATM   34  N3  UNL     1       6.686  -9.248  28.477  1.00  0.00    -0.366 N 
HETATM   35  C18 UNL     1       6.962  -7.983  28.529  1.00  0.00     0.148 A 
ATOM     36  H3  UNL     1       5.786  -9.688  28.287  1.00  0.00     0.162 HD
BRANCH  35  37
HETATM   37  O3  UNL     1       6.006  -7.088  28.316  1.00  0.00    -0.346 OA
HETATM   38  H22 UNL     1       5.188  -7.582  28.140  1.00  0.00     0.219 HD
ENDBRANCH  35  37
ENDBRANCH  17  22
ENDBRANCH   3  13
TORSDOF 7
ENDMDL
MODEL 5
REMARK minimizedAffinity -9.08347702
REMARK  7 active torsions:
REMARK  status: ('A' for Active; 'I' for Inactive)
REMARK    1  A    between atoms: N1_2  and  C2_3 
REMARK    2  A    between atoms: C4_5  and  N4_34 
REMARK    3  A    between atoms: C5_7  and  N2_12 
REMARK    4  A    between atoms: C7_9  and  O2_10 
REMARK    5  A    between atoms: C18_24  and  O3_25 
REMARK    6  A    between atoms: C19_26  and  C20_27 
REMARK    7  A    between atoms: C27_35  and  C28_36 
ROOT
HETATM    1  C2  UNL     1      12.240  -6.863  26.301  1.00  0.00     0.257 C 
HETATM    2  C3  UNL     1      11.667  -5.696  27.115  1.00  0.00     0.092 C 
HETATM    3  C4  UNL     1      10.161  -5.514  26.891  1.00  0.00     0.234 C 
HETATM    4  O1  UNL     1       9.618  -6.317  25.847  1.00  0.00    -0.333 OA
HETATM    5  C5  UNL     1       9.915  -7.737  25.862  1.00  0.00     0.168 C 
HETATM    6  C6  UNL     1       9.949  -8.015  24.340  1.00  0.00     0.074 C 
HETATM    7  C7  UNL     1      11.310  -8.083  26.483  1.00  0.00     0.209 C 
ENDROOT
BRANCH   1   8
HETATM    8  N1  UNL     1      13.613  -7.224  26.711  1.00  0.00     0.086 N 
HETATM    9  C1  UNL     1      14.439  -7.721  25.621  1.00  0.00     0.307 C 
HETATM   10  H4  UNL     1      14.053  -6.401  27.131  1.00  0.00     0.316 HD
ENDBRANCH   1   8
BRANCH   7  11
HETATM   11  O2  UNL     1      11.244  -8.322  27.910  1.00  0.00    -0.384 OA
HETATM   12  C8  UNL     1      10.311  -9.334  28.264  1.00  0.00     0.202 C 
ENDBRANCH   7  11
BRANCH   3  13
HETATM   13  N4  UNL     1       9.329  -5.583  28.089  1.00  0.00    -0.316 N 
HETATM   14  C26 UNL     1       9.819  -5.705  29.381  1.00  0.00     0.048 A 
HETATM   15  C21 UNL     1       8.724  -5.590  30.256  1.00  0.00     0.004 A 
HETATM   16  C25 UNL     1      11.131  -5.894  29.850  1.00  0.00     0.030 A 
HETATM   17  C20 UNL     1       7.552  -5.399  29.458  1.00  0.00     0.021 A 
HETATM   18  C22 UNL     1       8.977  -5.675  31.642  1.00  0.00     0.014 A 
HETATM   19  C27 UNL     1       7.980  -5.425  28.139  1.00  0.00     0.077 A 
HETATM   20  C23 UNL     1      10.279  -5.867  32.115  1.00  0.00     0.001 A 
HETATM   21  C24 UNL     1      11.341  -5.975  31.227  1.00  0.00     0.002 A 
BRANCH  17  22
HETATM   22  C19 UNL     1       6.172  -5.207  29.612  1.00  0.00     0.037 A 
HETATM   23  C16 UNL     1       5.161  -6.055  29.097  1.00  0.00    -0.012 A 
HETATM   24  C15 UNL     1       5.460  -7.213  28.364  1.00  0.00     0.015 A 
HETATM   25  C17 UNL     1       3.831  -5.490  29.513  1.00  0.00     0.162 A 
HETATM   26  C14 UNL     1       4.741  -8.287  27.775  1.00  0.00     0.004 A 
HETATM   27  C28 UNL     1       6.795  -7.471  28.142  1.00  0.00     0.077 A 
HETATM   28  C9  UNL     1       5.679  -9.192  27.241  1.00  0.00     0.049 A 
HETATM   29  C13 UNL     1       3.363  -8.587  27.692  1.00  0.00     0.014 A 
HETATM   30  N2  UNL     1       6.944  -8.634  27.428  1.00  0.00    -0.308 N 
HETATM   31  C10 UNL     1       5.244 -10.406  26.675  1.00  0.00     0.030 A 
HETATM   32  C11 UNL     1       3.873 -10.679  26.609  1.00  0.00     0.002 A 
HETATM   33  C12 UNL     1       2.941  -9.778  27.102  1.00  0.00     0.001 A 
HETATM   34  N3  UNL     1       4.122  -4.253  30.296  1.00  0.00    -0.366 N 
HETATM   35  C18 UNL     1       5.416  -4.183  30.295  1.00  0.00     0.148 A 
ATOM     36  H3  UNL     1       3.457  -3.613  30.730  1.00  0.00     0.162 HD
BRANCH  35  37
HETATM   37  O3  UNL     1       6.024  -3.180  30.915  1.00  0.00    -0.346 OA
HETATM   38  H22 UNL     1       5.329  -2.618  31.295  1.00  0.00     0.219 HD
ENDBRANCH  35  37
ENDBRANCH  17  22
ENDBRANCH   3  13
TORSDOF 7
ENDMDL
MODEL 6
REMARK minimizedAffinity -9.04671764
REMARK  7 active torsions:
REMARK  status: ('A' for Active; 'I' for Inactive)
REMARK    1  A    between atoms: N1_2  and  C2_3 
REMARK    2  A    between atoms: C4_5  and  N4_34 
REMARK    3  A    between atoms: C5_7  and  N2_12 
REMARK    4  A    between atoms: C7_9  and  O2_10 
REMARK    5  A    between atoms: C18_24  and  O3_25 
REMARK    6  A    between atoms: C19_26  and  C20_27 
REMARK    7  A    between atoms: C27_35  and  C28_36 
ROOT
HETATM    1  C2  UNL     1      15.128 -10.319  30.837  1.00  0.00     0.257 C 
HETATM    2  C3  UNL     1      14.500  -8.969  30.469  1.00  0.00     0.092 C 
HETATM    3  C4  UNL     1      13.653  -9.050  29.192  1.00  0.00     0.234 C 
HETATM    4  O1  UNL     1      13.759 -10.286  28.491  1.00  0.00    -0.333 OA
HETATM    5  C5  UNL     1      13.574 -11.510  29.247  1.00  0.00     0.168 C 
HETATM    6  C6  UNL     1      14.540 -12.443  28.478  1.00  0.00     0.074 C 
HETATM    7  C7  UNL     1      14.034 -11.405  30.740  1.00  0.00     0.209 C 
ENDROOT
BRANCH   1   8
HETATM    8  N1  UNL     1      15.710 -10.324  32.195  1.00  0.00     0.086 N 
HETATM    9  C1  UNL     1      17.162 -10.225  32.212  1.00  0.00     0.307 C 
HETATM   10  H4  UNL     1      15.304  -9.548  32.725  1.00  0.00     0.316 HD
ENDBRANCH   1   8
BRANCH   7  11
HETATM   11  O2  UNL     1      12.971 -10.976  31.625  1.00  0.00    -0.384 OA
HETATM   12  C8  UNL     1      11.858 -11.860  31.630  1.00  0.00     0.202 C 
ENDBRANCH   7  11
BRANCH   3  13
HETATM   13  N4  UNL     1      12.257  -8.646  29.331  1.00  0.00    -0.316 N 
HETATM   14  C26 UNL     1      11.834  -7.469  29.931  1.00  0.00     0.048 A 
HETATM   15  C21 UNL     1      10.444  -7.377  29.738  1.00  0.00     0.004 A 
HETATM   16  C25 UNL     1      12.559  -6.477  30.614  1.00  0.00     0.030 A 
HETATM   17  C20 UNL     1      10.032  -8.536  29.007  1.00  0.00     0.021 A 
HETATM   18  C22 UNL     1       9.780  -6.246  30.260  1.00  0.00     0.014 A 
HETATM   19  C27 UNL     1      11.180  -9.288  28.805  1.00  0.00     0.077 A 
HETATM   20  C23 UNL     1      10.495  -5.257  30.944  1.00  0.00     0.001 A 
HETATM   21  C24 UNL     1      11.868  -5.373  31.117  1.00  0.00     0.002 A 
BRANCH  17  22
HETATM   22  C19 UNL     1       8.869  -9.103  28.467  1.00  0.00     0.037 A 
HETATM   23  C16 UNL     1       7.564  -8.563  28.578  1.00  0.00    -0.012 A 
HETATM   24  C15 UNL     1       7.308  -7.363  29.256  1.00  0.00     0.015 A 
HETATM   25  C17 UNL     1       6.625  -9.477  27.840  1.00  0.00     0.162 A 
HETATM   26  C14 UNL     1       6.188  -6.525  29.503  1.00  0.00     0.004 A 
HETATM   27  C28 UNL     1       8.392  -6.744  29.840  1.00  0.00     0.077 A 
HETATM   28  C9  UNL     1       6.644  -5.392  30.205  1.00  0.00     0.049 A 
HETATM   29  C13 UNL     1       4.825  -6.616  29.143  1.00  0.00     0.014 A 
HETATM   30  N2  UNL     1       8.003  -5.580  30.454  1.00  0.00    -0.308 N 
HETATM   31  C10 UNL     1       5.754  -4.340  30.500  1.00  0.00     0.030 A 
HETATM   32  C11 UNL     1       4.409  -4.457  30.130  1.00  0.00     0.002 A 
HETATM   33  C12 UNL     1       3.945  -5.584  29.468  1.00  0.00     0.001 A 
HETATM   34  N3  UNL     1       7.457 -10.591  27.297  1.00  0.00    -0.366 N 
HETATM   35  C18 UNL     1       8.657 -10.301  27.689  1.00  0.00     0.148 A 
ATOM     36  H3  UNL     1       7.151 -11.393  26.746  1.00  0.00     0.162 HD
BRANCH  35  37
HETATM   37  O3  UNL     1       9.667 -11.102  27.374  1.00  0.00    -0.346 OA
HETATM   38  H22 UNL     1       9.297 -11.837  26.859  1.00  0.00     0.219 HD
ENDBRANCH  35  37
ENDBRANCH  17  22
ENDBRANCH   3  13
TORSDOF 7
ENDMDL
MODEL 7
REMARK minimizedAffinity -8.9750576
REMARK  7 active torsions:
REMARK  status: ('A' for Active; 'I' for Inactive)
REMARK    1  A    between atoms: N1_2  and  C2_3 
REMARK    2  A    between atoms: C4_5  and  N4_34 
REMARK    3  A    between atoms: C5_7  and  N2_12 
REMARK    4  A    between atoms: C7_9  and  O2_10 
REMARK    5  A    between atoms: C18_24  and  O3_25 
REMARK    6  A    between atoms: C19_26  and  C20_27 
REMARK    7  A    between atoms: C27_35  and  C28_36 
ROOT
HETATM    1  C2  UNL     1       4.833  -7.858  28.028  1.00  0.00     0.257 C 
HETATM    2  C3  UNL     1       5.859  -7.633  29.146  1.00  0.00     0.092 C 
HETATM    3  C4  UNL     1       6.995  -8.663  29.107  1.00  0.00     0.234 C 
HETATM    4  O1  UNL     1       6.795  -9.729  28.184  1.00  0.00    -0.333 OA
HETATM    5  C5  UNL     1       6.436  -9.385  26.822  1.00  0.00     0.168 C 
HETATM    6  C6  UNL     1       5.539 -10.596  26.471  1.00  0.00     0.074 C 
HETATM    7  C7  UNL     1       5.599  -8.067  26.703  1.00  0.00     0.209 C 
ENDROOT
BRANCH   1   8
HETATM    8  N1  UNL     1       3.895  -6.725  27.882  1.00  0.00     0.086 N 
HETATM    9  C1  UNL     1       2.523  -7.050  28.241  1.00  0.00     0.307 C 
HETATM   10  H4  UNL     1       4.230  -5.950  28.459  1.00  0.00     0.316 HD
ENDBRANCH   1   8
BRANCH   7  11
HETATM   11  O2  UNL     1       6.426  -6.892  26.533  1.00  0.00    -0.384 OA
HETATM   12  C8  UNL     1       7.492  -7.087  25.613  1.00  0.00     0.202 C 
ENDBRANCH   7  11
BRANCH   3  13
HETATM   13  N4  UNL     1       8.343  -8.114  28.988  1.00  0.00    -0.316 N 
HETATM   14  C26 UNL     1       9.508  -8.858  29.102  1.00  0.00     0.048 A 
HETATM   15  C21 UNL     1      10.581  -8.006  28.782  1.00  0.00     0.004 A 
HETATM   16  C25 UNL     1       9.705 -10.207  29.448  1.00  0.00     0.030 A 
HETATM   17  C20 UNL     1      10.034  -6.720  28.474  1.00  0.00     0.021 A 
HETATM   18  C22 UNL     1      11.885  -8.546  28.822  1.00  0.00     0.014 A 
HETATM   19  C27 UNL     1       8.663  -6.840  28.638  1.00  0.00     0.077 A 
HETATM   20  C23 UNL     1      12.087  -9.886  29.168  1.00  0.00     0.001 A 
HETATM   21  C24 UNL     1      11.009 -10.704  29.477  1.00  0.00     0.002 A 
BRANCH  17  22
HETATM   22  C19 UNL     1      10.459  -5.444  28.080  1.00  0.00     0.037 A 
HETATM   23  C16 UNL     1      10.815  -4.389  28.956  1.00  0.00    -0.012 A 
HETATM   24  C15 UNL     1      10.781  -4.534  30.351  1.00  0.00     0.015 A 
HETATM   25  C17 UNL     1      11.227  -3.212  28.115  1.00  0.00     0.162 A 
HETATM   26  C14 UNL     1      11.116  -3.750  31.487  1.00  0.00     0.004 A 
HETATM   27  C28 UNL     1      10.353  -5.752  30.832  1.00  0.00     0.077 A 
HETATM   28  C9  UNL     1      10.913  -4.543  32.633  1.00  0.00     0.049 A 
HETATM   29  C13 UNL     1      11.622  -2.439  31.632  1.00  0.00     0.014 A 
HETATM   30  N2  UNL     1      10.383  -5.760  32.204  1.00  0.00    -0.308 N 
HETATM   31  C10 UNL     1      11.259  -4.047  33.905  1.00  0.00     0.030 A 
HETATM   32  C11 UNL     1      11.760  -2.744  34.019  1.00  0.00     0.002 A 
HETATM   33  C12 UNL     1      11.932  -1.945  32.899  1.00  0.00     0.001 A 
HETATM   34  N3  UNL     1      11.082  -3.638  26.692  1.00  0.00    -0.366 N 
HETATM   35  C18 UNL     1      10.661  -4.860  26.775  1.00  0.00     0.148 A 
ATOM     36  H3  UNL     1      11.271  -3.092  25.850  1.00  0.00     0.162 HD
BRANCH  35  37
HETATM   37  O3  UNL     1      10.421  -5.553  25.669  1.00  0.00    -0.346 OA
HETATM   38  H22 UNL     1      10.619  -4.969  24.919  1.00  0.00     0.219 HD
ENDBRANCH  35  37
ENDBRANCH  17  22
ENDBRANCH   3  13
TORSDOF 7
ENDMDL
MODEL 8
REMARK minimizedAffinity -8.95980644
REMARK  7 active torsions:
REMARK  status: ('A' for Active; 'I' for Inactive)
REMARK    1  A    between atoms: N1_2  and  C2_3 
REMARK    2  A    between atoms: C4_5  and  N4_34 
REMARK    3  A    between atoms: C5_7  and  N2_12 
REMARK    4  A    between atoms: C7_9  and  O2_10 
REMARK    5  A    between atoms: C18_24  and  O3_25 
REMARK    6  A    between atoms: C19_26  and  C20_27 
REMARK    7  A    between atoms: C27_35  and  C28_36 
ROOT
HETATM    1  C2  UNL     1       9.852  -2.818  32.852  1.00  0.00     0.257 C 
HETATM    2  C3  UNL     1      10.704  -3.387  31.710  1.00  0.00     0.092 C 
HETATM    3  C4  UNL     1      10.622  -4.917  31.630  1.00  0.00     0.234 C 
HETATM    4  O1  UNL     1       9.942  -5.530  32.721  1.00  0.00    -0.333 OA
HETATM    5  C5  UNL     1       8.634  -5.015  33.078  1.00  0.00     0.168 C 
HETATM    6  C6  UNL     1       8.665  -5.254  34.606  1.00  0.00     0.074 C 
HETATM    7  C7  UNL     1       8.459  -3.485  32.796  1.00  0.00     0.209 C 
ENDROOT
BRANCH   1   8
HETATM    8  N1  UNL     1       9.700  -1.351  32.772  1.00  0.00     0.086 N 
HETATM    9  C1  UNL     1      10.508  -0.733  31.731  1.00  0.00     0.307 C 
HETATM   10  H4  UNL     1       8.712  -1.135  32.619  1.00  0.00     0.316 HD
ENDBRANCH   1   8
BRANCH   7  11
HETATM   11  O2  UNL     1       7.944  -3.215  31.470  1.00  0.00    -0.384 OA
HETATM   12  C8  UNL     1       6.903  -4.103  31.085  1.00  0.00     0.202 C 
ENDBRANCH   7  11
BRANCH   3  13
HETATM   13  N4  UNL     1      10.161  -5.460  30.355  1.00  0.00    -0.316 N 
HETATM   14  C26 UNL     1      10.467  -4.923  29.114  1.00  0.00     0.048 A 
HETATM   15  C21 UNL     1       9.965  -5.806  28.140  1.00  0.00     0.004 A 
HETATM   16  C25 UNL     1      11.152  -3.744  28.768  1.00  0.00     0.030 A 
HETATM   17  C20 UNL     1       9.339  -6.894  28.827  1.00  0.00     0.021 A 
HETATM   18  C22 UNL     1      10.165  -5.472  26.783  1.00  0.00     0.014 A 
HETATM   19  C27 UNL     1       9.470  -6.618  30.179  1.00  0.00     0.077 A 
HETATM   20  C23 UNL     1      10.841  -4.299  26.434  1.00  0.00     0.001 A 
HETATM   21  C24 UNL     1      11.328  -3.448  27.416  1.00  0.00     0.002 A 
BRANCH  17  22
HETATM   22  C19 UNL     1       8.667  -8.092  28.545  1.00  0.00     0.037 A 
HETATM   23  C16 UNL     1       9.279  -9.358  28.375  1.00  0.00    -0.012 A 
HETATM   24  C15 UNL     1      10.665  -9.537  28.485  1.00  0.00     0.015 A 
HETATM   25  C17 UNL     1       8.191 -10.362  28.111  1.00  0.00     0.162 A 
HETATM   26  C14 UNL     1      11.581 -10.622  28.443  1.00  0.00     0.004 A 
HETATM   27  C28 UNL     1      11.412  -8.408  28.740  1.00  0.00     0.077 A 
HETATM   28  C9  UNL     1      12.866 -10.112  28.715  1.00  0.00     0.049 A 
HETATM   29  C13 UNL     1      11.415 -12.010  28.242  1.00  0.00     0.014 A 
HETATM   30  N2  UNL     1      12.744  -8.728  28.836  1.00  0.00    -0.308 N 
HETATM   31  C10 UNL     1      13.962 -10.989  28.831  1.00  0.00     0.030 A 
HETATM   32  C11 UNL     1      13.767 -12.360  28.628  1.00  0.00     0.002 A 
HETATM   33  C12 UNL     1      12.512 -12.867  28.328  1.00  0.00     0.001 A 
HETATM   34  N3  UNL     1       6.904  -9.607  28.126  1.00  0.00    -0.366 N 
HETATM   35  C18 UNL     1       7.264  -8.386  28.369  1.00  0.00     0.148 A 
ATOM     36  H3  UNL     1       5.961  -9.968  27.979  1.00  0.00     0.162 HD
BRANCH  35  37
HETATM   37  O3  UNL     1       6.347  -7.430  28.449  1.00  0.00    -0.346 OA
HETATM   38  H22 UNL     1       5.485  -7.849  28.296  1.00  0.00     0.219 HD
ENDBRANCH  35  37
ENDBRANCH  17  22
ENDBRANCH   3  13
TORSDOF 7
ENDMDL
MODEL 9
REMARK minimizedAffinity -8.89402485
REMARK  7 active torsions:
REMARK  status: ('A' for Active; 'I' for Inactive)
REMARK    1  A    between atoms: N1_2  and  C2_3 
REMARK    2  A    between atoms: C4_5  and  N4_34 
REMARK    3  A    between atoms: C5_7  and  N2_12 
REMARK    4  A    between atoms: C7_9  and  O2_10 
REMARK    5  A    between atoms: C18_24  and  O3_25 
REMARK    6  A    between atoms: C19_26  and  C20_27 
REMARK    7  A    between atoms: C27_35  and  C28_36 
ROOT
HETATM    1  C2  UNL     1       9.144 -10.859  27.254  1.00  0.00     0.257 C 
HETATM    2  C3  UNL     1       8.860 -10.006  28.497  1.00  0.00     0.092 C 
HETATM    3  C4  UNL     1      10.060  -9.136  28.891  1.00  0.00     0.234 C 
HETATM    4  O1  UNL     1      11.255  -9.413  28.166  1.00  0.00    -0.333 OA
HETATM    5  C5  UNL     1      11.172  -9.458  26.719  1.00  0.00     0.168 C 
HETATM    6  C6  UNL     1      12.247 -10.532  26.427  1.00  0.00     0.074 C 
HETATM    7  C7  UNL     1       9.787  -9.952  26.181  1.00  0.00     0.209 C 
ENDROOT
BRANCH   1   8
HETATM    8  N1  UNL     1       7.924 -11.486  26.704  1.00  0.00     0.086 N 
HETATM    9  C1  UNL     1       8.183 -12.688  25.925  1.00  0.00     0.307 C 
HETATM   10  H4  UNL     1       7.294 -11.705  27.479  1.00  0.00     0.316 HD
ENDBRANCH   1   8
BRANCH   7  11
HETATM   11  O2  UNL     1       8.851  -8.868  25.966  1.00  0.00    -0.384 OA
HETATM   12  C8  UNL     1       8.615  -8.600  24.590  1.00  0.00     0.202 C 
ENDBRANCH   7  11
BRANCH   3  13
HETATM   13  N4  UNL     1       9.807  -7.699  28.952  1.00  0.00    -0.316 N 
HETATM   14  C26 UNL     1      10.466  -6.751  28.183  1.00  0.00     0.048 A 
HETATM   15  C21 UNL     1       9.844  -5.512  28.422  1.00  0.00     0.004 A 
HETATM   16  C25 UNL     1      11.546  -6.883  27.292  1.00  0.00     0.030 A 
HETATM   17  C20 UNL     1       8.790  -5.734  29.364  1.00  0.00     0.021 A 
HETATM   18  C22 UNL     1      10.341  -4.382  27.737  1.00  0.00     0.014 A 
HETATM   19  C27 UNL     1       8.828  -7.086  29.669  1.00  0.00     0.077 A 
HETATM   20  C23 UNL     1      11.417  -4.506  26.853  1.00  0.00     0.001 A 
HETATM   21  C24 UNL     1      12.010  -5.743  26.634  1.00  0.00     0.002 A 
BRANCH  17  22
HETATM   22  C19 UNL     1       7.786  -5.020  30.034  1.00  0.00     0.037 A 
HETATM   23  C16 UNL     1       6.392  -5.173  29.828  1.00  0.00    -0.012 A 
HETATM   24  C15 UNL     1       5.870  -6.093  28.908  1.00  0.00     0.015 A 
HETATM   25  C17 UNL     1       5.685  -4.233  30.765  1.00  0.00     0.162 A 
HETATM   26  C14 UNL     1       4.586  -6.544  28.502  1.00  0.00     0.004 A 
HETATM   27  C28 UNL     1       6.786  -6.826  28.185  1.00  0.00     0.077 A 
HETATM   28  C9  UNL     1       4.770  -7.576  27.561  1.00  0.00     0.049 A 
HETATM   29  C13 UNL     1       3.276  -6.189  28.895  1.00  0.00     0.014 A 
HETATM   30  N2  UNL     1       6.142  -7.691  27.337  1.00  0.00    -0.308 N 
HETATM   31  C10 UNL     1       3.657  -8.277  27.057  1.00  0.00     0.030 A 
HETATM   32  C11 UNL     1       2.370  -7.904  27.465  1.00  0.00     0.002 A 
HETATM   33  C12 UNL     1       2.179  -6.868  28.365  1.00  0.00     0.001 A 
HETATM   34  N3  UNL     1       6.747  -3.511  31.525  1.00  0.00    -0.366 N 
HETATM   35  C18 UNL     1       7.851  -4.006  31.059  1.00  0.00     0.148 A 
ATOM     36  H3  UNL     1       6.631  -2.796  32.243  1.00  0.00     0.162 HD
BRANCH  35  37
HETATM   37  O3  UNL     1       9.016  -3.575  31.526  1.00  0.00    -0.346 OA
HETATM   38  H22 UNL     1       8.822  -2.900  32.196  1.00  0.00     0.219 HD
ENDBRANCH  35  37
ENDBRANCH  17  22
ENDBRANCH   3  13
TORSDOF 7
ENDMDL
