MODEL 1
REMARK minimizedAffinity -6.39307308
REMARK CNNscore 0.655125976
REMARK CNNaffinity 4.63190794
REMARK  11 active torsions:
REMARK  status: ('A' for Active; 'I' for Inactive)
REMARK    1  A    between atoms: C4_4  and  O1_5 
REMARK    2  A    between atoms: O1_5  and  C5_6 
REMARK    3  A    between atoms: C6_8  and  C7_9 
REMARK    4  A    between atoms: C7_9  and  O3_10 
REMARK    5  A    between atoms: C8_11  and  O4_12 
REMARK    6  A    between atoms: C9_13  and  O5_14 
REMARK    7  A    between atoms: C10_15  and  O6_16 
REMARK    8  A    between atoms: C15_21  and  O7_22 
REMARK    9  A    between atoms: C15_21  and  C16_23 
REMARK   10  A    between atoms: C17_24  and  C18_25 
REMARK   11  A    between atoms: C18_25  and  O8_27 
ROOT
HETATM    1  C1  UNL     1       1.778  51.945  -8.283  1.00  0.00     0.013 C 
HETATM    2  C2  UNL     1       1.990  53.459  -8.148  1.00  0.00     0.023 C 
HETATM    3  C3  UNL     1       0.693  54.244  -8.426  1.00  0.00     0.039 C 
HETATM    4  C4  UNL     1       0.388  54.469  -9.909  1.00  0.00     0.126 C 
HETATM    5  C11 UNL     1       1.595  55.083 -10.633  1.00  0.00     0.044 C 
HETATM    6  C12 UNL     1       2.944  54.332 -10.445  1.00  0.00    -0.010 C 
HETATM    7  C13 UNL     1       2.970  53.038 -11.296  1.00  0.00     0.018 C 
HETATM    8  C14 UNL     1       4.057  55.226 -11.067  1.00  0.00     0.018 C 
HETATM    9  C15 UNL     1       3.217  54.049  -8.914  1.00  0.00     0.086 C 
ENDROOT
BRANCH   4  10
HETATM   10  O1  UNL     1       0.031  53.271 -10.595  1.00  0.00    -0.353 OA
BRANCH  10  11
HETATM   11  C5  UNL     1      -1.327  53.229 -11.063  1.00  0.00     0.292 C 
HETATM   12  O2  UNL     1      -2.202  52.837 -10.009  1.00  0.00    -0.348 OA
HETATM   13  C6  UNL     1      -3.470  52.278 -10.417  1.00  0.00     0.179 C 
HETATM   14  C8  UNL     1      -3.845  52.556 -11.881  1.00  0.00     0.180 C 
HETATM   15  C9  UNL     1      -2.729  52.154 -12.856  1.00  0.00     0.183 C 
HETATM   16  C10 UNL     1      -1.343  52.205 -12.208  1.00  0.00     0.204 C 
BRANCH  13  17
HETATM   17  C7  UNL     1      -3.475  50.781 -10.078  1.00  0.00     0.198 C 
BRANCH  17  18
HETATM   18  O3  UNL     1      -4.743  50.426  -9.521  1.00  0.00    -0.398 OA
HETATM   19  H12 UNL     1      -4.941  51.112  -8.855  1.00  0.00     0.209 HD
ENDBRANCH  17  18
ENDBRANCH  13  17
BRANCH  14  20
HETATM   20  O4  UNL     1      -4.076  53.969 -12.032  1.00  0.00    -0.390 OA
HETATM   21  H14 UNL     1      -4.857  54.198 -11.495  1.00  0.00     0.210 HD
ENDBRANCH  14  20
BRANCH  15  22
HETATM   22  O5  UNL     1      -2.962  50.826 -13.347  1.00  0.00    -0.390 OA
HETATM   23  H16 UNL     1      -2.268  50.668 -14.018  1.00  0.00     0.210 HD
ENDBRANCH  15  22
BRANCH  16  24
HETATM   24  O6  UNL     1      -0.356  52.500 -13.210  1.00  0.00    -0.388 OA
HETATM   25  H18 UNL     1       0.458  52.705 -12.706  1.00  0.00     0.210 HD
ENDBRANCH  16  24
ENDBRANCH  10  11
ENDBRANCH   4  10
BRANCH   9  26
HETATM   26  O7  UNL     1       4.303  53.125  -8.787  1.00  0.00    -0.385 OA
HETATM   27  H27 UNL     1       5.084  53.537  -9.194  1.00  0.00     0.211 HD
ENDBRANCH   9  26
BRANCH   9  28
HETATM   28  C16 UNL     1       3.620  55.329  -8.173  1.00  0.00     0.010 C 
HETATM   29  C17 UNL     1       3.340  56.594  -8.544  1.00  0.00     0.003 C 
BRANCH  29  30
HETATM   30  C18 UNL     1       3.764  57.808  -7.772  1.00  0.00     0.136 C 
HETATM   31  C19 UNL     1       2.717  58.226  -6.750  1.00  0.00     0.043 C 
BRANCH  30  32
HETATM   32  O8  UNL     1       4.983  57.498  -7.106  1.00  0.00    -0.392 OA
HETATM   33  H34 UNL     1       4.790  56.810  -6.448  1.00  0.00     0.210 HD
ENDBRANCH  30  32
ENDBRANCH  29  30
ENDBRANCH   9  28
TORSDOF 11
ENDMDL
MODEL 2
REMARK minimizedAffinity -5.94485712
REMARK CNNscore 0.588920236
REMARK CNNaffinity 4.89303255
REMARK  11 active torsions:
REMARK  status: ('A' for Active; 'I' for Inactive)
REMARK    1  A    between atoms: C4_4  and  O1_5 
REMARK    2  A    between atoms: O1_5  and  C5_6 
REMARK    3  A    between atoms: C6_8  and  C7_9 
REMARK    4  A    between atoms: C7_9  and  O3_10 
REMARK    5  A    between atoms: C8_11  and  O4_12 
REMARK    6  A    between atoms: C9_13  and  O5_14 
REMARK    7  A    between atoms: C10_15  and  O6_16 
REMARK    8  A    between atoms: C15_21  and  O7_22 
REMARK    9  A    between atoms: C15_21  and  C16_23 
REMARK   10  A    between atoms: C17_24  and  C18_25 
REMARK   11  A    between atoms: C18_25  and  O8_27 
ROOT
HETATM    1  C1  UNL     1      -1.580  47.559 -21.497  1.00  0.00     0.013 C 
HETATM    2  C2  UNL     1      -1.616  48.895 -20.745  1.00  0.00     0.023 C 
HETATM    3  C3  UNL     1      -2.526  48.826 -19.502  1.00  0.00     0.039 C 
HETATM    4  C4  UNL     1      -4.019  49.006 -19.793  1.00  0.00     0.126 C 
HETATM    5  C11 UNL     1      -4.270  50.277 -20.618  1.00  0.00     0.044 C 
HETATM    6  C12 UNL     1      -3.425  50.414 -21.916  1.00  0.00    -0.010 C 
HETATM    7  C13 UNL     1      -3.969  49.474 -23.020  1.00  0.00     0.018 C 
HETATM    8  C14 UNL     1      -3.670  51.847 -22.473  1.00  0.00     0.018 C 
HETATM    9  C15 UNL     1      -1.893  50.163 -21.615  1.00  0.00     0.086 C 
ENDROOT
BRANCH   4  10
HETATM   10  O1  UNL     1      -4.587  47.907 -20.501  1.00  0.00    -0.353 OA
BRANCH  10  11
HETATM   11  C5  UNL     1      -5.852  47.454 -19.991  1.00  0.00     0.292 C 
HETATM   12  O2  UNL     1      -6.872  48.406 -20.281  1.00  0.00    -0.348 OA
HETATM   13  C6  UNL     1      -8.043  48.352 -19.438  1.00  0.00     0.179 C 
HETATM   14  C8  UNL     1      -8.188  47.050 -18.635  1.00  0.00     0.180 C 
HETATM   15  C9  UNL     1      -6.920  46.711 -17.836  1.00  0.00     0.183 C 
HETATM   16  C10 UNL     1      -5.657  47.293 -18.476  1.00  0.00     0.204 C 
BRANCH  13  17
HETATM   17  C7  UNL     1      -8.060  49.602 -18.547  1.00  0.00     0.198 C 
BRANCH  17  18
HETATM   18  O3  UNL     1      -8.963  49.394 -17.458  1.00  0.00    -0.398 OA
HETATM   19  H12 UNL     1      -9.776  49.024 -17.854  1.00  0.00     0.209 HD
ENDBRANCH  17  18
ENDBRANCH  13  17
BRANCH  14  20
HETATM   20  O4  UNL     1      -8.431  45.970 -19.556  1.00  0.00    -0.390 OA
HETATM   21  H14 UNL     1      -9.294  46.135 -19.980  1.00  0.00     0.210 HD
ENDBRANCH  14  20
BRANCH  15  22
HETATM   22  O5  UNL     1      -7.036  47.215 -16.497  1.00  0.00    -0.390 OA
HETATM   23  H16 UNL     1      -6.240  46.895 -16.027  1.00  0.00     0.210 HD
ENDBRANCH  15  22
BRANCH  16  24
HETATM   24  O6  UNL     1      -4.532  46.457 -18.162  1.00  0.00    -0.388 OA
HETATM   25  H18 UNL     1      -3.814  46.772 -18.748  1.00  0.00     0.210 HD
ENDBRANCH  16  24
ENDBRANCH  10  11
ENDBRANCH   4  10
BRANCH   9  26
HETATM   26  O7  UNL     1      -1.184  50.016 -22.850  1.00  0.00    -0.385 OA
HETATM   27  H27 UNL     1      -1.294  50.843 -23.348  1.00  0.00     0.211 HD
ENDBRANCH   9  26
BRANCH   9  28
HETATM   28  C16 UNL     1      -1.270  51.349 -20.870  1.00  0.00     0.010 C 
HETATM   29  C17 UNL     1       0.045  51.610 -20.732  1.00  0.00     0.003 C 
BRANCH  29  30
HETATM   30  C18 UNL     1       0.592  52.792 -19.989  1.00  0.00     0.136 C 
HETATM   31  C19 UNL     1       1.060  53.890 -20.933  1.00  0.00     0.043 C 
BRANCH  30  32
HETATM   32  O8  UNL     1      -0.439  53.294 -19.147  1.00  0.00    -0.392 OA
HETATM   33  H34 UNL     1      -1.145  53.636 -19.721  1.00  0.00     0.210 HD
ENDBRANCH  30  32
ENDBRANCH  29  30
ENDBRANCH   9  28
TORSDOF 11
ENDMDL
MODEL 3
REMARK minimizedAffinity -6.41703796
REMARK CNNscore 0.498133242
REMARK CNNaffinity 4.97873163
REMARK  11 active torsions:
REMARK  status: ('A' for Active; 'I' for Inactive)
REMARK    1  A    between atoms: C4_4  and  O1_5 
REMARK    2  A    between atoms: O1_5  and  C5_6 
REMARK    3  A    between atoms: C6_8  and  C7_9 
REMARK    4  A    between atoms: C7_9  and  O3_10 
REMARK    5  A    between atoms: C8_11  and  O4_12 
REMARK    6  A    between atoms: C9_13  and  O5_14 
REMARK    7  A    between atoms: C10_15  and  O6_16 
REMARK    8  A    between atoms: C15_21  and  O7_22 
REMARK    9  A    between atoms: C15_21  and  C16_23 
REMARK   10  A    between atoms: C17_24  and  C18_25 
REMARK   11  A    between atoms: C18_25  and  O8_27 
ROOT
HETATM    1  C1  UNL     1      -6.911  48.379 -31.182  1.00  0.00     0.013 C 
HETATM    2  C2  UNL     1      -7.948  47.831 -32.171  1.00  0.00     0.023 C 
HETATM    3  C3  UNL     1      -9.346  47.726 -31.531  1.00  0.00     0.039 C 
HETATM    4  C4  UNL     1      -9.567  46.471 -30.681  1.00  0.00     0.126 C 
HETATM    5  C11 UNL     1      -9.198  45.202 -31.464  1.00  0.00     0.044 C 
HETATM    6  C12 UNL     1      -7.784  45.200 -32.112  1.00  0.00    -0.010 C 
HETATM    7  C13 UNL     1      -6.694  44.969 -31.037  1.00  0.00     0.018 C 
HETATM    8  C14 UNL     1      -7.700  43.941 -33.024  1.00  0.00     0.018 C 
HETATM    9  C15 UNL     1      -7.545  46.529 -32.935  1.00  0.00     0.086 C 
ENDROOT
BRANCH   4  10
HETATM   10  O1  UNL     1      -8.809  46.474 -29.473  1.00  0.00    -0.353 OA
BRANCH  10  11
HETATM   11  C5  UNL     1      -9.597  46.475 -28.271  1.00  0.00     0.292 C 
HETATM   12  O2  UNL     1     -10.825  45.785 -28.483  1.00  0.00    -0.348 OA
HETATM   13  C6  UNL     1     -11.900  46.117 -27.576  1.00  0.00     0.179 C 
HETATM   14  C8  UNL     1     -11.451  46.847 -26.300  1.00  0.00     0.180 C 
HETATM   15  C9  UNL     1     -10.588  48.080 -26.604  1.00  0.00     0.183 C 
HETATM   16  C10 UNL     1      -9.841  47.954 -27.935  1.00  0.00     0.204 C 
BRANCH  13  17
HETATM   17  C7  UNL     1     -12.972  46.892 -28.355  1.00  0.00     0.198 C 
BRANCH  17  18
HETATM   18  O3  UNL     1     -12.996  46.435 -29.709  1.00  0.00    -0.398 OA
HETATM   19  H12 UNL     1     -12.063  46.405 -29.996  1.00  0.00     0.209 HD
ENDBRANCH  17  18
ENDBRANCH  13  17
BRANCH  14  20
HETATM   20  O4  UNL     1     -10.661  45.938 -25.510  1.00  0.00    -0.390 OA
HETATM   21  H14 UNL     1     -11.245  45.211 -25.226  1.00  0.00     0.210 HD
ENDBRANCH  14  20
BRANCH  15  22
HETATM   22  O5  UNL     1     -11.411  49.255 -26.644  1.00  0.00    -0.390 OA
HETATM   23  H16 UNL     1     -10.793  50.005 -26.758  1.00  0.00     0.210 HD
ENDBRANCH  15  22
BRANCH  16  24
HETATM   24  O6  UNL     1      -8.616  48.702 -27.869  1.00  0.00    -0.388 OA
HETATM   25  H18 UNL     1      -8.111  48.426 -28.661  1.00  0.00     0.210 HD
ENDBRANCH  16  24
ENDBRANCH  10  11
ENDBRANCH   4  10
BRANCH   9  26
HETATM   26  O7  UNL     1      -6.159  46.630 -33.280  1.00  0.00    -0.385 OA
HETATM   27  H27 UNL     1      -5.938  45.857 -33.825  1.00  0.00     0.211 HD
ENDBRANCH   9  26
BRANCH   9  28
HETATM   28  C16 UNL     1      -8.341  46.526 -34.245  1.00  0.00     0.010 C 
HETATM   29  C17 UNL     1      -8.078  47.255 -35.347  1.00  0.00     0.003 C 
BRANCH  29  30
HETATM   30  C18 UNL     1      -8.899  47.206 -36.601  1.00  0.00     0.136 C 
HETATM   31  C19 UNL     1      -8.174  47.839 -37.780  1.00  0.00     0.043 C 
BRANCH  30  32
HETATM   32  O8  UNL     1      -9.175  45.840 -36.889  1.00  0.00    -0.392 OA
HETATM   33  H34 UNL     1      -8.331  45.409 -37.100  1.00  0.00     0.210 HD
ENDBRANCH  30  32
ENDBRANCH  29  30
ENDBRANCH   9  28
TORSDOF 11
ENDMDL
MODEL 4
REMARK minimizedAffinity -6.40597963
REMARK CNNscore 0.463888526
REMARK CNNaffinity 5.16410494
REMARK  11 active torsions:
REMARK  status: ('A' for Active; 'I' for Inactive)
REMARK    1  A    between atoms: C4_4  and  O1_5 
REMARK    2  A    between atoms: O1_5  and  C5_6 
REMARK    3  A    between atoms: C6_8  and  C7_9 
REMARK    4  A    between atoms: C7_9  and  O3_10 
REMARK    5  A    between atoms: C8_11  and  O4_12 
REMARK    6  A    between atoms: C9_13  and  O5_14 
REMARK    7  A    between atoms: C10_15  and  O6_16 
REMARK    8  A    between atoms: C15_21  and  O7_22 
REMARK    9  A    between atoms: C15_21  and  C16_23 
REMARK   10  A    between atoms: C17_24  and  C18_25 
REMARK   11  A    between atoms: C18_25  and  O8_27 
ROOT
HETATM    1  C1  UNL     1      -7.348  44.358 -29.333  1.00  0.00     0.013 C 
HETATM    2  C2  UNL     1      -7.107  45.803 -28.878  1.00  0.00     0.023 C 
HETATM    3  C3  UNL     1      -8.212  46.291 -27.920  1.00  0.00     0.039 C 
HETATM    4  C4  UNL     1      -9.489  46.775 -28.612  1.00  0.00     0.126 C 
HETATM    5  C11 UNL     1      -9.170  47.815 -29.696  1.00  0.00     0.044 C 
HETATM    6  C12 UNL     1      -8.094  47.393 -30.736  1.00  0.00    -0.010 C 
HETATM    7  C13 UNL     1      -8.684  46.379 -31.748  1.00  0.00     0.018 C 
HETATM    8  C14 UNL     1      -7.768  48.650 -31.594  1.00  0.00     0.018 C 
HETATM    9  C15 UNL     1      -6.803  46.836 -30.011  1.00  0.00     0.086 C 
ENDROOT
BRANCH   4  10
HETATM   10  O1  UNL     1     -10.228  45.720 -29.224  1.00  0.00    -0.353 OA
BRANCH  10  11
HETATM   11  C5  UNL     1     -11.636  45.731 -28.942  1.00  0.00     0.292 C 
HETATM   12  O2  UNL     1     -12.042  47.022 -28.497  1.00  0.00    -0.348 OA
HETATM   13  C6  UNL     1     -13.261  47.069 -27.723  1.00  0.00     0.179 C 
HETATM   14  C8  UNL     1     -14.132  45.807 -27.834  1.00  0.00     0.180 C 
HETATM   15  C9  UNL     1     -13.342  44.523 -27.538  1.00  0.00     0.183 C 
HETATM   16  C10 UNL     1     -11.850  44.673 -27.848  1.00  0.00     0.204 C 
BRANCH  13  17
HETATM   17  C7  UNL     1     -12.903  47.415 -26.271  1.00  0.00     0.198 C 
BRANCH  17  18
HETATM   18  O3  UNL     1     -14.045  47.196 -25.438  1.00  0.00    -0.398 OA
HETATM   19  H12 UNL     1     -14.796  47.611 -25.903  1.00  0.00     0.209 HD
ENDBRANCH  17  18
ENDBRANCH  13  17
BRANCH  14  20
HETATM   20  O4  UNL     1     -14.634  45.717 -29.180  1.00  0.00    -0.390 OA
HETATM   21  H14 UNL     1     -15.225  46.479 -29.325  1.00  0.00     0.210 HD
ENDBRANCH  14  20
BRANCH  15  22
HETATM   22  O5  UNL     1     -13.495  44.161 -26.158  1.00  0.00    -0.390 OA
HETATM   23  H16 UNL     1     -13.040  43.301 -26.061  1.00  0.00     0.210 HD
ENDBRANCH  15  22
BRANCH  16  24
HETATM   24  O6  UNL     1     -11.307  43.396 -28.218  1.00  0.00    -0.388 OA
HETATM   25  H18 UNL     1     -10.420  43.597 -28.580  1.00  0.00     0.210 HD
ENDBRANCH  16  24
ENDBRANCH  10  11
ENDBRANCH   4  10
BRANCH   9  26
HETATM   26  O7  UNL     1      -5.955  46.200 -30.973  1.00  0.00    -0.385 OA
HETATM   27  H27 UNL     1      -5.704  46.873 -31.628  1.00  0.00     0.211 HD
ENDBRANCH   9  26
BRANCH   9  28
HETATM   28  C16 UNL     1      -5.994  47.967 -29.366  1.00  0.00     0.010 C 
HETATM   29  C17 UNL     1      -5.068  47.839 -28.394  1.00  0.00     0.003 C 
BRANCH  29  30
HETATM   30  C18 UNL     1      -4.309  48.989 -27.803  1.00  0.00     0.136 C 
HETATM   31  C19 UNL     1      -3.134  48.519 -26.958  1.00  0.00     0.043 C 
BRANCH  30  32
HETATM   32  O8  UNL     1      -3.832  49.795 -28.875  1.00  0.00    -0.392 OA
HETATM   33  H34 UNL     1      -3.185  49.267 -29.373  1.00  0.00     0.210 HD
ENDBRANCH  30  32
ENDBRANCH  29  30
ENDBRANCH   9  28
TORSDOF 11
ENDMDL
MODEL 5
REMARK minimizedAffinity -7.04818296
REMARK CNNscore 0.458080977
REMARK CNNaffinity 5.03192186
REMARK  11 active torsions:
REMARK  status: ('A' for Active; 'I' for Inactive)
REMARK    1  A    between atoms: C4_4  and  O1_5 
REMARK    2  A    between atoms: O1_5  and  C5_6 
REMARK    3  A    between atoms: C6_8  and  C7_9 
REMARK    4  A    between atoms: C7_9  and  O3_10 
REMARK    5  A    between atoms: C8_11  and  O4_12 
REMARK    6  A    between atoms: C9_13  and  O5_14 
REMARK    7  A    between atoms: C10_15  and  O6_16 
REMARK    8  A    between atoms: C15_21  and  O7_22 
REMARK    9  A    between atoms: C15_21  and  C16_23 
REMARK   10  A    between atoms: C17_24  and  C18_25 
REMARK   11  A    between atoms: C18_25  and  O8_27 
ROOT
HETATM    1  C1  UNL     1      -6.772  45.161 -30.089  1.00  0.00     0.013 C 
HETATM    2  C2  UNL     1      -6.288  46.328 -30.960  1.00  0.00     0.023 C 
HETATM    3  C3  UNL     1      -6.449  47.682 -30.240  1.00  0.00     0.039 C 
HETATM    4  C4  UNL     1      -7.858  48.279 -30.311  1.00  0.00     0.126 C 
HETATM    5  C11 UNL     1      -8.360  48.337 -31.761  1.00  0.00     0.044 C 
HETATM    6  C12 UNL     1      -8.275  47.002 -32.556  1.00  0.00    -0.010 C 
HETATM    7  C13 UNL     1      -9.394  46.030 -32.106  1.00  0.00     0.018 C 
HETATM    8  C14 UNL     1      -8.621  47.329 -34.038  1.00  0.00     0.018 C 
HETATM    9  C15 UNL     1      -6.835  46.363 -32.423  1.00  0.00     0.086 C 
ENDROOT
BRANCH   4  10
HETATM   10  O1  UNL     1      -8.814  47.547 -29.547  1.00  0.00    -0.353 OA
BRANCH  10  11
HETATM   11  C5  UNL     1      -9.162  48.146 -28.289  1.00  0.00     0.292 C 
HETATM   12  O2  UNL     1      -8.338  47.626 -27.248  1.00  0.00    -0.348 OA
HETATM   13  C6  UNL     1      -8.868  47.737 -25.909  1.00  0.00     0.179 C 
HETATM   14  C8  UNL     1     -10.028  48.735 -25.766  1.00  0.00     0.180 C 
HETATM   15  C9  UNL     1     -11.151  48.477 -26.781  1.00  0.00     0.183 C 
HETATM   16  C10 UNL     1     -10.639  47.797 -28.054  1.00  0.00     0.204 C 
BRANCH  13  17
HETATM   17  C7  UNL     1      -9.233  46.331 -25.412  1.00  0.00     0.198 C 
BRANCH  17  18
HETATM   18  O3  UNL     1      -8.673  46.129 -24.112  1.00  0.00    -0.398 OA
HETATM   19  H12 UNL     1      -7.749  46.439 -24.170  1.00  0.00     0.209 HD
ENDBRANCH  17  18
ENDBRANCH  13  17
BRANCH  14  20
HETATM   20  O4  UNL     1      -9.518  50.062 -25.998  1.00  0.00    -0.390 OA
HETATM   21  H14 UNL     1      -8.886  50.263 -25.283  1.00  0.00     0.210 HD
ENDBRANCH  14  20
BRANCH  15  22
HETATM   22  O5  UNL     1     -12.165  47.652 -26.191  1.00  0.00    -0.390 OA
HETATM   23  H16 UNL     1     -12.880  47.597 -26.857  1.00  0.00     0.210 HD
ENDBRANCH  15  22
BRANCH  16  24
HETATM   24  O6  UNL     1     -11.467  48.177 -29.166  1.00  0.00    -0.388 OA
HETATM   25  H18 UNL     1     -10.979  47.870 -29.957  1.00  0.00     0.210 HD
ENDBRANCH  16  24
ENDBRANCH  10  11
ENDBRANCH   4  10
BRANCH   9  26
HETATM   26  O7  UNL     1      -6.864  45.020 -32.917  1.00  0.00    -0.385 OA
HETATM   27  H27 UNL     1      -7.126  45.060 -33.852  1.00  0.00     0.211 HD
ENDBRANCH   9  26
BRANCH   9  28
HETATM   28  C16 UNL     1      -5.804  47.133 -33.257  1.00  0.00     0.010 C 
HETATM   29  C17 UNL     1      -4.467  46.973 -33.228  1.00  0.00     0.003 C 
BRANCH  29  30
HETATM   30  C18 UNL     1      -3.509  47.761 -34.071  1.00  0.00     0.136 C 
HETATM   31  C19 UNL     1      -4.122  49.067 -34.556  1.00  0.00     0.043 C 
BRANCH  30  32
HETATM   32  O8  UNL     1      -2.358  48.038 -33.282  1.00  0.00    -0.392 OA
HETATM   33  H34 UNL     1      -2.633  48.627 -32.559  1.00  0.00     0.210 HD
ENDBRANCH  30  32
ENDBRANCH  29  30
ENDBRANCH   9  28
TORSDOF 11
ENDMDL
MODEL 6
REMARK minimizedAffinity -6.55761766
REMARK CNNscore 0.444822729
REMARK CNNaffinity 4.81418324
REMARK  11 active torsions:
REMARK  status: ('A' for Active; 'I' for Inactive)
REMARK    1  A    between atoms: C4_4  and  O1_5 
REMARK    2  A    between atoms: O1_5  and  C5_6 
REMARK    3  A    between atoms: C6_8  and  C7_9 
REMARK    4  A    between atoms: C7_9  and  O3_10 
REMARK    5  A    between atoms: C8_11  and  O4_12 
REMARK    6  A    between atoms: C9_13  and  O5_14 
REMARK    7  A    between atoms: C10_15  and  O6_16 
REMARK    8  A    between atoms: C15_21  and  O7_22 
REMARK    9  A    between atoms: C15_21  and  C16_23 
REMARK   10  A    between atoms: C17_24  and  C18_25 
REMARK   11  A    between atoms: C18_25  and  O8_27 
ROOT
HETATM    1  C1  UNL     1      -6.437  49.952 -21.479  1.00  0.00     0.013 C 
HETATM    2  C2  UNL     1      -5.120  50.464 -22.076  1.00  0.00     0.023 C 
HETATM    3  C3  UNL     1      -5.170  50.507 -23.616  1.00  0.00     0.039 C 
HETATM    4  C4  UNL     1      -4.901  49.165 -24.302  1.00  0.00     0.126 C 
HETATM    5  C11 UNL     1      -3.598  48.534 -23.788  1.00  0.00     0.044 C 
HETATM    6  C12 UNL     1      -3.476  48.409 -22.243  1.00  0.00    -0.010 C 
HETATM    7  C13 UNL     1      -4.357  47.248 -21.720  1.00  0.00     0.018 C 
HETATM    8  C14 UNL     1      -2.018  47.958 -21.934  1.00  0.00     0.018 C 
HETATM    9  C15 UNL     1      -3.817  49.785 -21.542  1.00  0.00     0.086 C 
ENDROOT
BRANCH   4  10
HETATM   10  O1  UNL     1      -5.949  48.218 -24.109  1.00  0.00    -0.353 OA
BRANCH  10  11
HETATM   11  C5  UNL     1      -7.178  48.538 -24.781  1.00  0.00     0.292 C 
HETATM   12  O2  UNL     1      -8.293  48.211 -23.956  1.00  0.00    -0.348 OA
HETATM   13  C6  UNL     1      -9.547  48.005 -24.644  1.00  0.00     0.179 C 
HETATM   14  C8  UNL     1      -9.581  48.549 -26.080  1.00  0.00     0.180 C 
HETATM   15  C9  UNL     1      -8.402  48.045 -26.925  1.00  0.00     0.183 C 
HETATM   16  C10 UNL     1      -7.177  47.704 -26.071  1.00  0.00     0.204 C 
BRANCH  13  17
HETATM   17  C7  UNL     1      -9.904  46.513 -24.568  1.00  0.00     0.198 C 
BRANCH  17  18
HETATM   18  O3  UNL     1     -10.182  46.163 -23.210  1.00  0.00    -0.398 OA
HETATM   19  H12 UNL     1      -9.460  46.554 -22.681  1.00  0.00     0.209 HD
ENDBRANCH  17  18
ENDBRANCH  13  17
BRANCH  14  20
HETATM   20  O4  UNL     1      -9.502  49.986 -26.025  1.00  0.00    -0.390 OA
HETATM   21  H14 UNL     1     -10.310  50.307 -25.585  1.00  0.00     0.210 HD
ENDBRANCH  14  20
BRANCH  15  22
HETATM   22  O5  UNL     1      -8.792  46.877 -27.662  1.00  0.00    -0.390 OA
HETATM   23  H16 UNL     1      -8.028  46.661 -28.235  1.00  0.00     0.210 HD
ENDBRANCH  15  22
BRANCH  16  24
HETATM   24  O6  UNL     1      -5.983  47.905 -26.843  1.00  0.00    -0.388 OA
HETATM   25  H18 UNL     1      -5.253  47.857 -26.192  1.00  0.00     0.210 HD
ENDBRANCH  16  24
ENDBRANCH  10  11
ENDBRANCH   4  10
BRANCH   9  26
HETATM   26  O7  UNL     1      -3.972  49.576 -20.135  1.00  0.00    -0.385 OA
HETATM   27  H27 UNL     1      -3.129  49.231 -19.797  1.00  0.00     0.211 HD
ENDBRANCH   9  26
BRANCH   9  28
HETATM   28  C16 UNL     1      -2.686  50.803 -21.730  1.00  0.00     0.010 C 
HETATM   29  C17 UNL     1      -1.802  51.203 -20.794  1.00  0.00     0.003 C 
BRANCH  29  30
HETATM   30  C18 UNL     1      -0.715  52.206 -21.042  1.00  0.00     0.136 C 
HETATM   31  C19 UNL     1      -0.182  52.797 -19.744  1.00  0.00     0.043 C 
BRANCH  30  32
HETATM   32  O8  UNL     1       0.339  51.545 -21.733  1.00  0.00    -0.392 OA
HETATM   33  H34 UNL     1       0.713  50.881 -21.131  1.00  0.00     0.210 HD
ENDBRANCH  30  32
ENDBRANCH  29  30
ENDBRANCH   9  28
TORSDOF 11
ENDMDL
MODEL 7
REMARK minimizedAffinity -6.21646309
REMARK CNNscore 0.434819162
REMARK CNNaffinity 4.78362083
REMARK  11 active torsions:
REMARK  status: ('A' for Active; 'I' for Inactive)
REMARK    1  A    between atoms: C4_4  and  O1_5 
REMARK    2  A    between atoms: O1_5  and  C5_6 
REMARK    3  A    between atoms: C6_8  and  C7_9 
REMARK    4  A    between atoms: C7_9  and  O3_10 
REMARK    5  A    between atoms: C8_11  and  O4_12 
REMARK    6  A    between atoms: C9_13  and  O5_14 
REMARK    7  A    between atoms: C10_15  and  O6_16 
REMARK    8  A    between atoms: C15_21  and  O7_22 
REMARK    9  A    between atoms: C15_21  and  C16_23 
REMARK   10  A    between atoms: C17_24  and  C18_25 
REMARK   11  A    between atoms: C18_25  and  O8_27 
ROOT
HETATM    1  C1  UNL     1      -8.268  43.684 -30.677  1.00  0.00     0.013 C 
HETATM    2  C2  UNL     1      -7.445  44.892 -31.143  1.00  0.00     0.023 C 
HETATM    3  C3  UNL     1      -7.676  46.122 -30.242  1.00  0.00     0.039 C 
HETATM    4  C4  UNL     1      -8.941  46.922 -30.565  1.00  0.00     0.126 C 
HETATM    5  C11 UNL     1      -8.998  47.285 -32.057  1.00  0.00     0.044 C 
HETATM    6  C12 UNL     1      -8.818  46.097 -33.045  1.00  0.00    -0.010 C 
HETATM    7  C13 UNL     1     -10.106  45.240 -33.106  1.00  0.00     0.018 C 
HETATM    8  C14 UNL     1      -8.690  46.705 -34.472  1.00  0.00     0.018 C 
HETATM    9  C15 UNL     1      -7.544  45.242 -32.663  1.00  0.00     0.086 C 
ENDROOT
BRANCH   4  10
HETATM   10  O1  UNL     1     -10.142  46.225 -30.240  1.00  0.00    -0.353 OA
BRANCH  10  11
HETATM   11  C5  UNL     1     -10.506  46.273 -28.851  1.00  0.00     0.292 C 
HETATM   12  O2  UNL     1     -11.612  45.411 -28.598  1.00  0.00    -0.348 OA
HETATM   13  C6  UNL     1     -12.389  45.711 -27.418  1.00  0.00     0.179 C 
HETATM   14  C8  UNL     1     -11.689  46.644 -26.417  1.00  0.00     0.180 C 
HETATM   15  C9  UNL     1     -11.173  47.930 -27.077  1.00  0.00     0.183 C 
HETATM   16  C10 UNL     1     -10.867  47.739 -28.565  1.00  0.00     0.204 C 
BRANCH  13  17
HETATM   17  C7  UNL     1     -13.761  46.242 -27.861  1.00  0.00     0.198 C 
BRANCH  17  18
HETATM   18  O3  UNL     1     -13.998  45.863 -29.219  1.00  0.00    -0.398 OA
HETATM   19  H12 UNL     1     -13.176  46.074 -29.701  1.00  0.00     0.209 HD
ENDBRANCH  17  18
ENDBRANCH  13  17
BRANCH  14  20
HETATM   20  O4  UNL     1     -10.558  45.948 -25.861  1.00  0.00    -0.390 OA
HETATM   21  H14 UNL     1     -10.900  45.192 -25.349  1.00  0.00     0.210 HD
ENDBRANCH  14  20
BRANCH  15  22
HETATM   22  O5  UNL     1     -12.145  48.977 -26.936  1.00  0.00    -0.390 OA
HETATM   23  H16 UNL     1     -11.722  49.779 -27.301  1.00  0.00     0.210 HD
ENDBRANCH  15  22
BRANCH  16  24
HETATM   24  O6  UNL     1      -9.820  48.640 -28.958  1.00  0.00    -0.388 OA
HETATM   25  H18 UNL     1      -9.548  48.335 -29.849  1.00  0.00     0.210 HD
ENDBRANCH  16  24
ENDBRANCH  10  11
ENDBRANCH   4  10
BRANCH   9  26
HETATM   26  O7  UNL     1      -7.558  44.014 -33.399  1.00  0.00    -0.385 OA
HETATM   27  H27 UNL     1      -7.535  44.242 -34.344  1.00  0.00     0.211 HD
ENDBRANCH   9  26
BRANCH   9  28
HETATM   28  C16 UNL     1      -6.248  45.977 -33.027  1.00  0.00     0.010 C 
HETATM   29  C17 UNL     1      -5.727  47.047 -32.395  1.00  0.00     0.003 C 
BRANCH  29  30
HETATM   30  C18 UNL     1      -4.451  47.722 -32.803  1.00  0.00     0.136 C 
HETATM   31  C19 UNL     1      -4.501  48.205 -34.246  1.00  0.00     0.043 C 
BRANCH  30  32
HETATM   32  O8  UNL     1      -4.248  48.832 -31.936  1.00  0.00    -0.392 OA
HETATM   33  H34 UNL     1      -4.961  49.470 -32.105  1.00  0.00     0.210 HD
ENDBRANCH  30  32
ENDBRANCH  29  30
ENDBRANCH   9  28
TORSDOF 11
ENDMDL
MODEL 8
REMARK minimizedAffinity -6.27211285
REMARK CNNscore 0.43018204
REMARK CNNaffinity 4.74510527
REMARK  11 active torsions:
REMARK  status: ('A' for Active; 'I' for Inactive)
REMARK    1  A    between atoms: C4_4  and  O1_5 
REMARK    2  A    between atoms: O1_5  and  C5_6 
REMARK    3  A    between atoms: C6_8  and  C7_9 
REMARK    4  A    between atoms: C7_9  and  O3_10 
REMARK    5  A    between atoms: C8_11  and  O4_12 
REMARK    6  A    between atoms: C9_13  and  O5_14 
REMARK    7  A    between atoms: C10_15  and  O6_16 
REMARK    8  A    between atoms: C15_21  and  O7_22 
REMARK    9  A    between atoms: C15_21  and  C16_23 
REMARK   10  A    between atoms: C17_24  and  C18_25 
REMARK   11  A    between atoms: C18_25  and  O8_27 
ROOT
HETATM    1  C1  UNL     1      -7.001  49.575 -22.455  1.00  0.00     0.013 C 
HETATM    2  C2  UNL     1      -5.810  49.222 -23.355  1.00  0.00     0.023 C 
HETATM    3  C3  UNL     1      -5.021  48.015 -22.812  1.00  0.00     0.039 C 
HETATM    4  C4  UNL     1      -4.020  48.353 -21.704  1.00  0.00     0.126 C 
HETATM    5  C11 UNL     1      -3.091  49.499 -22.131  1.00  0.00     0.044 C 
HETATM    6  C12 UNL     1      -3.801  50.779 -22.655  1.00  0.00    -0.010 C 
HETATM    7  C13 UNL     1      -4.410  51.583 -21.480  1.00  0.00     0.018 C 
HETATM    8  C14 UNL     1      -2.696  51.713 -23.230  1.00  0.00     0.018 C 
HETATM    9  C15 UNL     1      -4.877  50.411 -23.754  1.00  0.00     0.086 C 
ENDROOT
BRANCH   4  10
HETATM   10  O1  UNL     1      -4.646  48.732 -20.480  1.00  0.00    -0.353 OA
BRANCH  10  11
HETATM   11  C5  UNL     1      -5.036  47.634 -19.640  1.00  0.00     0.292 C 
HETATM   12  O2  UNL     1      -6.457  47.553 -19.559  1.00  0.00    -0.348 OA
HETATM   13  C6  UNL     1      -6.984  46.858 -18.408  1.00  0.00     0.179 C 
HETATM   14  C8  UNL     1      -5.959  45.982 -17.670  1.00  0.00     0.180 C 
HETATM   15  C9  UNL     1      -4.682  46.754 -17.308  1.00  0.00     0.183 C 
HETATM   16  C10 UNL     1      -4.416  47.920 -18.264  1.00  0.00     0.204 C 
BRANCH  13  17
HETATM   17  C7  UNL     1      -7.657  47.884 -17.485  1.00  0.00     0.198 C 
BRANCH  17  18
HETATM   18  O3  UNL     1      -7.831  47.310 -16.187  1.00  0.00    -0.398 OA
HETATM   19  H12 UNL     1      -8.204  46.420 -16.338  1.00  0.00     0.209 HD
ENDBRANCH  17  18
ENDBRANCH  13  17
BRANCH  14  20
HETATM   20  O4  UNL     1      -5.586  44.892 -18.534  1.00  0.00    -0.390 OA
HETATM   21  H14 UNL     1      -6.379  44.341 -18.671  1.00  0.00     0.210 HD
ENDBRANCH  14  20
BRANCH  15  22
HETATM   22  O5  UNL     1      -4.782  47.265 -15.971  1.00  0.00    -0.390 OA
HETATM   23  H16 UNL     1      -3.912  47.669 -15.779  1.00  0.00     0.210 HD
ENDBRANCH  15  22
BRANCH  16  24
HETATM   24  O6  UNL     1      -3.002  48.158 -18.347  1.00  0.00    -0.388 OA
HETATM   25  H18 UNL     1      -2.896  48.771 -19.104  1.00  0.00     0.210 HD
ENDBRANCH  16  24
ENDBRANCH  10  11
ENDBRANCH   4  10
BRANCH   9  26
HETATM   26  O7  UNL     1      -5.702  51.552 -24.012  1.00  0.00    -0.385 OA
HETATM   27  H27 UNL     1      -5.123  52.261 -24.338  1.00  0.00     0.211 HD
ENDBRANCH   9  26
BRANCH   9  28
HETATM   28  C16 UNL     1      -4.212  50.020 -25.078  1.00  0.00     0.010 C 
HETATM   29  C17 UNL     1      -4.155  48.785 -25.615  1.00  0.00     0.003 C 
BRANCH  29  30
HETATM   30  C18 UNL     1      -3.487  48.467 -26.919  1.00  0.00     0.136 C 
HETATM   31  C19 UNL     1      -4.497  48.249 -28.036  1.00  0.00     0.043 C 
BRANCH  30  32
HETATM   32  O8  UNL     1      -2.638  49.560 -27.252  1.00  0.00    -0.392 OA
HETATM   33  H34 UNL     1      -3.204  50.332 -27.417  1.00  0.00     0.210 HD
ENDBRANCH  30  32
ENDBRANCH  29  30
ENDBRANCH   9  28
TORSDOF 11
ENDMDL
MODEL 9
REMARK minimizedAffinity -6.51815176
REMARK CNNscore 0.424903989
REMARK CNNaffinity 4.77381039
REMARK  11 active torsions:
REMARK  status: ('A' for Active; 'I' for Inactive)
REMARK    1  A    between atoms: C4_4  and  O1_5 
REMARK    2  A    between atoms: O1_5  and  C5_6 
REMARK    3  A    between atoms: C6_8  and  C7_9 
REMARK    4  A    between atoms: C7_9  and  O3_10 
REMARK    5  A    between atoms: C8_11  and  O4_12 
REMARK    6  A    between atoms: C9_13  and  O5_14 
REMARK    7  A    between atoms: C10_15  and  O6_16 
REMARK    8  A    between atoms: C15_21  and  O7_22 
REMARK    9  A    between atoms: C15_21  and  C16_23 
REMARK   10  A    between atoms: C17_24  and  C18_25 
REMARK   11  A    between atoms: C18_25  and  O8_27 
ROOT
HETATM    1  C1  UNL     1      -7.898  45.054 -27.990  1.00  0.00     0.013 C 
HETATM    2  C2  UNL     1      -7.263  46.446 -27.876  1.00  0.00     0.023 C 
HETATM    3  C3  UNL     1      -8.166  47.424 -27.098  1.00  0.00     0.039 C 
HETATM    4  C4  UNL     1      -9.286  48.057 -27.929  1.00  0.00     0.126 C 
HETATM    5  C11 UNL     1      -8.730  48.690 -29.213  1.00  0.00     0.044 C 
HETATM    6  C12 UNL     1      -7.839  47.762 -30.087  1.00  0.00    -0.010 C 
HETATM    7  C13 UNL     1      -8.709  46.737 -30.855  1.00  0.00     0.018 C 
HETATM    8  C14 UNL     1      -7.211  48.649 -31.203  1.00  0.00     0.018 C 
HETATM    9  C15 UNL     1      -6.726  47.065 -29.207  1.00  0.00     0.086 C 
ENDROOT
BRANCH   4  10
HETATM   10  O1  UNL     1     -10.299  47.127 -28.304  1.00  0.00    -0.353 OA
BRANCH  10  11
HETATM   11  C5  UNL     1     -10.989  46.514 -27.203  1.00  0.00     0.292 C 
HETATM   12  O2  UNL     1     -11.479  45.230 -27.578  1.00  0.00    -0.348 OA
HETATM   13  C6  UNL     1     -12.579  44.720 -26.793  1.00  0.00     0.179 C 
HETATM   14  C8  UNL     1     -12.789  45.440 -25.451  1.00  0.00     0.180 C 
HETATM   15  C9  UNL     1     -12.890  46.963 -25.614  1.00  0.00     0.183 C 
HETATM   16  C10 UNL     1     -12.142  47.467 -26.852  1.00  0.00     0.204 C 
BRANCH  13  17
HETATM   17  C7  UNL     1     -13.842  44.718 -27.667  1.00  0.00     0.198 C 
BRANCH  17  18
HETATM   18  O3  UNL     1     -13.734  45.747 -28.654  1.00  0.00    -0.398 OA
HETATM   19  H12 UNL     1     -13.431  46.543 -28.177  1.00  0.00     0.209 HD
ENDBRANCH  17  18
ENDBRANCH  13  17
BRANCH  14  20
HETATM   20  O4  UNL     1     -11.660  45.160 -24.603  1.00  0.00    -0.390 OA
HETATM   21  H14 UNL     1     -11.666  44.204 -24.412  1.00  0.00     0.210 HD
ENDBRANCH  14  20
BRANCH  15  22
HETATM   22  O5  UNL     1     -14.267  47.355 -25.714  1.00  0.00    -0.390 OA
HETATM   23  H16 UNL     1     -14.261  48.333 -25.731  1.00  0.00     0.210 HD
ENDBRANCH  15  22
BRANCH  16  24
HETATM   24  O6  UNL     1     -11.683  48.809 -26.620  1.00  0.00    -0.388 OA
HETATM   25  H18 UNL     1     -11.063  48.991 -27.356  1.00  0.00     0.210 HD
ENDBRANCH  16  24
ENDBRANCH  10  11
ENDBRANCH   4  10
BRANCH   9  26
HETATM   26  O7  UNL     1      -6.108  46.018 -29.963  1.00  0.00    -0.385 OA
HETATM   27  H27 UNL     1      -5.705  46.425 -30.748  1.00  0.00     0.211 HD
ENDBRANCH   9  26
BRANCH   9  28
HETATM   28  C16 UNL     1      -5.623  48.055 -28.814  1.00  0.00     0.010 C 
HETATM   29  C17 UNL     1      -4.983  48.116 -27.630  1.00  0.00     0.003 C 
BRANCH  29  30
HETATM   30  C18 UNL     1      -3.909  49.112 -27.308  1.00  0.00     0.136 C 
HETATM   31  C19 UNL     1      -2.780  48.488 -26.500  1.00  0.00     0.043 C 
BRANCH  30  32
HETATM   32  O8  UNL     1      -3.395  49.613 -28.537  1.00  0.00    -0.392 OA
HETATM   33  H34 UNL     1      -2.955  48.876 -28.992  1.00  0.00     0.210 HD
ENDBRANCH  30  32
ENDBRANCH  29  30
ENDBRANCH   9  28
TORSDOF 11
ENDMDL
